MODEL 1
REMARK VINA RESULT:    -4.596      0.000      0.000
REMARK INTER + INTRA:         -16.620
REMARK INTER:                 -11.582
REMARK INTRA:                  -5.038
REMARK UNBOUND:                -5.038
REMARK SMILES CCCCCCCCCCCCCCCCCCCCCCCCCCCC(=O)[O-]
REMARK SMILES IDX 15 1 16 2 17 3 18 4 19 5 20 6 21 7 22 8 23 9 24 10 25 11
REMARK SMILES IDX 26 12 27 13 28 14 29 15 30 16 14 17 13 18 12 19 11 20 10 21
REMARK SMILES IDX 9 22 8 23 7 24 6 25 5 26 4 27 3 28 2 29 1 30
REMARK H PARENT
REMARK Flexibility Score: inf
ROOT
ATOM      1  C   UNL     1      -3.988   4.384  12.065  1.00  0.00     0.000 C 
ENDROOT
BRANCH   1   2
ATOM      2  C   UNL     1      -3.570   4.546  10.592  1.00  0.00     0.000 C 
BRANCH   2   3
ATOM      3  C   UNL     1      -3.436   3.198   9.861  1.00  0.00     0.000 C 
BRANCH   3   4
ATOM      4  C   UNL     1      -4.325   2.101  10.468  1.00  0.00     0.000 C 
BRANCH   4   5
ATOM      5  C   UNL     1      -3.624   0.735  10.524  1.00  0.00     0.000 C 
BRANCH   5   6
ATOM      6  C   UNL     1      -2.615   0.594   9.379  1.00  0.00     0.000 C 
BRANCH   6   7
ATOM      7  C   UNL     1      -2.774  -0.751   8.659  1.00  0.00     0.000 C 
BRANCH   7   8
ATOM      8  C   UNL     1      -4.192  -1.308   8.852  1.00  0.00     0.000 C 
BRANCH   8   9
ATOM      9  C   UNL     1      -4.210  -2.757   9.374  1.00  0.00     0.000 C 
BRANCH   9  10
ATOM     10  C   UNL     1      -2.859  -3.282   9.892  1.00  0.00     0.000 C 
BRANCH  10  11
ATOM     11  C   UNL     1      -2.793  -3.369  11.424  1.00  0.00     0.000 C 
BRANCH  11  12
ATOM     12  C   UNL     1      -1.373  -3.089  11.929  1.00  0.00     0.006 C 
BRANCH  12  13
ATOM     13  C   UNL     1      -1.177  -1.597  12.220  1.00  0.00     0.053 C 
BRANCH  13  14
ATOM     14  C   UNL     1      -0.078  -1.031  11.375  1.00  0.00     0.041 C 
ATOM     15  O   UNL     1       0.540  -1.769  10.562  1.00  0.00    -0.550 OA
ATOM     16  O   UNL     1       0.256   0.315  11.478  1.00  0.00    -0.550 OA
ENDBRANCH  13  14
ENDBRANCH  12  13
ENDBRANCH  11  12
ENDBRANCH  10  11
ENDBRANCH   9  10
ENDBRANCH   8   9
ENDBRANCH   7   8
ENDBRANCH   6   7
ENDBRANCH   5   6
ENDBRANCH   4   5
ENDBRANCH   3   4
ENDBRANCH   2   3
ENDBRANCH   1   2
BRANCH   1  17
ATOM     17  C   UNL     1      -3.042   5.052  13.085  1.00  0.00     0.000 C 
BRANCH  17  18
ATOM     18  C   UNL     1      -2.184   4.080  13.919  1.00  0.00     0.000 C 
BRANCH  18  19
ATOM     19  C   UNL     1      -1.759   2.793  13.190  1.00  0.00     0.000 C 
BRANCH  19  20
ATOM     20  C   UNL     1      -2.046   1.525  14.012  1.00  0.00     0.000 C 
BRANCH  20  21
ATOM     21  C   UNL     1      -3.324   1.635  14.862  1.00  0.00     0.000 C 
BRANCH  21  22
ATOM     22  C   UNL     1      -4.639   1.348  14.113  1.00  0.00    -0.000 C 
BRANCH  22  23
ATOM     23  C   UNL     1      -5.767   2.324  14.478  1.00  0.00    -0.000 C 
BRANCH  23  24
ATOM     24  C   UNL     1      -5.703   2.703  15.967  1.00  0.00    -0.000 C 
BRANCH  24  25
ATOM     25  C   UNL     1      -7.080   3.054  16.553  1.00  0.00    -0.000 C 
BRANCH  25  26
ATOM     26  C   UNL     1      -7.359   4.566  16.543  1.00  0.00    -0.000 C 
BRANCH  26  27
ATOM     27  C   UNL     1      -6.125   5.400  16.930  1.00  0.00    -0.000 C 
BRANCH  27  28
ATOM     28  C   UNL     1      -5.632   6.340  15.809  1.00  0.00    -0.000 C 
BRANCH  28  29
ATOM     29  C   UNL     1      -6.367   6.099  14.481  1.00  0.00    -0.003 C 
ATOM     30  C   UNL     1      -6.304   7.332  13.584  1.00  0.00     0.004 C 
ENDBRANCH  28  29
ENDBRANCH  27  28
ENDBRANCH  26  27
ENDBRANCH  25  26
ENDBRANCH  24  25
ENDBRANCH  23  24
ENDBRANCH  22  23
ENDBRANCH  21  22
ENDBRANCH  20  21
ENDBRANCH  19  20
ENDBRANCH  18  19
ENDBRANCH  17  18
ENDBRANCH   1  17
TORSDOF 26
ENDMDL
MODEL 2
REMARK VINA RESULT:    -4.498      2.918      7.644
REMARK INTER + INTRA:         -16.372
REMARK INTER:                 -11.094
REMARK INTRA:                  -5.278
REMARK UNBOUND:                -5.038
REMARK SMILES CCCCCCCCCCCCCCCCCCCCCCCCCCCC(=O)[O-]
REMARK SMILES IDX 15 1 16 2 17 3 18 4 19 5 20 6 21 7 22 8 23 9 24 10 25 11
REMARK SMILES IDX 26 12 27 13 28 14 29 15 30 16 14 17 13 18 12 19 11 20 10 21
REMARK SMILES IDX 9 22 8 23 7 24 6 25 5 26 4 27 3 28 2 29 1 30
REMARK H PARENT
REMARK Flexibility Score: inf
ROOT
ATOM      1  C   UNL     1      -2.972   1.604  10.239  1.00  0.00     0.000 C 
ENDROOT
BRANCH   1   2
ATOM      2  C   UNL     1      -4.368   1.487  10.876  1.00  0.00     0.000 C 
BRANCH   2   3
ATOM      3  C   UNL     1      -4.340   0.782  12.243  1.00  0.00     0.000 C 
BRANCH   3   4
ATOM      4  C   UNL     1      -5.340   1.384  13.243  1.00  0.00     0.000 C 
BRANCH   4   5
ATOM      5  C   UNL     1      -4.764   1.494  14.663  1.00  0.00     0.000 C 
BRANCH   5   6
ATOM      6  C   UNL     1      -3.241   1.662  14.621  1.00  0.00     0.000 C 
BRANCH   6   7
ATOM      7  C   UNL     1      -2.832   3.110  14.918  1.00  0.00     0.000 C 
BRANCH   7   8
ATOM      8  C   UNL     1      -2.217   3.768  13.674  1.00  0.00     0.000 C 
BRANCH   8   9
ATOM      9  C   UNL     1      -2.977   5.026  13.213  1.00  0.00     0.000 C 
BRANCH   9  10
ATOM     10  C   UNL     1      -4.505   4.866  13.116  1.00  0.00     0.000 C 
BRANCH  10  11
ATOM     11  C   UNL     1      -5.265   6.181  13.348  1.00  0.00     0.000 C 
BRANCH  11  12
ATOM     12  C   UNL     1      -6.500   5.953  14.227  1.00  0.00     0.006 C 
BRANCH  12  13
ATOM     13  C   UNL     1      -6.265   4.814  15.225  1.00  0.00     0.053 C 
BRANCH  13  14
ATOM     14  C   UNL     1      -7.453   3.907  15.286  1.00  0.00     0.041 C 
ATOM     15  O   UNL     1      -8.395   4.039  14.459  1.00  0.00    -0.550 OA
ATOM     16  O   UNL     1      -7.517   2.908  16.251  1.00  0.00    -0.550 OA
ENDBRANCH  13  14
ENDBRANCH  12  13
ENDBRANCH  11  12
ENDBRANCH  10  11
ENDBRANCH   9  10
ENDBRANCH   8   9
ENDBRANCH   7   8
ENDBRANCH   6   7
ENDBRANCH   5   6
ENDBRANCH   4   5
ENDBRANCH   3   4
ENDBRANCH   2   3
ENDBRANCH   1   2
BRANCH   1  17
ATOM     17  C   UNL     1      -2.696   0.608   9.092  1.00  0.00     0.000 C 
BRANCH  17  18
ATOM     18  C   UNL     1      -3.775  -0.475   8.888  1.00  0.00     0.000 C 
BRANCH  18  19
ATOM     19  C   UNL     1      -3.238  -1.871   8.526  1.00  0.00     0.000 C 
BRANCH  19  20
ATOM     20  C   UNL     1      -3.677  -2.952   9.530  1.00  0.00     0.000 C 
BRANCH  20  21
ATOM     21  C   UNL     1      -3.336  -2.594  10.987  1.00  0.00     0.000 C 
BRANCH  21  22
ATOM     22  C   UNL     1      -2.325  -3.531  11.675  1.00  0.00    -0.000 C 
BRANCH  22  23
ATOM     23  C   UNL     1      -1.080  -2.797  12.194  1.00  0.00    -0.000 C 
BRANCH  23  24
ATOM     24  C   UNL     1      -1.048  -1.345  11.688  1.00  0.00    -0.000 C 
BRANCH  24  25
ATOM     25  C   UNL     1      -0.909  -0.320  12.825  1.00  0.00    -0.000 C 
BRANCH  25  26
ATOM     26  C   UNL     1      -0.081   0.909  12.415  1.00  0.00    -0.000 C 
BRANCH  26  27
ATOM     27  C   UNL     1       0.715   1.508  13.587  1.00  0.00    -0.000 C 
BRANCH  27  28
ATOM     28  C   UNL     1       0.563   0.723  14.908  1.00  0.00    -0.000 C 
BRANCH  28  29
ATOM     29  C   UNL     1       0.337   1.648  16.113  1.00  0.00    -0.003 C 
ATOM     30  C   UNL     1      -0.555   0.984  17.158  1.00  0.00     0.004 C 
ENDBRANCH  28  29
ENDBRANCH  27  28
ENDBRANCH  26  27
ENDBRANCH  25  26
ENDBRANCH  24  25
ENDBRANCH  23  24
ENDBRANCH  22  23
ENDBRANCH  21  22
ENDBRANCH  20  21
ENDBRANCH  19  20
ENDBRANCH  18  19
ENDBRANCH  17  18
ENDBRANCH   1  17
TORSDOF 26
ENDMDL
MODEL 3
REMARK VINA RESULT:    -4.477      3.056      8.392
REMARK INTER + INTRA:         -16.320
REMARK INTER:                 -10.825
REMARK INTRA:                  -5.495
REMARK UNBOUND:                -5.038
REMARK SMILES CCCCCCCCCCCCCCCCCCCCCCCCCCCC(=O)[O-]
REMARK SMILES IDX 15 1 16 2 17 3 18 4 19 5 20 6 21 7 22 8 23 9 24 10 25 11
REMARK SMILES IDX 26 12 27 13 28 14 29 15 30 16 14 17 13 18 12 19 11 20 10 21
REMARK SMILES IDX 9 22 8 23 7 24 6 25 5 26 4 27 3 28 2 29 1 30
REMARK H PARENT
REMARK Flexibility Score: inf
ROOT
ATOM      1  C   UNL     1      -4.108   2.314  10.363  1.00  0.00     0.000 C 
ENDROOT
BRANCH   1   2
ATOM      2  C   UNL     1      -3.069   3.310  10.908  1.00  0.00     0.000 C 
BRANCH   2   3
ATOM      3  C   UNL     1      -1.628   2.936  10.521  1.00  0.00     0.000 C 
BRANCH   3   4
ATOM      4  C   UNL     1      -0.669   2.944  11.722  1.00  0.00     0.000 C 
BRANCH   4   5
ATOM      5  C   UNL     1      -1.402   2.824  13.066  1.00  0.00     0.000 C 
BRANCH   5   6
ATOM      6  C   UNL     1      -0.875   1.628  13.868  1.00  0.00     0.000 C 
BRANCH   6   7
ATOM      7  C   UNL     1      -1.839   1.245  14.998  1.00  0.00     0.000 C 
BRANCH   7   8
ATOM      8  C   UNL     1      -3.079   2.152  14.986  1.00  0.00     0.000 C 
BRANCH   8   9
ATOM      9  C   UNL     1      -4.352   1.436  14.501  1.00  0.00     0.000 C 
BRANCH   9  10
ATOM     10  C   UNL     1      -5.409   2.349  13.853  1.00  0.00     0.000 C 
BRANCH  10  11
ATOM     11  C   UNL     1      -4.961   3.814  13.753  1.00  0.00     0.000 C 
BRANCH  11  12
ATOM     12  C   UNL     1      -5.906   4.732  14.537  1.00  0.00     0.006 C 
BRANCH  12  13
ATOM     13  C   UNL     1      -7.269   4.065  14.753  1.00  0.00     0.053 C 
BRANCH  13  14
ATOM     14  C   UNL     1      -7.543   3.876  16.212  1.00  0.00     0.041 C 
ATOM     15  O   UNL     1      -8.020   4.821  16.895  1.00  0.00    -0.550 OA
ATOM     16  O   UNL     1      -7.281   2.651  16.816  1.00  0.00    -0.550 OA
ENDBRANCH  13  14
ENDBRANCH  12  13
ENDBRANCH  11  12
ENDBRANCH  10  11
ENDBRANCH   9  10
ENDBRANCH   8   9
ENDBRANCH   7   8
ENDBRANCH   6   7
ENDBRANCH   5   6
ENDBRANCH   4   5
ENDBRANCH   3   4
ENDBRANCH   2   3
ENDBRANCH   1   2
BRANCH   1  17
ATOM     17  C   UNL     1      -3.567   0.894  10.092  1.00  0.00     0.000 C 
BRANCH  17  18
ATOM     18  C   UNL     1      -3.996  -0.178  11.114  1.00  0.00     0.000 C 
BRANCH  18  19
ATOM     19  C   UNL     1      -2.851  -0.785  11.944  1.00  0.00     0.000 C 
BRANCH  19  20
ATOM     20  C   UNL     1      -1.483  -0.655  11.252  1.00  0.00     0.000 C 
BRANCH  20  21
ATOM     21  C   UNL     1      -0.393  -1.523  11.905  1.00  0.00     0.000 C 
BRANCH  21  22
ATOM     22  C   UNL     1      -0.637  -3.042  11.841  1.00  0.00    -0.000 C 
BRANCH  22  23
ATOM     23  C   UNL     1       0.541  -3.816  11.230  1.00  0.00    -0.000 C 
BRANCH  23  24
ATOM     24  C   UNL     1       0.202  -4.301   9.811  1.00  0.00    -0.000 C 
BRANCH  24  25
ATOM     25  C   UNL     1       0.358  -3.198   8.751  1.00  0.00    -0.000 C 
BRANCH  25  26
ATOM     26  C   UNL     1      -0.830  -3.143   7.778  1.00  0.00    -0.000 C 
BRANCH  26  27
ATOM     27  C   UNL     1      -1.807  -1.998   8.096  1.00  0.00    -0.000 C 
BRANCH  27  28
ATOM     28  C   UNL     1      -3.233  -2.477   8.446  1.00  0.00    -0.000 C 
BRANCH  28  29
ATOM     29  C   UNL     1      -3.262  -3.948   8.887  1.00  0.00    -0.003 C 
ATOM     30  C   UNL     1      -3.793  -4.085  10.311  1.00  0.00     0.004 C 
ENDBRANCH  28  29
ENDBRANCH  27  28
ENDBRANCH  26  27
ENDBRANCH  25  26
ENDBRANCH  24  25
ENDBRANCH  23  24
ENDBRANCH  22  23
ENDBRANCH  21  22
ENDBRANCH  20  21
ENDBRANCH  19  20
ENDBRANCH  18  19
ENDBRANCH  17  18
ENDBRANCH   1  17
TORSDOF 26
ENDMDL
MODEL 4
REMARK VINA RESULT:    -4.400      2.984      7.591
REMARK INTER + INTRA:         -16.125
REMARK INTER:                 -10.648
REMARK INTRA:                  -5.477
REMARK UNBOUND:                -5.038
REMARK SMILES CCCCCCCCCCCCCCCCCCCCCCCCCCCC(=O)[O-]
REMARK SMILES IDX 15 1 16 2 17 3 18 4 19 5 20 6 21 7 22 8 23 9 24 10 25 11
REMARK SMILES IDX 26 12 27 13 28 14 29 15 30 16 14 17 13 18 12 19 11 20 10 21
REMARK SMILES IDX 9 22 8 23 7 24 6 25 5 26 4 27 3 28 2 29 1 30
REMARK H PARENT
REMARK Flexibility Score: inf
ROOT
ATOM      1  C   UNL     1      -3.004  -2.534   8.455  1.00  0.00     0.000 C 
ENDROOT
BRANCH   1   2
ATOM      2  C   UNL     1      -4.177  -1.625   8.864  1.00  0.00     0.000 C 
BRANCH   2   3
ATOM      3  C   UNL     1      -3.719  -0.216   9.279  1.00  0.00     0.000 C 
BRANCH   3   4
ATOM      4  C   UNL     1      -4.018   0.097  10.754  1.00  0.00     0.000 C 
BRANCH   4   5
ATOM      5  C   UNL     1      -4.258   1.593  11.005  1.00  0.00     0.000 C 
BRANCH   5   6
ATOM      6  C   UNL     1      -3.648   2.438   9.881  1.00  0.00     0.000 C 
BRANCH   6   7
ATOM      7  C   UNL     1      -3.958   3.928  10.072  1.00  0.00     0.000 C 
BRANCH   7   8
ATOM      8  C   UNL     1      -2.730   4.675  10.613  1.00  0.00     0.000 C 
BRANCH   8   9
ATOM      9  C   UNL     1      -2.975   5.336  11.982  1.00  0.00     0.000 C 
BRANCH   9  10
ATOM     10  C   UNL     1      -4.323   4.993  12.641  1.00  0.00     0.000 C 
BRANCH  10  11
ATOM     11  C   UNL     1      -4.172   4.204  13.949  1.00  0.00     0.000 C 
BRANCH  11  12
ATOM     12  C   UNL     1      -5.330   3.216  14.131  1.00  0.00     0.006 C 
BRANCH  12  13
ATOM     13  C   UNL     1      -5.258   2.528  15.499  1.00  0.00     0.053 C 
BRANCH  13  14
ATOM     14  C   UNL     1      -6.399   2.954  16.369  1.00  0.00     0.041 C 
ATOM     15  O   UNL     1      -7.033   2.100  17.046  1.00  0.00    -0.550 OA
ATOM     16  O   UNL     1      -6.758   4.295  16.440  1.00  0.00    -0.550 OA
ENDBRANCH  13  14
ENDBRANCH  12  13
ENDBRANCH  11  12
ENDBRANCH  10  11
ENDBRANCH   9  10
ENDBRANCH   8   9
ENDBRANCH   7   8
ENDBRANCH   6   7
ENDBRANCH   5   6
ENDBRANCH   4   5
ENDBRANCH   3   4
ENDBRANCH   2   3
ENDBRANCH   1   2
BRANCH   1  17
ATOM     17  C   UNL     1      -2.917  -3.869   9.225  1.00  0.00     0.000 C 
BRANCH  17  18
ATOM     18  C   UNL     1      -3.979  -4.062  10.326  1.00  0.00     0.000 C 
BRANCH  18  19
ATOM     19  C   UNL     1      -3.529  -3.670  11.744  1.00  0.00     0.000 C 
BRANCH  19  20
ATOM     20  C   UNL     1      -1.998  -3.580  11.876  1.00  0.00     0.000 C 
BRANCH  20  21
ATOM     21  C   UNL     1      -1.495  -2.138  12.070  1.00  0.00     0.000 C 
BRANCH  21  22
ATOM     22  C   UNL     1      -0.035  -1.889  11.647  1.00  0.00    -0.000 C 
BRANCH  22  23
ATOM     23  C   UNL     1       0.133  -1.733  10.128  1.00  0.00    -0.000 C 
BRANCH  23  24
ATOM     24  C   UNL     1       0.784  -0.383   9.783  1.00  0.00    -0.000 C 
BRANCH  24  25
ATOM     25  C   UNL     1      -0.245   0.694   9.400  1.00  0.00    -0.000 C 
BRANCH  25  26
ATOM     26  C   UNL     1      -0.429   1.752  10.500  1.00  0.00    -0.000 C 
BRANCH  26  27
ATOM     27  C   UNL     1       0.679   1.700  11.567  1.00  0.00    -0.000 C 
BRANCH  27  28
ATOM     28  C   UNL     1       0.153   1.449  12.997  1.00  0.00    -0.000 C 
BRANCH  28  29
ATOM     29  C   UNL     1      -1.266   1.999  13.201  1.00  0.00    -0.003 C 
ATOM     30  C   UNL     1      -2.117   1.037  14.025  1.00  0.00     0.004 C 
ENDBRANCH  28  29
ENDBRANCH  27  28
ENDBRANCH  26  27
ENDBRANCH  25  26
ENDBRANCH  24  25
ENDBRANCH  23  24
ENDBRANCH  22  23
ENDBRANCH  21  22
ENDBRANCH  20  21
ENDBRANCH  19  20
ENDBRANCH  18  19
ENDBRANCH  17  18
ENDBRANCH   1  17
TORSDOF 26
ENDMDL
MODEL 5
REMARK VINA RESULT:    -4.344      2.333      5.394
REMARK INTER + INTRA:         -15.985
REMARK INTER:                 -10.187
REMARK INTRA:                  -5.798
REMARK UNBOUND:                -5.038
REMARK SMILES CCCCCCCCCCCCCCCCCCCCCCCCCCCC(=O)[O-]
REMARK SMILES IDX 15 1 16 2 17 3 18 4 19 5 20 6 21 7 22 8 23 9 24 10 25 11
REMARK SMILES IDX 26 12 27 13 28 14 29 15 30 16 14 17 13 18 12 19 11 20 10 21
REMARK SMILES IDX 9 22 8 23 7 24 6 25 5 26 4 27 3 28 2 29 1 30
REMARK H PARENT
REMARK Flexibility Score: inf
ROOT
ATOM      1  C   UNL     1      -4.240   0.666  10.528  1.00  0.00     0.000 C 
ENDROOT
BRANCH   1   2
ATOM      2  C   UNL     1      -3.073   0.312   9.589  1.00  0.00     0.000 C 
BRANCH   2   3
ATOM      3  C   UNL     1      -3.429  -0.809   8.596  1.00  0.00     0.000 C 
BRANCH   3   4
ATOM      4  C   UNL     1      -4.200  -1.963   9.255  1.00  0.00     0.000 C 
BRANCH   4   5
ATOM      5  C   UNL     1      -3.622  -3.342   8.899  1.00  0.00     0.000 C 
BRANCH   5   6
ATOM      6  C   UNL     1      -3.590  -4.253  10.131  1.00  0.00     0.000 C 
BRANCH   6   7
ATOM      7  C   UNL     1      -3.368  -3.444  11.416  1.00  0.00     0.000 C 
BRANCH   7   8
ATOM      8  C   UNL     1      -1.883  -3.438  11.806  1.00  0.00     0.000 C 
BRANCH   8   9
ATOM      9  C   UNL     1      -1.269  -2.027  11.841  1.00  0.00     0.000 C 
BRANCH   9  10
ATOM     10  C   UNL     1      -0.030  -1.831  10.948  1.00  0.00     0.000 C 
BRANCH  10  11
ATOM     11  C   UNL     1      -0.092  -2.640   9.645  1.00  0.00     0.000 C 
BRANCH  11  12
ATOM     12  C   UNL     1       0.025  -1.723   8.422  1.00  0.00     0.006 C 
BRANCH  12  13
ATOM     13  C   UNL     1      -0.437  -2.440   7.149  1.00  0.00     0.053 C 
BRANCH  13  14
ATOM     14  C   UNL     1       0.582  -2.301   6.061  1.00  0.00     0.041 C 
ATOM     15  O   UNL     1       0.241  -1.877   4.924  1.00  0.00    -0.550 OA
ATOM     16  O   UNL     1       1.911  -2.628   6.306  1.00  0.00    -0.550 OA
ENDBRANCH  13  14
ENDBRANCH  12  13
ENDBRANCH  11  12
ENDBRANCH  10  11
ENDBRANCH   9  10
ENDBRANCH   8   9
ENDBRANCH   7   8
ENDBRANCH   6   7
ENDBRANCH   5   6
ENDBRANCH   4   5
ENDBRANCH   3   4
ENDBRANCH   2   3
ENDBRANCH   1   2
BRANCH   1  17
ATOM     17  C   UNL     1      -3.974   0.396  12.024  1.00  0.00     0.000 C 
BRANCH  17  18
ATOM     18  C   UNL     1      -5.154   0.703  12.967  1.00  0.00     0.000 C 
BRANCH  18  19
ATOM     19  C   UNL     1      -4.832   1.663  14.126  1.00  0.00     0.000 C 
BRANCH  19  20
ATOM     20  C   UNL     1      -5.216   3.120  13.812  1.00  0.00     0.000 C 
BRANCH  20  21
ATOM     21  C   UNL     1      -3.993   4.041  13.648  1.00  0.00     0.000 C 
BRANCH  21  22
ATOM     22  C   UNL     1      -3.999   4.921  12.383  1.00  0.00    -0.000 C 
BRANCH  22  23
ATOM     23  C   UNL     1      -3.656   4.140  11.106  1.00  0.00    -0.000 C 
BRANCH  23  24
ATOM     24  C   UNL     1      -2.327   4.627  10.505  1.00  0.00    -0.000 C 
BRANCH  24  25
ATOM     25  C   UNL     1      -1.099   4.083  11.255  1.00  0.00    -0.000 C 
BRANCH  25  26
ATOM     26  C   UNL     1      -0.622   2.730  10.704  1.00  0.00    -0.000 C 
BRANCH  26  27
ATOM     27  C   UNL     1      -0.368   1.693  11.812  1.00  0.00    -0.000 C 
BRANCH  27  28
ATOM     28  C   UNL     1      -0.968   2.084  13.180  1.00  0.00    -0.000 C 
BRANCH  28  29
ATOM     29  C   UNL     1      -1.117   0.875  14.117  1.00  0.00    -0.003 C 
ATOM     30  C   UNL     1      -1.467   1.318  15.535  1.00  0.00     0.004 C 
ENDBRANCH  28  29
ENDBRANCH  27  28
ENDBRANCH  26  27
ENDBRANCH  25  26
ENDBRANCH  24  25
ENDBRANCH  23  24
ENDBRANCH  22  23
ENDBRANCH  21  22
ENDBRANCH  20  21
ENDBRANCH  19  20
ENDBRANCH  18  19
ENDBRANCH  17  18
ENDBRANCH   1  17
TORSDOF 26
ENDMDL
MODEL 6
REMARK VINA RESULT:    -4.340      1.883      4.274
REMARK INTER + INTRA:         -15.975
REMARK INTER:                 -11.486
REMARK INTRA:                  -4.489
REMARK UNBOUND:                -5.038
REMARK SMILES CCCCCCCCCCCCCCCCCCCCCCCCCCCC(=O)[O-]
REMARK SMILES IDX 15 1 16 2 17 3 18 4 19 5 20 6 21 7 22 8 23 9 24 10 25 11
REMARK SMILES IDX 26 12 27 13 28 14 29 15 30 16 14 17 13 18 12 19 11 20 10 21
REMARK SMILES IDX 9 22 8 23 7 24 6 25 5 26 4 27 3 28 2 29 1 30
REMARK H PARENT
REMARK Flexibility Score: inf
ROOT
ATOM      1  C   UNL     1      -3.533   1.670  10.533  1.00  0.00     0.000 C 
ENDROOT
BRANCH   1   2
ATOM      2  C   UNL     1      -3.780   0.455   9.621  1.00  0.00     0.000 C 
BRANCH   2   3
ATOM      3  C   UNL     1      -2.509  -0.001   8.883  1.00  0.00     0.000 C 
BRANCH   3   4
ATOM      4  C   UNL     1      -2.560  -1.480   8.469  1.00  0.00     0.000 C 
BRANCH   4   5
ATOM      5  C   UNL     1      -3.874  -2.164   8.877  1.00  0.00     0.000 C 
BRANCH   5   6
ATOM      6  C   UNL     1      -3.597  -3.403   9.736  1.00  0.00     0.000 C 
BRANCH   6   7
ATOM      7  C   UNL     1      -3.433  -3.030  11.215  1.00  0.00     0.000 C 
BRANCH   7   8
ATOM      8  C   UNL     1      -2.035  -3.412  11.722  1.00  0.00     0.000 C 
BRANCH   8   9
ATOM      9  C   UNL     1      -1.085  -2.208  11.851  1.00  0.00     0.000 C 
BRANCH   9  10
ATOM     10  C   UNL     1      -1.737  -0.914  12.370  1.00  0.00     0.000 C 
BRANCH  10  11
ATOM     11  C   UNL     1      -0.715   0.164  12.758  1.00  0.00     0.000 C 
BRANCH  11  12
ATOM     12  C   UNL     1      -1.248   1.044  13.894  1.00  0.00     0.006 C 
BRANCH  12  13
ATOM     13  C   UNL     1      -1.391   2.501  13.441  1.00  0.00     0.053 C 
BRANCH  13  14
ATOM     14  C   UNL     1      -1.354   3.429  14.616  1.00  0.00     0.041 C 
ATOM     15  O   UNL     1      -1.142   4.659  14.445  1.00  0.00    -0.550 OA
ATOM     16  O   UNL     1      -1.565   2.936  15.899  1.00  0.00    -0.550 OA
ENDBRANCH  13  14
ENDBRANCH  12  13
ENDBRANCH  11  12
ENDBRANCH  10  11
ENDBRANCH   9  10
ENDBRANCH   8   9
ENDBRANCH   7   8
ENDBRANCH   6   7
ENDBRANCH   5   6
ENDBRANCH   4   5
ENDBRANCH   3   4
ENDBRANCH   2   3
ENDBRANCH   1   2
BRANCH   1  17
ATOM     17  C   UNL     1      -2.968   2.916   9.818  1.00  0.00     0.000 C 
BRANCH  17  18
ATOM     18  C   UNL     1      -3.630   4.253  10.206  1.00  0.00     0.000 C 
BRANCH  18  19
ATOM     19  C   UNL     1      -3.167   4.845  11.549  1.00  0.00     0.000 C 
BRANCH  19  20
ATOM     20  C   UNL     1      -4.295   4.896  12.594  1.00  0.00     0.000 C 
BRANCH  20  21
ATOM     21  C   UNL     1      -4.184   6.105  13.541  1.00  0.00     0.000 C 
BRANCH  21  22
ATOM     22  C   UNL     1      -5.465   6.946  13.686  1.00  0.00    -0.000 C 
BRANCH  22  23
ATOM     23  C   UNL     1      -6.530   6.275  14.567  1.00  0.00    -0.000 C 
BRANCH  23  24
ATOM     24  C   UNL     1      -6.272   6.564  16.055  1.00  0.00    -0.000 C 
BRANCH  24  25
ATOM     25  C   UNL     1      -6.373   5.305  16.932  1.00  0.00    -0.000 C 
BRANCH  25  26
ATOM     26  C   UNL     1      -7.337   4.258  16.353  1.00  0.00    -0.000 C 
BRANCH  26  27
ATOM     27  C   UNL     1      -6.664   2.894  16.120  1.00  0.00    -0.000 C 
BRANCH  27  28
ATOM     28  C   UNL     1      -5.183   2.996  15.694  1.00  0.00    -0.000 C 
BRANCH  28  29
ATOM     29  C   UNL     1      -4.734   1.789  14.856  1.00  0.00    -0.003 C 
ATOM     30  C   UNL     1      -5.484   1.730  13.529  1.00  0.00     0.004 C 
ENDBRANCH  28  29
ENDBRANCH  27  28
ENDBRANCH  26  27
ENDBRANCH  25  26
ENDBRANCH  24  25
ENDBRANCH  23  24
ENDBRANCH  22  23
ENDBRANCH  21  22
ENDBRANCH  20  21
ENDBRANCH  19  20
ENDBRANCH  18  19
ENDBRANCH  17  18
ENDBRANCH   1  17
TORSDOF 26
ENDMDL
MODEL 7
REMARK VINA RESULT:    -4.334      3.136      8.020
REMARK INTER + INTRA:         -15.959
REMARK INTER:                 -10.819
REMARK INTRA:                  -5.140
REMARK UNBOUND:                -5.038
REMARK SMILES CCCCCCCCCCCCCCCCCCCCCCCCCCCC(=O)[O-]
REMARK SMILES IDX 15 1 16 2 17 3 18 4 19 5 20 6 21 7 22 8 23 9 24 10 25 11
REMARK SMILES IDX 26 12 27 13 28 14 29 15 30 16 14 17 13 18 12 19 11 20 10 21
REMARK SMILES IDX 9 22 8 23 7 24 6 25 5 26 4 27 3 28 2 29 1 30
REMARK H PARENT
REMARK Flexibility Score: inf
ROOT
ATOM      1  C   UNL     1      -4.370   1.994  10.369  1.00  0.00     0.000 C 
ENDROOT
BRANCH   1   2
ATOM      2  C   UNL     1      -3.441   3.219  10.429  1.00  0.00     0.000 C 
BRANCH   2   3
ATOM      3  C   UNL     1      -3.870   4.238  11.500  1.00  0.00     0.000 C 
BRANCH   3   4
ATOM      4  C   UNL     1      -2.726   4.616  12.454  1.00  0.00     0.000 C 
BRANCH   4   5
ATOM      5  C   UNL     1      -1.339   4.379  11.837  1.00  0.00     0.000 C 
BRANCH   5   6
ATOM      6  C   UNL     1      -0.448   3.580  12.795  1.00  0.00     0.000 C 
BRANCH   6   7
ATOM      7  C   UNL     1      -1.056   3.519  14.202  1.00  0.00     0.000 C 
BRANCH   7   8
ATOM      8  C   UNL     1      -0.881   2.120  14.811  1.00  0.00     0.000 C 
BRANCH   8   9
ATOM      9  C   UNL     1      -2.171   1.567  15.444  1.00  0.00     0.000 C 
BRANCH   9  10
ATOM     10  C   UNL     1      -3.385   2.512  15.384  1.00  0.00     0.000 C 
BRANCH  10  11
ATOM     11  C   UNL     1      -4.646   1.841  14.821  1.00  0.00     0.000 C 
BRANCH  11  12
ATOM     12  C   UNL     1      -5.795   2.848  14.694  1.00  0.00     0.006 C 
BRANCH  12  13
ATOM     13  C   UNL     1      -6.382   3.191  16.067  1.00  0.00     0.053 C 
BRANCH  13  14
ATOM     14  C   UNL     1      -7.578   4.079  15.927  1.00  0.00     0.041 C 
ATOM     15  O   UNL     1      -7.813   4.967  16.790  1.00  0.00    -0.550 OA
ATOM     16  O   UNL     1      -8.428   3.935  14.836  1.00  0.00    -0.550 OA
ENDBRANCH  13  14
ENDBRANCH  12  13
ENDBRANCH  11  12
ENDBRANCH  10  11
ENDBRANCH   9  10
ENDBRANCH   8   9
ENDBRANCH   7   8
ENDBRANCH   6   7
ENDBRANCH   5   6
ENDBRANCH   4   5
ENDBRANCH   3   4
ENDBRANCH   2   3
ENDBRANCH   1   2
BRANCH   1  17
ATOM     17  C   UNL     1      -4.043   0.880  11.386  1.00  0.00     0.000 C 
BRANCH  17  18
ATOM     18  C   UNL     1      -2.582   0.846  11.876  1.00  0.00     0.000 C 
BRANCH  18  19
ATOM     19  C   UNL     1      -2.055  -0.547  12.264  1.00  0.00     0.000 C 
BRANCH  19  20
ATOM     20  C   UNL     1      -0.528  -0.666  12.115  1.00  0.00     0.000 C 
BRANCH  20  21
ATOM     21  C   UNL     1      -0.101  -1.844  11.221  1.00  0.00     0.000 C 
BRANCH  21  22
ATOM     22  C   UNL     1       0.452  -1.451   9.838  1.00  0.00    -0.000 C 
BRANCH  22  23
ATOM     23  C   UNL     1      -0.222  -2.209   8.683  1.00  0.00    -0.000 C 
BRANCH  23  24
ATOM     24  C   UNL     1      -1.041  -1.251   7.803  1.00  0.00    -0.000 C 
BRANCH  24  25
ATOM     25  C   UNL     1      -2.309  -0.736   8.503  1.00  0.00    -0.000 C 
BRANCH  25  26
ATOM     26  C   UNL     1      -3.495  -1.705   8.365  1.00  0.00    -0.000 C 
BRANCH  26  27
ATOM     27  C   UNL     1      -3.958  -2.274   9.718  1.00  0.00    -0.000 C 
BRANCH  27  28
ATOM     28  C   UNL     1      -3.177  -3.528  10.165  1.00  0.00    -0.000 C 
BRANCH  28  29
ATOM     29  C   UNL     1      -3.768  -4.161  11.434  1.00  0.00    -0.003 C 
ATOM     30  C   UNL     1      -4.815  -5.216  11.088  1.00  0.00     0.004 C 
ENDBRANCH  28  29
ENDBRANCH  27  28
ENDBRANCH  26  27
ENDBRANCH  25  26
ENDBRANCH  24  25
ENDBRANCH  23  24
ENDBRANCH  22  23
ENDBRANCH  21  22
ENDBRANCH  20  21
ENDBRANCH  19  20
ENDBRANCH  18  19
ENDBRANCH  17  18
ENDBRANCH   1  17
TORSDOF 26
ENDMDL
MODEL 8
REMARK VINA RESULT:    -4.327      2.775      5.029
REMARK INTER + INTRA:         -15.943
REMARK INTER:                 -12.245
REMARK INTRA:                  -3.697
REMARK UNBOUND:                -5.038
REMARK SMILES CCCCCCCCCCCCCCCCCCCCCCCCCCCC(=O)[O-]
REMARK SMILES IDX 15 1 16 2 17 3 18 4 19 5 20 6 21 7 22 8 23 9 24 10 25 11
REMARK SMILES IDX 26 12 27 13 28 14 29 15 30 16 14 17 13 18 12 19 11 20 10 21
REMARK SMILES IDX 9 22 8 23 7 24 6 25 5 26 4 27 3 28 2 29 1 30
REMARK H PARENT
REMARK Flexibility Score: inf
ROOT
ATOM      1  C   UNL     1      -3.821   5.762  13.457  1.00  0.00     0.000 C 
ENDROOT
BRANCH   1   2
ATOM      2  C   UNL     1      -3.236   4.658  12.558  1.00  0.00     0.000 C 
BRANCH   2   3
ATOM      3  C   UNL     1      -3.953   4.556  11.200  1.00  0.00     0.000 C 
BRANCH   3   4
ATOM      4  C   UNL     1      -3.283   3.554  10.248  1.00  0.00     0.000 C 
BRANCH   4   5
ATOM      5  C   UNL     1      -2.884   2.246  10.949  1.00  0.00     0.000 C 
BRANCH   5   6
ATOM      6  C   UNL     1      -4.112   1.358  11.183  1.00  0.00     0.000 C 
BRANCH   6   7
ATOM      7  C   UNL     1      -3.711  -0.110  11.369  1.00  0.00     0.000 C 
BRANCH   7   8
ATOM      8  C   UNL     1      -2.198  -0.291  11.171  1.00  0.00     0.000 C 
BRANCH   8   9
ATOM      9  C   UNL     1      -1.563  -1.255  12.190  1.00  0.00     0.000 C 
BRANCH   9  10
ATOM     10  C   UNL     1      -0.967  -2.541  11.589  1.00  0.00     0.000 C 
BRANCH  10  11
ATOM     11  C   UNL     1      -1.145  -2.634  10.066  1.00  0.00     0.000 C 
BRANCH  11  12
ATOM     12  C   UNL     1      -1.988  -3.856   9.686  1.00  0.00     0.006 C 
BRANCH  12  13
ATOM     13  C   UNL     1      -2.980  -4.209  10.799  1.00  0.00     0.053 C 
BRANCH  13  14
ATOM     14  C   UNL     1      -4.361  -4.380  10.246  1.00  0.00     0.041 C 
ATOM     15  O   UNL     1      -4.754  -3.659   9.290  1.00  0.00    -0.550 OA
ATOM     16  O   UNL     1      -5.210  -5.343  10.780  1.00  0.00    -0.550 OA
ENDBRANCH  13  14
ENDBRANCH  12  13
ENDBRANCH  11  12
ENDBRANCH  10  11
ENDBRANCH   9  10
ENDBRANCH   8   9
ENDBRANCH   7   8
ENDBRANCH   6   7
ENDBRANCH   5   6
ENDBRANCH   4   5
ENDBRANCH   3   4
ENDBRANCH   2   3
ENDBRANCH   1   2
BRANCH   1  17
ATOM     17  C   UNL     1      -5.350   5.942  13.354  1.00  0.00     0.000 C 
BRANCH  17  18
ATOM     18  C   UNL     1      -6.154   5.432  14.568  1.00  0.00     0.000 C 
BRANCH  18  19
ATOM     19  C   UNL     1      -5.363   5.344  15.885  1.00  0.00     0.000 C 
BRANCH  19  20
ATOM     20  C   UNL     1      -5.190   3.896  16.375  1.00  0.00     0.000 C 
BRANCH  20  21
ATOM     21  C   UNL     1      -5.732   2.855  15.380  1.00  0.00     0.000 C 
BRANCH  21  22
ATOM     22  C   UNL     1      -4.664   1.977  14.700  1.00  0.00    -0.000 C 
BRANCH  22  23
ATOM     23  C   UNL     1      -3.242   2.257  15.209  1.00  0.00    -0.000 C 
BRANCH  23  24
ATOM     24  C   UNL     1      -2.281   1.128  14.800  1.00  0.00    -0.000 C 
BRANCH  24  25
ATOM     25  C   UNL     1      -1.001   1.098  15.652  1.00  0.00    -0.000 C 
BRANCH  25  26
ATOM     26  C   UNL     1      -1.035   2.114  16.805  1.00  0.00    -0.000 C 
BRANCH  26  27
ATOM     27  C   UNL     1       0.000   1.805  17.900  1.00  0.00    -0.000 C 
BRANCH  27  28
ATOM     28  C   UNL     1       0.423   0.321  17.956  1.00  0.00    -0.000 C 
BRANCH  28  29
ATOM     29  C   UNL     1      -0.355  -0.467  19.020  1.00  0.00    -0.003 C 
ATOM     30  C   UNL     1      -0.727   0.423  20.203  1.00  0.00     0.004 C 
ENDBRANCH  28  29
ENDBRANCH  27  28
ENDBRANCH  26  27
ENDBRANCH  25  26
ENDBRANCH  24  25
ENDBRANCH  23  24
ENDBRANCH  22  23
ENDBRANCH  21  22
ENDBRANCH  20  21
ENDBRANCH  19  20
ENDBRANCH  18  19
ENDBRANCH  17  18
ENDBRANCH   1  17
TORSDOF 26
ENDMDL
MODEL 9
REMARK VINA RESULT:    -4.322      2.080      4.958
REMARK INTER + INTRA:         -15.929
REMARK INTER:                 -11.409
REMARK INTRA:                  -4.520
REMARK UNBOUND:                -5.038
REMARK SMILES CCCCCCCCCCCCCCCCCCCCCCCCCCCC(=O)[O-]
REMARK SMILES IDX 15 1 16 2 17 3 18 4 19 5 20 6 21 7 22 8 23 9 24 10 25 11
REMARK SMILES IDX 26 12 27 13 28 14 29 15 30 16 14 17 13 18 12 19 11 20 10 21
REMARK SMILES IDX 9 22 8 23 7 24 6 25 5 26 4 27 3 28 2 29 1 30
REMARK H PARENT
REMARK Flexibility Score: inf
ROOT
ATOM      1  C   UNL     1      -4.215   1.458  14.134  1.00  0.00     0.000 C 
ENDROOT
BRANCH   1   2
ATOM      2  C   UNL     1      -5.160   1.030  12.997  1.00  0.00     0.000 C 
BRANCH   2   3
ATOM      3  C   UNL     1      -4.404   0.620  11.721  1.00  0.00     0.000 C 
BRANCH   3   4
ATOM      4  C   UNL     1      -4.299   1.763  10.699  1.00  0.00     0.000 C 
BRANCH   4   5
ATOM      5  C   UNL     1      -3.025   1.678   9.845  1.00  0.00     0.000 C 
BRANCH   5   6
ATOM      6  C   UNL     1      -2.682   0.219   9.523  1.00  0.00     0.000 C 
BRANCH   6   7
ATOM      7  C   UNL     1      -1.207  -0.084   9.816  1.00  0.00     0.000 C 
BRANCH   7   8
ATOM      8  C   UNL     1      -0.847   0.301  11.259  1.00  0.00     0.000 C 
BRANCH   8   9
ATOM      9  C   UNL     1      -1.045  -0.850  12.262  1.00  0.00     0.000 C 
BRANCH   9  10
ATOM     10  C   UNL     1      -0.593  -2.235  11.765  1.00  0.00     0.000 C 
BRANCH  10  11
ATOM     11  C   UNL     1      -1.634  -3.336  12.018  1.00  0.00     0.000 C 
BRANCH  11  12
ATOM     12  C   UNL     1      -3.006  -2.931  11.468  1.00  0.00     0.006 C 
BRANCH  12  13
ATOM     13  C   UNL     1      -4.029  -4.057  11.657  1.00  0.00     0.053 C 
BRANCH  13  14
ATOM     14  C   UNL     1      -4.469  -4.603  10.334  1.00  0.00     0.041 C 
ATOM     15  O   UNL     1      -5.436  -5.408  10.271  1.00  0.00    -0.550 OA
ATOM     16  O   UNL     1      -3.817  -4.213   9.169  1.00  0.00    -0.550 OA
ENDBRANCH  13  14
ENDBRANCH  12  13
ENDBRANCH  11  12
ENDBRANCH  10  11
ENDBRANCH   9  10
ENDBRANCH   8   9
ENDBRANCH   7   8
ENDBRANCH   6   7
ENDBRANCH   5   6
ENDBRANCH   4   5
ENDBRANCH   3   4
ENDBRANCH   2   3
ENDBRANCH   1   2
BRANCH   1  17
ATOM     17  C   UNL     1      -4.898   2.212  15.296  1.00  0.00     0.000 C 
BRANCH  17  18
ATOM     18  C   UNL     1      -6.273   2.825  14.963  1.00  0.00     0.000 C 
BRANCH  18  19
ATOM     19  C   UNL     1      -6.618   4.111  15.734  1.00  0.00     0.000 C 
BRANCH  19  20
ATOM     20  C   UNL     1      -7.516   5.064  14.924  1.00  0.00     0.000 C 
BRANCH  20  21
ATOM     21  C   UNL     1      -6.770   5.755  13.768  1.00  0.00     0.000 C 
BRANCH  21  22
ATOM     22  C   UNL     1      -5.565   6.618  14.187  1.00  0.00    -0.000 C 
BRANCH  22  23
ATOM     23  C   UNL     1      -4.369   6.484  13.232  1.00  0.00    -0.000 C 
BRANCH  23  24
ATOM     24  C   UNL     1      -3.951   5.012  13.079  1.00  0.00    -0.000 C 
BRANCH  24  25
ATOM     25  C   UNL     1      -2.689   4.838  12.218  1.00  0.00    -0.000 C 
BRANCH  25  26
ATOM     26  C   UNL     1      -1.802   3.678  12.698  1.00  0.00    -0.000 C 
BRANCH  26  27
ATOM     27  C   UNL     1      -1.356   3.836  14.162  1.00  0.00    -0.000 C 
BRANCH  27  28
ATOM     28  C   UNL     1      -0.782   2.544  14.781  1.00  0.00    -0.000 C 
BRANCH  28  29
ATOM     29  C   UNL     1      -1.273   2.318  16.219  1.00  0.00    -0.003 C 
ATOM     30  C   UNL     1      -0.643   1.069  16.827  1.00  0.00     0.004 C 
ENDBRANCH  28  29
ENDBRANCH  27  28
ENDBRANCH  26  27
ENDBRANCH  25  26
ENDBRANCH  24  25
ENDBRANCH  23  24
ENDBRANCH  22  23
ENDBRANCH  21  22
ENDBRANCH  20  21
ENDBRANCH  19  20
ENDBRANCH  18  19
ENDBRANCH  17  18
ENDBRANCH   1  17
TORSDOF 26
ENDMDL
