MODEL 1
REMARK VINA RESULT:    29.931      0.000      0.000
REMARK INTER + INTRA:          34.913
REMARK INTER:                  35.181
REMARK INTRA:                  -0.268
REMARK UNBOUND:                -0.268
REMARK SMILES O=c1cc(-c2ccc(O)c(O)c2)oc2cc(O)cc(O)c12
REMARK SMILES IDX 4 1 3 2 2 3 1 4 21 5 19 6 18 7 16 8 15 9 14 10 13 11 5 12
REMARK SMILES IDX 6 13 7 14 8 15 12 16 10 17 9 18 11 20 20 22 17 24
REMARK H PARENT 9 19 11 21 20 23 17 25
REMARK Flexibility Score: inf
ROOT
ATOM      1  C   UNL     1       9.467   1.462   8.591  1.00  0.00     0.138 A 
ATOM      2  C   UNL     1      10.222   0.386   8.107  1.00  0.00     0.100 A 
ATOM      3  C   UNL     1      11.261   0.623   7.205  1.00  0.00     0.197 A 
ATOM      4  O   UNL     1      11.881  -0.369   6.740  1.00  0.00    -0.289 OA
ATOM      5  C   UNL     1      11.563   1.948   6.812  1.00  0.00     0.107 A 
ATOM      6  C   UNL     1      12.625   2.312   5.930  1.00  0.00     0.134 A 
ATOM      7  C   UNL     1      12.756   3.646   5.522  1.00  0.00     0.093 A 
ATOM      8  C   UNL     1      11.902   4.635   6.009  1.00  0.00     0.123 A 
ATOM      9  C   UNL     1      10.895   4.299   6.913  1.00  0.00     0.094 A 
ATOM     10  C   UNL     1      10.716   2.973   7.313  1.00  0.00     0.146 A 
ATOM     11  O   UNL     1       9.736   2.691   8.165  1.00  0.00    -0.456 OA
ENDROOT
BRANCH   1  12
ATOM     12  C   UNL     1       8.352   1.267   9.553  1.00  0.00     0.021 A 
ATOM     13  C   UNL     1       8.586   1.054  10.924  1.00  0.00     0.016 A 
ATOM     14  C   UNL     1       7.517   0.883  11.807  1.00  0.00     0.051 A 
ATOM     15  C   UNL     1       6.197   0.929  11.340  1.00  0.00     0.157 A 
ATOM     16  C   UNL     1       7.023   1.325   9.093  1.00  0.00     0.062 A 
ATOM     17  C   UNL     1       5.951   1.153   9.975  1.00  0.00     0.158 A 
BRANCH  15  18
ATOM     18  O   UNL     1       5.134   0.757  12.224  1.00  0.00    -0.504 OA
ATOM     19  H   UNL     1       4.831   1.500  12.842  1.00  0.00     0.293 HD
ENDBRANCH  15  18
BRANCH  17  20
ATOM     20  O   UNL     1       4.649   1.208   9.478  1.00  0.00    -0.504 OA
ATOM     21  H   UNL     1       3.994   0.445   9.596  1.00  0.00     0.293 HD
ENDBRANCH  17  20
ENDBRANCH   1  12
BRANCH   6  22
ATOM     22  O   UNL     1      13.585   1.416   5.453  1.00  0.00    -0.507 OA
ATOM     23  H   UNL     1      13.850   1.315   4.486  1.00  0.00     0.293 HD
ENDBRANCH   6  22
BRANCH   8  24
ATOM     24  O   UNL     1      12.071   5.954   5.592  1.00  0.00    -0.508 OA
ATOM     25  H   UNL     1      11.301   6.611   5.584  1.00  0.00     0.293 HD
ENDBRANCH   8  24
TORSDOF 5
ENDMDL
MODEL 2
REMARK VINA RESULT:    30.148      1.089      2.612
REMARK INTER + INTRA:          35.168
REMARK INTER:                  35.433
REMARK INTRA:                  -0.265
REMARK UNBOUND:                -0.268
REMARK SMILES O=c1cc(-c2ccc(O)c(O)c2)oc2cc(O)cc(O)c12
REMARK SMILES IDX 4 1 3 2 2 3 1 4 21 5 19 6 18 7 16 8 15 9 14 10 13 11 5 12
REMARK SMILES IDX 6 13 7 14 8 15 12 16 10 17 9 18 11 20 20 22 17 24
REMARK H PARENT 9 19 11 21 20 23 17 25
REMARK Flexibility Score: inf
ROOT
ATOM      1  C   UNL     1       9.370   2.100   8.551  1.00  0.00     0.138 A 
ATOM      2  C   UNL     1       9.375   3.421   8.081  1.00  0.00     0.100 A 
ATOM      3  C   UNL     1      10.362   3.830   7.182  1.00  0.00     0.197 A 
ATOM      4  O   UNL     1      10.378   5.036   6.827  1.00  0.00    -0.289 OA
ATOM      5  C   UNL     1      11.328   2.901   6.727  1.00  0.00     0.107 A 
ATOM      6  C   UNL     1      12.355   3.194   5.781  1.00  0.00     0.134 A 
ATOM      7  C   UNL     1      13.325   2.226   5.494  1.00  0.00     0.093 A 
ATOM      8  C   UNL     1      13.272   0.959   6.073  1.00  0.00     0.123 A 
ATOM      9  C   UNL     1      12.241   0.643   6.958  1.00  0.00     0.094 A 
ATOM     10  C   UNL     1      11.278   1.598   7.292  1.00  0.00     0.146 A 
ATOM     11  O   UNL     1      10.320   1.263   8.150  1.00  0.00    -0.456 OA
ENDROOT
BRANCH   1  12
ATOM     12  C   UNL     1       8.343   1.613   9.507  1.00  0.00     0.021 A 
ATOM     13  C   UNL     1       8.674   1.249  10.826  1.00  0.00     0.016 A 
ATOM     14  C   UNL     1       7.685   0.803  11.707  1.00  0.00     0.051 A 
ATOM     15  C   UNL     1       6.350   0.721  11.291  1.00  0.00     0.157 A 
ATOM     16  C   UNL     1       6.998   1.540   9.101  1.00  0.00     0.062 A 
ATOM     17  C   UNL     1       6.006   1.093   9.981  1.00  0.00     0.158 A 
BRANCH  15  18
ATOM     18  O   UNL     1       5.367   0.275  12.173  1.00  0.00    -0.504 OA
ATOM     19  H   UNL     1       4.893   0.909  12.804  1.00  0.00     0.293 HD
ENDBRANCH  15  18
BRANCH  17  20
ATOM     20  O   UNL     1       4.686   1.027   9.536  1.00  0.00    -0.504 OA
ATOM     21  H   UNL     1       4.439   0.627   8.638  1.00  0.00     0.293 HD
ENDBRANCH  17  20
ENDBRANCH   1  12
BRANCH   6  22
ATOM     22  O   UNL     1      12.450   4.400   5.081  1.00  0.00    -0.507 OA
ATOM     23  H   UNL     1      11.666   4.931   4.737  1.00  0.00     0.293 HD
ENDBRANCH   6  22
BRANCH   8  24
ATOM     24  O   UNL     1      14.247   0.015   5.753  1.00  0.00    -0.508 OA
ATOM     25  H   UNL     1      14.587  -0.095   4.805  1.00  0.00     0.293 HD
ENDBRANCH   8  24
TORSDOF 5
ENDMDL
MODEL 3
REMARK VINA RESULT:    30.337      4.759      8.141
REMARK INTER + INTRA:          35.389
REMARK INTER:                  35.658
REMARK INTRA:                  -0.269
REMARK UNBOUND:                -0.268
REMARK SMILES O=c1cc(-c2ccc(O)c(O)c2)oc2cc(O)cc(O)c12
REMARK SMILES IDX 4 1 3 2 2 3 1 4 21 5 19 6 18 7 16 8 15 9 14 10 13 11 5 12
REMARK SMILES IDX 6 13 7 14 8 15 12 16 10 17 9 18 11 20 20 22 17 24
REMARK H PARENT 9 19 11 21 20 23 17 25
REMARK Flexibility Score: inf
ROOT
ATOM      1  C   UNL     1      14.974   3.714   8.482  1.00  0.00     0.138 A 
ATOM      2  C   UNL     1      14.186   4.795   8.062  1.00  0.00     0.100 A 
ATOM      3  C   UNL     1      13.113   4.571   7.198  1.00  0.00     0.197 A 
ATOM      4  O   UNL     1      12.462   5.568   6.789  1.00  0.00    -0.289 OA
ATOM      5  C   UNL     1      12.809   3.254   6.779  1.00  0.00     0.107 A 
ATOM      6  C   UNL     1      11.715   2.902   5.933  1.00  0.00     0.134 A 
ATOM      7  C   UNL     1      11.582   1.579   5.492  1.00  0.00     0.093 A 
ATOM      8  C   UNL     1      12.467   0.587   5.913  1.00  0.00     0.123 A 
ATOM      9  C   UNL     1      13.508   0.910   6.783  1.00  0.00     0.094 A 
ATOM     10  C   UNL     1      13.689   2.226   7.214  1.00  0.00     0.146 A 
ATOM     11  O   UNL     1      14.701   2.496   8.031  1.00  0.00    -0.456 OA
ENDROOT
BRANCH   1  12
ATOM     12  C   UNL     1      16.127   3.896   9.401  1.00  0.00     0.021 A 
ATOM     13  C   UNL     1      15.946   4.113  10.780  1.00  0.00     0.016 A 
ATOM     14  C   UNL     1      17.050   4.270  11.623  1.00  0.00     0.051 A 
ATOM     15  C   UNL     1      18.351   4.207  11.106  1.00  0.00     0.157 A 
ATOM     16  C   UNL     1      17.436   3.820   8.892  1.00  0.00     0.062 A 
ATOM     17  C   UNL     1      18.543   3.979   9.733  1.00  0.00     0.158 A 
BRANCH  15  18
ATOM     18  O   UNL     1      19.449   4.366  11.950  1.00  0.00    -0.504 OA
ATOM     19  H   UNL     1      20.343   3.936  11.745  1.00  0.00     0.293 HD
ENDBRANCH  15  18
BRANCH  17  20
ATOM     20  O   UNL     1      19.825   3.907   9.188  1.00  0.00    -0.504 OA
ATOM     21  H   UNL     1      20.223   4.664   8.646  1.00  0.00     0.293 HD
ENDBRANCH  17  20
ENDBRANCH   1  12
BRANCH   6  22
ATOM     22  O   UNL     1      10.725   3.799   5.523  1.00  0.00    -0.507 OA
ATOM     23  H   UNL     1      10.887   4.760   5.267  1.00  0.00     0.293 HD
ENDBRANCH   6  22
BRANCH   8  24
ATOM     24  O   UNL     1      12.295  -0.721   5.465  1.00  0.00    -0.508 OA
ATOM     25  H   UNL     1      12.352  -1.510   6.097  1.00  0.00     0.293 HD
ENDBRANCH   8  24
TORSDOF 5
ENDMDL
MODEL 4
REMARK VINA RESULT:    30.658      4.642      7.619
REMARK INTER + INTRA:          35.768
REMARK INTER:                  36.030
REMARK INTRA:                  -0.263
REMARK UNBOUND:                -0.268
REMARK SMILES O=c1cc(-c2ccc(O)c(O)c2)oc2cc(O)cc(O)c12
REMARK SMILES IDX 4 1 3 2 2 3 1 4 21 5 19 6 18 7 16 8 15 9 14 10 13 11 5 12
REMARK SMILES IDX 6 13 7 14 8 15 12 16 10 17 9 18 11 20 20 22 17 24
REMARK H PARENT 9 19 11 21 20 23 17 25
REMARK Flexibility Score: inf
ROOT
ATOM      1  C   UNL     1      14.982   3.040   8.373  1.00  0.00     0.138 A 
ATOM      2  C   UNL     1      14.949   1.736   7.858  1.00  0.00     0.100 A 
ATOM      3  C   UNL     1      13.904   1.354   7.015  1.00  0.00     0.197 A 
ATOM      4  O   UNL     1      13.868   0.160   6.618  1.00  0.00    -0.289 OA
ATOM      5  C   UNL     1      12.906   2.292   6.662  1.00  0.00     0.107 A 
ATOM      6  C   UNL     1      11.817   2.027   5.779  1.00  0.00     0.134 A 
ATOM      7  C   UNL     1      10.825   2.998   5.595  1.00  0.00     0.093 A 
ATOM      8  C   UNL     1      10.913   4.245   6.214  1.00  0.00     0.123 A 
ATOM      9  C   UNL     1      12.002   4.534   7.037  1.00  0.00     0.094 A 
ATOM     10  C   UNL     1      12.990   3.574   7.268  1.00  0.00     0.146 A 
ATOM     11  O   UNL     1      14.004   3.884   8.070  1.00  0.00    -0.456 OA
ENDROOT
BRANCH   1  12
ATOM     12  C   UNL     1      16.071   3.499   9.274  1.00  0.00     0.021 A 
ATOM     13  C   UNL     1      15.823   3.848  10.615  1.00  0.00     0.016 A 
ATOM     14  C   UNL     1      16.870   4.267  11.441  1.00  0.00     0.051 A 
ATOM     15  C   UNL     1      18.179   4.337  10.948  1.00  0.00     0.157 A 
ATOM     16  C   UNL     1      17.390   3.559   8.789  1.00  0.00     0.062 A 
ATOM     17  C   UNL     1      18.439   3.979   9.615  1.00  0.00     0.158 A 
BRANCH  15  18
ATOM     18  O   UNL     1      19.218   4.756  11.776  1.00  0.00    -0.504 OA
ATOM     19  H   UNL     1      19.063   5.412  12.533  1.00  0.00     0.293 HD
ENDBRANCH  15  18
BRANCH  17  20
ATOM     20  O   UNL     1      19.731   4.034   9.093  1.00  0.00    -0.504 OA
ATOM     21  H   UNL     1      20.552   4.027   9.687  1.00  0.00     0.293 HD
ENDBRANCH  17  20
ENDBRANCH   1  12
BRANCH   6  22
ATOM     22  O   UNL     1      11.678   0.846   5.044  1.00  0.00    -0.507 OA
ATOM     23  H   UNL     1      10.939   0.660   4.385  1.00  0.00     0.293 HD
ENDBRANCH   6  22
BRANCH   8  24
ATOM     24  O   UNL     1       9.916   5.193   5.996  1.00  0.00    -0.508 OA
ATOM     25  H   UNL     1      10.042   5.954   5.340  1.00  0.00     0.293 HD
ENDBRANCH   8  24
TORSDOF 5
ENDMDL
MODEL 5
REMARK VINA RESULT:    31.362      1.372      7.071
REMARK INTER + INTRA:          36.595
REMARK INTER:                  36.859
REMARK INTRA:                  -0.264
REMARK UNBOUND:                -0.268
REMARK SMILES O=c1cc(-c2ccc(O)c(O)c2)oc2cc(O)cc(O)c12
REMARK SMILES IDX 4 1 3 2 2 3 1 4 21 5 19 6 18 7 16 8 15 9 14 10 13 11 5 12
REMARK SMILES IDX 6 13 7 14 8 15 12 16 10 17 9 18 11 20 20 22 17 24
REMARK H PARENT 9 19 11 21 20 23 17 25
REMARK Flexibility Score: inf
ROOT
ATOM      1  C   UNL     1       9.158   1.598   8.643  1.00  0.00     0.138 A 
ATOM      2  C   UNL     1       9.277   1.356  10.019  1.00  0.00     0.100 A 
ATOM      3  C   UNL     1       8.127   1.175  10.789  1.00  0.00     0.197 A 
ATOM      4  O   UNL     1       8.262   1.021  12.031  1.00  0.00    -0.289 OA
ATOM      5  C   UNL     1       6.854   1.206  10.172  1.00  0.00     0.107 A 
ATOM      6  C   UNL     1       5.616   0.994  10.850  1.00  0.00     0.134 A 
ATOM      7  C   UNL     1       4.412   1.164  10.155  1.00  0.00     0.093 A 
ATOM      8  C   UNL     1       4.400   1.478   8.797  1.00  0.00     0.123 A 
ATOM      9  C   UNL     1       5.606   1.634   8.112  1.00  0.00     0.094 A 
ATOM     10  C   UNL     1       6.824   1.506   8.783  1.00  0.00     0.146 A 
ATOM     11  O   UNL     1       7.950   1.676   8.098  1.00  0.00    -0.456 OA
ENDROOT
BRANCH   1  12
ATOM     12  C   UNL     1      10.348   1.796   7.778  1.00  0.00     0.021 A 
ATOM     13  C   UNL     1      11.042   0.709   7.214  1.00  0.00     0.016 A 
ATOM     14  C   UNL     1      12.154   0.926   6.395  1.00  0.00     0.051 A 
ATOM     15  C   UNL     1      12.585   2.229   6.117  1.00  0.00     0.157 A 
ATOM     16  C   UNL     1      10.780   3.102   7.483  1.00  0.00     0.062 A 
ATOM     17  C   UNL     1      11.893   3.322   6.664  1.00  0.00     0.158 A 
BRANCH  15  18
ATOM     18  O   UNL     1      13.695   2.441   5.300  1.00  0.00    -0.504 OA
ATOM     19  H   UNL     1      14.300   3.244   5.423  1.00  0.00     0.293 HD
ENDBRANCH  15  18
BRANCH  17  20
ATOM     20  O   UNL     1      12.295   4.632   6.404  1.00  0.00    -0.504 OA
ATOM     21  H   UNL     1      12.576   4.936   5.479  1.00  0.00     0.293 HD
ENDBRANCH  17  20
ENDBRANCH   1  12
BRANCH   6  22
ATOM     22  O   UNL     1       5.516   0.594  12.185  1.00  0.00    -0.507 OA
ATOM     23  H   UNL     1       6.123  -0.073  12.635  1.00  0.00     0.293 HD
ENDBRANCH   6  22
BRANCH   8  24
ATOM     24  O   UNL     1       3.183   1.625   8.135  1.00  0.00    -0.508 OA
ATOM     25  H   UNL     1       2.309   1.697   8.642  1.00  0.00     0.293 HD
ENDBRANCH   8  24
TORSDOF 5
ENDMDL
MODEL 6
REMARK VINA RESULT:    31.440      5.639      7.798
REMARK INTER + INTRA:          36.686
REMARK INTER:                  36.955
REMARK INTRA:                  -0.269
REMARK UNBOUND:                -0.268
REMARK SMILES O=c1cc(-c2ccc(O)c(O)c2)oc2cc(O)cc(O)c12
REMARK SMILES IDX 4 1 3 2 2 3 1 4 21 5 19 6 18 7 16 8 15 9 14 10 13 11 5 12
REMARK SMILES IDX 6 13 7 14 8 15 12 16 10 17 9 18 11 20 20 22 17 24
REMARK H PARENT 9 19 11 21 20 23 17 25
REMARK Flexibility Score: inf
ROOT
ATOM      1  C   UNL     1      15.365   3.544   8.614  1.00  0.00     0.138 A 
ATOM      2  C   UNL     1      15.293   3.784   9.993  1.00  0.00     0.100 A 
ATOM      3  C   UNL     1      16.468   3.959  10.725  1.00  0.00     0.197 A 
ATOM      4  O   UNL     1      16.375   4.111  11.971  1.00  0.00    -0.289 OA
ATOM      5  C   UNL     1      17.719   3.926  10.066  1.00  0.00     0.107 A 
ATOM      6  C   UNL     1      18.980   4.133  10.702  1.00  0.00     0.134 A 
ATOM      7  C   UNL     1      20.160   3.961   9.968  1.00  0.00     0.093 A 
ATOM      8  C   UNL     1      20.125   3.650   8.609  1.00  0.00     0.123 A 
ATOM      9  C   UNL     1      18.897   3.498   7.964  1.00  0.00     0.094 A 
ATOM     10  C   UNL     1      17.703   3.629   8.676  1.00  0.00     0.146 A 
ATOM     11  O   UNL     1      16.554   3.463   8.028  1.00  0.00    -0.456 OA
ENDROOT
BRANCH   1  12
ATOM     12  C   UNL     1      14.146   3.351   7.787  1.00  0.00     0.021 A 
ATOM     13  C   UNL     1      13.411   4.442   7.287  1.00  0.00     0.016 A 
ATOM     14  C   UNL     1      12.273   4.230   6.503  1.00  0.00     0.051 A 
ATOM     15  C   UNL     1      11.854   2.929   6.200  1.00  0.00     0.157 A 
ATOM     16  C   UNL     1      13.726   2.047   7.467  1.00  0.00     0.062 A 
ATOM     17  C   UNL     1      12.587   1.832   6.684  1.00  0.00     0.158 A 
BRANCH  15  18
ATOM     18  O   UNL     1      10.718   2.722   5.419  1.00  0.00    -0.504 OA
ATOM     19  H   UNL     1      10.473   1.803   5.071  1.00  0.00     0.293 HD
ENDBRANCH  15  18
BRANCH  17  20
ATOM     20  O   UNL     1      12.198   0.524   6.397  1.00  0.00    -0.504 OA
ATOM     21  H   UNL     1      11.622   0.296   5.595  1.00  0.00     0.293 HD
ENDBRANCH  17  20
ENDBRANCH   1  12
BRANCH   6  22
ATOM     22  O   UNL     1      19.125   4.530  12.034  1.00  0.00    -0.507 OA
ATOM     23  H   UNL     1      18.859   3.978  12.834  1.00  0.00     0.293 HD
ENDBRANCH   6  22
BRANCH   8  24
ATOM     24  O   UNL     1      21.319   3.501   7.907  1.00  0.00    -0.508 OA
ATOM     25  H   UNL     1      21.554   2.635   7.437  1.00  0.00     0.293 HD
ENDBRANCH   8  24
TORSDOF 5
ENDMDL
