MODEL 1
REMARK VINA RESULT:    -0.739      0.000      0.000
REMARK INTER + INTRA:          -3.597
REMARK INTER:                  -1.863
REMARK INTRA:                  -1.734
REMARK UNBOUND:                -1.734
REMARK SMILES CCCCCCCCCCCCCCCCCCCCCCCCCCCC(=O)[O-]
REMARK SMILES IDX 15 1 16 2 17 3 18 4 19 5 20 6 21 7 22 8 23 9 24 10 25 11
REMARK SMILES IDX 26 12 27 13 28 14 29 15 30 16 14 17 13 18 12 19 11 20 10 21
REMARK SMILES IDX 9 22 8 23 7 24 6 25 5 26 4 27 3 28 2 29 1 30
REMARK H PARENT
REMARK Flexibility Score: inf
ROOT
ATOM      1  C   UNL     1      31.035  -2.551  45.333  1.00  0.00     0.000 C 
ENDROOT
BRANCH   1   2
ATOM      2  C   UNL     1      29.813  -1.924  46.018  1.00  0.00     0.000 C 
BRANCH   2   3
ATOM      3  C   UNL     1      28.590  -2.846  45.919  1.00  0.00     0.000 C 
BRANCH   3   4
ATOM      4  C   UNL     1      27.291  -2.037  46.004  1.00  0.00     0.000 C 
BRANCH   4   5
ATOM      5  C   UNL     1      26.358  -2.586  47.096  1.00  0.00     0.000 C 
BRANCH   5   6
ATOM      6  C   UNL     1      26.959  -3.793  47.832  1.00  0.00     0.000 C 
BRANCH   6   7
ATOM      7  C   UNL     1      27.584  -3.416  49.187  1.00  0.00     0.000 C 
BRANCH   7   8
ATOM      8  C   UNL     1      26.722  -3.852  50.383  1.00  0.00     0.000 C 
BRANCH   8   9
ATOM      9  C   UNL     1      27.099  -3.195  51.726  1.00  0.00     0.000 C 
BRANCH   9  10
ATOM     10  C   UNL     1      26.725  -4.038  52.966  1.00  0.00     0.000 C 
BRANCH  10  11
ATOM     11  C   UNL     1      26.751  -3.210  54.263  1.00  0.00     0.000 C 
BRANCH  11  12
ATOM     12  C   UNL     1      27.325  -1.796  54.057  1.00  0.00     0.006 C 
BRANCH  12  13
ATOM     13  C   UNL     1      27.049  -0.835  55.224  1.00  0.00     0.053 C 
BRANCH  13  14
ATOM     14  C   UNL     1      25.908   0.097  54.942  1.00  0.00     0.041 C 
ATOM     15  O   UNL     1      24.827  -0.007  55.582  1.00  0.00    -0.550 OA
ATOM     16  O   UNL     1      26.032   1.067  53.957  1.00  0.00    -0.550 OA
ENDBRANCH  13  14
ENDBRANCH  12  13
ENDBRANCH  11  12
ENDBRANCH  10  11
ENDBRANCH   9  10
ENDBRANCH   8   9
ENDBRANCH   7   8
ENDBRANCH   6   7
ENDBRANCH   5   6
ENDBRANCH   4   5
ENDBRANCH   3   4
ENDBRANCH   2   3
ENDBRANCH   1   2
BRANCH   1  17
ATOM     17  C   UNL     1      31.516  -1.739  44.113  1.00  0.00     0.000 C 
BRANCH  17  18
ATOM     18  C   UNL     1      30.381  -1.175  43.240  1.00  0.00     0.000 C 
BRANCH  18  19
ATOM     19  C   UNL     1      30.893  -0.410  42.009  1.00  0.00     0.000 C 
BRANCH  19  20
ATOM     20  C   UNL     1      32.429  -0.413  41.875  1.00  0.00     0.000 C 
BRANCH  20  21
ATOM     21  C   UNL     1      33.128   0.944  42.089  1.00  0.00     0.000 C 
BRANCH  21  22
ATOM     22  C   UNL     1      34.657   0.832  42.213  1.00  0.00    -0.000 C 
BRANCH  22  23
ATOM     23  C   UNL     1      35.130  -0.607  42.482  1.00  0.00    -0.000 C 
BRANCH  23  24
ATOM     24  C   UNL     1      36.431  -0.695  43.308  1.00  0.00    -0.000 C 
BRANCH  24  25
ATOM     25  C   UNL     1      37.567  -1.390  42.536  1.00  0.00    -0.000 C 
BRANCH  25  26
ATOM     26  C   UNL     1      38.511  -2.177  43.458  1.00  0.00    -0.000 C 
BRANCH  26  27
ATOM     27  C   UNL     1      38.486  -3.692  43.181  1.00  0.00    -0.000 C 
BRANCH  27  28
ATOM     28  C   UNL     1      37.274  -4.395  43.820  1.00  0.00    -0.000 C 
BRANCH  28  29
ATOM     29  C   UNL     1      35.947  -4.212  43.059  1.00  0.00    -0.003 C 
ATOM     30  C   UNL     1      34.730  -4.165  43.984  1.00  0.00     0.004 C 
ENDBRANCH  28  29
ENDBRANCH  27  28
ENDBRANCH  26  27
ENDBRANCH  25  26
ENDBRANCH  24  25
ENDBRANCH  23  24
ENDBRANCH  22  23
ENDBRANCH  21  22
ENDBRANCH  20  21
ENDBRANCH  19  20
ENDBRANCH  18  19
ENDBRANCH  17  18
ENDBRANCH   1  17
TORSDOF 26
ENDMDL
MODEL 2
REMARK VINA RESULT:    -0.727      7.044     13.141
REMARK INTER + INTRA:          -3.567
REMARK INTER:                  -2.377
REMARK INTRA:                  -1.189
REMARK UNBOUND:                -1.734
REMARK SMILES CCCCCCCCCCCCCCCCCCCCCCCCCCCC(=O)[O-]
REMARK SMILES IDX 15 1 16 2 17 3 18 4 19 5 20 6 21 7 22 8 23 9 24 10 25 11
REMARK SMILES IDX 26 12 27 13 28 14 29 15 30 16 14 17 13 18 12 19 11 20 10 21
REMARK SMILES IDX 9 22 8 23 7 24 6 25 5 26 4 27 3 28 2 29 1 30
REMARK H PARENT
REMARK Flexibility Score: inf
ROOT
ATOM      1  C   UNL     1      24.465  -3.872  47.359  1.00  0.00     0.000 C 
ENDROOT
BRANCH   1   2
ATOM      2  C   UNL     1      25.713  -3.030  47.059  1.00  0.00     0.000 C 
BRANCH   2   3
ATOM      3  C   UNL     1      26.991  -3.767  47.481  1.00  0.00     0.000 C 
BRANCH   3   4
ATOM      4  C   UNL     1      28.162  -3.394  46.565  1.00  0.00     0.000 C 
BRANCH   4   5
ATOM      5  C   UNL     1      27.952  -2.014  45.922  1.00  0.00     0.000 C 
BRANCH   5   6
ATOM      6  C   UNL     1      29.218  -1.145  45.967  1.00  0.00     0.000 C 
BRANCH   6   7
ATOM      7  C   UNL     1      30.497  -1.933  45.634  1.00  0.00     0.000 C 
BRANCH   7   8
ATOM      8  C   UNL     1      30.959  -1.735  44.182  1.00  0.00     0.000 C 
BRANCH   8   9
ATOM      9  C   UNL     1      31.980  -0.598  43.977  1.00  0.00     0.000 C 
BRANCH   9  10
ATOM     10  C   UNL     1      32.770  -0.692  42.652  1.00  0.00     0.000 C 
BRANCH  10  11
ATOM     11  C   UNL     1      34.270  -0.400  42.846  1.00  0.00     0.000 C 
BRANCH  11  12
ATOM     12  C   UNL     1      35.172  -1.495  42.248  1.00  0.00     0.006 C 
BRANCH  12  13
ATOM     13  C   UNL     1      36.264  -1.995  43.208  1.00  0.00     0.053 C 
BRANCH  13  14
ATOM     14  C   UNL     1      36.172  -3.470  43.463  1.00  0.00     0.041 C 
ATOM     15  O   UNL     1      37.214  -4.178  43.488  1.00  0.00    -0.550 OA
ATOM     16  O   UNL     1      34.932  -4.066  43.651  1.00  0.00    -0.550 OA
ENDBRANCH  13  14
ENDBRANCH  12  13
ENDBRANCH  11  12
ENDBRANCH  10  11
ENDBRANCH   9  10
ENDBRANCH   8   9
ENDBRANCH   7   8
ENDBRANCH   6   7
ENDBRANCH   5   6
ENDBRANCH   4   5
ENDBRANCH   3   4
ENDBRANCH   2   3
ENDBRANCH   1   2
BRANCH   1  17
ATOM     17  C   UNL     1      23.288  -3.551  46.413  1.00  0.00     0.000 C 
BRANCH  17  18
ATOM     18  C   UNL     1      21.907  -3.944  46.966  1.00  0.00     0.000 C 
BRANCH  18  19
ATOM     19  C   UNL     1      20.752  -3.556  46.029  1.00  0.00     0.000 C 
BRANCH  19  20
ATOM     20  C   UNL     1      20.868  -4.170  44.619  1.00  0.00     0.000 C 
BRANCH  20  21
ATOM     21  C   UNL     1      19.563  -4.234  43.801  1.00  0.00     0.000 C 
BRANCH  21  22
ATOM     22  C   UNL     1      19.544  -5.372  42.767  1.00  0.00    -0.000 C 
BRANCH  22  23
ATOM     23  C   UNL     1      20.693  -6.376  42.964  1.00  0.00    -0.000 C 
BRANCH  23  24
ATOM     24  C   UNL     1      20.226  -7.834  43.161  1.00  0.00    -0.000 C 
BRANCH  24  25
ATOM     25  C   UNL     1      21.407  -8.807  43.336  1.00  0.00    -0.000 C 
BRANCH  25  26
ATOM     26  C   UNL     1      21.172  -9.821  44.466  1.00  0.00    -0.000 C 
BRANCH  26  27
ATOM     27  C   UNL     1      22.184 -10.982  44.442  1.00  0.00    -0.000 C 
BRANCH  27  28
ATOM     28  C   UNL     1      21.912 -12.032  45.536  1.00  0.00    -0.000 C 
BRANCH  28  29
ATOM     29  C   UNL     1      21.268 -13.337  45.031  1.00  0.00    -0.003 C 
ATOM     30  C   UNL     1      21.610 -13.647  43.574  1.00  0.00     0.004 C 
ENDBRANCH  28  29
ENDBRANCH  27  28
ENDBRANCH  26  27
ENDBRANCH  25  26
ENDBRANCH  24  25
ENDBRANCH  23  24
ENDBRANCH  22  23
ENDBRANCH  21  22
ENDBRANCH  20  21
ENDBRANCH  19  20
ENDBRANCH  18  19
ENDBRANCH  17  18
ENDBRANCH   1  17
TORSDOF 26
ENDMDL
MODEL 3
REMARK VINA RESULT:    -0.399      3.959     12.429
REMARK INTER + INTRA:          -2.739
REMARK INTER:                  -1.202
REMARK INTRA:                  -1.537
REMARK UNBOUND:                -1.734
REMARK SMILES CCCCCCCCCCCCCCCCCCCCCCCCCCCC(=O)[O-]
REMARK SMILES IDX 15 1 16 2 17 3 18 4 19 5 20 6 21 7 22 8 23 9 24 10 25 11
REMARK SMILES IDX 26 12 27 13 28 14 29 15 30 16 14 17 13 18 12 19 11 20 10 21
REMARK SMILES IDX 9 22 8 23 7 24 6 25 5 26 4 27 3 28 2 29 1 30
REMARK H PARENT
REMARK Flexibility Score: inf
ROOT
ATOM      1  C   UNL     1      30.408  -1.481  44.387  1.00  0.00     0.000 C 
ENDROOT
BRANCH   1   2
ATOM      2  C   UNL     1      31.731  -0.773  44.062  1.00  0.00     0.000 C 
BRANCH   2   3
ATOM      3  C   UNL     1      31.948  -0.677  42.546  1.00  0.00     0.000 C 
BRANCH   3   4
ATOM      4  C   UNL     1      33.444  -0.688  42.209  1.00  0.00     0.000 C 
BRANCH   4   5
ATOM      5  C   UNL     1      34.007   0.738  42.111  1.00  0.00     0.000 C 
BRANCH   5   6
ATOM      6  C   UNL     1      35.525   0.757  41.876  1.00  0.00     0.000 C 
BRANCH   6   7
ATOM      7  C   UNL     1      36.147  -0.650  41.876  1.00  0.00     0.000 C 
BRANCH   7   8
ATOM      8  C   UNL     1      37.045  -0.905  43.098  1.00  0.00     0.000 C 
BRANCH   8   9
ATOM      9  C   UNL     1      38.501  -1.286  42.764  1.00  0.00     0.000 C 
BRANCH   9  10
ATOM     10  C   UNL     1      39.015  -2.532  43.520  1.00  0.00     0.000 C 
BRANCH  10  11
ATOM     11  C   UNL     1      38.921  -3.811  42.668  1.00  0.00     0.000 C 
BRANCH  11  12
ATOM     12  C   UNL     1      37.887  -4.814  43.211  1.00  0.00     0.006 C 
BRANCH  12  13
ATOM     13  C   UNL     1      36.808  -4.176  44.100  1.00  0.00     0.053 C 
BRANCH  13  14
ATOM     14  C   UNL     1      35.461  -4.151  43.441  1.00  0.00     0.041 C 
ATOM     15  O   UNL     1      34.427  -4.454  44.093  1.00  0.00    -0.550 OA
ATOM     16  O   UNL     1      35.353  -3.813  42.098  1.00  0.00    -0.550 OA
ENDBRANCH  13  14
ENDBRANCH  12  13
ENDBRANCH  11  12
ENDBRANCH  10  11
ENDBRANCH   9  10
ENDBRANCH   8   9
ENDBRANCH   7   8
ENDBRANCH   6   7
ENDBRANCH   5   6
ENDBRANCH   4   5
ENDBRANCH   3   4
ENDBRANCH   2   3
ENDBRANCH   1   2
BRANCH   1  17
ATOM     17  C   UNL     1      30.594  -2.685  45.334  1.00  0.00     0.000 C 
BRANCH  17  18
ATOM     18  C   UNL     1      29.277  -3.323  45.812  1.00  0.00     0.000 C 
BRANCH  18  19
ATOM     19  C   UNL     1      28.045  -2.453  45.514  1.00  0.00     0.000 C 
BRANCH  19  20
ATOM     20  C   UNL     1      26.947  -2.547  46.592  1.00  0.00     0.000 C 
BRANCH  20  21
ATOM     21  C   UNL     1      27.051  -3.744  47.558  1.00  0.00     0.000 C 
BRANCH  21  22
ATOM     22  C   UNL     1      26.430  -3.473  48.938  1.00  0.00    -0.000 C 
BRANCH  22  23
ATOM     23  C   UNL     1      27.458  -3.543  50.080  1.00  0.00    -0.000 C 
BRANCH  23  24
ATOM     24  C   UNL     1      26.834  -3.758  51.475  1.00  0.00    -0.000 C 
BRANCH  24  25
ATOM     25  C   UNL     1      27.134  -2.592  52.435  1.00  0.00    -0.000 C 
BRANCH  25  26
ATOM     26  C   UNL     1      26.958  -2.984  53.910  1.00  0.00    -0.000 C 
BRANCH  26  27
ATOM     27  C   UNL     1      27.031  -1.774  54.860  1.00  0.00    -0.000 C 
BRANCH  27  28
ATOM     28  C   UNL     1      26.941  -0.427  54.118  1.00  0.00    -0.000 C 
BRANCH  28  29
ATOM     29  C   UNL     1      25.916   0.564  54.702  1.00  0.00    -0.003 C 
ATOM     30  C   UNL     1      24.954  -0.088  55.695  1.00  0.00     0.004 C 
ENDBRANCH  28  29
ENDBRANCH  27  28
ENDBRANCH  26  27
ENDBRANCH  25  26
ENDBRANCH  24  25
ENDBRANCH  23  24
ENDBRANCH  22  23
ENDBRANCH  21  22
ENDBRANCH  20  21
ENDBRANCH  19  20
ENDBRANCH  18  19
ENDBRANCH  17  18
ENDBRANCH   1  17
TORSDOF 26
ENDMDL
MODEL 4
REMARK VINA RESULT:     0.139      4.230     12.647
REMARK INTER + INTRA:          -1.383
REMARK INTER:                   0.092
REMARK INTRA:                  -1.475
REMARK UNBOUND:                -1.734
REMARK SMILES CCCCCCCCCCCCCCCCCCCCCCCCCCCC(=O)[O-]
REMARK SMILES IDX 15 1 16 2 17 3 18 4 19 5 20 6 21 7 22 8 23 9 24 10 25 11
REMARK SMILES IDX 26 12 27 13 28 14 29 15 30 16 14 17 13 18 12 19 11 20 10 21
REMARK SMILES IDX 9 22 8 23 7 24 6 25 5 26 4 27 3 28 2 29 1 30
REMARK H PARENT
REMARK Flexibility Score: inf
ROOT
ATOM      1  C   UNL     1      28.032  -3.251  46.674  1.00  0.00     0.000 C 
ENDROOT
BRANCH   1   2
ATOM      2  C   UNL     1      27.356  -1.941  46.245  1.00  0.00     0.000 C 
BRANCH   2   3
ATOM      3  C   UNL     1      28.323  -1.057  45.445  1.00  0.00     0.000 C 
BRANCH   3   4
ATOM      4  C   UNL     1      29.778  -1.401  45.780  1.00  0.00     0.000 C 
BRANCH   4   5
ATOM      5  C   UNL     1      30.550  -1.849  44.529  1.00  0.00     0.000 C 
BRANCH   5   6
ATOM      6  C   UNL     1      29.856  -1.427  43.225  1.00  0.00     0.000 C 
BRANCH   6   7
ATOM      7  C   UNL     1      30.823  -0.788  42.213  1.00  0.00     0.000 C 
BRANCH   7   8
ATOM      8  C   UNL     1      32.146  -0.338  42.853  1.00  0.00     0.000 C 
BRANCH   8   9
ATOM      9  C   UNL     1      33.382  -0.460  41.939  1.00  0.00     0.000 C 
BRANCH   9  10
ATOM     10  C   UNL     1      34.388   0.704  42.083  1.00  0.00     0.000 C 
BRANCH  10  11
ATOM     11  C   UNL     1      35.816   0.208  42.378  1.00  0.00     0.000 C 
BRANCH  11  12
ATOM     12  C   UNL     1      35.976  -1.308  42.162  1.00  0.00     0.006 C 
BRANCH  12  13
ATOM     13  C   UNL     1      36.795  -2.010  43.257  1.00  0.00     0.053 C 
BRANCH  13  14
ATOM     14  C   UNL     1      36.380  -3.437  43.459  1.00  0.00     0.041 C 
ATOM     15  O   UNL     1      35.236  -3.824  43.099  1.00  0.00    -0.550 OA
ATOM     16  O   UNL     1      37.250  -4.334  44.064  1.00  0.00    -0.550 OA
ENDBRANCH  13  14
ENDBRANCH  12  13
ENDBRANCH  11  12
ENDBRANCH  10  11
ENDBRANCH   9  10
ENDBRANCH   8   9
ENDBRANCH   7   8
ENDBRANCH   6   7
ENDBRANCH   5   6
ENDBRANCH   4   5
ENDBRANCH   3   4
ENDBRANCH   2   3
ENDBRANCH   1   2
BRANCH   1  17
ATOM     17  C   UNL     1      27.148  -4.098  47.613  1.00  0.00     0.000 C 
BRANCH  17  18
ATOM     18  C   UNL     1      26.677  -3.357  48.877  1.00  0.00     0.000 C 
BRANCH  18  19
ATOM     19  C   UNL     1      27.178  -4.007  50.176  1.00  0.00     0.000 C 
BRANCH  19  20
ATOM     20  C   UNL     1      27.281  -3.023  51.359  1.00  0.00     0.000 C 
BRANCH  20  21
ATOM     21  C   UNL     1      26.256  -3.222  52.494  1.00  0.00     0.000 C 
BRANCH  21  22
ATOM     22  C   UNL     1      26.826  -3.973  53.708  1.00  0.00    -0.000 C 
BRANCH  22  23
ATOM     23  C   UNL     1      27.150  -3.041  54.888  1.00  0.00    -0.000 C 
BRANCH  23  24
ATOM     24  C   UNL     1      27.122  -1.540  54.529  1.00  0.00    -0.000 C 
BRANCH  24  25
ATOM     25  C   UNL     1      26.788  -0.655  55.745  1.00  0.00    -0.000 C 
BRANCH  25  26
ATOM     26  C   UNL     1      25.867   0.519  55.382  1.00  0.00    -0.000 C 
BRANCH  26  27
ATOM     27  C   UNL     1      25.889   0.851  53.879  1.00  0.00    -0.000 C 
BRANCH  27  28
ATOM     28  C   UNL     1      27.150   1.630  53.458  1.00  0.00    -0.000 C 
BRANCH  28  29
ATOM     29  C   UNL     1      26.900   3.098  53.066  1.00  0.00    -0.003 C 
ATOM     30  C   UNL     1      26.841   4.037  54.271  1.00  0.00     0.004 C 
ENDBRANCH  28  29
ENDBRANCH  27  28
ENDBRANCH  26  27
ENDBRANCH  25  26
ENDBRANCH  24  25
ENDBRANCH  23  24
ENDBRANCH  22  23
ENDBRANCH  21  22
ENDBRANCH  20  21
ENDBRANCH  19  20
ENDBRANCH  18  19
ENDBRANCH  17  18
ENDBRANCH   1  17
TORSDOF 26
ENDMDL
MODEL 5
REMARK VINA RESULT:     0.222      3.628      5.437
REMARK INTER + INTRA:          -1.175
REMARK INTER:                  -2.152
REMARK INTRA:                   0.977
REMARK UNBOUND:                -1.734
REMARK SMILES CCCCCCCCCCCCCCCCCCCCCCCCCCCC(=O)[O-]
REMARK SMILES IDX 15 1 16 2 17 3 18 4 19 5 20 6 21 7 22 8 23 9 24 10 25 11
REMARK SMILES IDX 26 12 27 13 28 14 29 15 30 16 14 17 13 18 12 19 11 20 10 21
REMARK SMILES IDX 9 22 8 23 7 24 6 25 5 26 4 27 3 28 2 29 1 30
REMARK H PARENT
REMARK Flexibility Score: inf
ROOT
ATOM      1  C   UNL     1      32.690  -0.781  43.245  1.00  0.00     0.000 C 
ENDROOT
BRANCH   1   2
ATOM      2  C   UNL     1      31.170  -0.939  43.390  1.00  0.00     0.000 C 
BRANCH   2   3
ATOM      3  C   UNL     1      30.453  -0.623  42.071  1.00  0.00     0.000 C 
BRANCH   3   4
ATOM      4  C   UNL     1      29.218  -1.514  41.896  1.00  0.00     0.000 C 
BRANCH   4   5
ATOM      5  C   UNL     1      27.924  -0.685  41.895  1.00  0.00     0.000 C 
BRANCH   5   6
ATOM      6  C   UNL     1      27.500  -0.253  43.307  1.00  0.00     0.000 C 
BRANCH   6   7
ATOM      7  C   UNL     1      27.907  -1.268  44.389  1.00  0.00     0.000 C 
BRANCH   7   8
ATOM      8  C   UNL     1      28.226  -0.606  45.739  1.00  0.00     0.000 C 
BRANCH   8   9
ATOM      9  C   UNL     1      28.952  -1.514  46.751  1.00  0.00     0.000 C 
BRANCH   9  10
ATOM     10  C   UNL     1      29.993  -2.462  46.113  1.00  0.00     0.000 C 
BRANCH  10  11
ATOM     11  C   UNL     1      29.359  -3.421  45.090  1.00  0.00     0.000 C 
BRANCH  11  12
ATOM     12  C   UNL     1      28.025  -4.016  45.578  1.00  0.00     0.006 C 
BRANCH  12  13
ATOM     13  C   UNL     1      28.028  -4.416  47.062  1.00  0.00     0.053 C 
BRANCH  13  14
ATOM     14  C   UNL     1      26.886  -3.810  47.823  1.00  0.00     0.041 C 
ATOM     15  O   UNL     1      27.019  -3.509  49.039  1.00  0.00    -0.550 OA
ATOM     16  O   UNL     1      25.668  -3.597  47.191  1.00  0.00    -0.550 OA
ENDBRANCH  13  14
ENDBRANCH  12  13
ENDBRANCH  11  12
ENDBRANCH  10  11
ENDBRANCH   9  10
ENDBRANCH   8   9
ENDBRANCH   7   8
ENDBRANCH   6   7
ENDBRANCH   5   6
ENDBRANCH   4   5
ENDBRANCH   3   4
ENDBRANCH   2   3
ENDBRANCH   1   2
BRANCH   1  17
ATOM     17  C   UNL     1      33.137   0.696  43.238  1.00  0.00     0.000 C 
BRANCH  17  18
ATOM     18  C   UNL     1      33.647   1.196  41.875  1.00  0.00     0.000 C 
BRANCH  18  19
ATOM     19  C   UNL     1      35.114   1.653  41.913  1.00  0.00     0.000 C 
BRANCH  19  20
ATOM     20  C   UNL     1      36.030   0.721  42.731  1.00  0.00     0.000 C 
BRANCH  20  21
ATOM     21  C   UNL     1      36.814  -0.333  41.925  1.00  0.00     0.000 C 
BRANCH  21  22
ATOM     22  C   UNL     1      37.164  -1.590  42.738  1.00  0.00    -0.000 C 
BRANCH  22  23
ATOM     23  C   UNL     1      38.614  -2.057  42.519  1.00  0.00    -0.000 C 
BRANCH  23  24
ATOM     24  C   UNL     1      38.736  -3.515  42.027  1.00  0.00    -0.000 C 
BRANCH  24  25
ATOM     25  C   UNL     1      38.903  -4.512  43.189  1.00  0.00    -0.000 C 
BRANCH  25  26
ATOM     26  C   UNL     1      37.698  -4.513  44.142  1.00  0.00    -0.000 C 
BRANCH  26  27
ATOM     27  C   UNL     1      36.389  -4.093  43.447  1.00  0.00    -0.000 C 
BRANCH  27  28
ATOM     28  C   UNL     1      35.146  -4.768  44.056  1.00  0.00    -0.000 C 
BRANCH  28  29
ATOM     29  C   UNL     1      33.994  -3.807  44.402  1.00  0.00    -0.003 C 
ATOM     30  C   UNL     1      32.715  -4.533  44.819  1.00  0.00     0.004 C 
ENDBRANCH  28  29
ENDBRANCH  27  28
ENDBRANCH  26  27
ENDBRANCH  25  26
ENDBRANCH  24  25
ENDBRANCH  23  24
ENDBRANCH  22  23
ENDBRANCH  21  22
ENDBRANCH  20  21
ENDBRANCH  19  20
ENDBRANCH  18  19
ENDBRANCH  17  18
ENDBRANCH   1  17
TORSDOF 26
ENDMDL
MODEL 6
REMARK VINA RESULT:     0.418      5.174     12.736
REMARK INTER + INTRA:          -0.680
REMARK INTER:                   0.994
REMARK INTRA:                  -1.673
REMARK UNBOUND:                -1.734
REMARK SMILES CCCCCCCCCCCCCCCCCCCCCCCCCCCC(=O)[O-]
REMARK SMILES IDX 15 1 16 2 17 3 18 4 19 5 20 6 21 7 22 8 23 9 24 10 25 11
REMARK SMILES IDX 26 12 27 13 28 14 29 15 30 16 14 17 13 18 12 19 11 20 10 21
REMARK SMILES IDX 9 22 8 23 7 24 6 25 5 26 4 27 3 28 2 29 1 30
REMARK H PARENT
REMARK Flexibility Score: inf
ROOT
ATOM      1  C   UNL     1      30.667  -2.805  44.975  1.00  0.00     0.000 C 
ENDROOT
BRANCH   1   2
ATOM      2  C   UNL     1      31.345  -1.434  44.848  1.00  0.00     0.000 C 
BRANCH   2   3
ATOM      3  C   UNL     1      31.385  -0.971  43.385  1.00  0.00     0.000 C 
BRANCH   3   4
ATOM      4  C   UNL     1      32.829  -0.879  42.882  1.00  0.00     0.000 C 
BRANCH   4   5
ATOM      5  C   UNL     1      33.229   0.575  42.586  1.00  0.00     0.000 C 
BRANCH   5   6
ATOM      6  C   UNL     1      34.629   0.687  41.965  1.00  0.00     0.000 C 
BRANCH   6   7
ATOM      7  C   UNL     1      35.354  -0.668  41.879  1.00  0.00     0.000 C 
BRANCH   7   8
ATOM      8  C   UNL     1      36.531  -0.778  42.862  1.00  0.00     0.000 C 
BRANCH   8   9
ATOM      9  C   UNL     1      37.723  -1.613  42.354  1.00  0.00     0.000 C 
BRANCH   9  10
ATOM     10  C   UNL     1      38.823  -1.850  43.414  1.00  0.00     0.000 C 
BRANCH  10  11
ATOM     11  C   UNL     1      38.993  -3.342  43.754  1.00  0.00     0.000 C 
BRANCH  11  12
ATOM     12  C   UNL     1      37.875  -4.220  43.163  1.00  0.00     0.006 C 
BRANCH  12  13
ATOM     13  C   UNL     1      36.715  -4.490  44.136  1.00  0.00     0.053 C 
BRANCH  13  14
ATOM     14  C   UNL     1      35.374  -4.222  43.519  1.00  0.00     0.041 C 
ATOM     15  O   UNL     1      35.277  -3.979  42.286  1.00  0.00    -0.550 OA
ATOM     16  O   UNL     1      34.234  -4.219  44.312  1.00  0.00    -0.550 OA
ENDBRANCH  13  14
ENDBRANCH  12  13
ENDBRANCH  11  12
ENDBRANCH  10  11
ENDBRANCH   9  10
ENDBRANCH   8   9
ENDBRANCH   7   8
ENDBRANCH   6   7
ENDBRANCH   5   6
ENDBRANCH   4   5
ENDBRANCH   3   4
ENDBRANCH   2   3
ENDBRANCH   1   2
BRANCH   1  17
ATOM     17  C   UNL     1      29.490  -2.797  45.972  1.00  0.00     0.000 C 
BRANCH  17  18
ATOM     18  C   UNL     1      28.193  -2.185  45.414  1.00  0.00     0.000 C 
BRANCH  18  19
ATOM     19  C   UNL     1      27.291  -1.589  46.508  1.00  0.00     0.000 C 
BRANCH  19  20
ATOM     20  C   UNL     1      26.786  -2.630  47.527  1.00  0.00     0.000 C 
BRANCH  20  21
ATOM     21  C   UNL     1      25.865  -3.732  46.967  1.00  0.00     0.000 C 
BRANCH  21  22
ATOM     22  C   UNL     1      24.427  -3.659  47.505  1.00  0.00    -0.000 C 
BRANCH  22  23
ATOM     23  C   UNL     1      23.382  -3.462  46.392  1.00  0.00    -0.000 C 
BRANCH  23  24
ATOM     24  C   UNL     1      22.000  -4.068  46.714  1.00  0.00    -0.000 C 
BRANCH  24  25
ATOM     25  C   UNL     1      20.864  -3.376  45.937  1.00  0.00    -0.000 C 
BRANCH  25  26
ATOM     26  C   UNL     1      20.335  -4.236  44.778  1.00  0.00    -0.000 C 
BRANCH  26  27
ATOM     27  C   UNL     1      21.061  -3.956  43.450  1.00  0.00    -0.000 C 
BRANCH  27  28
ATOM     28  C   UNL     1      21.192  -5.211  42.566  1.00  0.00    -0.000 C 
BRANCH  28  29
ATOM     29  C   UNL     1      20.111  -6.282  42.801  1.00  0.00    -0.003 C 
ATOM     30  C   UNL     1      20.690  -7.684  42.991  1.00  0.00     0.004 C 
ENDBRANCH  28  29
ENDBRANCH  27  28
ENDBRANCH  26  27
ENDBRANCH  25  26
ENDBRANCH  24  25
ENDBRANCH  23  24
ENDBRANCH  22  23
ENDBRANCH  21  22
ENDBRANCH  20  21
ENDBRANCH  19  20
ENDBRANCH  18  19
ENDBRANCH  17  18
ENDBRANCH   1  17
TORSDOF 26
ENDMDL
MODEL 7
REMARK VINA RESULT:     0.458      6.410     13.177
REMARK INTER + INTRA:          -0.579
REMARK INTER:                   1.025
REMARK INTRA:                  -1.604
REMARK UNBOUND:                -1.734
REMARK SMILES CCCCCCCCCCCCCCCCCCCCCCCCCCCC(=O)[O-]
REMARK SMILES IDX 15 1 16 2 17 3 18 4 19 5 20 6 21 7 22 8 23 9 24 10 25 11
REMARK SMILES IDX 26 12 27 13 28 14 29 15 30 16 14 17 13 18 12 19 11 20 10 21
REMARK SMILES IDX 9 22 8 23 7 24 6 25 5 26 4 27 3 28 2 29 1 30
REMARK H PARENT
REMARK Flexibility Score: inf
ROOT
ATOM      1  C   UNL     1      26.804  -1.687  46.391  1.00  0.00     0.000 C 
ENDROOT
BRANCH   1   2
ATOM      2  C   UNL     1      28.100  -1.127  45.790  1.00  0.00     0.000 C 
BRANCH   2   3
ATOM      3  C   UNL     1      29.269  -2.102  45.990  1.00  0.00     0.000 C 
BRANCH   3   4
ATOM      4  C   UNL     1      30.334  -1.905  44.907  1.00  0.00     0.000 C 
BRANCH   4   5
ATOM      5  C   UNL     1      29.705  -1.851  43.505  1.00  0.00     0.000 C 
BRANCH   5   6
ATOM      6  C   UNL     1      30.382  -0.814  42.596  1.00  0.00     0.000 C 
BRANCH   6   7
ATOM      7  C   UNL     1      31.912  -0.971  42.545  1.00  0.00     0.000 C 
BRANCH   7   8
ATOM      8  C   UNL     1      32.657   0.300  42.980  1.00  0.00     0.000 C 
BRANCH   8   9
ATOM      9  C   UNL     1      34.143   0.353  42.569  1.00  0.00     0.000 C 
BRANCH   9  10
ATOM     10  C   UNL     1      34.650  -0.932  41.876  1.00  0.00     0.000 C 
BRANCH  10  11
ATOM     11  C   UNL     1      36.178  -1.089  41.987  1.00  0.00     0.000 C 
BRANCH  11  12
ATOM     12  C   UNL     1      36.618  -1.704  43.328  1.00  0.00     0.006 C 
BRANCH  12  13
ATOM     13  C   UNL     1      38.090  -2.147  43.356  1.00  0.00     0.053 C 
BRANCH  13  14
ATOM     14  C   UNL     1      38.248  -3.627  43.173  1.00  0.00     0.041 C 
ATOM     15  O   UNL     1      37.619  -4.431  43.912  1.00  0.00    -0.550 OA
ATOM     16  O   UNL     1      39.107  -4.119  42.199  1.00  0.00    -0.550 OA
ENDBRANCH  13  14
ENDBRANCH  12  13
ENDBRANCH  11  12
ENDBRANCH  10  11
ENDBRANCH   9  10
ENDBRANCH   8   9
ENDBRANCH   7   8
ENDBRANCH   6   7
ENDBRANCH   5   6
ENDBRANCH   4   5
ENDBRANCH   3   4
ENDBRANCH   2   3
ENDBRANCH   1   2
BRANCH   1  17
ATOM     17  C   UNL     1      27.018  -3.026  47.127  1.00  0.00     0.000 C 
BRANCH  17  18
ATOM     18  C   UNL     1      25.716  -3.737  47.537  1.00  0.00     0.000 C 
BRANCH  18  19
ATOM     19  C   UNL     1      24.539  -3.425  46.599  1.00  0.00     0.000 C 
BRANCH  19  20
ATOM     20  C   UNL     1      23.163  -3.783  47.194  1.00  0.00     0.000 C 
BRANCH  20  21
ATOM     21  C   UNL     1      22.082  -4.218  46.184  1.00  0.00     0.000 C 
BRANCH  21  22
ATOM     22  C   UNL     1      20.839  -3.315  46.192  1.00  0.00    -0.000 C 
BRANCH  22  23
ATOM     23  C   UNL     1      19.951  -3.510  44.950  1.00  0.00    -0.000 C 
BRANCH  23  24
ATOM     24  C   UNL     1      20.738  -3.809  43.657  1.00  0.00    -0.000 C 
BRANCH  24  25
ATOM     25  C   UNL     1      19.819  -4.252  42.504  1.00  0.00    -0.000 C 
BRANCH  25  26
ATOM     26  C   UNL     1      19.930  -5.756  42.207  1.00  0.00    -0.000 C 
BRANCH  26  27
ATOM     27  C   UNL     1      20.895  -6.481  43.162  1.00  0.00    -0.000 C 
BRANCH  27  28
ATOM     28  C   UNL     1      21.619  -7.665  42.494  1.00  0.00    -0.000 C 
BRANCH  28  29
ATOM     29  C   UNL     1      20.866  -9.006  42.568  1.00  0.00    -0.003 C 
ATOM     30  C   UNL     1      20.025  -9.149  43.837  1.00  0.00     0.004 C 
ENDBRANCH  28  29
ENDBRANCH  27  28
ENDBRANCH  26  27
ENDBRANCH  25  26
ENDBRANCH  24  25
ENDBRANCH  23  24
ENDBRANCH  22  23
ENDBRANCH  21  22
ENDBRANCH  20  21
ENDBRANCH  19  20
ENDBRANCH  18  19
ENDBRANCH  17  18
ENDBRANCH   1  17
TORSDOF 26
ENDMDL
MODEL 8
REMARK VINA RESULT:     0.522      4.865      6.392
REMARK INTER + INTRA:          -0.418
REMARK INTER:                   1.299
REMARK INTRA:                  -1.717
REMARK UNBOUND:                -1.734
REMARK SMILES CCCCCCCCCCCCCCCCCCCCCCCCCCCC(=O)[O-]
REMARK SMILES IDX 15 1 16 2 17 3 18 4 19 5 20 6 21 7 22 8 23 9 24 10 25 11
REMARK SMILES IDX 26 12 27 13 28 14 29 15 30 16 14 17 13 18 12 19 11 20 10 21
REMARK SMILES IDX 9 22 8 23 7 24 6 25 5 26 4 27 3 28 2 29 1 30
REMARK H PARENT
REMARK Flexibility Score: inf
ROOT
ATOM      1  C   UNL     1      29.795  -0.880  45.588  1.00  0.00     0.000 C 
ENDROOT
BRANCH   1   2
ATOM      2  C   UNL     1      30.296  -2.126  46.331  1.00  0.00     0.000 C 
BRANCH   2   3
ATOM      3  C   UNL     1      30.547  -3.286  45.358  1.00  0.00     0.000 C 
BRANCH   3   4
ATOM      4  C   UNL     1      29.569  -4.437  45.621  1.00  0.00     0.000 C 
BRANCH   4   5
ATOM      5  C   UNL     1      28.117  -3.937  45.678  1.00  0.00     0.000 C 
BRANCH   5   6
ATOM      6  C   UNL     1      27.490  -4.105  47.070  1.00  0.00     0.000 C 
BRANCH   6   7
ATOM      7  C   UNL     1      26.247  -3.222  47.277  1.00  0.00     0.000 C 
BRANCH   7   8
ATOM      8  C   UNL     1      24.947  -4.034  47.376  1.00  0.00     0.000 C 
BRANCH   8   9
ATOM      9  C   UNL     1      23.721  -3.380  46.710  1.00  0.00     0.000 C 
BRANCH   9  10
ATOM     10  C   UNL     1      22.382  -4.086  47.022  1.00  0.00     0.000 C 
BRANCH  10  11
ATOM     11  C   UNL     1      21.185  -3.392  46.346  1.00  0.00     0.000 C 
BRANCH  11  12
ATOM     12  C   UNL     1      20.658  -4.168  45.125  1.00  0.00     0.006 C 
BRANCH  12  13
ATOM     13  C   UNL     1      20.788  -3.404  43.797  1.00  0.00     0.053 C 
BRANCH  13  14
ATOM     14  C   UNL     1      21.374  -4.248  42.705  1.00  0.00     0.041 C 
ATOM     15  O   UNL     1      20.652  -5.068  42.076  1.00  0.00    -0.550 OA
ATOM     16  O   UNL     1      22.724  -4.145  42.397  1.00  0.00    -0.550 OA
ENDBRANCH  13  14
ENDBRANCH  12  13
ENDBRANCH  11  12
ENDBRANCH  10  11
ENDBRANCH   9  10
ENDBRANCH   8   9
ENDBRANCH   7   8
ENDBRANCH   6   7
ENDBRANCH   5   6
ENDBRANCH   4   5
ENDBRANCH   3   4
ENDBRANCH   2   3
ENDBRANCH   1   2
BRANCH   1  17
ATOM     17  C   UNL     1      28.274  -0.910  45.332  1.00  0.00     0.000 C 
BRANCH  17  18
ATOM     18  C   UNL     1      27.873  -0.654  43.868  1.00  0.00     0.000 C 
BRANCH  18  19
ATOM     19  C   UNL     1      28.613  -1.565  42.875  1.00  0.00     0.000 C 
BRANCH  19  20
ATOM     20  C   UNL     1      29.569  -0.804  41.934  1.00  0.00     0.000 C 
BRANCH  20  21
ATOM     21  C   UNL     1      31.070  -1.106  42.109  1.00  0.00     0.000 C 
BRANCH  21  22
ATOM     22  C   UNL     1      31.928   0.154  42.312  1.00  0.00    -0.000 C 
BRANCH  22  23
ATOM     23  C   UNL     1      33.273  -0.143  42.998  1.00  0.00    -0.000 C 
BRANCH  23  24
ATOM     24  C   UNL     1      34.428  -0.433  42.018  1.00  0.00    -0.000 C 
BRANCH  24  25
ATOM     25  C   UNL     1      35.796  -0.479  42.724  1.00  0.00    -0.000 C 
BRANCH  25  26
ATOM     26  C   UNL     1      36.445  -1.870  42.660  1.00  0.00    -0.000 C 
BRANCH  26  27
ATOM     27  C   UNL     1      37.978  -1.818  42.799  1.00  0.00    -0.000 C 
BRANCH  27  28
ATOM     28  C   UNL     1      38.640  -3.199  42.629  1.00  0.00    -0.000 C 
BRANCH  28  29
ATOM     29  C   UNL     1      37.998  -4.328  43.457  1.00  0.00    -0.003 C 
ATOM     30  C   UNL     1      39.028  -5.258  44.097  1.00  0.00     0.004 C 
ENDBRANCH  28  29
ENDBRANCH  27  28
ENDBRANCH  26  27
ENDBRANCH  25  26
ENDBRANCH  24  25
ENDBRANCH  23  24
ENDBRANCH  22  23
ENDBRANCH  21  22
ENDBRANCH  20  21
ENDBRANCH  19  20
ENDBRANCH  18  19
ENDBRANCH  17  18
ENDBRANCH   1  17
TORSDOF 26
ENDMDL
MODEL 9
REMARK VINA RESULT:     0.750      1.384      2.933
REMARK INTER + INTRA:           0.156
REMARK INTER:                   0.770
REMARK INTRA:                  -0.614
REMARK UNBOUND:                -1.734
REMARK SMILES CCCCCCCCCCCCCCCCCCCCCCCCCCCC(=O)[O-]
REMARK SMILES IDX 15 1 16 2 17 3 18 4 19 5 20 6 21 7 22 8 23 9 24 10 25 11
REMARK SMILES IDX 26 12 27 13 28 14 29 15 30 16 14 17 13 18 12 19 11 20 10 21
REMARK SMILES IDX 9 22 8 23 7 24 6 25 5 26 4 27 3 28 2 29 1 30
REMARK H PARENT
REMARK Flexibility Score: inf
ROOT
ATOM      1  C   UNL     1      28.501  -0.745  45.438  1.00  0.00     0.000 C 
ENDROOT
BRANCH   1   2
ATOM      2  C   UNL     1      29.666  -1.306  46.265  1.00  0.00     0.000 C 
BRANCH   2   3
ATOM      3  C   UNL     1      30.986  -1.229  45.484  1.00  0.00     0.000 C 
BRANCH   3   4
ATOM      4  C   UNL     1      31.297  -2.569  44.809  1.00  0.00     0.000 C 
BRANCH   4   5
ATOM      5  C   UNL     1      30.933  -3.754  45.718  1.00  0.00     0.000 C 
BRANCH   5   6
ATOM      6  C   UNL     1      29.680  -4.501  45.239  1.00  0.00     0.000 C 
BRANCH   6   7
ATOM      7  C   UNL     1      28.375  -3.880  45.768  1.00  0.00     0.000 C 
BRANCH   7   8
ATOM      8  C   UNL     1      27.750  -4.689  46.915  1.00  0.00     0.000 C 
BRANCH   8   9
ATOM      9  C   UNL     1      26.644  -3.955  47.698  1.00  0.00     0.000 C 
BRANCH   9  10
ATOM     10  C   UNL     1      27.169  -3.078  48.858  1.00  0.00     0.000 C 
BRANCH  10  11
ATOM     11  C   UNL     1      26.658  -3.558  50.229  1.00  0.00     0.000 C 
BRANCH  11  12
ATOM     12  C   UNL     1      27.360  -2.856  51.405  1.00  0.00     0.006 C 
BRANCH  12  13
ATOM     13  C   UNL     1      26.848  -3.295  52.787  1.00  0.00     0.053 C 
BRANCH  13  14
ATOM     14  C   UNL     1      27.142  -2.284  53.856  1.00  0.00     0.041 C 
ATOM     15  O   UNL     1      27.485  -1.112  53.546  1.00  0.00    -0.550 OA
ATOM     16  O   UNL     1      27.057  -2.644  55.194  1.00  0.00    -0.550 OA
ENDBRANCH  13  14
ENDBRANCH  12  13
ENDBRANCH  11  12
ENDBRANCH  10  11
ENDBRANCH   9  10
ENDBRANCH   8   9
ENDBRANCH   7   8
ENDBRANCH   6   7
ENDBRANCH   5   6
ENDBRANCH   4   5
ENDBRANCH   3   4
ENDBRANCH   2   3
ENDBRANCH   1   2
BRANCH   1  17
ATOM     17  C   UNL     1      28.237  -1.556  44.152  1.00  0.00     0.000 C 
BRANCH  17  18
ATOM     18  C   UNL     1      28.261  -0.720  42.861  1.00  0.00     0.000 C 
BRANCH  18  19
ATOM     19  C   UNL     1      29.446  -1.064  41.944  1.00  0.00     0.000 C 
BRANCH  19  20
ATOM     20  C   UNL     1      30.650  -0.115  42.109  1.00  0.00     0.000 C 
BRANCH  20  21
ATOM     21  C   UNL     1      32.040  -0.740  41.875  1.00  0.00     0.000 C 
BRANCH  21  22
ATOM     22  C   UNL     1      33.114  -0.225  42.846  1.00  0.00    -0.000 C 
BRANCH  22  23
ATOM     23  C   UNL     1      34.043   0.823  42.208  1.00  0.00    -0.000 C 
BRANCH  23  24
ATOM     24  C   UNL     1      35.537   0.621  42.537  1.00  0.00    -0.000 C 
BRANCH  24  25
ATOM     25  C   UNL     1      36.115  -0.644  41.875  1.00  0.00    -0.000 C 
BRANCH  25  26
ATOM     26  C   UNL     1      36.881  -1.530  42.868  1.00  0.00    -0.000 C 
BRANCH  26  27
ATOM     27  C   UNL     1      37.656  -2.667  42.176  1.00  0.00    -0.000 C 
BRANCH  27  28
ATOM     28  C   UNL     1      37.295  -4.059  42.728  1.00  0.00    -0.000 C 
BRANCH  28  29
ATOM     29  C   UNL     1      36.437  -4.042  44.007  1.00  0.00    -0.003 C 
ATOM     30  C   UNL     1      34.936  -4.060  43.719  1.00  0.00     0.004 C 
ENDBRANCH  28  29
ENDBRANCH  27  28
ENDBRANCH  26  27
ENDBRANCH  25  26
ENDBRANCH  24  25
ENDBRANCH  23  24
ENDBRANCH  22  23
ENDBRANCH  21  22
ENDBRANCH  20  21
ENDBRANCH  19  20
ENDBRANCH  18  19
ENDBRANCH  17  18
ENDBRANCH   1  17
TORSDOF 26
ENDMDL
