MODEL 1
REMARK VINA RESULT:    -7.000      0.000      0.000
REMARK INTER + INTRA:          -8.488
REMARK INTER:                  -8.433
REMARK INTRA:                  -0.056
REMARK UNBOUND:                -0.056
REMARK SMILES O=c1c(O)c(-c2ccc(O)c(O)c2)oc2cc(O)cc(O)c12
REMARK SMILES IDX 5 1 3 2 2 3 1 4 22 5 20 6 19 7 17 8 16 9 15 10 14 11 6 12
REMARK SMILES IDX 7 13 8 14 9 15 13 16 11 17 10 18 12 20 4 22 21 24 18 26
REMARK H PARENT 10 19 12 21 4 23 21 25 18 27
REMARK Flexibility Score: inf
ROOT
ATOM      1  C   UNL     1     -24.169   0.176  11.885  1.00  0.00     0.180 A 
ATOM      2  C   UNL     1     -24.739   1.434  12.149  1.00  0.00     0.208 A 
ATOM      3  C   UNL     1     -25.731   1.926  11.286  1.00  0.00     0.238 A 
ATOM      4  O   UNL     1     -26.276   3.027  11.557  1.00  0.00    -0.285 OA
ATOM      5  C   UNL     1     -26.128   1.164  10.160  1.00  0.00     0.111 A 
ATOM      6  C   UNL     1     -27.094   1.583   9.197  1.00  0.00     0.134 A 
ATOM      7  C   UNL     1     -27.504   0.692   8.198  1.00  0.00     0.093 A 
ATOM      8  C   UNL     1     -26.935  -0.579   8.089  1.00  0.00     0.123 A 
ATOM      9  C   UNL     1     -25.949  -0.976   8.988  1.00  0.00     0.094 A 
ATOM     10  C   UNL     1     -25.545  -0.122  10.018  1.00  0.00     0.146 A 
ATOM     11  O   UNL     1     -24.609  -0.543  10.860  1.00  0.00    -0.452 OA
ENDROOT
BRANCH   1  12
ATOM     12  C   UNL     1     -23.101  -0.398  12.735  1.00  0.00     0.025 A 
ATOM     13  C   UNL     1     -21.869  -0.801  12.191  1.00  0.00     0.016 A 
ATOM     14  C   UNL     1     -20.886  -1.363  13.010  1.00  0.00     0.051 A 
ATOM     15  C   UNL     1     -21.122  -1.543  14.379  1.00  0.00     0.157 A 
ATOM     16  C   UNL     1     -23.341  -0.600  14.105  1.00  0.00     0.062 A 
ATOM     17  C   UNL     1     -22.358  -1.161  14.927  1.00  0.00     0.158 A 
BRANCH  15  18
ATOM     18  O   UNL     1     -20.138  -2.101  15.193  1.00  0.00    -0.504 OA
ATOM     19  H   UNL     1     -20.375  -2.649  16.012  1.00  0.00     0.293 HD
ENDBRANCH  15  18
BRANCH  17  20
ATOM     20  O   UNL     1     -22.628  -1.333  16.284  1.00  0.00    -0.504 OA
ATOM     21  H   UNL     1     -22.181  -0.770  16.998  1.00  0.00     0.293 HD
ENDBRANCH  17  20
ENDBRANCH   1  12
BRANCH   2  22
ATOM     22  O   UNL     1     -24.348   2.161  13.277  1.00  0.00    -0.502 OA
ATOM     23  H   UNL     1     -24.972   2.332  14.057  1.00  0.00     0.293 HD
ENDBRANCH   2  22
BRANCH   6  24
ATOM     24  O   UNL     1     -27.656   2.862   9.162  1.00  0.00    -0.507 OA
ATOM     25  H   UNL     1     -27.550   3.516   8.402  1.00  0.00     0.293 HD
ENDBRANCH   6  24
BRANCH   8  26
ATOM     26  O   UNL     1     -27.338  -1.454   7.081  1.00  0.00    -0.508 OA
ATOM     27  H   UNL     1     -27.056  -2.427   7.079  1.00  0.00     0.293 HD
ENDBRANCH   8  26
TORSDOF 6
ENDMDL
MODEL 2
REMARK VINA RESULT:    -6.949      2.194      4.158
REMARK INTER + INTRA:          -8.426
REMARK INTER:                  -8.105
REMARK INTRA:                  -0.321
REMARK UNBOUND:                -0.056
REMARK SMILES O=c1c(O)c(-c2ccc(O)c(O)c2)oc2cc(O)cc(O)c12
REMARK SMILES IDX 5 1 3 2 2 3 1 4 22 5 20 6 19 7 17 8 16 9 15 10 14 11 6 12
REMARK SMILES IDX 7 13 8 14 9 15 13 16 11 17 10 18 12 20 4 22 21 24 18 26
REMARK H PARENT 10 19 12 21 4 23 21 25 18 27
REMARK Flexibility Score: inf
ROOT
ATOM      1  C   UNL     1     -23.018  -1.584  14.225  1.00  0.00     0.180 A 
ATOM      2  C   UNL     1     -23.384  -2.644  13.376  1.00  0.00     0.208 A 
ATOM      3  C   UNL     1     -24.203  -2.377  12.268  1.00  0.00     0.238 A 
ATOM      4  O   UNL     1     -24.483  -3.319  11.482  1.00  0.00    -0.285 OA
ATOM      5  C   UNL     1     -24.660  -1.058  12.030  1.00  0.00     0.111 A 
ATOM      6  C   UNL     1     -25.527  -0.680  10.961  1.00  0.00     0.134 A 
ATOM      7  C   UNL     1     -25.808   0.674  10.746  1.00  0.00     0.093 A 
ATOM      8  C   UNL     1     -25.307   1.659  11.602  1.00  0.00     0.123 A 
ATOM      9  C   UNL     1     -24.509   1.295  12.682  1.00  0.00     0.094 A 
ATOM     10  C   UNL     1     -24.180  -0.045  12.902  1.00  0.00     0.146 A 
ATOM     11  O   UNL     1     -23.408  -0.348  13.938  1.00  0.00    -0.452 OA
ENDROOT
BRANCH   1  12
ATOM     12  C   UNL     1     -22.178  -1.791  15.426  1.00  0.00     0.025 A 
ATOM     13  C   UNL     1     -20.774  -1.767  15.351  1.00  0.00     0.016 A 
ATOM     14  C   UNL     1     -20.002  -1.990  16.494  1.00  0.00     0.051 A 
ATOM     15  C   UNL     1     -20.618  -2.254  17.725  1.00  0.00     0.157 A 
ATOM     16  C   UNL     1     -22.790  -2.077  16.658  1.00  0.00     0.062 A 
ATOM     17  C   UNL     1     -22.020  -2.299  17.804  1.00  0.00     0.158 A 
BRANCH  15  18
ATOM     18  O   UNL     1     -19.846  -2.473  18.863  1.00  0.00    -0.504 OA
ATOM     19  H   UNL     1     -20.220  -2.329  19.795  1.00  0.00     0.293 HD
ENDBRANCH  15  18
BRANCH  17  20
ATOM     20  O   UNL     1     -22.664  -2.565  19.012  1.00  0.00    -0.504 OA
ATOM     21  H   UNL     1     -23.127  -3.448  19.193  1.00  0.00     0.293 HD
ENDBRANCH  17  20
ENDBRANCH   1  12
BRANCH   2  22
ATOM     22  O   UNL     1     -22.904  -3.934  13.617  1.00  0.00    -0.502 OA
ATOM     23  H   UNL     1     -23.347  -4.760  13.231  1.00  0.00     0.293 HD
ENDBRANCH   2  22
BRANCH   6  24
ATOM     24  O   UNL     1     -26.154  -1.592  10.107  1.00  0.00    -0.507 OA
ATOM     25  H   UNL     1     -25.675  -2.184   9.447  1.00  0.00     0.293 HD
ENDBRANCH   6  24
BRANCH   8  26
ATOM     26  O   UNL     1     -25.606   3.003  11.389  1.00  0.00    -0.508 OA
ATOM     27  H   UNL     1     -26.100   3.312  10.561  1.00  0.00     0.293 HD
ENDBRANCH   8  26
TORSDOF 6
ENDMDL
MODEL 3
REMARK VINA RESULT:    -6.757      2.648      7.258
REMARK INTER + INTRA:          -8.195
REMARK INTER:                  -7.860
REMARK INTRA:                  -0.335
REMARK UNBOUND:                -0.056
REMARK SMILES O=c1c(O)c(-c2ccc(O)c(O)c2)oc2cc(O)cc(O)c12
REMARK SMILES IDX 5 1 3 2 2 3 1 4 22 5 20 6 19 7 17 8 16 9 15 10 14 11 6 12
REMARK SMILES IDX 7 13 8 14 9 15 13 16 11 17 10 18 12 20 4 22 21 24 18 26
REMARK H PARENT 10 19 12 21 4 23 21 25 18 27
REMARK Flexibility Score: inf
ROOT
ATOM      1  C   UNL     1     -25.313  -1.913   8.605  1.00  0.00     0.180 A 
ATOM      2  C   UNL     1     -24.754  -2.771   9.568  1.00  0.00     0.208 A 
ATOM      3  C   UNL     1     -24.480  -2.270  10.850  1.00  0.00     0.238 A 
ATOM      4  O   UNL     1     -24.030  -3.056  11.723  1.00  0.00    -0.285 OA
ATOM      5  C   UNL     1     -24.752  -0.913  11.149  1.00  0.00     0.111 A 
ATOM      6  C   UNL     1     -24.477  -0.288  12.402  1.00  0.00     0.134 A 
ATOM      7  C   UNL     1     -24.909   1.025  12.628  1.00  0.00     0.093 A 
ATOM      8  C   UNL     1     -25.547   1.756  11.624  1.00  0.00     0.123 A 
ATOM      9  C   UNL     1     -25.767   1.176  10.378  1.00  0.00     0.094 A 
ATOM     10  C   UNL     1     -25.381  -0.145  10.134  1.00  0.00     0.146 A 
ATOM     11  O   UNL     1     -25.618  -0.664   8.936  1.00  0.00    -0.452 OA
ENDROOT
BRANCH   1  12
ATOM     12  C   UNL     1     -25.606  -2.363   7.225  1.00  0.00     0.025 A 
ATOM     13  C   UNL     1     -24.640  -2.281   6.207  1.00  0.00     0.016 A 
ATOM     14  C   UNL     1     -24.948  -2.688   4.906  1.00  0.00     0.051 A 
ATOM     15  C   UNL     1     -26.227  -3.170   4.599  1.00  0.00     0.157 A 
ATOM     16  C   UNL     1     -26.894  -2.826   6.907  1.00  0.00     0.062 A 
ATOM     17  C   UNL     1     -27.205  -3.236   5.606  1.00  0.00     0.158 A 
BRANCH  15  18
ATOM     18  O   UNL     1     -26.531  -3.578   3.302  1.00  0.00    -0.504 OA
ATOM     19  H   UNL     1     -26.664  -2.909   2.552  1.00  0.00     0.293 HD
ENDBRANCH  15  18
BRANCH  17  20
ATOM     20  O   UNL     1     -28.490  -3.704   5.333  1.00  0.00    -0.504 OA
ATOM     21  H   UNL     1     -29.269  -3.077   5.171  1.00  0.00     0.293 HD
ENDBRANCH  17  20
ENDBRANCH   1  12
BRANCH   2  22
ATOM     22  O   UNL     1     -24.512  -4.113   9.258  1.00  0.00    -0.502 OA
ATOM     23  H   UNL     1     -24.792  -4.526   8.376  1.00  0.00     0.293 HD
ENDBRANCH   2  22
BRANCH   6  24
ATOM     24  O   UNL     1     -23.765  -0.898  13.439  1.00  0.00    -0.507 OA
ATOM     25  H   UNL     1     -24.122  -1.638  14.024  1.00  0.00     0.293 HD
ENDBRANCH   6  24
BRANCH   8  26
ATOM     26  O   UNL     1     -25.959   3.068  11.853  1.00  0.00    -0.508 OA
ATOM     27  H   UNL     1     -25.860   3.504  12.762  1.00  0.00     0.293 HD
ENDBRANCH   8  26
TORSDOF 6
ENDMDL
MODEL 4
REMARK VINA RESULT:    -6.694      1.485      3.065
REMARK INTER + INTRA:          -8.119
REMARK INTER:                  -7.798
REMARK INTRA:                  -0.320
REMARK UNBOUND:                -0.056
REMARK SMILES O=c1c(O)c(-c2ccc(O)c(O)c2)oc2cc(O)cc(O)c12
REMARK SMILES IDX 5 1 3 2 2 3 1 4 22 5 20 6 19 7 17 8 16 9 15 10 14 11 6 12
REMARK SMILES IDX 7 13 8 14 9 15 13 16 11 17 10 18 12 20 4 22 21 24 18 26
REMARK H PARENT 10 19 12 21 4 23 21 25 18 27
REMARK Flexibility Score: inf
ROOT
ATOM      1  C   UNL     1     -24.454  -0.861  10.724  1.00  0.00     0.180 A 
ATOM      2  C   UNL     1     -24.785  -1.907   9.845  1.00  0.00     0.208 A 
ATOM      3  C   UNL     1     -25.770  -1.691   8.869  1.00  0.00     0.238 A 
ATOM      4  O   UNL     1     -26.023  -2.614   8.051  1.00  0.00    -0.285 OA
ATOM      5  C   UNL     1     -26.426  -0.438   8.794  1.00  0.00     0.111 A 
ATOM      6  C   UNL     1     -27.468  -0.123   7.872  1.00  0.00     0.134 A 
ATOM      7  C   UNL     1     -27.953   1.189   7.801  1.00  0.00     0.093 A 
ATOM      8  C   UNL     1     -27.479   2.180   8.664  1.00  0.00     0.123 A 
ATOM      9  C   UNL     1     -26.505   1.867   9.608  1.00  0.00     0.094 A 
ATOM     10  C   UNL     1     -25.975   0.576   9.679  1.00  0.00     0.146 A 
ATOM     11  O   UNL     1     -25.040   0.323  10.586  1.00  0.00    -0.452 OA
ENDROOT
BRANCH   1  12
ATOM     12  C   UNL     1     -23.444  -1.021  11.795  1.00  0.00     0.025 A 
ATOM     13  C   UNL     1     -22.093  -0.696  11.580  1.00  0.00     0.016 A 
ATOM     14  C   UNL     1     -21.153  -0.879  12.598  1.00  0.00     0.051 A 
ATOM     15  C   UNL     1     -21.544  -1.400  13.838  1.00  0.00     0.157 A 
ATOM     16  C   UNL     1     -23.827  -1.562  13.033  1.00  0.00     0.062 A 
ATOM     17  C   UNL     1     -22.888  -1.745  14.054  1.00  0.00     0.158 A 
BRANCH  15  18
ATOM     18  O   UNL     1     -20.605  -1.578  14.852  1.00  0.00    -0.504 OA
ATOM     19  H   UNL     1     -20.838  -1.420  15.826  1.00  0.00     0.293 HD
ENDBRANCH  15  18
BRANCH  17  20
ATOM     20  O   UNL     1     -23.310  -2.272  15.274  1.00  0.00    -0.504 OA
ATOM     21  H   UNL     1     -23.731  -3.190  15.348  1.00  0.00     0.293 HD
ENDBRANCH  17  20
ENDBRANCH   1  12
BRANCH   2  22
ATOM     22  O   UNL     1     -24.110  -3.129   9.922  1.00  0.00    -0.502 OA
ATOM     23  H   UNL     1     -24.463  -3.912  10.460  1.00  0.00     0.293 HD
ENDBRANCH   2  22
BRANCH   6  24
ATOM     24  O   UNL     1     -28.075  -1.060   7.030  1.00  0.00    -0.507 OA
ATOM     25  H   UNL     1     -28.156  -2.044   7.230  1.00  0.00     0.293 HD
ENDBRANCH   6  24
BRANCH   8  26
ATOM     26  O   UNL     1     -27.979   3.479   8.597  1.00  0.00    -0.508 OA
ATOM     27  H   UNL     1     -28.973   3.662   8.543  1.00  0.00     0.293 HD
ENDBRANCH   8  26
TORSDOF 6
ENDMDL
MODEL 5
REMARK VINA RESULT:    -6.552      2.594      5.316
REMARK INTER + INTRA:          -7.948
REMARK INTER:                  -7.650
REMARK INTRA:                  -0.299
REMARK UNBOUND:                -0.056
REMARK SMILES O=c1c(O)c(-c2ccc(O)c(O)c2)oc2cc(O)cc(O)c12
REMARK SMILES IDX 5 1 3 2 2 3 1 4 22 5 20 6 19 7 17 8 16 9 15 10 14 11 6 12
REMARK SMILES IDX 7 13 8 14 9 15 13 16 11 17 10 18 12 20 4 22 21 24 18 26
REMARK H PARENT 10 19 12 21 4 23 21 25 18 27
REMARK Flexibility Score: inf
ROOT
ATOM      1  C   UNL     1     -26.055  -1.305   9.069  1.00  0.00     0.180 A 
ATOM      2  C   UNL     1     -27.126  -2.198   9.254  1.00  0.00     0.208 A 
ATOM      3  C   UNL     1     -27.572  -2.960   8.163  1.00  0.00     0.238 A 
ATOM      4  O   UNL     1     -28.495  -3.796   8.348  1.00  0.00    -0.285 OA
ATOM      5  C   UNL     1     -26.955  -2.810   6.898  1.00  0.00     0.111 A 
ATOM      6  C   UNL     1     -27.353  -3.502   5.715  1.00  0.00     0.134 A 
ATOM      7  C   UNL     1     -26.586  -3.373   4.550  1.00  0.00     0.093 A 
ATOM      8  C   UNL     1     -25.476  -2.527   4.508  1.00  0.00     0.123 A 
ATOM      9  C   UNL     1     -25.115  -1.802   5.640  1.00  0.00     0.094 A 
ATOM     10  C   UNL     1     -25.838  -1.937   6.828  1.00  0.00     0.146 A 
ATOM     11  O   UNL     1     -25.455  -1.235   7.887  1.00  0.00    -0.452 OA
ENDROOT
BRANCH   1  12
ATOM     12  C   UNL     1     -25.545  -0.450  10.165  1.00  0.00     0.025 A 
ATOM     13  C   UNL     1     -24.657  -0.951  11.132  1.00  0.00     0.016 A 
ATOM     14  C   UNL     1     -24.208  -0.131  12.171  1.00  0.00     0.051 A 
ATOM     15  C   UNL     1     -24.650   1.195  12.268  1.00  0.00     0.157 A 
ATOM     16  C   UNL     1     -26.002   0.874  10.279  1.00  0.00     0.062 A 
ATOM     17  C   UNL     1     -25.554   1.697  11.317  1.00  0.00     0.158 A 
BRANCH  15  18
ATOM     18  O   UNL     1     -24.199   2.011  13.304  1.00  0.00    -0.504 OA
ATOM     19  H   UNL     1     -24.246   3.022  13.242  1.00  0.00     0.293 HD
ENDBRANCH  15  18
BRANCH  17  20
ATOM     20  O   UNL     1     -26.019   3.010  11.389  1.00  0.00    -0.504 OA
ATOM     21  H   UNL     1     -25.452   3.799  11.100  1.00  0.00     0.293 HD
ENDBRANCH  17  20
ENDBRANCH   1  12
BRANCH   2  22
ATOM     22  O   UNL     1     -27.707  -2.347  10.516  1.00  0.00    -0.502 OA
ATOM     23  H   UNL     1     -28.542  -2.900  10.669  1.00  0.00     0.293 HD
ENDBRANCH   2  22
BRANCH   6  24
ATOM     24  O   UNL     1     -28.497  -4.299   5.624  1.00  0.00    -0.507 OA
ATOM     25  H   UNL     1     -29.029  -4.448   4.781  1.00  0.00     0.293 HD
ENDBRANCH   6  24
BRANCH   8  26
ATOM     26  O   UNL     1     -24.729  -2.393   3.339  1.00  0.00    -0.508 OA
ATOM     27  H   UNL     1     -23.870  -2.910   3.197  1.00  0.00     0.293 HD
ENDBRANCH   8  26
TORSDOF 6
ENDMDL
MODEL 6
REMARK VINA RESULT:    -6.509      2.540      7.138
REMARK INTER + INTRA:          -7.896
REMARK INTER:                  -7.678
REMARK INTRA:                  -0.219
REMARK UNBOUND:                -0.056
REMARK SMILES O=c1c(O)c(-c2ccc(O)c(O)c2)oc2cc(O)cc(O)c12
REMARK SMILES IDX 5 1 3 2 2 3 1 4 22 5 20 6 19 7 17 8 16 9 15 10 14 11 6 12
REMARK SMILES IDX 7 13 8 14 9 15 13 16 11 17 10 18 12 20 4 22 21 24 18 26
REMARK H PARENT 10 19 12 21 4 23 21 25 18 27
REMARK Flexibility Score: inf
ROOT
ATOM      1  C   UNL     1     -23.609  -1.047  13.300  1.00  0.00     0.180 A 
ATOM      2  C   UNL     1     -22.243  -0.947  13.616  1.00  0.00     0.208 A 
ATOM      3  C   UNL     1     -21.644  -1.963  14.377  1.00  0.00     0.238 A 
ATOM      4  O   UNL     1     -20.409  -1.895  14.610  1.00  0.00    -0.285 OA
ATOM      5  C   UNL     1     -22.420  -3.058  14.828  1.00  0.00     0.111 A 
ATOM      6  C   UNL     1     -21.926  -4.122  15.640  1.00  0.00     0.134 A 
ATOM      7  C   UNL     1     -22.751  -5.219  15.917  1.00  0.00     0.093 A 
ATOM      8  C   UNL     1     -24.073  -5.258  15.467  1.00  0.00     0.123 A 
ATOM      9  C   UNL     1     -24.583  -4.196  14.724  1.00  0.00     0.094 A 
ATOM     10  C   UNL     1     -23.773  -3.104  14.400  1.00  0.00     0.146 A 
ATOM     11  O   UNL     1     -24.295  -2.118  13.682  1.00  0.00    -0.452 OA
ENDROOT
BRANCH   1  12
ATOM     12  C   UNL     1     -24.316  -0.004  12.523  1.00  0.00     0.025 A 
ATOM     13  C   UNL     1     -24.529   1.282  13.048  1.00  0.00     0.016 A 
ATOM     14  C   UNL     1     -25.221   2.243  12.305  1.00  0.00     0.051 A 
ATOM     15  C   UNL     1     -25.722   1.930  11.035  1.00  0.00     0.157 A 
ATOM     16  C   UNL     1     -24.839  -0.320  11.258  1.00  0.00     0.062 A 
ATOM     17  C   UNL     1     -25.531   0.640  10.511  1.00  0.00     0.158 A 
BRANCH  15  18
ATOM     18  O   UNL     1     -26.409   2.890  10.296  1.00  0.00    -0.504 OA
ATOM     19  H   UNL     1     -27.096   3.500  10.725  1.00  0.00     0.293 HD
ENDBRANCH  15  18
BRANCH  17  20
ATOM     20  O   UNL     1     -26.023   0.294   9.253  1.00  0.00    -0.504 OA
ATOM     21  H   UNL     1     -25.929   0.906   8.451  1.00  0.00     0.293 HD
ENDBRANCH  17  20
ENDBRANCH   1  12
BRANCH   2  22
ATOM     22  O   UNL     1     -21.489   0.131  13.142  1.00  0.00    -0.502 OA
ATOM     23  H   UNL     1     -21.815   0.738  12.399  1.00  0.00     0.293 HD
ENDBRANCH   2  22
BRANCH   6  24
ATOM     24  O   UNL     1     -20.653  -4.137  16.217  1.00  0.00    -0.507 OA
ATOM     25  H   UNL     1     -19.861  -3.614  15.876  1.00  0.00     0.293 HD
ENDBRANCH   6  24
BRANCH   8  26
ATOM     26  O   UNL     1     -24.892  -6.346  15.761  1.00  0.00    -0.508 OA
ATOM     27  H   UNL     1     -25.798  -6.226  16.198  1.00  0.00     0.293 HD
ENDBRANCH   8  26
TORSDOF 6
ENDMDL
MODEL 7
REMARK VINA RESULT:    -6.439      2.918      7.939
REMARK INTER + INTRA:          -7.812
REMARK INTER:                  -7.742
REMARK INTRA:                  -0.070
REMARK UNBOUND:                -0.056
REMARK SMILES O=c1c(O)c(-c2ccc(O)c(O)c2)oc2cc(O)cc(O)c12
REMARK SMILES IDX 5 1 3 2 2 3 1 4 22 5 20 6 19 7 17 8 16 9 15 10 14 11 6 12
REMARK SMILES IDX 7 13 8 14 9 15 13 16 11 17 10 18 12 20 4 22 21 24 18 26
REMARK H PARENT 10 19 12 21 4 23 21 25 18 27
REMARK Flexibility Score: inf
ROOT
ATOM      1  C   UNL     1     -25.471  -2.192   8.273  1.00  0.00     0.180 A 
ATOM      2  C   UNL     1     -25.303  -3.464   8.850  1.00  0.00     0.208 A 
ATOM      3  C   UNL     1     -24.853  -3.556  10.176  1.00  0.00     0.238 A 
ATOM      4  O   UNL     1     -24.756  -4.695  10.703  1.00  0.00    -0.285 OA
ATOM      5  C   UNL     1     -24.560  -2.378  10.905  1.00  0.00     0.111 A 
ATOM      6  C   UNL     1     -24.059  -2.355  12.241  1.00  0.00     0.134 A 
ATOM      7  C   UNL     1     -23.930  -1.131  12.908  1.00  0.00     0.093 A 
ATOM      8  C   UNL     1     -24.220   0.075  12.265  1.00  0.00     0.123 A 
ATOM      9  C   UNL     1     -24.653   0.066  10.942  1.00  0.00     0.094 A 
ATOM     10  C   UNL     1     -24.827  -1.142  10.261  1.00  0.00     0.146 A 
ATOM     11  O   UNL     1     -25.251  -1.105   9.004  1.00  0.00    -0.452 OA
ENDROOT
BRANCH   1  12
ATOM     12  C   UNL     1     -25.918  -2.015   6.873  1.00  0.00     0.025 A 
ATOM     13  C   UNL     1     -27.091  -1.306   6.563  1.00  0.00     0.016 A 
ATOM     14  C   UNL     1     -27.506  -1.173   5.235  1.00  0.00     0.051 A 
ATOM     15  C   UNL     1     -26.765  -1.757   4.200  1.00  0.00     0.157 A 
ATOM     16  C   UNL     1     -25.189  -2.617   5.833  1.00  0.00     0.062 A 
ATOM     17  C   UNL     1     -25.602  -2.484   4.503  1.00  0.00     0.158 A 
BRANCH  15  18
ATOM     18  O   UNL     1     -27.179  -1.620   2.877  1.00  0.00    -0.504 OA
ATOM     19  H   UNL     1     -27.947  -2.166   2.502  1.00  0.00     0.293 HD
ENDBRANCH  15  18
BRANCH  17  20
ATOM     20  O   UNL     1     -24.845  -3.083   3.496  1.00  0.00    -0.504 OA
ATOM     21  H   UNL     1     -24.621  -4.071   3.506  1.00  0.00     0.293 HD
ENDBRANCH  17  20
ENDBRANCH   1  12
BRANCH   2  22
ATOM     22  O   UNL     1     -25.618  -4.613   8.120  1.00  0.00    -0.502 OA
ATOM     23  H   UNL     1     -26.559  -4.987   8.073  1.00  0.00     0.293 HD
ENDBRANCH   2  22
BRANCH   6  24
ATOM     24  O   UNL     1     -23.652  -3.494  12.941  1.00  0.00    -0.507 OA
ATOM     25  H   UNL     1     -23.182  -4.285  12.529  1.00  0.00     0.293 HD
ENDBRANCH   6  24
BRANCH   8  26
ATOM     26  O   UNL     1     -24.073   1.290  12.932  1.00  0.00    -0.508 OA
ATOM     27  H   UNL     1     -24.018   1.337  13.942  1.00  0.00     0.293 HD
ENDBRANCH   8  26
TORSDOF 6
ENDMDL
MODEL 8
REMARK VINA RESULT:    -6.425      2.249      7.123
REMARK INTER + INTRA:          -7.795
REMARK INTER:                  -7.669
REMARK INTRA:                  -0.127
REMARK UNBOUND:                -0.056
REMARK SMILES O=c1c(O)c(-c2ccc(O)c(O)c2)oc2cc(O)cc(O)c12
REMARK SMILES IDX 5 1 3 2 2 3 1 4 22 5 20 6 19 7 17 8 16 9 15 10 14 11 6 12
REMARK SMILES IDX 7 13 8 14 9 15 13 16 11 17 10 18 12 20 4 22 21 24 18 26
REMARK H PARENT 10 19 12 21 4 23 21 25 18 27
REMARK Flexibility Score: inf
ROOT
ATOM      1  C   UNL     1     -25.136  -0.869  11.930  1.00  0.00     0.180 A 
ATOM      2  C   UNL     1     -25.907  -1.993  12.277  1.00  0.00     0.208 A 
ATOM      3  C   UNL     1     -25.303  -3.037  12.996  1.00  0.00     0.238 A 
ATOM      4  O   UNL     1     -26.011  -4.015  13.350  1.00  0.00    -0.285 OA
ATOM      5  C   UNL     1     -23.933  -2.953  13.345  1.00  0.00     0.111 A 
ATOM      6  C   UNL     1     -23.209  -3.970  14.037  1.00  0.00     0.134 A 
ATOM      7  C   UNL     1     -21.893  -3.723  14.444  1.00  0.00     0.093 A 
ATOM      8  C   UNL     1     -21.253  -2.523  14.127  1.00  0.00     0.123 A 
ATOM      9  C   UNL     1     -21.932  -1.548  13.401  1.00  0.00     0.094 A 
ATOM     10  C   UNL     1     -23.259  -1.750  13.011  1.00  0.00     0.146 A 
ATOM     11  O   UNL     1     -23.872  -0.791  12.329  1.00  0.00    -0.452 OA
ENDROOT
BRANCH   1  12
ATOM     12  C   UNL     1     -25.696   0.259  11.152  1.00  0.00     0.025 A 
ATOM     13  C   UNL     1     -25.799   1.548  11.703  1.00  0.00     0.016 A 
ATOM     14  C   UNL     1     -26.353   2.592  10.957  1.00  0.00     0.051 A 
ATOM     15  C   UNL     1     -26.824   2.362   9.658  1.00  0.00     0.157 A 
ATOM     16  C   UNL     1     -26.188   0.029   9.857  1.00  0.00     0.062 A 
ATOM     17  C   UNL     1     -26.743   1.072   9.108  1.00  0.00     0.158 A 
BRANCH  15  18
ATOM     18  O   UNL     1     -27.374   3.406   8.916  1.00  0.00    -0.504 OA
ATOM     19  H   UNL     1     -26.972   4.337   8.930  1.00  0.00     0.293 HD
ENDBRANCH  15  18
BRANCH  17  20
ATOM     20  O   UNL     1     -27.208   0.808   7.820  1.00  0.00    -0.504 OA
ATOM     21  H   UNL     1     -26.699   0.218   7.173  1.00  0.00     0.293 HD
ENDBRANCH  17  20
ENDBRANCH   1  12
BRANCH   2  22
ATOM     22  O   UNL     1     -27.262  -2.046  11.942  1.00  0.00    -0.502 OA
ATOM     23  H   UNL     1     -27.998  -1.979  12.635  1.00  0.00     0.293 HD
ENDBRANCH   2  22
BRANCH   6  24
ATOM     24  O   UNL     1     -23.724  -5.238  14.321  1.00  0.00    -0.507 OA
ATOM     25  H   UNL     1     -23.725  -6.015  13.679  1.00  0.00     0.293 HD
ENDBRANCH   6  24
BRANCH   8  26
ATOM     26  O   UNL     1     -19.937  -2.292  14.523  1.00  0.00    -0.508 OA
ATOM     27  H   UNL     1     -19.717  -1.696  15.312  1.00  0.00     0.293 HD
ENDBRANCH   8  26
TORSDOF 6
ENDMDL
MODEL 9
REMARK VINA RESULT:    -6.399      2.423      3.731
REMARK INTER + INTRA:          -7.764
REMARK INTER:                  -7.441
REMARK INTRA:                  -0.323
REMARK UNBOUND:                -0.056
REMARK SMILES O=c1c(O)c(-c2ccc(O)c(O)c2)oc2cc(O)cc(O)c12
REMARK SMILES IDX 5 1 3 2 2 3 1 4 22 5 20 6 19 7 17 8 16 9 15 10 14 11 6 12
REMARK SMILES IDX 7 13 8 14 9 15 13 16 11 17 10 18 12 20 4 22 21 24 18 26
REMARK H PARENT 10 19 12 21 4 23 21 25 18 27
REMARK Flexibility Score: inf
ROOT
ATOM      1  C   UNL     1     -25.581  -1.046   9.467  1.00  0.00     0.180 A 
ATOM      2  C   UNL     1     -26.611  -0.111   9.265  1.00  0.00     0.208 A 
ATOM      3  C   UNL     1     -27.152   0.039   7.978  1.00  0.00     0.238 A 
ATOM      4  O   UNL     1     -28.110   0.838   7.815  1.00  0.00    -0.285 OA
ATOM      5  C   UNL     1     -26.645  -0.735   6.906  1.00  0.00     0.111 A 
ATOM      6  C   UNL     1     -27.090  -0.636   5.554  1.00  0.00     0.134 A 
ATOM      7  C   UNL     1     -26.610  -1.542   4.601  1.00  0.00     0.093 A 
ATOM      8  C   UNL     1     -25.652  -2.501   4.937  1.00  0.00     0.123 A 
ATOM      9  C   UNL     1     -25.167  -2.567   6.241  1.00  0.00     0.094 A 
ATOM     10  C   UNL     1     -25.654  -1.700   7.223  1.00  0.00     0.146 A 
ATOM     11  O   UNL     1     -25.172  -1.803   8.455  1.00  0.00    -0.452 OA
ENDROOT
BRANCH   1  12
ATOM     12  C   UNL     1     -24.944  -1.243  10.789  1.00  0.00     0.025 A 
ATOM     13  C   UNL     1     -25.466  -2.153  11.725  1.00  0.00     0.016 A 
ATOM     14  C   UNL     1     -24.861  -2.304  12.976  1.00  0.00     0.051 A 
ATOM     15  C   UNL     1     -23.738  -1.540  13.316  1.00  0.00     0.157 A 
ATOM     16  C   UNL     1     -23.830  -0.464  11.143  1.00  0.00     0.062 A 
ATOM     17  C   UNL     1     -23.222  -0.613  12.394  1.00  0.00     0.158 A 
BRANCH  15  18
ATOM     18  O   UNL     1     -23.136  -1.694  14.563  1.00  0.00    -0.504 OA
ATOM     19  H   UNL     1     -22.838  -0.895  15.112  1.00  0.00     0.293 HD
ENDBRANCH  15  18
BRANCH  17  20
ATOM     20  O   UNL     1     -22.109   0.167  12.704  1.00  0.00    -0.504 OA
ATOM     21  H   UNL     1     -21.269  -0.228  13.109  1.00  0.00     0.293 HD
ENDBRANCH  17  20
ENDBRANCH   1  12
BRANCH   2  22
ATOM     22  O   UNL     1     -27.111   0.627  10.341  1.00  0.00    -0.502 OA
ATOM     23  H   UNL     1     -27.414   1.589  10.248  1.00  0.00     0.293 HD
ENDBRANCH   2  22
BRANCH   6  24
ATOM     24  O   UNL     1     -27.975   0.344   5.093  1.00  0.00    -0.507 OA
ATOM     25  H   UNL     1     -28.971   0.336   5.245  1.00  0.00     0.293 HD
ENDBRANCH   6  24
BRANCH   8  26
ATOM     26  O   UNL     1     -25.167  -3.389   3.978  1.00  0.00    -0.508 OA
ATOM     27  H   UNL     1     -24.934  -4.346   4.212  1.00  0.00     0.293 HD
ENDBRANCH   8  26
TORSDOF 6
ENDMDL
