MODEL 1
REMARK VINA RESULT:    -4.621      0.000      0.000
REMARK INTER + INTRA:          -4.891
REMARK INTER:                  -4.891
REMARK INTRA:                   0.000
REMARK UNBOUND:                 0.000
REMARK SMILES O=c1ccc2cc(O)c(O)cc2o1
REMARK SMILES IDX 4 1 3 2 2 3 1 4 13 5 12 6 11 7 9 8 7 9 6 10 5 11 8 12 10 14
REMARK H PARENT 8 13 10 15
REMARK Flexibility Score: inf
ROOT
ATOM      1  C   UNL     1      -7.201   8.854 -17.515  1.00  0.00     0.019 A 
ATOM      2  C   UNL     1      -8.470   9.425 -17.413  1.00  0.00     0.094 A 
ATOM      3  C   UNL     1      -9.162   9.752 -18.583  1.00  0.00     0.336 A 
ATOM      4  O   UNL     1     -10.308  10.268 -18.511  1.00  0.00    -0.246 OA
ATOM      5  O   UNL     1      -8.617   9.522 -19.774  1.00  0.00    -0.423 OA
ATOM      6  C   UNL     1      -7.410   8.980 -19.917  1.00  0.00     0.142 A 
ATOM      7  C   UNL     1      -6.888   8.760 -21.196  1.00  0.00     0.098 A 
ATOM      8  C   UNL     1      -5.617   8.189 -21.352  1.00  0.00     0.161 A 
ATOM      9  C   UNL     1      -4.863   7.833 -20.219  1.00  0.00     0.158 A 
ATOM     10  C   UNL     1      -5.384   8.052 -18.937  1.00  0.00     0.062 A 
ATOM     11  C   UNL     1      -6.653   8.623 -18.781  1.00  0.00     0.022 A 
ENDROOT
BRANCH   9  12
ATOM     12  O   UNL     1      -3.596   7.264 -20.346  1.00  0.00    -0.504 OA
ATOM     13  H   UNL     1      -2.910   7.306 -19.603  1.00  0.00     0.293 HD
ENDBRANCH   9  12
BRANCH   8  14
ATOM     14  O   UNL     1      -5.101   7.973 -22.629  1.00  0.00    -0.504 OA
ATOM     15  H   UNL     1      -5.619   8.227 -23.462  1.00  0.00     0.293 HD
ENDBRANCH   8  14
TORSDOF 2
ENDMDL
MODEL 2
REMARK VINA RESULT:    -4.452      1.365      2.404
REMARK INTER + INTRA:          -4.712
REMARK INTER:                  -4.712
REMARK INTRA:                   0.000
REMARK UNBOUND:                 0.000
REMARK SMILES O=c1ccc2cc(O)c(O)cc2o1
REMARK SMILES IDX 4 1 3 2 2 3 1 4 13 5 12 6 11 7 9 8 7 9 6 10 5 11 8 12 10 14
REMARK H PARENT 8 13 10 15
REMARK Flexibility Score: inf
ROOT
ATOM      1  C   UNL     1      -8.010   9.216 -20.112  1.00  0.00     0.019 A 
ATOM      2  C   UNL     1      -8.652   9.293 -18.876  1.00  0.00     0.094 A 
ATOM      3  C   UNL     1      -7.956   8.906 -17.726  1.00  0.00     0.336 A 
ATOM      4  O   UNL     1      -8.519   8.969 -16.602  1.00  0.00    -0.246 OA
ATOM      5  O   UNL     1      -6.701   8.473 -17.812  1.00  0.00    -0.423 OA
ATOM      6  C   UNL     1      -6.052   8.384 -18.970  1.00  0.00     0.142 A 
ATOM      7  C   UNL     1      -4.733   7.922 -18.999  1.00  0.00     0.098 A 
ATOM      8  C   UNL     1      -4.043   7.826 -20.217  1.00  0.00     0.161 A 
ATOM      9  C   UNL     1      -4.680   8.198 -21.415  1.00  0.00     0.158 A 
ATOM     10  C   UNL     1      -6.002   8.662 -21.389  1.00  0.00     0.062 A 
ATOM     11  C   UNL     1      -6.690   8.757 -20.172  1.00  0.00     0.022 A 
ENDROOT
BRANCH   9  12
ATOM     12  O   UNL     1      -4.018   8.113 -22.639  1.00  0.00    -0.504 OA
ATOM     13  H   UNL     1      -4.089   7.296 -23.233  1.00  0.00     0.293 HD
ENDBRANCH   9  12
BRANCH   8  14
ATOM     14  O   UNL     1      -2.728   7.364 -20.241  1.00  0.00    -0.504 OA
ATOM     15  H   UNL     1      -2.417   6.682 -20.923  1.00  0.00     0.293 HD
ENDBRANCH   8  14
TORSDOF 2
ENDMDL
MODEL 3
REMARK VINA RESULT:    -4.440      1.568      1.958
REMARK INTER + INTRA:          -4.699
REMARK INTER:                  -4.699
REMARK INTRA:                   0.000
REMARK UNBOUND:                 0.000
REMARK SMILES O=c1ccc2cc(O)c(O)cc2o1
REMARK SMILES IDX 4 1 3 2 2 3 1 4 13 5 12 6 11 7 9 8 7 9 6 10 5 11 8 12 10 14
REMARK H PARENT 8 13 10 15
REMARK Flexibility Score: inf
ROOT
ATOM      1  C   UNL     1      -8.026   9.580 -18.745  1.00  0.00     0.019 A 
ATOM      2  C   UNL     1      -8.767  10.482 -19.509  1.00  0.00     0.094 A 
ATOM      3  C   UNL     1      -8.359  10.757 -20.818  1.00  0.00     0.336 A 
ATOM      4  O   UNL     1      -9.015  11.568 -21.523  1.00  0.00    -0.246 OA
ATOM      5  O   UNL     1      -7.279  10.167 -21.325  1.00  0.00    -0.423 OA
ATOM      6  C   UNL     1      -6.544   9.301 -20.631  1.00  0.00     0.142 A 
ATOM      7  C   UNL     1      -5.420   8.711 -21.216  1.00  0.00     0.098 A 
ATOM      8  C   UNL     1      -4.642   7.798 -20.491  1.00  0.00     0.161 A 
ATOM      9  C   UNL     1      -4.993   7.473 -19.167  1.00  0.00     0.158 A 
ATOM     10  C   UNL     1      -6.119   8.062 -18.579  1.00  0.00     0.062 A 
ATOM     11  C   UNL     1      -6.896   8.975 -19.304  1.00  0.00     0.022 A 
ENDROOT
BRANCH   9  12
ATOM     12  O   UNL     1      -4.236   6.568 -18.423  1.00  0.00    -0.504 OA
ATOM     13  H   UNL     1      -4.261   6.551 -17.411  1.00  0.00     0.293 HD
ENDBRANCH   9  12
BRANCH   8  14
ATOM     14  O   UNL     1      -3.521   7.213 -21.079  1.00  0.00    -0.504 OA
ATOM     15  H   UNL     1      -3.260   6.253 -20.885  1.00  0.00     0.293 HD
ENDBRANCH   8  14
TORSDOF 2
ENDMDL
MODEL 4
REMARK VINA RESULT:    -4.427      1.919      2.664
REMARK INTER + INTRA:          -4.686
REMARK INTER:                  -4.686
REMARK INTRA:                   0.000
REMARK UNBOUND:                 0.000
REMARK SMILES O=c1ccc2cc(O)c(O)cc2o1
REMARK SMILES IDX 4 1 3 2 2 3 1 4 13 5 12 6 11 7 9 8 7 9 6 10 5 11 8 12 10 14
REMARK H PARENT 8 13 10 15
REMARK Flexibility Score: inf
ROOT
ATOM      1  C   UNL     1      -8.850   8.083 -18.025  1.00  0.00     0.019 A 
ATOM      2  C   UNL     1     -10.135   8.269 -17.515  1.00  0.00     0.094 A 
ATOM      3  C   UNL     1     -10.816   9.454 -17.811  1.00  0.00     0.336 A 
ATOM      4  O   UNL     1     -11.977   9.640 -17.360  1.00  0.00    -0.246 OA
ATOM      5  O   UNL     1     -10.246  10.388 -18.567  1.00  0.00    -0.423 OA
ATOM      6  C   UNL     1      -9.023  10.251 -19.074  1.00  0.00     0.142 A 
ATOM      7  C   UNL     1      -8.474  11.267 -19.863  1.00  0.00     0.098 A 
ATOM      8  C   UNL     1      -7.186  11.128 -20.399  1.00  0.00     0.161 A 
ATOM      9  C   UNL     1      -6.441   9.962 -20.143  1.00  0.00     0.158 A 
ATOM     10  C   UNL     1      -6.988   8.943 -19.353  1.00  0.00     0.062 A 
ATOM     11  C   UNL     1      -8.275   9.082 -18.817  1.00  0.00     0.022 A 
ENDROOT
BRANCH   9  12
ATOM     12  O   UNL     1      -5.158   9.798 -20.664  1.00  0.00    -0.504 OA
ATOM     13  H   UNL     1      -4.351  10.255 -20.258  1.00  0.00     0.293 HD
ENDBRANCH   9  12
BRANCH   8  14
ATOM     14  O   UNL     1      -6.643  12.144 -21.185  1.00  0.00    -0.504 OA
ATOM     15  H   UNL     1      -7.171  12.979 -21.412  1.00  0.00     0.293 HD
ENDBRANCH   8  14
TORSDOF 2
ENDMDL
MODEL 5
REMARK VINA RESULT:    -4.359      2.718      4.422
REMARK INTER + INTRA:          -4.614
REMARK INTER:                  -4.614
REMARK INTRA:                   0.000
REMARK UNBOUND:                 0.000
REMARK SMILES O=c1ccc2cc(O)c(O)cc2o1
REMARK SMILES IDX 4 1 3 2 2 3 1 4 13 5 12 6 11 7 9 8 7 9 6 10 5 11 8 12 10 14
REMARK H PARENT 8 13 10 15
REMARK Flexibility Score: inf
ROOT
ATOM      1  C   UNL     1      -8.502   8.993 -18.805  1.00  0.00     0.019 A 
ATOM      2  C   UNL     1      -7.526   8.132 -18.302  1.00  0.00     0.094 A 
ATOM      3  C   UNL     1      -6.179   8.423 -18.539  1.00  0.00     0.336 A 
ATOM      4  O   UNL     1      -5.284   7.658 -18.093  1.00  0.00    -0.246 OA
ATOM      5  O   UNL     1      -5.835   9.505 -19.232  1.00  0.00    -0.423 OA
ATOM      6  C   UNL     1      -6.733  10.352 -19.729  1.00  0.00     0.142 A 
ATOM      7  C   UNL     1      -6.313  11.474 -20.451  1.00  0.00     0.098 A 
ATOM      8  C   UNL     1      -7.254  12.370 -20.977  1.00  0.00     0.161 A 
ATOM      9  C   UNL     1      -8.629  12.141 -20.778  1.00  0.00     0.158 A 
ATOM     10  C   UNL     1      -9.052  11.018 -20.056  1.00  0.00     0.062 A 
ATOM     11  C   UNL     1      -8.111  10.123 -19.531  1.00  0.00     0.022 A 
ENDROOT
BRANCH   9  12
ATOM     12  O   UNL     1      -9.586  13.016 -21.291  1.00  0.00    -0.504 OA
ATOM     13  H   UNL     1      -9.338  13.923 -21.667  1.00  0.00     0.293 HD
ENDBRANCH   9  12
BRANCH   8  14
ATOM     14  O   UNL     1      -6.830  13.487 -21.695  1.00  0.00    -0.504 OA
ATOM     15  H   UNL     1      -6.457  13.404 -22.634  1.00  0.00     0.293 HD
ENDBRANCH   8  14
TORSDOF 2
ENDMDL
MODEL 6
REMARK VINA RESULT:    -4.295      1.060      4.548
REMARK INTER + INTRA:          -4.546
REMARK INTER:                  -4.546
REMARK INTRA:                   0.000
REMARK UNBOUND:                 0.000
REMARK SMILES O=c1ccc2cc(O)c(O)cc2o1
REMARK SMILES IDX 4 1 3 2 2 3 1 4 13 5 12 6 11 7 9 8 7 9 6 10 5 11 8 12 10 14
REMARK H PARENT 8 13 10 15
REMARK Flexibility Score: inf
ROOT
ATOM      1  C   UNL     1      -5.645   7.760 -18.884  1.00  0.00     0.019 A 
ATOM      2  C   UNL     1      -4.866   7.628 -20.033  1.00  0.00     0.094 A 
ATOM      3  C   UNL     1      -5.270   8.277 -21.204  1.00  0.00     0.336 A 
ATOM      4  O   UNL     1      -4.579   8.170 -22.252  1.00  0.00    -0.246 OA
ATOM      5  O   UNL     1      -6.380   9.011 -21.219  1.00  0.00    -0.423 OA
ATOM      6  C   UNL     1      -7.151   9.163 -20.146  1.00  0.00     0.142 A 
ATOM      7  C   UNL     1      -8.307   9.947 -20.220  1.00  0.00     0.098 A 
ATOM      8  C   UNL     1      -9.124  10.111 -19.093  1.00  0.00     0.161 A 
ATOM      9  C   UNL     1      -8.780   9.487 -17.879  1.00  0.00     0.158 A 
ATOM     10  C   UNL     1      -7.623   8.702 -17.802  1.00  0.00     0.062 A 
ATOM     11  C   UNL     1      -6.807   8.537 -18.929  1.00  0.00     0.022 A 
ENDROOT
BRANCH   9  12
ATOM     12  O   UNL     1      -9.575   9.634 -16.743  1.00  0.00    -0.504 OA
ATOM     13  H   UNL     1      -9.483  10.428 -16.122  1.00  0.00     0.293 HD
ENDBRANCH   9  12
BRANCH   8  14
ATOM     14  O   UNL     1     -10.276  10.893 -19.172  1.00  0.00    -0.504 OA
ATOM     15  H   UNL     1     -10.228  11.902 -19.256  1.00  0.00     0.293 HD
ENDBRANCH   8  14
TORSDOF 2
ENDMDL
MODEL 7
REMARK VINA RESULT:    -4.259     11.662     13.139
REMARK INTER + INTRA:          -4.508
REMARK INTER:                  -4.508
REMARK INTRA:                   0.000
REMARK UNBOUND:                 0.000
REMARK SMILES O=c1ccc2cc(O)c(O)cc2o1
REMARK SMILES IDX 4 1 3 2 2 3 1 4 13 5 12 6 11 7 9 8 7 9 6 10 5 11 8 12 10 14
REMARK H PARENT 8 13 10 15
REMARK Flexibility Score: inf
ROOT
ATOM      1  C   UNL     1      -6.496   1.199  -7.366  1.00  0.00     0.019 A 
ATOM      2  C   UNL     1      -5.665   0.163  -6.937  1.00  0.00     0.094 A 
ATOM      3  C   UNL     1      -4.499  -0.113  -7.658  1.00  0.00     0.336 A 
ATOM      4  O   UNL     1      -3.737  -1.044  -7.286  1.00  0.00    -0.246 OA
ATOM      5  O   UNL     1      -4.188   0.602  -8.736  1.00  0.00    -0.423 OA
ATOM      6  C   UNL     1      -4.952   1.597  -9.179  1.00  0.00     0.142 A 
ATOM      7  C   UNL     1      -4.575   2.315 -10.319  1.00  0.00     0.098 A 
ATOM      8  C   UNL     1      -5.375   3.365 -10.791  1.00  0.00     0.161 A 
ATOM      9  C   UNL     1      -6.564   3.700 -10.115  1.00  0.00     0.158 A 
ATOM     10  C   UNL     1      -6.944   2.983  -8.974  1.00  0.00     0.062 A 
ATOM     11  C   UNL     1      -6.144   1.933  -8.502  1.00  0.00     0.022 A 
ENDROOT
BRANCH   9  12
ATOM     12  O   UNL     1      -7.378   4.739 -10.564  1.00  0.00    -0.504 OA
ATOM     13  H   UNL     1      -7.858   5.360  -9.924  1.00  0.00     0.293 HD
ENDBRANCH   9  12
BRANCH   8  14
ATOM     14  O   UNL     1      -4.995   4.077 -11.928  1.00  0.00    -0.504 OA
ATOM     15  H   UNL     1      -5.277   3.785 -12.856  1.00  0.00     0.293 HD
ENDBRANCH   8  14
TORSDOF 2
ENDMDL
MODEL 8
REMARK VINA RESULT:    -4.087     12.041     13.593
REMARK INTER + INTRA:          -4.326
REMARK INTER:                  -4.326
REMARK INTRA:                   0.000
REMARK UNBOUND:                 0.000
REMARK SMILES O=c1ccc2cc(O)c(O)cc2o1
REMARK SMILES IDX 4 1 3 2 2 3 1 4 13 5 12 6 11 7 9 8 7 9 6 10 5 11 8 12 10 14
REMARK H PARENT 8 13 10 15
REMARK Flexibility Score: inf
ROOT
ATOM      1  C   UNL     1      -2.790   1.310  -9.593  1.00  0.00     0.019 A 
ATOM      2  C   UNL     1      -2.437   0.196  -8.830  1.00  0.00     0.094 A 
ATOM      3  C   UNL     1      -3.395  -0.379  -7.989  1.00  0.00     0.336 A 
ATOM      4  O   UNL     1      -3.096  -1.385  -7.293  1.00  0.00    -0.246 OA
ATOM      5  O   UNL     1      -4.622   0.129  -7.919  1.00  0.00    -0.423 OA
ATOM      6  C   UNL     1      -5.000   1.190  -8.629  1.00  0.00     0.142 A 
ATOM      7  C   UNL     1      -6.304   1.680  -8.515  1.00  0.00     0.098 A 
ATOM      8  C   UNL     1      -6.708   2.797  -9.260  1.00  0.00     0.161 A 
ATOM      9  C   UNL     1      -5.797   3.428 -10.128  1.00  0.00     0.158 A 
ATOM     10  C   UNL     1      -4.490   2.938 -10.244  1.00  0.00     0.062 A 
ATOM     11  C   UNL     1      -4.087   1.823  -9.499  1.00  0.00     0.022 A 
ENDROOT
BRANCH   9  12
ATOM     12  O   UNL     1      -6.172   4.540 -10.881  1.00  0.00    -0.504 OA
ATOM     13  H   UNL     1      -6.482   5.402 -10.449  1.00  0.00     0.293 HD
ENDBRANCH   9  12
BRANCH   8  14
ATOM     14  O   UNL     1      -8.009   3.283  -9.142  1.00  0.00    -0.504 OA
ATOM     15  H   UNL     1      -8.761   2.934  -9.726  1.00  0.00     0.293 HD
ENDBRANCH   8  14
TORSDOF 2
ENDMDL
MODEL 9
REMARK VINA RESULT:    -4.056      1.790      5.220
REMARK INTER + INTRA:          -4.293
REMARK INTER:                  -4.293
REMARK INTRA:                   0.000
REMARK UNBOUND:                 0.000
REMARK SMILES O=c1ccc2cc(O)c(O)cc2o1
REMARK SMILES IDX 4 1 3 2 2 3 1 4 13 5 12 6 11 7 9 8 7 9 6 10 5 11 8 12 10 14
REMARK H PARENT 8 13 10 15
REMARK Flexibility Score: inf
ROOT
ATOM      1  C   UNL     1      -7.802   8.090 -18.229  1.00  0.00     0.019 A 
ATOM      2  C   UNL     1      -6.617   8.261 -18.945  1.00  0.00     0.094 A 
ATOM      3  C   UNL     1      -6.471   9.394 -19.752  1.00  0.00     0.336 A 
ATOM      4  O   UNL     1      -5.409   9.566 -20.406  1.00  0.00    -0.246 OA
ATOM      5  O   UNL     1      -7.448  10.293 -19.834  1.00  0.00    -0.423 OA
ATOM      6  C   UNL     1      -8.593  10.169 -19.167  1.00  0.00     0.142 A 
ATOM      7  C   UNL     1      -9.585  11.147 -19.291  1.00  0.00     0.098 A 
ATOM      8  C   UNL     1     -10.794  11.021 -18.592  1.00  0.00     0.161 A 
ATOM      9  C   UNL     1     -11.011   9.907 -17.760  1.00  0.00     0.158 A 
ATOM     10  C   UNL     1     -10.019   8.926 -17.634  1.00  0.00     0.062 A 
ATOM     11  C   UNL     1      -8.812   9.051 -18.333  1.00  0.00     0.022 A 
ENDROOT
BRANCH   9  12
ATOM     12  O   UNL     1     -12.204   9.758 -17.053  1.00  0.00    -0.504 OA
ATOM     13  H   UNL     1     -12.515   8.858 -16.708  1.00  0.00     0.293 HD
ENDBRANCH   9  12
BRANCH   8  14
ATOM     14  O   UNL     1     -11.780  11.999 -18.719  1.00  0.00    -0.504 OA
ATOM     15  H   UNL     1     -11.936  12.485 -19.595  1.00  0.00     0.293 HD
ENDBRANCH   8  14
TORSDOF 2
ENDMDL
