MODEL 1
REMARK VINA RESULT:    80.031      0.000      0.000
REMARK INTER + INTRA:          87.617
REMARK INTER:                  87.048
REMARK INTRA:                   0.568
REMARK UNBOUND:                 0.568
REMARK SMILES C[C@@H]1[C@H](C)CC[C@]2(C(=O)[O-])CC[C@]3(C)C(=CC[C@@H]4[C@@]5(C)CC[C@H](O)C(C)(C)[C@H]5CC[C@@]43C)[C@@H]12
REMARK SMILES IDX 7 1 6 2 11 3 33 4 5 5 12 6 15 7 2 8 3 9 13 10 16 11 1 12
REMARK SMILES IDX 4 13 14 14 31 15 17 16 18 17 30 18 32 19 19 20 29 21 28 22
REMARK SMILES IDX 21 23 20 24 25 25 22 26 23 27 26 28 27 29 8 30 9 31 10 32
REMARK SMILES IDX 24 33
REMARK H PARENT 24 34
REMARK Flexibility Score: inf
ROOT
ATOM      1  C   UNL     1       0.718  60.157  -0.151  1.00  0.00     0.017 C 
ATOM      2  C   UNL     1       1.420  60.080   1.239  1.00  0.00     0.014 C 
ATOM      3  C   UNL     1       1.084  58.877  -0.989  1.00  0.00     0.014 C 
ATOM      4  C   UNL     1       1.224  61.439  -0.877  1.00  0.00     0.030 C 
ATOM      5  C   UNL     1       1.197  61.342   2.088  1.00  0.00     0.004 C 
ATOM      6  C   UNL     1       1.775  59.101  -2.367  1.00  0.00     0.013 C 
ATOM      7  C   UNL     1       0.763  61.425  -2.333  1.00  0.00    -0.063 C 
ATOM      8  C   UNL     1       1.022  62.749  -0.043  1.00  0.00    -0.003 C 
ATOM      9  C   UNL     1       1.682  62.616   1.368  1.00  0.00    -0.011 C 
ATOM     10  C   UNL     1       1.349  60.359  -3.242  1.00  0.00    -0.006 C 
ATOM     11  C   UNL     1      -0.092  62.325  -2.840  1.00  0.00    -0.027 C 
ATOM     12  C   UNL     1       1.530  64.017  -0.771  1.00  0.00     0.008 C 
ATOM     13  C   UNL     1       3.229  62.681   1.357  1.00  0.00     0.008 C 
ATOM     14  C   UNL     1       2.664  60.990  -3.817  1.00  0.00     0.017 C 
ATOM     15  C   UNL     1       0.324  59.972  -4.435  1.00  0.00    -0.020 C 
ATOM     16  C   UNL     1      -0.184  62.560  -4.318  1.00  0.00     0.032 C 
ATOM     17  C   UNL     1      -0.130  61.275  -5.229  1.00  0.00     0.006 C 
ATOM     18  C   UNL     1      -0.981  59.252  -3.909  1.00  0.00     0.008 C 
ATOM     19  C   UNL     1       1.088  58.984  -5.413  1.00  0.00     0.012 C 
ATOM     20  C   UNL     1      -1.481  61.129  -6.074  1.00  0.00    -0.025 C 
ATOM     21  C   UNL     1      -2.261  60.103  -3.805  1.00  0.00     0.005 C 
ATOM     22  C   UNL     1      -2.698  60.913  -5.084  1.00  0.00     0.003 C 
ATOM     23  C   UNL     1      -1.395  59.943  -7.098  1.00  0.00     0.010 C 
ATOM     24  C   UNL     1      -1.640  62.445  -6.915  1.00  0.00     0.012 C 
ATOM     25  C   UNL     1      -4.058  60.443  -5.777  1.00  0.00    -0.006 C 
ATOM     26  C   UNL     1      -2.720  59.579  -7.774  1.00  0.00     0.033 C 
ATOM     27  C   UNL     1      -3.795  59.248  -6.735  1.00  0.00     0.120 C 
ATOM     28  C   UNL     1      -5.122  60.014  -4.725  1.00  0.00     0.014 C 
ATOM     29  C   UNL     1      -4.721  61.620  -6.558  1.00  0.00     0.014 C 
ENDROOT
BRANCH   1  30
ATOM     30  C   UNL     1      -0.797  60.170   0.078  1.00  0.00     0.048 C 
ATOM     31  O   UNL     1      -1.289  60.897   0.987  1.00  0.00    -0.550 OA
ATOM     32  O   UNL     1      -1.647  59.360  -0.655  1.00  0.00    -0.550 OA
ENDBRANCH   1  30
BRANCH  27  33
ATOM     33  O   UNL     1      -4.972  58.875  -7.412  1.00  0.00    -0.393 OA
ATOM     34  H   UNL     1      -4.712  58.602  -8.330  1.00  0.00     0.210 HD
ENDBRANCH  27  33
TORSDOF 2
ENDMDL
