MODEL 1
REMARK VINA RESULT:    -6.823      0.000      0.000
REMARK INTER + INTRA:          -8.308
REMARK INTER:                  -8.020
REMARK INTRA:                  -0.288
REMARK UNBOUND:                -0.288
REMARK SMILES O=c1c(O)c(-c2ccc(O)cc2)oc2cc(O)cc(O)c12
REMARK SMILES IDX 5 1 3 2 2 3 1 4 21 5 19 6 18 7 16 8 15 9 14 10 13 11 6 12
REMARK SMILES IDX 7 13 8 14 9 15 12 16 11 17 10 18 4 20 20 22 17 24
REMARK H PARENT 10 19 4 21 20 23 17 25
REMARK Flexibility Score: inf
ROOT
ATOM      1  C   UNL     1      27.652  13.516  65.801  1.00  0.00     0.180 A 
ATOM      2  C   UNL     1      27.141  14.154  66.944  1.00  0.00     0.208 A 
ATOM      3  C   UNL     1      26.063  15.043  66.806  1.00  0.00     0.238 A 
ATOM      4  O   UNL     1      25.576  15.568  67.840  1.00  0.00    -0.285 OA
ATOM      5  C   UNL     1      25.519  15.295  65.523  1.00  0.00     0.111 A 
ATOM      6  C   UNL     1      24.452  16.206  65.261  1.00  0.00     0.134 A 
ATOM      7  C   UNL     1      23.908  16.278  63.972  1.00  0.00     0.093 A 
ATOM      8  C   UNL     1      24.432  15.523  62.925  1.00  0.00     0.123 A 
ATOM      9  C   UNL     1      25.514  14.672  63.158  1.00  0.00     0.094 A 
ATOM     10  C   UNL     1      26.056  14.551  64.440  1.00  0.00     0.146 A 
ATOM     11  O   UNL     1      27.077  13.723  64.622  1.00  0.00    -0.452 OA
ENDROOT
BRANCH   1  12
ATOM     12  C   UNL     1      28.803  12.586  65.864  1.00  0.00     0.021 A 
ATOM     13  C   UNL     1      30.116  13.030  65.625  1.00  0.00     0.016 A 
ATOM     14  C   UNL     1      31.185  12.128  65.666  1.00  0.00     0.047 A 
ATOM     15  C   UNL     1      30.954  10.775  65.932  1.00  0.00     0.115 A 
ATOM     16  C   UNL     1      28.576  11.222  66.109  1.00  0.00     0.016 A 
ATOM     17  C   UNL     1      29.646  10.323  66.151  1.00  0.00     0.047 A 
BRANCH  15  18
ATOM     18  O   UNL     1      32.028   9.888  65.971  1.00  0.00    -0.508 OA
ATOM     19  H   UNL     1      32.258   9.371  66.812  1.00  0.00     0.293 HD
ENDBRANCH  15  18
ENDBRANCH   1  12
BRANCH   2  20
ATOM     20  O   UNL     1      27.679  13.874  68.205  1.00  0.00    -0.502 OA
ATOM     21  H   UNL     1      27.725  14.566  68.943  1.00  0.00     0.293 HD
ENDBRANCH   2  20
BRANCH   6  22
ATOM     22  O   UNL     1      23.915  17.075  66.215  1.00  0.00    -0.507 OA
ATOM     23  H   UNL     1      24.456  17.584  66.898  1.00  0.00     0.293 HD
ENDBRANCH   6  22
BRANCH   8  24
ATOM     24  O   UNL     1      23.875  15.631  61.652  1.00  0.00    -0.508 OA
ATOM     25  H   UNL     1      22.958  15.257  61.442  1.00  0.00     0.293 HD
ENDBRANCH   8  24
TORSDOF 5
ENDMDL
MODEL 2
REMARK VINA RESULT:    -6.590      3.650      8.098
REMARK INTER + INTRA:          -8.034
REMARK INTER:                  -7.756
REMARK INTRA:                  -0.278
REMARK UNBOUND:                -0.288
REMARK SMILES O=c1c(O)c(-c2ccc(O)cc2)oc2cc(O)cc(O)c12
REMARK SMILES IDX 5 1 3 2 2 3 1 4 21 5 19 6 18 7 16 8 15 9 14 10 13 11 6 12
REMARK SMILES IDX 7 13 8 14 9 15 12 16 11 17 10 18 4 20 20 22 17 24
REMARK H PARENT 10 19 4 21 20 23 17 25
REMARK Flexibility Score: inf
ROOT
ATOM      1  C   UNL     1      30.458  10.837  64.264  1.00  0.00     0.180 A 
ATOM      2  C   UNL     1      30.033   9.853  63.355  1.00  0.00     0.208 A 
ATOM      3  C   UNL     1      30.914   9.430  62.346  1.00  0.00     0.238 A 
ATOM      4  O   UNL     1      30.548   8.511  61.569  1.00  0.00    -0.285 OA
ATOM      5  C   UNL     1      32.203  10.008  62.250  1.00  0.00     0.111 A 
ATOM      6  C   UNL     1      33.163   9.684  61.244  1.00  0.00     0.134 A 
ATOM      7  C   UNL     1      34.453  10.223  61.323  1.00  0.00     0.093 A 
ATOM      8  C   UNL     1      34.799  11.121  62.331  1.00  0.00     0.123 A 
ATOM      9  C   UNL     1      33.850  11.490  63.287  1.00  0.00     0.094 A 
ATOM     10  C   UNL     1      32.565  10.943  63.255  1.00  0.00     0.146 A 
ATOM     11  O   UNL     1      31.695  11.311  64.188  1.00  0.00    -0.452 OA
ENDROOT
BRANCH   1  12
ATOM     12  C   UNL     1      29.577  11.350  65.338  1.00  0.00     0.021 A 
ATOM     13  C   UNL     1      28.853  12.546  65.182  1.00  0.00     0.016 A 
ATOM     14  C   UNL     1      28.046  13.025  66.220  1.00  0.00     0.047 A 
ATOM     15  C   UNL     1      27.964  12.325  67.427  1.00  0.00     0.115 A 
ATOM     16  C   UNL     1      29.505  10.663  66.562  1.00  0.00     0.016 A 
ATOM     17  C   UNL     1      28.697  11.143  67.596  1.00  0.00     0.047 A 
BRANCH  15  18
ATOM     18  O   UNL     1      27.155  12.813  68.451  1.00  0.00    -0.508 OA
ATOM     19  H   UNL     1      26.743  12.194  69.141  1.00  0.00     0.293 HD
ENDBRANCH  15  18
ENDBRANCH   1  12
BRANCH   2  20
ATOM     20  O   UNL     1      28.764   9.279  63.482  1.00  0.00    -0.502 OA
ATOM     21  H   UNL     1      28.611   8.279  63.426  1.00  0.00     0.293 HD
ENDBRANCH   2  20
BRANCH   6  22
ATOM     22  O   UNL     1      32.893   8.870  60.141  1.00  0.00    -0.507 OA
ATOM     23  H   UNL     1      32.805   7.865  60.176  1.00  0.00     0.293 HD
ENDBRANCH   6  22
BRANCH   8  24
ATOM     24  O   UNL     1      36.088  11.649  62.371  1.00  0.00    -0.508 OA
ATOM     25  H   UNL     1      36.339  12.472  61.836  1.00  0.00     0.293 HD
ENDBRANCH   8  24
TORSDOF 5
ENDMDL
MODEL 3
REMARK VINA RESULT:    -6.454      3.035      5.468
REMARK INTER + INTRA:          -7.874
REMARK INTER:                  -7.723
REMARK INTRA:                  -0.151
REMARK UNBOUND:                -0.288
REMARK SMILES O=c1c(O)c(-c2ccc(O)cc2)oc2cc(O)cc(O)c12
REMARK SMILES IDX 5 1 3 2 2 3 1 4 21 5 19 6 18 7 16 8 15 9 14 10 13 11 6 12
REMARK SMILES IDX 7 13 8 14 9 15 12 16 11 17 10 18 4 20 20 22 17 24
REMARK H PARENT 10 19 4 21 20 23 17 25
REMARK Flexibility Score: inf
ROOT
ATOM      1  C   UNL     1      30.854  10.613  64.473  1.00  0.00     0.180 A 
ATOM      2  C   UNL     1      31.335  10.408  65.778  1.00  0.00     0.208 A 
ATOM      3  C   UNL     1      30.652  10.992  66.857  1.00  0.00     0.238 A 
ATOM      4  O   UNL     1      31.055  10.760  68.026  1.00  0.00    -0.285 OA
ATOM      5  C   UNL     1      29.506  11.788  66.616  1.00  0.00     0.111 A 
ATOM      6  C   UNL     1      28.759  12.461  67.629  1.00  0.00     0.134 A 
ATOM      7  C   UNL     1      27.567  13.113  67.290  1.00  0.00     0.093 A 
ATOM      8  C   UNL     1      27.129  13.173  65.968  1.00  0.00     0.123 A 
ATOM      9  C   UNL     1      27.883  12.568  64.960  1.00  0.00     0.094 A 
ATOM     10  C   UNL     1      29.057  11.880  65.272  1.00  0.00     0.146 A 
ATOM     11  O   UNL     1      29.740  11.309  64.286  1.00  0.00    -0.452 OA
ENDROOT
BRANCH   1  12
ATOM     12  C   UNL     1      31.535  10.050  63.285  1.00  0.00     0.021 A 
ATOM     13  C   UNL     1      32.840  10.443  62.934  1.00  0.00     0.016 A 
ATOM     14  C   UNL     1      33.453   9.916  61.792  1.00  0.00     0.047 A 
ATOM     15  C   UNL     1      32.769   9.004  60.983  1.00  0.00     0.115 A 
ATOM     16  C   UNL     1      30.846   9.150  62.455  1.00  0.00     0.016 A 
ATOM     17  C   UNL     1      31.462   8.624  61.316  1.00  0.00     0.047 A 
BRANCH  15  18
ATOM     18  O   UNL     1      33.393   8.487  59.850  1.00  0.00    -0.508 OA
ATOM     19  H   UNL     1      32.958   7.763  59.289  1.00  0.00     0.293 HD
ENDBRANCH  15  18
ENDBRANCH   1  12
BRANCH   2  20
ATOM     20  O   UNL     1      32.456   9.600  65.996  1.00  0.00    -0.502 OA
ATOM     21  H   UNL     1      32.382   8.639  66.307  1.00  0.00     0.293 HD
ENDBRANCH   2  20
BRANCH   6  22
ATOM     22  O   UNL     1      29.156  12.542  68.967  1.00  0.00    -0.507 OA
ATOM     23  H   UNL     1      28.609  12.215  69.750  1.00  0.00     0.293 HD
ENDBRANCH   6  22
BRANCH   8  24
ATOM     24  O   UNL     1      25.946  13.844  65.665  1.00  0.00    -0.508 OA
ATOM     25  H   UNL     1      25.050  13.372  65.684  1.00  0.00     0.293 HD
ENDBRANCH   8  24
TORSDOF 5
ENDMDL
MODEL 4
REMARK VINA RESULT:    -6.407      4.481      6.689
REMARK INTER + INTRA:          -7.818
REMARK INTER:                  -8.226
REMARK INTRA:                   0.408
REMARK UNBOUND:                -0.288
REMARK SMILES O=c1c(O)c(-c2ccc(O)cc2)oc2cc(O)cc(O)c12
REMARK SMILES IDX 5 1 3 2 2 3 1 4 21 5 19 6 18 7 16 8 15 9 14 10 13 11 6 12
REMARK SMILES IDX 7 13 8 14 9 15 12 16 11 17 10 18 4 20 20 22 17 24
REMARK H PARENT 10 19 4 21 20 23 17 25
REMARK Flexibility Score: inf
ROOT
ATOM      1  C   UNL     1      31.181  10.441  63.811  1.00  0.00     0.180 A 
ATOM      2  C   UNL     1      29.814  10.161  63.977  1.00  0.00     0.208 A 
ATOM      3  C   UNL     1      29.138  10.697  65.085  1.00  0.00     0.238 A 
ATOM      4  O   UNL     1      27.902  10.488  65.199  1.00  0.00    -0.285 OA
ATOM      5  C   UNL     1      29.841  11.494  66.021  1.00  0.00     0.111 A 
ATOM      6  C   UNL     1      29.265  12.056  67.200  1.00  0.00     0.134 A 
ATOM      7  C   UNL     1      30.022  12.935  67.985  1.00  0.00     0.093 A 
ATOM      8  C   UNL     1      31.349  13.221  67.672  1.00  0.00     0.123 A 
ATOM      9  C   UNL     1      31.941  12.631  66.553  1.00  0.00     0.094 A 
ATOM     10  C   UNL     1      31.201  11.778  65.730  1.00  0.00     0.146 A 
ATOM     11  O   UNL     1      31.796  11.245  64.670  1.00  0.00    -0.452 OA
ENDROOT
BRANCH   1  12
ATOM     12  C   UNL     1      31.967   9.891  62.682  1.00  0.00     0.021 A 
ATOM     13  C   UNL     1      31.342   9.446  61.503  1.00  0.00     0.016 A 
ATOM     14  C   UNL     1      32.103   8.908  60.460  1.00  0.00     0.047 A 
ATOM     15  C   UNL     1      33.491   8.795  60.587  1.00  0.00     0.115 A 
ATOM     16  C   UNL     1      33.359   9.755  62.811  1.00  0.00     0.016 A 
ATOM     17  C   UNL     1      34.117   9.218  61.767  1.00  0.00     0.047 A 
BRANCH  15  18
ATOM     18  O   UNL     1      34.236   8.258  59.539  1.00  0.00    -0.508 OA
ATOM     19  H   UNL     1      33.967   8.398  58.572  1.00  0.00     0.293 HD
ENDBRANCH  15  18
ENDBRANCH   1  12
BRANCH   2  20
ATOM     20  O   UNL     1      29.133   9.391  63.028  1.00  0.00    -0.502 OA
ATOM     21  H   UNL     1      29.147   9.608  62.039  1.00  0.00     0.293 HD
ENDBRANCH   2  20
BRANCH   6  22
ATOM     22  O   UNL     1      27.977  11.763  67.656  1.00  0.00    -0.507 OA
ATOM     23  H   UNL     1      27.127  11.981  67.157  1.00  0.00     0.293 HD
ENDBRANCH   6  22
BRANCH   8  24
ATOM     24  O   UNL     1      32.077  14.088  68.484  1.00  0.00    -0.508 OA
ATOM     25  H   UNL     1      31.700  14.981  68.777  1.00  0.00     0.293 HD
ENDBRANCH   8  24
TORSDOF 5
ENDMDL
MODEL 5
REMARK VINA RESULT:    -6.144      5.992      7.837
REMARK INTER + INTRA:          -7.509
REMARK INTER:                  -7.247
REMARK INTRA:                  -0.263
REMARK UNBOUND:                -0.288
REMARK SMILES O=c1c(O)c(-c2ccc(O)cc2)oc2cc(O)cc(O)c12
REMARK SMILES IDX 5 1 3 2 2 3 1 4 21 5 19 6 18 7 16 8 15 9 14 10 13 11 6 12
REMARK SMILES IDX 7 13 8 14 9 15 12 16 11 17 10 18 4 20 20 22 17 24
REMARK H PARENT 10 19 4 21 20 23 17 25
REMARK Flexibility Score: inf
ROOT
ATOM      1  C   UNL     1      33.523  11.857  64.836  1.00  0.00     0.180 A 
ATOM      2  C   UNL     1      32.268  11.708  65.451  1.00  0.00     0.208 A 
ATOM      3  C   UNL     1      31.283  10.937  64.813  1.00  0.00     0.238 A 
ATOM      4  O   UNL     1      30.181  10.762  65.395  1.00  0.00    -0.285 OA
ATOM      5  C   UNL     1      31.560  10.338  63.560  1.00  0.00     0.111 A 
ATOM      6  C   UNL     1      30.623   9.569  62.806  1.00  0.00     0.134 A 
ATOM      7  C   UNL     1      31.047   8.916  61.641  1.00  0.00     0.093 A 
ATOM      8  C   UNL     1      32.351   9.056  61.170  1.00  0.00     0.123 A 
ATOM      9  C   UNL     1      33.259   9.854  61.868  1.00  0.00     0.094 A 
ATOM     10  C   UNL     1      32.877  10.489  63.052  1.00  0.00     0.146 A 
ATOM     11  O   UNL     1      33.773  11.230  63.693  1.00  0.00    -0.452 OA
ENDROOT
BRANCH   1  12
ATOM     12  C   UNL     1      34.603  12.675  65.435  1.00  0.00     0.021 A 
ATOM     13  C   UNL     1      34.875  13.978  64.977  1.00  0.00     0.016 A 
ATOM     14  C   UNL     1      35.916  14.722  65.542  1.00  0.00     0.047 A 
ATOM     15  C   UNL     1      36.703  14.172  66.558  1.00  0.00     0.115 A 
ATOM     16  C   UNL     1      35.412  12.122  66.441  1.00  0.00     0.016 A 
ATOM     17  C   UNL     1      36.450  12.869  67.004  1.00  0.00     0.047 A 
BRANCH  15  18
ATOM     18  O   UNL     1      37.736  14.926  67.112  1.00  0.00    -0.508 OA
ATOM     19  H   UNL     1      37.982  15.838  66.744  1.00  0.00     0.293 HD
ENDBRANCH  15  18
ENDBRANCH   1  12
BRANCH   2  20
ATOM     20  O   UNL     1      32.024  12.289  66.700  1.00  0.00    -0.502 OA
ATOM     21  H   UNL     1      31.611  11.774  67.468  1.00  0.00     0.293 HD
ENDBRANCH   2  20
BRANCH   6  22
ATOM     22  O   UNL     1      29.272   9.440  63.138  1.00  0.00    -0.507 OA
ATOM     23  H   UNL     1      28.823   8.574  63.396  1.00  0.00     0.293 HD
ENDBRANCH   6  22
BRANCH   8  24
ATOM     24  O   UNL     1      32.733   8.404  59.999  1.00  0.00    -0.508 OA
ATOM     25  H   UNL     1      32.910   7.407  59.982  1.00  0.00     0.293 HD
ENDBRANCH   8  24
TORSDOF 5
ENDMDL
MODEL 6
REMARK VINA RESULT:    -6.088      4.786      6.583
REMARK INTER + INTRA:          -7.443
REMARK INTER:                  -7.292
REMARK INTRA:                  -0.151
REMARK UNBOUND:                -0.288
REMARK SMILES O=c1c(O)c(-c2ccc(O)cc2)oc2cc(O)cc(O)c12
REMARK SMILES IDX 5 1 3 2 2 3 1 4 21 5 19 6 18 7 16 8 15 9 14 10 13 11 6 12
REMARK SMILES IDX 7 13 8 14 9 15 12 16 11 17 10 18 4 20 20 22 17 24
REMARK H PARENT 10 19 4 21 20 23 17 25
REMARK Flexibility Score: inf
ROOT
ATOM      1  C   UNL     1      32.894  12.696  65.731  1.00  0.00     0.180 A 
ATOM      2  C   UNL     1      31.963  12.893  66.765  1.00  0.00     0.208 A 
ATOM      3  C   UNL     1      30.709  12.267  66.682  1.00  0.00     0.238 A 
ATOM      4  O   UNL     1      29.900  12.404  67.637  1.00  0.00    -0.285 OA
ATOM      5  C   UNL     1      30.396  11.464  65.559  1.00  0.00     0.111 A 
ATOM      6  C   UNL     1      29.142  10.814  65.352  1.00  0.00     0.134 A 
ATOM      7  C   UNL     1      28.989   9.939  64.269  1.00  0.00     0.093 A 
ATOM      8  C   UNL     1      30.019   9.740  63.352  1.00  0.00     0.123 A 
ATOM      9  C   UNL     1      31.230  10.417  63.512  1.00  0.00     0.094 A 
ATOM     10  C   UNL     1      31.426  11.268  64.601  1.00  0.00     0.146 A 
ATOM     11  O   UNL     1      32.595  11.885  64.724  1.00  0.00    -0.452 OA
ENDROOT
BRANCH   1  12
ATOM     12  C   UNL     1      34.226  13.343  65.735  1.00  0.00     0.021 A 
ATOM     13  C   UNL     1      34.573  14.312  64.775  1.00  0.00     0.016 A 
ATOM     14  C   UNL     1      35.846  14.891  64.785  1.00  0.00     0.047 A 
ATOM     15  C   UNL     1      36.790  14.503  65.741  1.00  0.00     0.115 A 
ATOM     16  C   UNL     1      35.186  12.943  66.679  1.00  0.00     0.016 A 
ATOM     17  C   UNL     1      36.457  13.525  66.687  1.00  0.00     0.047 A 
BRANCH  15  18
ATOM     18  O   UNL     1      38.053  15.090  65.738  1.00  0.00    -0.508 OA
ATOM     19  H   UNL     1      38.177  16.081  65.914  1.00  0.00     0.293 HD
ENDBRANCH  15  18
ENDBRANCH   1  12
BRANCH   2  20
ATOM     20  O   UNL     1      32.301  13.673  67.876  1.00  0.00    -0.502 OA
ATOM     21  H   UNL     1      32.224  14.683  67.876  1.00  0.00     0.293 HD
ENDBRANCH   2  20
BRANCH   6  22
ATOM     22  O   UNL     1      28.017  11.014  66.157  1.00  0.00    -0.507 OA
ATOM     23  H   UNL     1      28.034  11.429  67.077  1.00  0.00     0.293 HD
ENDBRANCH   6  22
BRANCH   8  24
ATOM     24  O   UNL     1      29.826   8.874  62.278  1.00  0.00    -0.508 OA
ATOM     25  H   UNL     1      30.515   8.173  62.032  1.00  0.00     0.293 HD
ENDBRANCH   8  24
TORSDOF 5
ENDMDL
MODEL 7
REMARK VINA RESULT:    -6.043      5.211      8.223
REMARK INTER + INTRA:          -7.390
REMARK INTER:                  -7.110
REMARK INTRA:                  -0.280
REMARK UNBOUND:                -0.288
REMARK SMILES O=c1c(O)c(-c2ccc(O)cc2)oc2cc(O)cc(O)c12
REMARK SMILES IDX 5 1 3 2 2 3 1 4 21 5 19 6 18 7 16 8 15 9 14 10 13 11 6 12
REMARK SMILES IDX 7 13 8 14 9 15 12 16 11 17 10 18 4 20 20 22 17 24
REMARK H PARENT 10 19 4 21 20 23 17 25
REMARK Flexibility Score: inf
ROOT
ATOM      1  C   UNL     1      33.708   9.646  62.456  1.00  0.00     0.180 A 
ATOM      2  C   UNL     1      34.140  10.772  63.179  1.00  0.00     0.208 A 
ATOM      3  C   UNL     1      33.208  11.490  63.944  1.00  0.00     0.238 A 
ATOM      4  O   UNL     1      33.612  12.464  64.632  1.00  0.00    -0.285 OA
ATOM      5  C   UNL     1      31.852  11.084  63.965  1.00  0.00     0.111 A 
ATOM      6  C   UNL     1      30.814  11.760  64.675  1.00  0.00     0.134 A 
ATOM      7  C   UNL     1      29.534  11.194  64.730  1.00  0.00     0.093 A 
ATOM      8  C   UNL     1      29.238  10.014  64.052  1.00  0.00     0.123 A 
ATOM      9  C   UNL     1      30.230   9.375  63.306  1.00  0.00     0.094 A 
ATOM     10  C   UNL     1      31.526   9.895  63.260  1.00  0.00     0.146 A 
ATOM     11  O   UNL     1      32.444   9.252  62.549  1.00  0.00    -0.452 OA
ENDROOT
BRANCH   1  12
ATOM     12  C   UNL     1      34.627   8.854  61.607  1.00  0.00     0.021 A 
ATOM     13  C   UNL     1      34.717   9.076  60.220  1.00  0.00     0.016 A 
ATOM     14  C   UNL     1      35.574   8.298  59.435  1.00  0.00     0.047 A 
ATOM     15  C   UNL     1      36.339   7.284  60.019  1.00  0.00     0.115 A 
ATOM     16  C   UNL     1      35.382   7.820  62.183  1.00  0.00     0.016 A 
ATOM     17  C   UNL     1      36.239   7.045  61.396  1.00  0.00     0.047 A 
BRANCH  15  18
ATOM     18  O   UNL     1      37.189   6.519  59.224  1.00  0.00    -0.508 OA
ATOM     19  H   UNL     1      37.176   6.591  58.213  1.00  0.00     0.293 HD
ENDBRANCH  15  18
ENDBRANCH   1  12
BRANCH   2  20
ATOM     20  O   UNL     1      35.489  11.143  63.162  1.00  0.00    -0.502 OA
ATOM     21  H   UNL     1      36.145  10.840  63.871  1.00  0.00     0.293 HD
ENDBRANCH   2  20
BRANCH   6  22
ATOM     22  O   UNL     1      30.980  12.994  65.311  1.00  0.00    -0.507 OA
ATOM     23  H   UNL     1      31.543  13.752  64.957  1.00  0.00     0.293 HD
ENDBRANCH   6  22
BRANCH   8  24
ATOM     24  O   UNL     1      27.949   9.488  64.116  1.00  0.00    -0.508 OA
ATOM     25  H   UNL     1      27.786   8.488  64.136  1.00  0.00     0.293 HD
ENDBRANCH   8  24
TORSDOF 5
ENDMDL
MODEL 8
REMARK VINA RESULT:    -6.008      4.974      7.651
REMARK INTER + INTRA:          -7.350
REMARK INTER:                  -7.050
REMARK INTRA:                  -0.300
REMARK UNBOUND:                -0.288
REMARK SMILES O=c1c(O)c(-c2ccc(O)cc2)oc2cc(O)cc(O)c12
REMARK SMILES IDX 5 1 3 2 2 3 1 4 21 5 19 6 18 7 16 8 15 9 14 10 13 11 6 12
REMARK SMILES IDX 7 13 8 14 9 15 12 16 11 17 10 18 4 20 20 22 17 24
REMARK H PARENT 10 19 4 21 20 23 17 25
REMARK Flexibility Score: inf
ROOT
ATOM      1  C   UNL     1      33.481  12.063  64.318  1.00  0.00     0.180 A 
ATOM      2  C   UNL     1      33.333  11.469  63.052  1.00  0.00     0.208 A 
ATOM      3  C   UNL     1      32.152  10.768  62.762  1.00  0.00     0.238 A 
ATOM      4  O   UNL     1      32.002  10.285  61.609  1.00  0.00    -0.285 OA
ATOM      5  C   UNL     1      31.139  10.656  63.746  1.00  0.00     0.111 A 
ATOM      6  C   UNL     1      29.919   9.937  63.574  1.00  0.00     0.134 A 
ATOM      7  C   UNL     1      28.933  10.003  64.567  1.00  0.00     0.093 A 
ATOM      8  C   UNL     1      29.149  10.707  65.750  1.00  0.00     0.123 A 
ATOM      9  C   UNL     1      30.363  11.366  65.954  1.00  0.00     0.094 A 
ATOM     10  C   UNL     1      31.351  11.348  64.967  1.00  0.00     0.146 A 
ATOM     11  O   UNL     1      32.487  11.996  65.194  1.00  0.00    -0.452 OA
ENDROOT
BRANCH   1  12
ATOM     12  C   UNL     1      34.708  12.796  64.706  1.00  0.00     0.021 A 
ATOM     13  C   UNL     1      35.804  12.133  65.287  1.00  0.00     0.016 A 
ATOM     14  C   UNL     1      36.943  12.850  65.668  1.00  0.00     0.047 A 
ATOM     15  C   UNL     1      36.996  14.235  65.486  1.00  0.00     0.115 A 
ATOM     16  C   UNL     1      34.760  14.190  64.545  1.00  0.00     0.016 A 
ATOM     17  C   UNL     1      35.900  14.904  64.926  1.00  0.00     0.047 A 
BRANCH  15  18
ATOM     18  O   UNL     1      38.137  14.937  65.869  1.00  0.00    -0.508 OA
ATOM     19  H   UNL     1      38.077  15.857  66.291  1.00  0.00     0.293 HD
ENDBRANCH  15  18
ENDBRANCH   1  12
BRANCH   2  20
ATOM     20  O   UNL     1      34.336  11.610  62.087  1.00  0.00    -0.502 OA
ATOM     21  H   UNL     1      34.868  12.465  61.976  1.00  0.00     0.293 HD
ENDBRANCH   2  20
BRANCH   6  22
ATOM     22  O   UNL     1      29.639   9.126  62.470  1.00  0.00    -0.507 OA
ATOM     23  H   UNL     1      29.947   9.312  61.527  1.00  0.00     0.293 HD
ENDBRANCH   6  22
BRANCH   8  24
ATOM     24  O   UNL     1      28.152  10.738  66.723  1.00  0.00    -0.508 OA
ATOM     25  H   UNL     1      28.338  10.467  67.681  1.00  0.00     0.293 HD
ENDBRANCH   8  24
TORSDOF 5
ENDMDL
MODEL 9
REMARK VINA RESULT:    -5.891      5.658      9.140
REMARK INTER + INTRA:          -7.212
REMARK INTER:                  -6.925
REMARK INTRA:                  -0.287
REMARK UNBOUND:                -0.288
REMARK SMILES O=c1c(O)c(-c2ccc(O)cc2)oc2cc(O)cc(O)c12
REMARK SMILES IDX 5 1 3 2 2 3 1 4 21 5 19 6 18 7 16 8 15 9 14 10 13 11 6 12
REMARK SMILES IDX 7 13 8 14 9 15 12 16 11 17 10 18 4 20 20 22 17 24
REMARK H PARENT 10 19 4 21 20 23 17 25
REMARK Flexibility Score: inf
ROOT
ATOM      1  C   UNL     1      33.430  11.344  65.043  1.00  0.00     0.180 A 
ATOM      2  C   UNL     1      34.366  10.547  65.724  1.00  0.00     0.208 A 
ATOM      3  C   UNL     1      35.636  11.075  66.006  1.00  0.00     0.238 A 
ATOM      4  O   UNL     1      36.450  10.376  66.664  1.00  0.00    -0.285 OA
ATOM      5  C   UNL     1      35.960  12.389  65.589  1.00  0.00     0.111 A 
ATOM      6  C   UNL     1      37.229  13.012  65.786  1.00  0.00     0.134 A 
ATOM      7  C   UNL     1      37.395  14.361  65.449  1.00  0.00     0.093 A 
ATOM      8  C   UNL     1      36.362  15.090  64.864  1.00  0.00     0.123 A 
ATOM      9  C   UNL     1      35.134  14.474  64.612  1.00  0.00     0.094 A 
ATOM     10  C   UNL     1      34.926  13.140  64.970  1.00  0.00     0.146 A 
ATOM     11  O   UNL     1      33.741  12.594  64.724  1.00  0.00    -0.452 OA
ENDROOT
BRANCH   1  12
ATOM     12  C   UNL     1      32.081  10.847  64.689  1.00  0.00     0.021 A 
ATOM     13  C   UNL     1      31.003  10.951  65.587  1.00  0.00     0.016 A 
ATOM     14  C   UNL     1      29.743  10.453  65.239  1.00  0.00     0.047 A 
ATOM     15  C   UNL     1      29.548   9.834  64.001  1.00  0.00     0.115 A 
ATOM     16  C   UNL     1      31.882  10.206  63.455  1.00  0.00     0.016 A 
ATOM     17  C   UNL     1      30.622   9.710  63.110  1.00  0.00     0.047 A 
BRANCH  15  18
ATOM     18  O   UNL     1      28.287   9.343  63.668  1.00  0.00    -0.508 OA
ATOM     19  H   UNL     1      27.998   8.407  63.927  1.00  0.00     0.293 HD
ENDBRANCH  15  18
ENDBRANCH   1  12
BRANCH   2  20
ATOM     20  O   UNL     1      34.018   9.259  66.147  1.00  0.00    -0.502 OA
ATOM     21  H   UNL     1      34.691   8.504  66.202  1.00  0.00     0.293 HD
ENDBRANCH   2  20
BRANCH   6  22
ATOM     22  O   UNL     1      38.356  12.348  66.278  1.00  0.00    -0.507 OA
ATOM     23  H   UNL     1      39.021  12.746  66.924  1.00  0.00     0.293 HD
ENDBRANCH   6  22
BRANCH   8  24
ATOM     24  O   UNL     1      36.568  16.427  64.527  1.00  0.00    -0.508 OA
ATOM     25  H   UNL     1      36.565  17.156  65.230  1.00  0.00     0.293 HD
ENDBRANCH   8  24
TORSDOF 5
ENDMDL
