MODEL 1
REMARK VINA RESULT:    -3.544      0.000      0.000
REMARK INTER + INTRA:          -3.648
REMARK INTER:                  -3.648
REMARK INTRA:                   0.000
REMARK UNBOUND:                 0.000
REMARK SMILES O=c1ccc2ccc(O)cc2o1
REMARK SMILES IDX 6 1 7 2 8 3 10 4 11 5 5 6 4 7 3 8 2 9 1 10 12 11 9 12
REMARK H PARENT 9 13
REMARK Flexibility Score: inf
ROOT
ATOM      1  C   UNL     1      -1.721  60.376  -3.729  1.00  0.00     0.016 A 
ATOM      2  C   UNL     1      -3.038  59.992  -4.003  1.00  0.00     0.047 A 
ATOM      3  C   UNL     1      -3.334  59.248  -5.152  1.00  0.00     0.119 A 
ATOM      4  C   UNL     1      -2.305  58.886  -6.035  1.00  0.00     0.094 A 
ATOM      5  C   UNL     1      -0.986  59.266  -5.770  1.00  0.00     0.142 A 
ATOM      6  C   UNL     1      -0.691  60.016  -4.609  1.00  0.00     0.018 A 
ATOM      7  C   UNL     1       0.638  60.381  -4.371  1.00  0.00     0.019 A 
ATOM      8  C   UNL     1       1.626  59.998  -5.278  1.00  0.00     0.094 A 
ATOM      9  C   UNL     1       1.260  59.256  -6.406  1.00  0.00     0.336 A 
ATOM     10  O   UNL     1       2.137  58.901  -7.236  1.00  0.00    -0.246 OA
ATOM     11  O   UNL     1      -0.012  58.921  -6.610  1.00  0.00    -0.423 OA
ENDROOT
BRANCH   3  12
ATOM     12  O   UNL     1      -4.651  58.875  -5.407  1.00  0.00    -0.508 OA
ATOM     13  H   UNL     1      -4.872  58.075  -5.989  1.00  0.00     0.293 HD
ENDBRANCH   3  12
TORSDOF 1
ENDMDL
MODEL 2
REMARK VINA RESULT:    -3.414      0.793      4.224
REMARK INTER + INTRA:          -3.514
REMARK INTER:                  -3.514
REMARK INTRA:                   0.000
REMARK UNBOUND:                 0.000
REMARK SMILES O=c1ccc2ccc(O)cc2o1
REMARK SMILES IDX 6 1 7 2 8 3 10 4 11 5 5 6 4 7 3 8 2 9 1 10 12 11 9 12
REMARK H PARENT 9 13
REMARK Flexibility Score: inf
ROOT
ATOM      1  C   UNL     1       0.613  60.376  -4.363  1.00  0.00     0.016 A 
ATOM      2  C   UNL     1       1.612  59.994  -5.264  1.00  0.00     0.047 A 
ATOM      3  C   UNL     1       1.289  59.247  -6.404  1.00  0.00     0.119 A 
ATOM      4  C   UNL     1      -0.043  58.878  -6.644  1.00  0.00     0.094 A 
ATOM      5  C   UNL     1      -1.049  59.255  -5.748  1.00  0.00     0.142 A 
ATOM      6  C   UNL     1      -0.720  60.009  -4.599  1.00  0.00     0.018 A 
ATOM      7  C   UNL     1      -1.746  60.371  -3.723  1.00  0.00     0.019 A 
ATOM      8  C   UNL     1      -3.055  59.981  -4.004  1.00  0.00     0.094 A 
ATOM      9  C   UNL     1      -3.307  59.236  -5.161  1.00  0.00     0.336 A 
ATOM     10  O   UNL     1      -4.483  58.875  -5.431  1.00  0.00    -0.246 OA
ATOM     11  O   UNL     1      -2.312  58.904  -5.979  1.00  0.00    -0.423 OA
ENDROOT
BRANCH   3  12
ATOM     12  O   UNL     1       2.298  58.876  -7.289  1.00  0.00    -0.508 OA
ATOM     13  H   UNL     1       2.441  57.909  -7.555  1.00  0.00     0.293 HD
ENDBRANCH   3  12
TORSDOF 1
ENDMDL
MODEL 3
REMARK VINA RESULT:    -3.092      1.905      4.994
REMARK INTER + INTRA:          -3.183
REMARK INTER:                  -3.183
REMARK INTRA:                   0.000
REMARK UNBOUND:                 0.000
REMARK SMILES O=c1ccc2ccc(O)cc2o1
REMARK SMILES IDX 6 1 7 2 8 3 10 4 11 5 5 6 4 7 3 8 2 9 1 10 12 11 9 12
REMARK H PARENT 9 13
REMARK Flexibility Score: inf
ROOT
ATOM      1  C   UNL     1       0.945  58.886  -7.667  1.00  0.00     0.016 A 
ATOM      2  C   UNL     1       2.275  59.275  -7.851  1.00  0.00     0.047 A 
ATOM      3  C   UNL     1       2.937  60.022  -6.869  1.00  0.00     0.119 A 
ATOM      4  C   UNL     1       2.262  60.384  -5.692  1.00  0.00     0.094 A 
ATOM      5  C   UNL     1       0.931  59.999  -5.500  1.00  0.00     0.142 A 
ATOM      6  C   UNL     1       0.267  59.245  -6.493  1.00  0.00     0.018 A 
ATOM      7  C   UNL     1      -1.063  58.875  -6.272  1.00  0.00     0.019 A 
ATOM      8  C   UNL     1      -1.691  59.258  -5.088  1.00  0.00     0.094 A 
ATOM      9  C   UNL     1      -0.971  60.004  -4.148  1.00  0.00     0.336 A 
ATOM     10  O   UNL     1      -1.522  60.358  -3.073  1.00  0.00    -0.246 OA
ATOM     11  O   UNL     1       0.294  60.343  -4.383  1.00  0.00    -0.423 OA
ENDROOT
BRANCH   3  12
ATOM     12  O   UNL     1       4.262  60.401  -7.070  1.00  0.00    -0.508 OA
ATOM     13  H   UNL     1       4.938  60.384  -6.315  1.00  0.00     0.293 HD
ENDBRANCH   3  12
TORSDOF 1
ENDMDL
MODEL 4
REMARK VINA RESULT:    -2.729      1.297      2.165
REMARK INTER + INTRA:          -2.808
REMARK INTER:                  -2.808
REMARK INTRA:                   0.000
REMARK UNBOUND:                 0.000
REMARK SMILES O=c1ccc2ccc(O)cc2o1
REMARK SMILES IDX 6 1 7 2 8 3 10 4 11 5 5 6 4 7 3 8 2 9 1 10 12 11 9 12
REMARK H PARENT 9 13
REMARK Flexibility Score: inf
ROOT
ATOM      1  C   UNL     1      -2.614  58.883  -6.795  1.00  0.00     0.016 A 
ATOM      2  C   UNL     1      -3.606  59.142  -5.844  1.00  0.00     0.047 A 
ATOM      3  C   UNL     1      -3.262  59.640  -4.581  1.00  0.00     0.119 A 
ATOM      4  C   UNL     1      -1.916  59.881  -4.267  1.00  0.00     0.094 A 
ATOM      5  C   UNL     1      -0.917  59.625  -5.212  1.00  0.00     0.142 A 
ATOM      6  C   UNL     1      -1.268  59.121  -6.485  1.00  0.00     0.018 A 
ATOM      7  C   UNL     1      -0.248  58.875  -7.408  1.00  0.00     0.019 A 
ATOM      8  C   UNL     1       1.075  59.130  -7.051  1.00  0.00     0.094 A 
ATOM      9  C   UNL     1       1.348  59.628  -5.772  1.00  0.00     0.336 A 
ATOM     10  O   UNL     1       2.536  59.865  -5.431  1.00  0.00    -0.246 OA
ATOM     11  O   UNL     1       0.358  59.855  -4.911  1.00  0.00    -0.423 OA
ENDROOT
BRANCH   3  12
ATOM     12  O   UNL     1      -4.264  59.892  -3.647  1.00  0.00    -0.508 OA
ATOM     13  H   UNL     1      -4.180  60.641  -2.968  1.00  0.00     0.293 HD
ENDBRANCH   3  12
TORSDOF 1
ENDMDL
MODEL 5
REMARK VINA RESULT:    -2.218      1.621      4.163
REMARK INTER + INTRA:          -2.283
REMARK INTER:                  -2.283
REMARK INTRA:                   0.000
REMARK UNBOUND:                 0.000
REMARK SMILES O=c1ccc2ccc(O)cc2o1
REMARK SMILES IDX 6 1 7 2 8 3 10 4 11 5 5 6 4 7 3 8 2 9 1 10 12 11 9 12
REMARK H PARENT 9 13
REMARK Flexibility Score: inf
ROOT
ATOM      1  C   UNL     1      -1.780  60.379  -3.295  1.00  0.00     0.016 A 
ATOM      2  C   UNL     1      -0.382  60.378  -3.326  1.00  0.00     0.047 A 
ATOM      3  C   UNL     1       0.301  59.998  -4.488  1.00  0.00     0.119 A 
ATOM      4  C   UNL     1      -0.420  59.616  -5.629  1.00  0.00     0.094 A 
ATOM      5  C   UNL     1      -1.819  59.613  -5.608  1.00  0.00     0.142 A 
ATOM      6  C   UNL     1      -2.504  59.996  -4.433  1.00  0.00     0.018 A 
ATOM      7  C   UNL     1      -3.902  59.983  -4.442  1.00  0.00     0.019 A 
ATOM      8  C   UNL     1      -4.575  59.595  -5.600  1.00  0.00     0.094 A 
ATOM      9  C   UNL     1      -3.831  59.228  -6.727  1.00  0.00     0.336 A 
ATOM     10  O   UNL     1      -4.420  58.875  -7.781  1.00  0.00    -0.246 OA
ATOM     11  O   UNL     1      -2.500  59.249  -6.692  1.00  0.00    -0.423 OA
ENDROOT
BRANCH   3  12
ATOM     12  O   UNL     1       1.693  60.005  -4.499  1.00  0.00    -0.508 OA
ATOM     13  H   UNL     1       2.216  60.607  -5.125  1.00  0.00     0.293 HD
ENDBRANCH   3  12
TORSDOF 1
ENDMDL
MODEL 6
REMARK VINA RESULT:    -2.048      1.543      4.843
REMARK INTER + INTRA:          -2.108
REMARK INTER:                  -2.108
REMARK INTRA:                   0.000
REMARK UNBOUND:                 0.000
REMARK SMILES O=c1ccc2ccc(O)cc2o1
REMARK SMILES IDX 6 1 7 2 8 3 10 4 11 5 5 6 4 7 3 8 2 9 1 10 12 11 9 12
REMARK H PARENT 9 13
REMARK Flexibility Score: inf
ROOT
ATOM      1  C   UNL     1      -1.824  58.875  -7.649  1.00  0.00     0.016 A 
ATOM      2  C   UNL     1      -0.426  58.928  -7.630  1.00  0.00     0.047 A 
ATOM      3  C   UNL     1       0.262  59.030  -6.415  1.00  0.00     0.119 A 
ATOM      4  C   UNL     1      -0.453  59.080  -5.209  1.00  0.00     0.094 A 
ATOM      5  C   UNL     1      -1.851  59.028  -5.218  1.00  0.00     0.142 A 
ATOM      6  C   UNL     1      -2.542  58.925  -6.446  1.00  0.00     0.018 A 
ATOM      7  C   UNL     1      -3.938  58.875  -6.423  1.00  0.00     0.019 A 
ATOM      8  C   UNL     1      -4.605  58.928  -5.199  1.00  0.00     0.094 A 
ATOM      9  C   UNL     1      -3.855  59.030  -4.022  1.00  0.00     0.336 A 
ATOM     10  O   UNL     1      -4.439  59.078  -2.908  1.00  0.00    -0.246 OA
ATOM     11  O   UNL     1      -2.526  59.076  -4.072  1.00  0.00    -0.423 OA
ENDROOT
BRANCH   3  12
ATOM     12  O   UNL     1       1.653  59.082  -6.417  1.00  0.00    -0.508 OA
ATOM     13  H   UNL     1       2.178  59.214  -7.274  1.00  0.00     0.293 HD
ENDBRANCH   3  12
TORSDOF 1
ENDMDL
MODEL 7
REMARK VINA RESULT:    -1.856      1.298      4.441
REMARK INTER + INTRA:          -1.910
REMARK INTER:                  -1.910
REMARK INTRA:                   0.000
REMARK UNBOUND:                 0.000
REMARK SMILES O=c1ccc2ccc(O)cc2o1
REMARK SMILES IDX 6 1 7 2 8 3 10 4 11 5 5 6 4 7 3 8 2 9 1 10 12 11 9 12
REMARK H PARENT 9 13
REMARK Flexibility Score: inf
ROOT
ATOM      1  C   UNL     1       2.326  60.424  -4.831  1.00  0.00     0.016 A 
ATOM      2  C   UNL     1       3.026  60.011  -5.970  1.00  0.00     0.047 A 
ATOM      3  C   UNL     1       2.364  59.330  -6.999  1.00  0.00     0.119 A 
ATOM      4  C   UNL     1       0.992  59.058  -6.889  1.00  0.00     0.094 A 
ATOM      5  C   UNL     1       0.284  59.467  -5.754  1.00  0.00     0.142 A 
ATOM      6  C   UNL     1       0.955  60.154  -4.717  1.00  0.00     0.018 A 
ATOM      7  C   UNL     1       0.221  60.550  -3.595  1.00  0.00     0.019 A 
ATOM      8  C   UNL     1      -1.141  60.258  -3.531  1.00  0.00     0.094 A 
ATOM      9  C   UNL     1      -1.739  59.574  -4.595  1.00  0.00     0.336 A 
ATOM     10  O   UNL     1      -2.967  59.301  -4.555  1.00  0.00    -0.246 OA
ATOM     11  O   UNL     1      -1.017  59.208  -5.652  1.00  0.00    -0.423 OA
ENDROOT
BRANCH   3  12
ATOM     12  O   UNL     1       3.078  58.927  -8.125  1.00  0.00    -0.508 OA
ATOM     13  H   UNL     1       3.452  59.600  -8.784  1.00  0.00     0.293 HD
ENDBRANCH   3  12
TORSDOF 1
ENDMDL
MODEL 8
REMARK VINA RESULT:    -1.851      2.160      4.356
REMARK INTER + INTRA:          -1.905
REMARK INTER:                  -1.905
REMARK INTRA:                   0.000
REMARK UNBOUND:                 0.000
REMARK SMILES O=c1ccc2ccc(O)cc2o1
REMARK SMILES IDX 6 1 7 2 8 3 10 4 11 5 5 6 4 7 3 8 2 9 1 10 12 11 9 12
REMARK H PARENT 9 13
REMARK Flexibility Score: inf
ROOT
ATOM      1  C   UNL     1       0.264  59.629  -5.675  1.00  0.00     0.016 A 
ATOM      2  C   UNL     1       0.794  60.080  -4.462  1.00  0.00     0.047 A 
ATOM      3  C   UNL     1      -0.051  60.371  -3.384  1.00  0.00     0.119 A 
ATOM      4  C   UNL     1      -1.439  60.210  -3.520  1.00  0.00     0.094 A 
ATOM      5  C   UNL     1      -1.978  59.760  -4.730  1.00  0.00     0.142 A 
ATOM      6  C   UNL     1      -1.122  59.468  -5.815  1.00  0.00     0.018 A 
ATOM      7  C   UNL     1      -1.691  59.019  -7.011  1.00  0.00     0.019 A 
ATOM      8  C   UNL     1      -3.075  58.875  -7.099  1.00  0.00     0.094 A 
ATOM      9  C   UNL     1      -3.861  59.183  -5.983  1.00  0.00     0.336 A 
ATOM     10  O   UNL     1      -5.112  59.059  -6.043  1.00  0.00    -0.246 OA
ATOM     11  O   UNL     1      -3.294  59.608  -4.856  1.00  0.00    -0.423 OA
ENDROOT
BRANCH   3  12
ATOM     12  O   UNL     1       0.496  60.818  -2.185  1.00  0.00    -0.508 OA
ATOM     13  H   UNL     1       0.731  61.794  -2.040  1.00  0.00     0.293 HD
ENDBRANCH   3  12
TORSDOF 1
ENDMDL
