MODEL 1
REMARK VINA RESULT:    -5.307      0.000      0.000
REMARK INTER + INTRA:          -9.408
REMARK INTER:                  -7.634
REMARK INTRA:                  -1.774
REMARK UNBOUND:                -1.774
REMARK SMILES O=c1c(O[C@H]2O[C@@H](CO)[C@@H](O)[C@H](O)[C@@H]2O)c(-c2ccc(O)cc2)oc2cc(O)cc(O)c12
REMARK SMILES IDX 4 1 3 2 16 3 24 4 2 5 25 6 1 7 32 8 26 9 30 10 27 11 29 12
REMARK SMILES IDX 17 13 18 14 19 15 20 16 23 17 22 18 21 19 31 21 28 23 5 25
REMARK SMILES IDX 14 26 6 27 12 28 7 29 10 30 15 31 13 33 8 35 9 36 11 38
REMARK H PARENT 21 20 31 22 28 24 15 32 13 34 9 37 11 39
REMARK Flexibility Score: inf
ROOT
ATOM      1  O   UNL     1     174.124 168.583 169.980  1.00  0.00    -0.454 OA
ENDROOT
BRANCH   1   2
ATOM      2  C   UNL     1     174.752 169.426 170.914  1.00  0.00     0.214 A 
ATOM      3  C   UNL     1     173.976 169.982 171.949  1.00  0.00     0.180 A 
ATOM      4  O   UNL     1     174.513 170.861 172.790  1.00  0.00    -0.452 OA
ATOM      5  C   UNL     1     176.118 169.764 170.841  1.00  0.00     0.239 A 
ATOM      6  C   UNL     1     175.783 171.241 172.731  1.00  0.00     0.146 A 
ATOM      7  O   UNL     1     176.851 169.231 169.968  1.00  0.00    -0.285 OA
ATOM      8  C   UNL     1     176.654 170.696 171.757  1.00  0.00     0.111 A 
ATOM      9  C   UNL     1     176.250 172.191 173.643  1.00  0.00     0.094 A 
ATOM     10  C   UNL     1     178.004 171.124 171.724  1.00  0.00     0.134 A 
ATOM     11  C   UNL     1     177.576 172.621 173.597  1.00  0.00     0.123 A 
ATOM     12  C   UNL     1     178.449 172.085 172.644  1.00  0.00     0.093 A 
BRANCH   3  13
ATOM     13  C   UNL     1     172.544 169.654 172.096  1.00  0.00     0.021 A 
ATOM     14  C   UNL     1     171.575 170.519 171.561  1.00  0.00     0.016 A 
ATOM     15  C   UNL     1     170.215 170.213 171.670  1.00  0.00     0.047 A 
ATOM     16  C   UNL     1     169.809 169.043 172.325  1.00  0.00     0.115 A 
ATOM     17  C   UNL     1     172.129 168.498 172.777  1.00  0.00     0.016 A 
ATOM     18  C   UNL     1     170.768 168.189 172.879  1.00  0.00     0.047 A 
BRANCH  16  19
ATOM     19  O   UNL     1     168.456 168.723 172.433  1.00  0.00    -0.508 OA
ATOM     20  H   UNL     1     168.058 167.945 171.925  1.00  0.00     0.293 HD
ENDBRANCH  16  19
ENDBRANCH   3  13
BRANCH  10  21
ATOM     21  O   UNL     1     178.898 170.614 170.781  1.00  0.00    -0.507 OA
ATOM     22  H   UNL     1     179.830 170.994 170.674  1.00  0.00     0.293 HD
ENDBRANCH  10  21
BRANCH  11  23
ATOM     23  O   UNL     1     178.015 173.581 174.506  1.00  0.00    -0.508 OA
ATOM     24  H   UNL     1     178.996 173.673 174.747  1.00  0.00     0.293 HD
ENDBRANCH  11  23
ENDBRANCH   1   2
BRANCH   1  25
ATOM     25  C   UNL     1     173.738 168.969 168.657  1.00  0.00     0.339 C 
ATOM     26  C   UNL     1     172.234 168.692 168.454  1.00  0.00     0.214 C 
ATOM     27  O   UNL     1     174.551 168.347 167.667  1.00  0.00    -0.332 OA
ATOM     28  C   UNL     1     171.961 167.184 168.386  1.00  0.00     0.180 C 
ATOM     29  C   UNL     1     174.363 166.938 167.553  1.00  0.00     0.179 C 
ATOM     30  C   UNL     1     172.879 166.522 167.347  1.00  0.00     0.177 C 
BRANCH  26  31
ATOM     31  O   UNL     1     171.734 169.364 167.323  1.00  0.00    -0.384 OA
ATOM     32  H   UNL     1     171.878 168.788 166.528  1.00  0.00     0.211 HD
ENDBRANCH  26  31
BRANCH  28  33
ATOM     33  O   UNL     1     170.612 166.969 168.054  1.00  0.00    -0.387 OA
ATOM     34  H   UNL     1     170.081 167.191 168.866  1.00  0.00     0.211 HD
ENDBRANCH  28  33
BRANCH  29  35
ATOM     35  C   UNL     1     175.079 166.152 168.676  1.00  0.00     0.191 C 
BRANCH  35  36
ATOM     36  O   UNL     1     176.352 166.679 168.935  1.00  0.00    -0.394 OA
ATOM     37  H   UNL     1     176.856 166.620 168.081  1.00  0.00     0.210 HD
ENDBRANCH  35  36
ENDBRANCH  29  35
BRANCH  30  38
ATOM     38  O   UNL     1     172.737 165.125 167.424  1.00  0.00    -0.387 OA
ATOM     39  H   UNL     1     173.653 164.740 167.419  1.00  0.00     0.211 HD
ENDBRANCH  30  38
ENDBRANCH   1  25
TORSDOF 11
ENDMDL
MODEL 2
REMARK VINA RESULT:    -5.296      2.648      6.461
REMARK INTER + INTRA:          -9.391
REMARK INTER:                  -8.226
REMARK INTRA:                  -1.165
REMARK UNBOUND:                -1.774
REMARK SMILES O=c1c(O[C@H]2O[C@@H](CO)[C@@H](O)[C@H](O)[C@@H]2O)c(-c2ccc(O)cc2)oc2cc(O)cc(O)c12
REMARK SMILES IDX 4 1 3 2 16 3 24 4 2 5 25 6 1 7 32 8 26 9 30 10 27 11 29 12
REMARK SMILES IDX 17 13 18 14 19 15 20 16 23 17 22 18 21 19 31 21 28 23 5 25
REMARK SMILES IDX 14 26 6 27 12 28 7 29 10 30 15 31 13 33 8 35 9 36 11 38
REMARK H PARENT 21 20 31 22 28 24 15 32 13 34 9 37 11 39
REMARK Flexibility Score: inf
ROOT
ATOM      1  O   UNL     1     174.575 168.275 171.887  1.00  0.00    -0.454 OA
ENDROOT
BRANCH   1   2
ATOM      2  C   UNL     1     174.324 168.978 170.695  1.00  0.00     0.214 A 
ATOM      3  C   UNL     1     174.939 170.230 170.507  1.00  0.00     0.180 A 
ATOM      4  O   UNL     1     174.645 170.966 169.439  1.00  0.00    -0.452 OA
ATOM      5  C   UNL     1     173.456 168.497 169.694  1.00  0.00     0.239 A 
ATOM      6  C   UNL     1     173.801 170.572 168.494  1.00  0.00     0.146 A 
ATOM      7  O   UNL     1     172.943 167.352 169.804  1.00  0.00    -0.285 OA
ATOM      8  C   UNL     1     173.174 169.305 168.571  1.00  0.00     0.111 A 
ATOM      9  C   UNL     1     173.536 171.428 167.422  1.00  0.00     0.094 A 
ATOM     10  C   UNL     1     172.279 168.917 167.543  1.00  0.00     0.134 A 
ATOM     11  C   UNL     1     172.643 171.048 166.421  1.00  0.00     0.123 A 
ATOM     12  C   UNL     1     172.022 169.796 166.480  1.00  0.00     0.093 A 
BRANCH   3  13
ATOM     13  C   UNL     1     175.875 170.783 171.506  1.00  0.00     0.021 A 
ATOM     14  C   UNL     1     177.260 170.694 171.283  1.00  0.00     0.016 A 
ATOM     15  C   UNL     1     178.161 171.233 172.207  1.00  0.00     0.047 A 
ATOM     16  C   UNL     1     177.688 171.857 173.368  1.00  0.00     0.115 A 
ATOM     17  C   UNL     1     175.408 171.383 172.686  1.00  0.00     0.016 A 
ATOM     18  C   UNL     1     176.311 171.928 173.606  1.00  0.00     0.047 A 
BRANCH  16  19
ATOM     19  O   UNL     1     178.576 172.405 174.293  1.00  0.00    -0.508 OA
ATOM     20  H   UNL     1     178.337 173.230 174.825  1.00  0.00     0.293 HD
ENDBRANCH  16  19
ENDBRANCH   3  13
BRANCH  10  21
ATOM     21  O   UNL     1     171.639 167.678 167.577  1.00  0.00    -0.507 OA
ATOM     22  H   UNL     1     172.019 166.870 167.100  1.00  0.00     0.293 HD
ENDBRANCH  10  21
BRANCH  11  23
ATOM     23  O   UNL     1     172.381 171.924 165.369  1.00  0.00    -0.508 OA
ATOM     24  H   UNL     1     172.048 172.867 165.536  1.00  0.00     0.293 HD
ENDBRANCH  11  23
ENDBRANCH   1   2
BRANCH   1  25
ATOM     25  C   UNL     1     175.735 167.475 172.138  1.00  0.00     0.339 C 
ATOM     26  C   UNL     1     175.626 166.146 171.363  1.00  0.00     0.214 C 
ATOM     27  O   UNL     1     175.951 167.283 173.533  1.00  0.00    -0.332 OA
ATOM     28  C   UNL     1     174.542 165.247 171.969  1.00  0.00     0.180 C 
ATOM     29  C   UNL     1     174.973 166.465 174.172  1.00  0.00     0.179 C 
ATOM     30  C   UNL     1     174.764 165.088 173.481  1.00  0.00     0.177 C 
BRANCH  26  31
ATOM     31  O   UNL     1     176.869 165.488 171.291  1.00  0.00    -0.384 OA
ATOM     32  H   UNL     1     177.404 165.911 170.570  1.00  0.00     0.211 HD
ENDBRANCH  26  31
BRANCH  28  33
ATOM     33  O   UNL     1     174.569 163.992 171.336  1.00  0.00    -0.387 OA
ATOM     34  H   UNL     1     175.056 163.376 171.947  1.00  0.00     0.211 HD
ENDBRANCH  28  33
BRANCH  29  35
ATOM     35  C   UNL     1     173.656 167.226 174.452  1.00  0.00     0.191 C 
BRANCH  35  36
ATOM     36  O   UNL     1     173.090 166.831 175.672  1.00  0.00    -0.394 OA
ATOM     37  H   UNL     1     172.694 165.933 175.518  1.00  0.00     0.210 HD
ENDBRANCH  35  36
ENDBRANCH  29  35
BRANCH  30  38
ATOM     38  O   UNL     1     173.668 164.408 174.043  1.00  0.00    -0.387 OA
ATOM     39  H   UNL     1     173.989 163.503 174.297  1.00  0.00     0.211 HD
ENDBRANCH  30  38
ENDBRANCH   1  25
TORSDOF 11
ENDMDL
MODEL 3
REMARK VINA RESULT:    -5.210      2.311      5.939
REMARK INTER + INTRA:          -9.268
REMARK INTER:                  -8.240
REMARK INTRA:                  -1.028
REMARK UNBOUND:                -1.774
REMARK SMILES O=c1c(O[C@H]2O[C@@H](CO)[C@@H](O)[C@H](O)[C@@H]2O)c(-c2ccc(O)cc2)oc2cc(O)cc(O)c12
REMARK SMILES IDX 4 1 3 2 16 3 24 4 2 5 25 6 1 7 32 8 26 9 30 10 27 11 29 12
REMARK SMILES IDX 17 13 18 14 19 15 20 16 23 17 22 18 21 19 31 21 28 23 5 25
REMARK SMILES IDX 14 26 6 27 12 28 7 29 10 30 15 31 13 33 8 35 9 36 11 38
REMARK H PARENT 21 20 31 22 28 24 15 32 13 34 9 37 11 39
REMARK Flexibility Score: inf
ROOT
ATOM      1  O   UNL     1     174.862 169.302 168.491  1.00  0.00    -0.454 OA
ENDROOT
BRANCH   1   2
ATOM      2  C   UNL     1     175.212 168.020 168.951  1.00  0.00     0.214 A 
ATOM      3  C   UNL     1     175.753 167.891 170.244  1.00  0.00     0.180 A 
ATOM      4  O   UNL     1     176.187 166.710 170.674  1.00  0.00    -0.452 OA
ATOM      5  C   UNL     1     175.074 166.861 168.162  1.00  0.00     0.239 A 
ATOM      6  C   UNL     1     176.117 165.602 169.948  1.00  0.00     0.146 A 
ATOM      7  O   UNL     1     174.532 166.934 167.028  1.00  0.00    -0.285 OA
ATOM      8  C   UNL     1     175.540 165.623 168.655  1.00  0.00     0.111 A 
ATOM      9  C   UNL     1     176.625 164.412 170.476  1.00  0.00     0.094 A 
ATOM     10  C   UNL     1     175.481 164.420 167.909  1.00  0.00     0.134 A 
ATOM     11  C   UNL     1     176.578 163.234 169.732  1.00  0.00     0.123 A 
ATOM     12  C   UNL     1     176.004 163.238 168.456  1.00  0.00     0.093 A 
BRANCH   3  13
ATOM     13  C   UNL     1     175.906 169.061 171.132  1.00  0.00     0.021 A 
ATOM     14  C   UNL     1     177.042 169.880 171.011  1.00  0.00     0.016 A 
ATOM     15  C   UNL     1     177.193 171.006 171.827  1.00  0.00     0.047 A 
ATOM     16  C   UNL     1     176.215 171.319 172.779  1.00  0.00     0.115 A 
ATOM     17  C   UNL     1     174.944 169.364 172.108  1.00  0.00     0.016 A 
ATOM     18  C   UNL     1     175.092 170.495 172.919  1.00  0.00     0.047 A 
BRANCH  16  19
ATOM     19  O   UNL     1     176.349 172.444 173.594  1.00  0.00    -0.508 OA
ATOM     20  H   UNL     1     176.106 172.415 174.574  1.00  0.00     0.293 HD
ENDBRANCH  16  19
ENDBRANCH   3  13
BRANCH  10  21
ATOM     21  O   UNL     1     174.921 164.393 166.631  1.00  0.00    -0.507 OA
ATOM     22  H   UNL     1     173.974 164.706 166.460  1.00  0.00     0.293 HD
ENDBRANCH  10  21
BRANCH  11  23
ATOM     23  O   UNL     1     177.104 162.062 170.272  1.00  0.00    -0.508 OA
ATOM     24  H   UNL     1     176.659 161.163 170.122  1.00  0.00     0.293 HD
ENDBRANCH  11  23
ENDBRANCH   1   2
BRANCH   1  25
ATOM     25  C   UNL     1     173.774 170.085 168.991  1.00  0.00     0.339 C 
ATOM     26  C   UNL     1     172.495 169.223 169.041  1.00  0.00     0.214 C 
ATOM     27  O   UNL     1     173.601 171.285 168.245  1.00  0.00    -0.332 OA
ATOM     28  C   UNL     1     171.984 168.922 167.627  1.00  0.00     0.180 C 
ATOM     29  C   UNL     1     173.138 171.086 166.911  1.00  0.00     0.179 C 
ATOM     30  C   UNL     1     171.847 170.223 166.821  1.00  0.00     0.177 C 
BRANCH  26  31
ATOM     31  O   UNL     1     171.502 169.821 169.839  1.00  0.00    -0.384 OA
ATOM     32  H   UNL     1     170.623 169.439 169.583  1.00  0.00     0.211 HD
ENDBRANCH  26  31
BRANCH  28  33
ATOM     33  O   UNL     1     170.744 168.265 167.709  1.00  0.00    -0.387 OA
ATOM     34  H   UNL     1     170.472 168.291 168.666  1.00  0.00     0.211 HD
ENDBRANCH  28  33
BRANCH  29  35
ATOM     35  C   UNL     1     174.262 170.621 165.957  1.00  0.00     0.191 C 
BRANCH  35  36
ATOM     36  O   UNL     1     174.009 171.024 164.638  1.00  0.00    -0.394 OA
ATOM     37  H   UNL     1     174.652 170.528 164.066  1.00  0.00     0.210 HD
ENDBRANCH  35  36
ENDBRANCH  29  35
BRANCH  30  38
ATOM     38  O   UNL     1     171.546 169.912 165.483  1.00  0.00    -0.387 OA
ATOM     39  H   UNL     1     170.887 170.587 165.170  1.00  0.00     0.211 HD
ENDBRANCH  30  38
ENDBRANCH   1  25
TORSDOF 11
ENDMDL
MODEL 4
REMARK VINA RESULT:    -5.177      2.283      5.192
REMARK INTER + INTRA:          -9.220
REMARK INTER:                  -7.450
REMARK INTRA:                  -1.770
REMARK UNBOUND:                -1.774
REMARK SMILES O=c1c(O[C@H]2O[C@@H](CO)[C@@H](O)[C@H](O)[C@@H]2O)c(-c2ccc(O)cc2)oc2cc(O)cc(O)c12
REMARK SMILES IDX 4 1 3 2 16 3 24 4 2 5 25 6 1 7 32 8 26 9 30 10 27 11 29 12
REMARK SMILES IDX 17 13 18 14 19 15 20 16 23 17 22 18 21 19 31 21 28 23 5 25
REMARK SMILES IDX 14 26 6 27 12 28 7 29 10 30 15 31 13 33 8 35 9 36 11 38
REMARK H PARENT 21 20 31 22 28 24 15 32 13 34 9 37 11 39
REMARK Flexibility Score: inf
ROOT
ATOM      1  O   UNL     1     173.723 168.030 172.096  1.00  0.00    -0.454 OA
ENDROOT
BRANCH   1   2
ATOM      2  C   UNL     1     174.778 168.957 172.021  1.00  0.00     0.214 A 
ATOM      3  C   UNL     1     175.840 168.701 171.133  1.00  0.00     0.180 A 
ATOM      4  O   UNL     1     176.900 169.504 171.109  1.00  0.00    -0.452 OA
ATOM      5  C   UNL     1     174.833 170.117 172.820  1.00  0.00     0.239 A 
ATOM      6  C   UNL     1     177.014 170.581 171.875  1.00  0.00     0.146 A 
ATOM      7  O   UNL     1     173.868 170.407 173.574  1.00  0.00    -0.285 OA
ATOM      8  C   UNL     1     175.973 170.949 172.761  1.00  0.00     0.111 A 
ATOM      9  C   UNL     1     178.179 171.348 171.798  1.00  0.00     0.094 A 
ATOM     10  C   UNL     1     176.128 172.106 173.563  1.00  0.00     0.134 A 
ATOM     11  C   UNL     1     178.335 172.478 172.600  1.00  0.00     0.123 A 
ATOM     12  C   UNL     1     177.310 172.857 173.474  1.00  0.00     0.093 A 
BRANCH   3  13
ATOM     13  C   UNL     1     175.835 167.517 170.253  1.00  0.00     0.021 A 
ATOM     14  C   UNL     1     176.537 166.362 170.639  1.00  0.00     0.016 A 
ATOM     15  C   UNL     1     176.525 165.222 169.829  1.00  0.00     0.047 A 
ATOM     16  C   UNL     1     175.820 165.228 168.619  1.00  0.00     0.115 A 
ATOM     17  C   UNL     1     175.155 167.526 169.024  1.00  0.00     0.016 A 
ATOM     18  C   UNL     1     175.137 166.382 168.219  1.00  0.00     0.047 A 
BRANCH  16  19
ATOM     19  O   UNL     1     175.793 164.094 167.806  1.00  0.00    -0.508 OA
ATOM     20  H   UNL     1     176.465 163.966 167.062  1.00  0.00     0.293 HD
ENDBRANCH  16  19
ENDBRANCH   3  13
BRANCH  10  21
ATOM     21  O   UNL     1     175.129 172.506 174.451  1.00  0.00    -0.507 OA
ATOM     22  H   UNL     1     174.891 173.482 174.578  1.00  0.00     0.293 HD
ENDBRANCH  10  21
BRANCH  11  23
ATOM     23  O   UNL     1     179.512 173.219 172.517  1.00  0.00    -0.508 OA
ATOM     24  H   UNL     1     179.502 174.233 172.540  1.00  0.00     0.293 HD
ENDBRANCH  11  23
ENDBRANCH   1   2
BRANCH   1  25
ATOM     25  C   UNL     1     173.571 167.041 173.119  1.00  0.00     0.339 C 
ATOM     26  C   UNL     1     173.446 165.645 172.476  1.00  0.00     0.214 C 
ATOM     27  O   UNL     1     172.487 167.346 173.990  1.00  0.00    -0.332 OA
ATOM     28  C   UNL     1     172.102 165.495 171.754  1.00  0.00     0.180 C 
ATOM     29  C   UNL     1     171.200 167.241 173.386  1.00  0.00     0.179 C 
ATOM     30  C   UNL     1     170.947 165.871 172.694  1.00  0.00     0.177 C 
BRANCH  26  31
ATOM     31  O   UNL     1     173.648 164.622 173.422  1.00  0.00    -0.384 OA
ATOM     32  H   UNL     1     174.540 164.752 173.836  1.00  0.00     0.211 HD
ENDBRANCH  26  31
BRANCH  28  33
ATOM     33  O   UNL     1     171.957 164.169 171.308  1.00  0.00    -0.387 OA
ATOM     34  H   UNL     1     171.302 163.734 171.918  1.00  0.00     0.211 HD
ENDBRANCH  28  33
BRANCH  29  35
ATOM     35  C   UNL     1     170.863 168.459 172.494  1.00  0.00     0.191 C 
BRANCH  35  36
ATOM     36  O   UNL     1     171.256 169.659 173.104  1.00  0.00    -0.394 OA
ATOM     37  H   UNL     1     170.460 169.999 173.589  1.00  0.00     0.210 HD
ENDBRANCH  35  36
ENDBRANCH  29  35
BRANCH  30  38
ATOM     38  O   UNL     1     169.743 165.895 171.966  1.00  0.00    -0.387 OA
ATOM     39  H   UNL     1     169.015 165.669 172.604  1.00  0.00     0.211 HD
ENDBRANCH  30  38
ENDBRANCH   1  25
TORSDOF 11
ENDMDL
MODEL 5
REMARK VINA RESULT:    -5.159      2.548      3.793
REMARK INTER + INTRA:          -9.195
REMARK INTER:                  -7.429
REMARK INTRA:                  -1.766
REMARK UNBOUND:                -1.774
REMARK SMILES O=c1c(O[C@H]2O[C@@H](CO)[C@@H](O)[C@H](O)[C@@H]2O)c(-c2ccc(O)cc2)oc2cc(O)cc(O)c12
REMARK SMILES IDX 4 1 3 2 16 3 24 4 2 5 25 6 1 7 32 8 26 9 30 10 27 11 29 12
REMARK SMILES IDX 17 13 18 14 19 15 20 16 23 17 22 18 21 19 31 21 28 23 5 25
REMARK SMILES IDX 14 26 6 27 12 28 7 29 10 30 15 31 13 33 8 35 9 36 11 38
REMARK H PARENT 21 20 31 22 28 24 15 32 13 34 9 37 11 39
REMARK Flexibility Score: inf
ROOT
ATOM      1  O   UNL     1     173.059 168.901 171.174  1.00  0.00    -0.454 OA
ENDROOT
BRANCH   1   2
ATOM      2  C   UNL     1     174.266 169.429 171.665  1.00  0.00     0.214 A 
ATOM      3  C   UNL     1     174.999 168.677 172.604  1.00  0.00     0.180 A 
ATOM      4  O   UNL     1     176.091 169.188 173.164  1.00  0.00    -0.452 OA
ATOM      5  C   UNL     1     174.759 170.692 171.283  1.00  0.00     0.239 A 
ATOM      6  C   UNL     1     176.566 170.391 172.866  1.00  0.00     0.146 A 
ATOM      7  O   UNL     1     174.161 171.358 170.397  1.00  0.00    -0.285 OA
ATOM      8  C   UNL     1     175.927 171.198 171.895  1.00  0.00     0.111 A 
ATOM      9  C   UNL     1     177.707 170.852 173.528  1.00  0.00     0.094 A 
ATOM     10  C   UNL     1     176.463 172.477 171.602  1.00  0.00     0.134 A 
ATOM     11  C   UNL     1     178.222 172.117 173.248  1.00  0.00     0.123 A 
ATOM     12  C   UNL     1     177.605 172.923 172.284  1.00  0.00     0.093 A 
BRANCH   3  13
ATOM     13  C   UNL     1     174.550 167.338 173.032  1.00  0.00     0.021 A 
ATOM     14  C   UNL     1     173.819 167.199 174.224  1.00  0.00     0.016 A 
ATOM     15  C   UNL     1     173.365 165.941 174.634  1.00  0.00     0.047 A 
ATOM     16  C   UNL     1     173.647 164.807 173.862  1.00  0.00     0.115 A 
ATOM     17  C   UNL     1     174.855 166.193 172.278  1.00  0.00     0.016 A 
ATOM     18  C   UNL     1     174.394 164.936 172.686  1.00  0.00     0.047 A 
BRANCH  16  19
ATOM     19  O   UNL     1     173.194 163.548 174.256  1.00  0.00    -0.508 OA
ATOM     20  H   UNL     1     172.330 163.165 173.897  1.00  0.00     0.293 HD
ENDBRANCH  16  19
ENDBRANCH   3  13
BRANCH  10  21
ATOM     21  O   UNL     1     175.866 173.306 170.652  1.00  0.00    -0.507 OA
ATOM     22  H   UNL     1     176.205 174.244 170.477  1.00  0.00     0.293 HD
ENDBRANCH  10  21
BRANCH  11  23
ATOM     23  O   UNL     1     179.351 172.563 173.931  1.00  0.00    -0.508 OA
ATOM     24  H   UNL     1     180.060 171.917 174.262  1.00  0.00     0.293 HD
ENDBRANCH  11  23
ENDBRANCH   1   2
BRANCH   1  25
ATOM     25  C   UNL     1     171.754 169.288 171.617  1.00  0.00     0.339 C 
ATOM     26  C   UNL     1     170.964 168.038 172.057  1.00  0.00     0.214 C 
ATOM     27  O   UNL     1     171.068 170.054 170.632  1.00  0.00    -0.332 OA
ATOM     28  C   UNL     1     170.593 167.173 170.847  1.00  0.00     0.180 C 
ATOM     29  C   UNL     1     170.700 169.319 169.467  1.00  0.00     0.179 C 
ATOM     30  C   UNL     1     169.896 168.025 169.775  1.00  0.00     0.177 C 
BRANCH  26  31
ATOM     31  O   UNL     1     169.832 168.386 172.817  1.00  0.00    -0.384 OA
ATOM     32  H   UNL     1     170.140 168.803 173.663  1.00  0.00     0.211 HD
ENDBRANCH  26  31
BRANCH  28  33
ATOM     33  O   UNL     1     169.752 166.126 171.263  1.00  0.00    -0.387 OA
ATOM     34  H   UNL     1     170.290 165.556 171.877  1.00  0.00     0.211 HD
ENDBRANCH  28  33
BRANCH  29  35
ATOM     35  C   UNL     1     171.890 169.097 168.505  1.00  0.00     0.191 C 
BRANCH  35  36
ATOM     36  O   UNL     1     172.660 170.261 168.372  1.00  0.00    -0.394 OA
ATOM     37  H   UNL     1     172.907 170.323 167.412  1.00  0.00     0.210 HD
ENDBRANCH  35  36
ENDBRANCH  29  35
BRANCH  30  38
ATOM     38  O   UNL     1     169.721 167.255 168.610  1.00  0.00    -0.387 OA
ATOM     39  H   UNL     1     170.605 166.857 168.392  1.00  0.00     0.211 HD
ENDBRANCH  30  38
ENDBRANCH   1  25
TORSDOF 11
ENDMDL
MODEL 6
REMARK VINA RESULT:    -5.117      1.915      6.450
REMARK INTER + INTRA:          -9.135
REMARK INTER:                  -8.028
REMARK INTRA:                  -1.107
REMARK UNBOUND:                -1.774
REMARK SMILES O=c1c(O[C@H]2O[C@@H](CO)[C@@H](O)[C@H](O)[C@@H]2O)c(-c2ccc(O)cc2)oc2cc(O)cc(O)c12
REMARK SMILES IDX 4 1 3 2 16 3 24 4 2 5 25 6 1 7 32 8 26 9 30 10 27 11 29 12
REMARK SMILES IDX 17 13 18 14 19 15 20 16 23 17 22 18 21 19 31 21 28 23 5 25
REMARK SMILES IDX 14 26 6 27 12 28 7 29 10 30 15 31 13 33 8 35 9 36 11 38
REMARK H PARENT 21 20 31 22 28 24 15 32 13 34 9 37 11 39
REMARK Flexibility Score: inf
ROOT
ATOM      1  O   UNL     1     173.828 169.405 171.580  1.00  0.00    -0.454 OA
ENDROOT
BRANCH   1   2
ATOM      2  C   UNL     1     174.816 168.594 170.994  1.00  0.00     0.214 A 
ATOM      3  C   UNL     1     176.164 168.987 171.101  1.00  0.00     0.180 A 
ATOM      4  O   UNL     1     177.113 168.299 170.474  1.00  0.00    -0.452 OA
ATOM      5  C   UNL     1     174.513 167.420 170.277  1.00  0.00     0.239 A 
ATOM      6  C   UNL     1     176.868 167.213 169.752  1.00  0.00     0.146 A 
ATOM      7  O   UNL     1     173.325 167.007 170.221  1.00  0.00    -0.285 OA
ATOM      8  C   UNL     1     175.550 166.711 169.631  1.00  0.00     0.111 A 
ATOM      9  C   UNL     1     177.930 166.573 169.109  1.00  0.00     0.094 A 
ATOM     10  C   UNL     1     175.325 165.549 168.852  1.00  0.00     0.134 A 
ATOM     11  C   UNL     1     177.702 165.438 168.331  1.00  0.00     0.123 A 
ATOM     12  C   UNL     1     176.406 164.926 168.209  1.00  0.00     0.093 A 
BRANCH   3  13
ATOM     13  C   UNL     1     176.553 170.195 171.855  1.00  0.00     0.021 A 
ATOM     14  C   UNL     1     177.245 170.060 173.071  1.00  0.00     0.016 A 
ATOM     15  C   UNL     1     177.642 171.193 173.789  1.00  0.00     0.047 A 
ATOM     16  C   UNL     1     177.343 172.472 173.303  1.00  0.00     0.115 A 
ATOM     17  C   UNL     1     176.230 171.480 171.389  1.00  0.00     0.016 A 
ATOM     18  C   UNL     1     176.635 172.612 172.104  1.00  0.00     0.047 A 
BRANCH  16  19
ATOM     19  O   UNL     1     177.742 173.610 174.005  1.00  0.00    -0.508 OA
ATOM     20  H   UNL     1     178.711 173.892 174.043  1.00  0.00     0.293 HD
ENDBRANCH  16  19
ENDBRANCH   3  13
BRANCH  10  21
ATOM     21  O   UNL     1     174.043 165.019 168.705  1.00  0.00    -0.507 OA
ATOM     22  H   UNL     1     173.530 164.642 169.493  1.00  0.00     0.293 HD
ENDBRANCH  10  21
BRANCH  11  23
ATOM     23  O   UNL     1     178.774 164.824 167.686  1.00  0.00    -0.508 OA
ATOM     24  H   UNL     1     179.612 165.341 167.442  1.00  0.00     0.293 HD
ENDBRANCH  11  23
ENDBRANCH   1   2
BRANCH   1  25
ATOM     25  C   UNL     1     173.535 169.460 172.980  1.00  0.00     0.339 C 
ATOM     26  C   UNL     1     173.148 168.054 173.484  1.00  0.00     0.214 C 
ATOM     27  O   UNL     1     172.547 170.442 173.274  1.00  0.00    -0.332 OA
ATOM     28  C   UNL     1     171.777 167.637 172.937  1.00  0.00     0.180 C 
ATOM     29  C   UNL     1     171.244 170.130 172.785  1.00  0.00     0.179 C 
ATOM     30  C   UNL     1     170.734 168.728 173.222  1.00  0.00     0.177 C 
BRANCH  26  31
ATOM     31  O   UNL     1     173.194 167.980 174.889  1.00  0.00    -0.384 OA
ATOM     32  H   UNL     1     173.552 167.089 175.142  1.00  0.00     0.211 HD
ENDBRANCH  26  31
BRANCH  28  33
ATOM     33  O   UNL     1     171.389 166.422 173.529  1.00  0.00    -0.387 OA
ATOM     34  H   UNL     1     170.676 166.642 174.187  1.00  0.00     0.211 HD
ENDBRANCH  28  33
BRANCH  29  35
ATOM     35  C   UNL     1     171.101 170.399 171.269  1.00  0.00     0.191 C 
BRANCH  35  36
ATOM     36  O   UNL     1     171.183 169.209 170.532  1.00  0.00    -0.394 OA
ATOM     37  H   UNL     1     171.845 168.636 171.001  1.00  0.00     0.210 HD
ENDBRANCH  35  36
ENDBRANCH  29  35
BRANCH  30  38
ATOM     38  O   UNL     1     169.533 168.406 172.565  1.00  0.00    -0.387 OA
ATOM     39  H   UNL     1     169.730 167.645 171.958  1.00  0.00     0.211 HD
ENDBRANCH  30  38
ENDBRANCH   1  25
TORSDOF 11
ENDMDL
MODEL 7
REMARK VINA RESULT:    -5.111      3.178      6.011
REMARK INTER + INTRA:          -9.126
REMARK INTER:                  -8.099
REMARK INTRA:                  -1.027
REMARK UNBOUND:                -1.774
REMARK SMILES O=c1c(O[C@H]2O[C@@H](CO)[C@@H](O)[C@H](O)[C@@H]2O)c(-c2ccc(O)cc2)oc2cc(O)cc(O)c12
REMARK SMILES IDX 4 1 3 2 16 3 24 4 2 5 25 6 1 7 32 8 26 9 30 10 27 11 29 12
REMARK SMILES IDX 17 13 18 14 19 15 20 16 23 17 22 18 21 19 31 21 28 23 5 25
REMARK SMILES IDX 14 26 6 27 12 28 7 29 10 30 15 31 13 33 8 35 9 36 11 38
REMARK H PARENT 21 20 31 22 28 24 15 32 13 34 9 37 11 39
REMARK Flexibility Score: inf
ROOT
ATOM      1  O   UNL     1     176.387 166.579 171.156  1.00  0.00    -0.454 OA
ENDROOT
BRANCH   1   2
ATOM      2  C   UNL     1     175.308 166.417 172.044  1.00  0.00     0.214 A 
ATOM      3  C   UNL     1     174.799 167.553 172.702  1.00  0.00     0.180 A 
ATOM      4  O   UNL     1     173.849 167.424 173.622  1.00  0.00    -0.452 OA
ATOM      5  C   UNL     1     174.736 165.162 172.330  1.00  0.00     0.239 A 
ATOM      6  C   UNL     1     173.311 166.257 173.953  1.00  0.00     0.146 A 
ATOM      7  O   UNL     1     175.125 164.138 171.709  1.00  0.00    -0.285 OA
ATOM      8  C   UNL     1     173.722 165.065 173.308  1.00  0.00     0.111 A 
ATOM      9  C   UNL     1     172.335 166.218 174.953  1.00  0.00     0.094 A 
ATOM     10  C   UNL     1     173.126 163.837 173.687  1.00  0.00     0.134 A 
ATOM     11  C   UNL     1     171.762 165.005 175.333  1.00  0.00     0.123 A 
ATOM     12  C   UNL     1     172.154 163.821 174.698  1.00  0.00     0.093 A 
BRANCH   3  13
ATOM     13  C   UNL     1     175.339 168.901 172.434  1.00  0.00     0.021 A 
ATOM     14  C   UNL     1     174.673 169.748 171.531  1.00  0.00     0.016 A 
ATOM     15  C   UNL     1     175.157 171.037 171.282  1.00  0.00     0.047 A 
ATOM     16  C   UNL     1     176.316 171.489 171.925  1.00  0.00     0.115 A 
ATOM     17  C   UNL     1     176.517 169.349 173.052  1.00  0.00     0.016 A 
ATOM     18  C   UNL     1     176.995 170.641 172.808  1.00  0.00     0.047 A 
BRANCH  16  19
ATOM     19  O   UNL     1     176.803 172.774 171.692  1.00  0.00    -0.508 OA
ATOM     20  H   UNL     1     177.726 173.050 171.999  1.00  0.00     0.293 HD
ENDBRANCH  16  19
ENDBRANCH   3  13
BRANCH  10  21
ATOM     21  O   UNL     1     173.500 162.638 173.079  1.00  0.00    -0.507 OA
ATOM     22  H   UNL     1     173.075 161.756 173.337  1.00  0.00     0.293 HD
ENDBRANCH  10  21
BRANCH  11  23
ATOM     23  O   UNL     1     170.802 164.989 176.342  1.00  0.00    -0.508 OA
ATOM     24  H   UNL     1     170.171 165.769 176.486  1.00  0.00     0.293 HD
ENDBRANCH  11  23
ENDBRANCH   1   2
BRANCH   1  25
ATOM     25  C   UNL     1     176.308 167.215 169.877  1.00  0.00     0.339 C 
ATOM     26  C   UNL     1     175.130 166.623 169.075  1.00  0.00     0.214 C 
ATOM     27  O   UNL     1     177.544 167.142 169.174  1.00  0.00    -0.332 OA
ATOM     28  C   UNL     1     175.433 165.184 168.642  1.00  0.00     0.180 C 
ATOM     29  C   UNL     1     177.902 165.829 168.749  1.00  0.00     0.179 C 
ATOM     30  C   UNL     1     176.791 165.116 167.927  1.00  0.00     0.177 C 
BRANCH  26  31
ATOM     31  O   UNL     1     174.793 167.438 167.978  1.00  0.00    -0.384 OA
ATOM     32  H   UNL     1     174.209 166.916 167.369  1.00  0.00     0.211 HD
ENDBRANCH  26  31
BRANCH  28  33
ATOM     33  O   UNL     1     174.410 164.727 167.793  1.00  0.00    -0.387 OA
ATOM     34  H   UNL     1     173.571 165.168 168.096  1.00  0.00     0.211 HD
ENDBRANCH  28  33
BRANCH  29  35
ATOM     35  C   UNL     1     178.473 164.969 169.900  1.00  0.00     0.191 C 
BRANCH  35  36
ATOM     36  O   UNL     1     179.545 164.179 169.461  1.00  0.00    -0.394 OA
ATOM     37  H   UNL     1     179.681 164.402 168.503  1.00  0.00     0.210 HD
ENDBRANCH  35  36
ENDBRANCH  29  35
BRANCH  30  38
ATOM     38  O   UNL     1     177.128 163.770 167.695  1.00  0.00    -0.387 OA
ATOM     39  H   UNL     1     176.277 163.282 167.541  1.00  0.00     0.211 HD
ENDBRANCH  30  38
ENDBRANCH   1  25
TORSDOF 11
ENDMDL
MODEL 8
REMARK VINA RESULT:    -5.059      1.813      5.603
REMARK INTER + INTRA:          -9.050
REMARK INTER:                  -7.970
REMARK INTRA:                  -1.080
REMARK UNBOUND:                -1.774
REMARK SMILES O=c1c(O[C@H]2O[C@@H](CO)[C@@H](O)[C@H](O)[C@@H]2O)c(-c2ccc(O)cc2)oc2cc(O)cc(O)c12
REMARK SMILES IDX 4 1 3 2 16 3 24 4 2 5 25 6 1 7 32 8 26 9 30 10 27 11 29 12
REMARK SMILES IDX 17 13 18 14 19 15 20 16 23 17 22 18 21 19 31 21 28 23 5 25
REMARK SMILES IDX 14 26 6 27 12 28 7 29 10 30 15 31 13 33 8 35 9 36 11 38
REMARK H PARENT 21 20 31 22 28 24 15 32 13 34 9 37 11 39
REMARK Flexibility Score: inf
ROOT
ATOM      1  O   UNL     1     175.364 168.202 171.163  1.00  0.00    -0.454 OA
ENDROOT
BRANCH   1   2
ATOM      2  C   UNL     1     174.179 168.790 171.640  1.00  0.00     0.214 A 
ATOM      3  C   UNL     1     174.254 170.047 172.270  1.00  0.00     0.180 A 
ATOM      4  O   UNL     1     173.171 170.585 172.821  1.00  0.00    -0.452 OA
ATOM      5  C   UNL     1     172.921 168.161 171.544  1.00  0.00     0.239 A 
ATOM      6  C   UNL     1     171.977 170.008 172.793  1.00  0.00     0.146 A 
ATOM      7  O   UNL     1     172.812 167.068 170.928  1.00  0.00    -0.285 OA
ATOM      8  C   UNL     1     171.792 168.767 172.136  1.00  0.00     0.111 A 
ATOM      9  C   UNL     1     170.902 170.639 173.424  1.00  0.00     0.094 A 
ATOM     10  C   UNL     1     170.502 168.180 172.124  1.00  0.00     0.134 A 
ATOM     11  C   UNL     1     169.638 170.051 173.423  1.00  0.00     0.123 A 
ATOM     12  C   UNL     1     169.440 168.829 172.771  1.00  0.00     0.093 A 
BRANCH   3  13
ATOM     13  C   UNL     1     175.536 170.770 172.386  1.00  0.00     0.021 A 
ATOM     14  C   UNL     1     175.749 171.931 171.622  1.00  0.00     0.016 A 
ATOM     15  C   UNL     1     176.948 172.643 171.737  1.00  0.00     0.047 A 
ATOM     16  C   UNL     1     177.949 172.197 172.608  1.00  0.00     0.115 A 
ATOM     17  C   UNL     1     176.555 170.313 173.236  1.00  0.00     0.016 A 
ATOM     18  C   UNL     1     177.751 171.030 173.355  1.00  0.00     0.047 A 
BRANCH  16  19
ATOM     19  O   UNL     1     179.145 172.903 172.737  1.00  0.00    -0.508 OA
ATOM     20  H   UNL     1     179.331 173.477 173.548  1.00  0.00     0.293 HD
ENDBRANCH  16  19
ENDBRANCH   3  13
BRANCH  10  21
ATOM     21  O   UNL     1     170.274 166.959 171.489  1.00  0.00    -0.507 OA
ATOM     22  H   UNL     1     169.764 166.902 170.616  1.00  0.00     0.293 HD
ENDBRANCH  10  21
BRANCH  11  23
ATOM     23  O   UNL     1     168.585 170.691 174.072  1.00  0.00    -0.508 OA
ATOM     24  H   UNL     1     167.671 170.258 174.154  1.00  0.00     0.293 HD
ENDBRANCH  11  23
ENDBRANCH   1   2
BRANCH   1  25
ATOM     25  C   UNL     1     176.029 168.566 169.950  1.00  0.00     0.339 C 
ATOM     26  C   UNL     1     175.052 168.436 168.763  1.00  0.00     0.214 C 
ATOM     27  O   UNL     1     177.227 167.819 169.761  1.00  0.00    -0.332 OA
ATOM     28  C   UNL     1     174.742 166.964 168.470  1.00  0.00     0.180 C 
ATOM     29  C   UNL     1     177.020 166.434 169.495  1.00  0.00     0.179 C 
ATOM     30  C   UNL     1     176.045 166.165 168.315  1.00  0.00     0.177 C 
BRANCH  26  31
ATOM     31  O   UNL     1     175.535 169.106 167.623  1.00  0.00    -0.384 OA
ATOM     32  H   UNL     1     175.542 168.465 166.865  1.00  0.00     0.211 HD
ENDBRANCH  26  31
BRANCH  28  33
ATOM     33  O   UNL     1     173.971 166.874 167.298  1.00  0.00    -0.387 OA
ATOM     34  H   UNL     1     174.304 167.582 166.683  1.00  0.00     0.211 HD
ENDBRANCH  28  33
BRANCH  29  35
ATOM     35  C   UNL     1     176.686 165.629 170.773  1.00  0.00     0.191 C 
BRANCH  35  36
ATOM     36  O   UNL     1     175.316 165.340 170.848  1.00  0.00    -0.394 OA
ATOM     37  H   UNL     1     174.947 165.925 171.561  1.00  0.00     0.210 HD
ENDBRANCH  35  36
ENDBRANCH  29  35
BRANCH  30  38
ATOM     38  O   UNL     1     175.741 164.794 168.220  1.00  0.00    -0.387 OA
ATOM     39  H   UNL     1     176.606 164.312 168.133  1.00  0.00     0.211 HD
ENDBRANCH  30  38
ENDBRANCH   1  25
TORSDOF 11
ENDMDL
MODEL 9
REMARK VINA RESULT:    -5.056      2.916      6.640
REMARK INTER + INTRA:          -9.047
REMARK INTER:                  -7.973
REMARK INTRA:                  -1.074
REMARK UNBOUND:                -1.774
REMARK SMILES O=c1c(O[C@H]2O[C@@H](CO)[C@@H](O)[C@H](O)[C@@H]2O)c(-c2ccc(O)cc2)oc2cc(O)cc(O)c12
REMARK SMILES IDX 4 1 3 2 16 3 24 4 2 5 25 6 1 7 32 8 26 9 30 10 27 11 29 12
REMARK SMILES IDX 17 13 18 14 19 15 20 16 23 17 22 18 21 19 31 21 28 23 5 25
REMARK SMILES IDX 14 26 6 27 12 28 7 29 10 30 15 31 13 33 8 35 9 36 11 38
REMARK H PARENT 21 20 31 22 28 24 15 32 13 34 9 37 11 39
REMARK Flexibility Score: inf
ROOT
ATOM      1  O   UNL     1     175.528 166.521 169.628  1.00  0.00    -0.454 OA
ENDROOT
BRANCH   1   2
ATOM      2  C   UNL     1     175.064 167.391 168.626  1.00  0.00     0.214 A 
ATOM      3  C   UNL     1     175.067 168.776 168.880  1.00  0.00     0.180 A 
ATOM      4  O   UNL     1     174.543 169.619 167.995  1.00  0.00    -0.452 OA
ATOM      5  C   UNL     1     174.566 166.935 167.389  1.00  0.00     0.239 A 
ATOM      6  C   UNL     1     174.025 169.230 166.838  1.00  0.00     0.146 A 
ATOM      7  O   UNL     1     174.613 165.709 167.107  1.00  0.00    -0.285 OA
ATOM      8  C   UNL     1     174.025 167.862 166.472  1.00  0.00     0.111 A 
ATOM      9  C   UNL     1     173.473 170.189 165.985  1.00  0.00     0.094 A 
ATOM     10  C   UNL     1     173.463 167.483 165.227  1.00  0.00     0.134 A 
ATOM     11  C   UNL     1     172.908 169.810 164.768  1.00  0.00     0.123 A 
ATOM     12  C   UNL     1     172.908 168.462 164.390  1.00  0.00     0.093 A 
BRANCH   3  13
ATOM     13  C   UNL     1     175.593 169.323 170.146  1.00  0.00     0.021 A 
ATOM     14  C   UNL     1     176.941 169.712 170.226  1.00  0.00     0.016 A 
ATOM     15  C   UNL     1     177.452 170.254 171.410  1.00  0.00     0.047 A 
ATOM     16  C   UNL     1     176.623 170.403 172.529  1.00  0.00     0.115 A 
ATOM     17  C   UNL     1     174.775 169.447 171.280  1.00  0.00     0.016 A 
ATOM     18  C   UNL     1     175.286 169.997 172.462  1.00  0.00     0.047 A 
BRANCH  16  19
ATOM     19  O   UNL     1     177.118 170.949 173.713  1.00  0.00    -0.508 OA
ATOM     20  H   UNL     1     176.555 171.566 174.282  1.00  0.00     0.293 HD
ENDBRANCH  16  19
ENDBRANCH   3  13
BRANCH  10  21
ATOM     21  O   UNL     1     173.442 166.147 164.825  1.00  0.00    -0.507 OA
ATOM     22  H   UNL     1     174.175 165.501 165.091  1.00  0.00     0.293 HD
ENDBRANCH  10  21
BRANCH  11  23
ATOM     23  O   UNL     1     172.349 170.781 163.940  1.00  0.00    -0.508 OA
ATOM     24  H   UNL     1     171.345 170.892 163.855  1.00  0.00     0.293 HD
ENDBRANCH  11  23
ENDBRANCH   1   2
BRANCH   1  25
ATOM     25  C   UNL     1     176.889 166.414 170.057  1.00  0.00     0.339 C 
ATOM     26  C   UNL     1     177.811 166.280 168.829  1.00  0.00     0.214 C 
ATOM     27  O   UNL     1     177.065 165.358 170.996  1.00  0.00    -0.332 OA
ATOM     28  C   UNL     1     177.632 164.913 168.158  1.00  0.00     0.180 C 
ATOM     29  C   UNL     1     176.901 164.052 170.449  1.00  0.00     0.179 C 
ATOM     30  C   UNL     1     177.779 163.788 169.194  1.00  0.00     0.177 C 
BRANCH  26  31
ATOM     31  O   UNL     1     179.156 166.525 169.165  1.00  0.00    -0.384 OA
ATOM     32  H   UNL     1     179.471 167.306 168.641  1.00  0.00     0.211 HD
ENDBRANCH  26  31
BRANCH  28  33
ATOM     33  O   UNL     1     178.587 164.765 167.137  1.00  0.00    -0.387 OA
ATOM     34  H   UNL     1     179.423 164.449 167.573  1.00  0.00     0.211 HD
ENDBRANCH  28  33
BRANCH  29  35
ATOM     35  C   UNL     1     175.414 163.672 170.257  1.00  0.00     0.191 C 
BRANCH  35  36
ATOM     36  O   UNL     1     175.042 163.738 168.907  1.00  0.00    -0.394 OA
ATOM     37  H   UNL     1     175.870 163.948 168.400  1.00  0.00     0.210 HD
ENDBRANCH  35  36
ENDBRANCH  29  35
BRANCH  30  38
ATOM     38  O   UNL     1     177.441 162.559 168.597  1.00  0.00    -0.387 OA
ATOM     39  H   UNL     1     176.670 162.733 167.995  1.00  0.00     0.211 HD
ENDBRANCH  30  38
ENDBRANCH   1  25
TORSDOF 11
ENDMDL
