MODEL 1
REMARK VINA RESULT:    -5.279      0.000      0.000
REMARK INTER + INTRA:         -10.970
REMARK INTER:                 -10.216
REMARK INTRA:                  -0.754
REMARK UNBOUND:                -0.754
REMARK SMILES CCCCCCCCCCCCCCCCCC(=O)[O-]
REMARK SMILES IDX 10 1 11 2 12 3 13 4 14 5 15 6 16 7 17 8 18 9 19 10 20 11
REMARK SMILES IDX 9 12 8 13 7 14 6 15 5 16 4 17 3 18 2 19 1 20
REMARK H PARENT
REMARK Flexibility Score: inf
ROOT
ATOM      1  C   UNL     1      12.204  22.974  45.104  1.00  0.00     0.000 C 
ENDROOT
BRANCH   1   2
ATOM      2  C   UNL     1      12.028  22.228  43.766  1.00  0.00     0.000 C 
BRANCH   2   3
ATOM      3  C   UNL     1      11.386  23.057  42.635  1.00  0.00     0.000 C 
BRANCH   3   4
ATOM      4  C   UNL     1       9.853  22.940  42.533  1.00  0.00     0.000 C 
BRANCH   4   5
ATOM      5  C   UNL     1       9.324  22.501  41.152  1.00  0.00     0.000 C 
BRANCH   5   6
ATOM      6  C   UNL     1      10.023  21.270  40.545  1.00  0.00     0.000 C 
BRANCH   6   7
ATOM      7  C   UNL     1      10.433  21.409  39.066  1.00  0.00     0.006 C 
BRANCH   7   8
ATOM      8  C   UNL     1      11.841  21.998  38.860  1.00  0.00     0.053 C 
BRANCH   8   9
ATOM      9  C   UNL     1      12.331  21.844  37.452  1.00  0.00     0.041 C 
ATOM     10  O   UNL     1      11.746  22.438  36.508  1.00  0.00    -0.550 OA
ATOM     11  O   UNL     1      13.457  21.075  37.185  1.00  0.00    -0.550 OA
ENDBRANCH   8   9
ENDBRANCH   7   8
ENDBRANCH   6   7
ENDBRANCH   5   6
ENDBRANCH   4   5
ENDBRANCH   3   4
ENDBRANCH   2   3
ENDBRANCH   1   2
BRANCH   1  12
ATOM     12  C   UNL     1      12.816  22.133  46.238  1.00  0.00     0.000 C 
BRANCH  12  13
ATOM     13  C   UNL     1      13.630  22.976  47.232  1.00  0.00    -0.000 C 
BRANCH  13  14
ATOM     14  C   UNL     1      15.023  23.347  46.696  1.00  0.00    -0.000 C 
BRANCH  14  15
ATOM     15  C   UNL     1      16.140  23.229  47.755  1.00  0.00    -0.000 C 
BRANCH  15  16
ATOM     16  C   UNL     1      17.443  22.659  47.166  1.00  0.00    -0.000 C 
BRANCH  16  17
ATOM     17  C   UNL     1      18.387  22.105  48.245  1.00  0.00    -0.000 C 
BRANCH  17  18
ATOM     18  C   UNL     1      19.845  22.536  48.031  1.00  0.00    -0.000 C 
BRANCH  18  19
ATOM     19  C   UNL     1      20.284  23.537  49.106  1.00  0.00    -0.003 C 
ATOM     20  C   UNL     1      19.625  24.897  48.894  1.00  0.00     0.004 C 
ENDBRANCH  18  19
ENDBRANCH  17  18
ENDBRANCH  16  17
ENDBRANCH  15  16
ENDBRANCH  14  15
ENDBRANCH  13  14
ENDBRANCH  12  13
ENDBRANCH   1  12
TORSDOF 16
ENDMDL
MODEL 2
REMARK VINA RESULT:    -5.238      2.802      5.958
REMARK INTER + INTRA:         -10.892
REMARK INTER:                 -10.098
REMARK INTRA:                  -0.794
REMARK UNBOUND:                -0.754
REMARK SMILES CCCCCCCCCCCCCCCCCC(=O)[O-]
REMARK SMILES IDX 10 1 11 2 12 3 13 4 14 5 15 6 16 7 17 8 18 9 19 10 20 11
REMARK SMILES IDX 9 12 8 13 7 14 6 15 5 16 4 17 3 18 2 19 1 20
REMARK H PARENT
REMARK Flexibility Score: inf
ROOT
ATOM      1  C   UNL     1      10.393  21.198  39.947  1.00  0.00     0.000 C 
ENDROOT
BRANCH   1   2
ATOM      2  C   UNL     1      10.744  21.829  38.585  1.00  0.00     0.000 C 
BRANCH   2   3
ATOM      3  C   UNL     1      12.166  22.418  38.485  1.00  0.00     0.000 C 
BRANCH   3   4
ATOM      4  C   UNL     1      12.714  22.554  37.052  1.00  0.00     0.000 C 
BRANCH   4   5
ATOM      5  C   UNL     1      11.788  22.007  35.946  1.00  0.00     0.000 C 
BRANCH   5   6
ATOM      6  C   UNL     1      12.313  22.179  34.508  1.00  0.00     0.000 C 
BRANCH   6   7
ATOM      7  C   UNL     1      13.760  22.694  34.393  1.00  0.00     0.006 C 
BRANCH   7   8
ATOM      8  C   UNL     1      14.820  21.578  34.345  1.00  0.00     0.053 C 
BRANCH   8   9
ATOM      9  C   UNL     1      16.218  22.103  34.470  1.00  0.00     0.041 C 
ATOM     10  O   UNL     1      17.065  21.872  33.566  1.00  0.00    -0.550 OA
ATOM     11  O   UNL     1      16.578  22.879  35.564  1.00  0.00    -0.550 OA
ENDBRANCH   8   9
ENDBRANCH   7   8
ENDBRANCH   6   7
ENDBRANCH   5   6
ENDBRANCH   4   5
ENDBRANCH   3   4
ENDBRANCH   2   3
ENDBRANCH   1   2
BRANCH   1  12
ATOM     12  C   UNL     1       9.478  22.055  40.841  1.00  0.00     0.000 C 
BRANCH  12  13
ATOM     13  C   UNL     1      10.222  23.224  41.505  1.00  0.00    -0.000 C 
BRANCH  13  14
ATOM     14  C   UNL     1      10.460  23.001  43.008  1.00  0.00    -0.000 C 
BRANCH  14  15
ATOM     15  C   UNL     1      11.919  22.627  43.349  1.00  0.00    -0.000 C 
BRANCH  15  16
ATOM     16  C   UNL     1      12.189  22.660  44.864  1.00  0.00    -0.000 C 
BRANCH  16  17
ATOM     17  C   UNL     1      12.314  24.090  45.412  1.00  0.00    -0.000 C 
BRANCH  17  18
ATOM     18  C   UNL     1      12.548  24.123  46.929  1.00  0.00    -0.000 C 
BRANCH  18  19
ATOM     19  C   UNL     1      13.365  22.908  47.384  1.00  0.00    -0.003 C 
ATOM     20  C   UNL     1      14.862  23.202  47.339  1.00  0.00     0.004 C 
ENDBRANCH  18  19
ENDBRANCH  17  18
ENDBRANCH  16  17
ENDBRANCH  15  16
ENDBRANCH  14  15
ENDBRANCH  13  14
ENDBRANCH  12  13
ENDBRANCH   1  12
TORSDOF 16
ENDMDL
MODEL 3
REMARK VINA RESULT:    -5.194      7.376     10.522
REMARK INTER + INTRA:         -10.807
REMARK INTER:                  -9.460
REMARK INTRA:                  -1.347
REMARK UNBOUND:                -0.754
REMARK SMILES CCCCCCCCCCCCCCCCCC(=O)[O-]
REMARK SMILES IDX 10 1 11 2 12 3 13 4 14 5 15 6 16 7 17 8 18 9 19 10 20 11
REMARK SMILES IDX 9 12 8 13 7 14 6 15 5 16 4 17 3 18 2 19 1 20
REMARK H PARENT
REMARK Flexibility Score: inf
ROOT
ATOM      1  C   UNL     1      14.992  21.713  34.558  1.00  0.00     0.000 C 
ENDROOT
BRANCH   1   2
ATOM      2  C   UNL     1      14.234  23.053  34.462  1.00  0.00     0.000 C 
BRANCH   2   3
ATOM      3  C   UNL     1      12.764  23.006  34.925  1.00  0.00     0.000 C 
BRANCH   3   4
ATOM      4  C   UNL     1      12.312  21.658  35.520  1.00  0.00     0.000 C 
BRANCH   4   5
ATOM      5  C   UNL     1      12.325  21.589  37.060  1.00  0.00     0.000 C 
BRANCH   5   6
ATOM      6  C   UNL     1      11.118  22.246  37.755  1.00  0.00     0.000 C 
BRANCH   6   7
ATOM      7  C   UNL     1      11.281  22.488  39.268  1.00  0.00     0.006 C 
BRANCH   7   8
ATOM      8  C   UNL     1      10.124  21.933  40.119  1.00  0.00     0.053 C 
BRANCH   8   9
ATOM      9  C   UNL     1       9.362  23.009  40.832  1.00  0.00     0.041 C 
ATOM     10  O   UNL     1       8.895  22.799  41.983  1.00  0.00    -0.550 OA
ATOM     11  O   UNL     1       9.199  24.256  40.244  1.00  0.00    -0.550 OA
ENDBRANCH   8   9
ENDBRANCH   7   8
ENDBRANCH   6   7
ENDBRANCH   5   6
ENDBRANCH   4   5
ENDBRANCH   3   4
ENDBRANCH   2   3
ENDBRANCH   1   2
BRANCH   1  12
ATOM     12  C   UNL     1      16.490  21.791  34.215  1.00  0.00     0.000 C 
BRANCH  12  13
ATOM     13  C   UNL     1      17.393  21.454  35.411  1.00  0.00    -0.000 C 
BRANCH  13  14
ATOM     14  C   UNL     1      18.267  22.642  35.850  1.00  0.00    -0.000 C 
BRANCH  14  15
ATOM     15  C   UNL     1      19.718  22.243  36.193  1.00  0.00    -0.000 C 
BRANCH  15  16
ATOM     16  C   UNL     1      20.187  21.011  35.399  1.00  0.00    -0.000 C 
BRANCH  16  17
ATOM     17  C   UNL     1      20.736  21.375  34.011  1.00  0.00    -0.000 C 
BRANCH  17  18
ATOM     18  C   UNL     1      19.802  20.941  32.873  1.00  0.00    -0.000 C 
BRANCH  18  19
ATOM     19  C   UNL     1      19.373  22.147  32.027  1.00  0.00    -0.003 C 
ATOM     20  C   UNL     1      19.951  23.444  32.585  1.00  0.00     0.004 C 
ENDBRANCH  18  19
ENDBRANCH  17  18
ENDBRANCH  16  17
ENDBRANCH  15  16
ENDBRANCH  14  15
ENDBRANCH  13  14
ENDBRANCH  12  13
ENDBRANCH   1  12
TORSDOF 16
ENDMDL
MODEL 4
REMARK VINA RESULT:    -5.185      7.014     11.250
REMARK INTER + INTRA:         -10.789
REMARK INTER:                 -10.189
REMARK INTRA:                  -0.600
REMARK UNBOUND:                -0.754
REMARK SMILES CCCCCCCCCCCCCCCCCC(=O)[O-]
REMARK SMILES IDX 10 1 11 2 12 3 13 4 14 5 15 6 16 7 17 8 18 9 19 10 20 11
REMARK SMILES IDX 9 12 8 13 7 14 6 15 5 16 4 17 3 18 2 19 1 20
REMARK H PARENT
REMARK Flexibility Score: inf
ROOT
ATOM      1  C   UNL     1      14.266  22.969  35.029  1.00  0.00     0.000 C 
ENDROOT
BRANCH   1   2
ATOM      2  C   UNL     1      15.214  21.831  34.601  1.00  0.00     0.000 C 
BRANCH   2   3
ATOM      3  C   UNL     1      16.690  22.240  34.427  1.00  0.00     0.000 C 
BRANCH   3   4
ATOM      4  C   UNL     1      17.291  21.932  33.042  1.00  0.00     0.000 C 
BRANCH   4   5
ATOM      5  C   UNL     1      18.774  22.323  32.874  1.00  0.00     0.000 C 
BRANCH   5   6
ATOM      6  C   UNL     1      19.746  21.141  32.700  1.00  0.00     0.000 C 
BRANCH   6   7
ATOM      7  C   UNL     1      20.564  20.772  33.953  1.00  0.00     0.006 C 
BRANCH   7   8
ATOM      8  C   UNL     1      21.386  21.938  34.530  1.00  0.00     0.053 C 
BRANCH   8   9
ATOM      9  C   UNL     1      21.948  21.633  35.886  1.00  0.00     0.041 C 
ATOM     10  O   UNL     1      23.102  22.032  36.198  1.00  0.00    -0.550 OA
ATOM     11  O   UNL     1      21.186  20.943  36.819  1.00  0.00    -0.550 OA
ENDBRANCH   8   9
ENDBRANCH   7   8
ENDBRANCH   6   7
ENDBRANCH   5   6
ENDBRANCH   4   5
ENDBRANCH   3   4
ENDBRANCH   2   3
ENDBRANCH   1   2
BRANCH   1  12
ATOM     12  C   UNL     1      12.915  22.999  34.293  1.00  0.00     0.000 C 
BRANCH  12  13
ATOM     13  C   UNL     1      11.852  22.115  34.963  1.00  0.00    -0.000 C 
BRANCH  13  14
ATOM     14  C   UNL     1      12.178  21.804  36.433  1.00  0.00    -0.000 C 
BRANCH  14  15
ATOM     15  C   UNL     1      11.039  22.176  37.407  1.00  0.00    -0.000 C 
BRANCH  15  16
ATOM     16  C   UNL     1      11.478  22.084  38.880  1.00  0.00    -0.000 C 
BRANCH  16  17
ATOM     17  C   UNL     1      10.473  21.315  39.750  1.00  0.00    -0.000 C 
BRANCH  17  18
ATOM     18  C   UNL     1      10.769  21.446  41.251  1.00  0.00    -0.000 C 
BRANCH  18  19
ATOM     19  C   UNL     1      10.189  22.750  41.812  1.00  0.00    -0.003 C 
ATOM     20  C   UNL     1       8.967  23.197  41.014  1.00  0.00     0.004 C 
ENDBRANCH  18  19
ENDBRANCH  17  18
ENDBRANCH  16  17
ENDBRANCH  15  16
ENDBRANCH  14  15
ENDBRANCH  13  14
ENDBRANCH  12  13
ENDBRANCH   1  12
TORSDOF 16
ENDMDL
MODEL 5
REMARK VINA RESULT:    -5.176      8.679     10.697
REMARK INTER + INTRA:         -10.772
REMARK INTER:                  -9.047
REMARK INTRA:                  -1.725
REMARK UNBOUND:                -0.754
REMARK SMILES CCCCCCCCCCCCCCCCCC(=O)[O-]
REMARK SMILES IDX 10 1 11 2 12 3 13 4 14 5 15 6 16 7 17 8 18 9 19 10 20 11
REMARK SMILES IDX 9 12 8 13 7 14 6 15 5 16 4 17 3 18 2 19 1 20
REMARK H PARENT
REMARK Flexibility Score: inf
ROOT
ATOM      1  C   UNL     1      21.630  21.779  34.503  1.00  0.00     0.000 C 
ENDROOT
BRANCH   1   2
ATOM      2  C   UNL     1      20.539  20.971  33.771  1.00  0.00     0.000 C 
BRANCH   2   3
ATOM      3  C   UNL     1      19.724  21.766  32.731  1.00  0.00     0.000 C 
BRANCH   3   4
ATOM      4  C   UNL     1      18.218  21.882  33.037  1.00  0.00     0.000 C 
BRANCH   4   5
ATOM      5  C   UNL     1      17.878  22.341  34.469  1.00  0.00     0.000 C 
BRANCH   5   6
ATOM      6  C   UNL     1      16.574  21.763  35.050  1.00  0.00     0.000 C 
BRANCH   6   7
ATOM      7  C   UNL     1      15.324  21.944  34.168  1.00  0.00     0.006 C 
BRANCH   7   8
ATOM      8  C   UNL     1      14.069  22.386  34.943  1.00  0.00     0.053 C 
BRANCH   8   9
ATOM      9  C   UNL     1      12.920  21.440  34.772  1.00  0.00     0.041 C 
ATOM     10  O   UNL     1      13.108  20.196  34.838  1.00  0.00    -0.550 OA
ATOM     11  O   UNL     1      11.635  21.929  34.578  1.00  0.00    -0.550 OA
ENDBRANCH   8   9
ENDBRANCH   7   8
ENDBRANCH   6   7
ENDBRANCH   5   6
ENDBRANCH   4   5
ENDBRANCH   3   4
ENDBRANCH   2   3
ENDBRANCH   1   2
BRANCH   1  12
ATOM     12  C   UNL     1      21.316  22.109  35.973  1.00  0.00     0.000 C 
BRANCH  12  13
ATOM     13  C   UNL     1      20.415  21.057  36.640  1.00  0.00    -0.000 C 
BRANCH  13  14
ATOM     14  C   UNL     1      20.670  20.928  38.151  1.00  0.00    -0.000 C 
BRANCH  14  15
ATOM     15  C   UNL     1      21.905  21.720  38.635  1.00  0.00    -0.000 C 
BRANCH  15  16
ATOM     16  C   UNL     1      23.063  20.796  39.053  1.00  0.00    -0.000 C 
BRANCH  16  17
ATOM     17  C   UNL     1      24.442  21.425  38.801  1.00  0.00    -0.000 C 
BRANCH  17  18
ATOM     18  C   UNL     1      25.091  20.927  37.502  1.00  0.00    -0.000 C 
BRANCH  18  19
ATOM     19  C   UNL     1      25.106  22.032  36.439  1.00  0.00    -0.003 C 
ATOM     20  C   UNL     1      24.918  23.408  37.071  1.00  0.00     0.004 C 
ENDBRANCH  18  19
ENDBRANCH  17  18
ENDBRANCH  16  17
ENDBRANCH  15  16
ENDBRANCH  14  15
ENDBRANCH  13  14
ENDBRANCH  12  13
ENDBRANCH   1  12
TORSDOF 16
ENDMDL
MODEL 6
REMARK VINA RESULT:    -5.162      4.310     10.194
REMARK INTER + INTRA:         -10.745
REMARK INTER:                 -10.058
REMARK INTRA:                  -0.687
REMARK UNBOUND:                -0.754
REMARK SMILES CCCCCCCCCCCCCCCCCC(=O)[O-]
REMARK SMILES IDX 10 1 11 2 12 3 13 4 14 5 15 6 16 7 17 8 18 9 19 10 20 11
REMARK SMILES IDX 9 12 8 13 7 14 6 15 5 16 4 17 3 18 2 19 1 20
REMARK H PARENT
REMARK Flexibility Score: inf
ROOT
ATOM      1  C   UNL     1      11.541  22.899  44.215  1.00  0.00     0.000 C 
ENDROOT
BRANCH   1   2
ATOM      2  C   UNL     1      12.736  22.148  44.835  1.00  0.00     0.000 C 
BRANCH   2   3
ATOM      3  C   UNL     1      12.597  21.824  46.337  1.00  0.00     0.000 C 
BRANCH   3   4
ATOM      4  C   UNL     1      13.284  22.825  47.284  1.00  0.00     0.000 C 
BRANCH   4   5
ATOM      5  C   UNL     1      14.465  23.602  46.666  1.00  0.00     0.000 C 
BRANCH   5   6
ATOM      6  C   UNL     1      15.815  22.861  46.679  1.00  0.00     0.000 C 
BRANCH   6   7
ATOM      7  C   UNL     1      16.637  23.014  47.973  1.00  0.00     0.006 C 
BRANCH   7   8
ATOM      8  C   UNL     1      18.095  22.536  47.849  1.00  0.00     0.053 C 
BRANCH   8   9
ATOM      9  C   UNL     1      19.078  23.528  48.393  1.00  0.00     0.041 C 
ATOM     10  O   UNL     1      18.936  24.757  48.154  1.00  0.00    -0.550 OA
ATOM     11  O   UNL     1      20.129  23.103  49.195  1.00  0.00    -0.550 OA
ENDBRANCH   8   9
ENDBRANCH   7   8
ENDBRANCH   6   7
ENDBRANCH   5   6
ENDBRANCH   4   5
ENDBRANCH   3   4
ENDBRANCH   2   3
ENDBRANCH   1   2
BRANCH   1  12
ATOM     12  C   UNL     1      11.220  22.515  42.759  1.00  0.00     0.000 C 
BRANCH  12  13
ATOM     13  C   UNL     1       9.839  23.012  42.303  1.00  0.00    -0.000 C 
BRANCH  13  14
ATOM     14  C   UNL     1       9.439  22.468  40.921  1.00  0.00    -0.000 C 
BRANCH  14  15
ATOM     15  C   UNL     1      10.047  21.084  40.606  1.00  0.00    -0.000 C 
BRANCH  15  16
ATOM     16  C   UNL     1      11.263  21.182  39.668  1.00  0.00    -0.000 C 
BRANCH  16  17
ATOM     17  C   UNL     1      11.229  22.439  38.785  1.00  0.00    -0.000 C 
BRANCH  17  18
ATOM     18  C   UNL     1      11.087  22.108  37.292  1.00  0.00    -0.000 C 
BRANCH  18  19
ATOM     19  C   UNL     1      12.377  22.441  36.533  1.00  0.00    -0.003 C 
ATOM     20  C   UNL     1      12.800  21.285  35.631  1.00  0.00     0.004 C 
ENDBRANCH  18  19
ENDBRANCH  17  18
ENDBRANCH  16  17
ENDBRANCH  15  16
ENDBRANCH  14  15
ENDBRANCH  13  14
ENDBRANCH  12  13
ENDBRANCH   1  12
TORSDOF 16
ENDMDL
MODEL 7
REMARK VINA RESULT:    -5.142      3.603      9.978
REMARK INTER + INTRA:         -10.705
REMARK INTER:                  -9.843
REMARK INTRA:                  -0.862
REMARK UNBOUND:                -0.754
REMARK SMILES CCCCCCCCCCCCCCCCCC(=O)[O-]
REMARK SMILES IDX 10 1 11 2 12 3 13 4 14 5 15 6 16 7 17 8 18 9 19 10 20 11
REMARK SMILES IDX 9 12 8 13 7 14 6 15 5 16 4 17 3 18 2 19 1 20
REMARK H PARENT
REMARK Flexibility Score: inf
ROOT
ATOM      1  C   UNL     1      11.707  23.144  42.094  1.00  0.00     0.000 C 
ENDROOT
BRANCH   1   2
ATOM      2  C   UNL     1      12.685  22.642  43.175  1.00  0.00     0.000 C 
BRANCH   2   3
ATOM      3  C   UNL     1      12.169  22.751  44.624  1.00  0.00     0.000 C 
BRANCH   3   4
ATOM      4  C   UNL     1      12.944  21.908  45.655  1.00  0.00     0.000 C 
BRANCH   4   5
ATOM      5  C   UNL     1      12.703  22.298  47.128  1.00  0.00     0.000 C 
BRANCH   5   6
ATOM      6  C   UNL     1      13.787  23.195  47.754  1.00  0.00     0.000 C 
BRANCH   6   7
ATOM      7  C   UNL     1      15.098  23.301  46.951  1.00  0.00     0.006 C 
BRANCH   7   8
ATOM      8  C   UNL     1      16.369  23.212  47.815  1.00  0.00     0.053 C 
BRANCH   8   9
ATOM      9  C   UNL     1      17.537  22.644  47.068  1.00  0.00     0.041 C 
ATOM     10  O   UNL     1      17.492  22.527  45.814  1.00  0.00    -0.550 OA
ATOM     11  O   UNL     1      18.691  22.278  47.748  1.00  0.00    -0.550 OA
ENDBRANCH   8   9
ENDBRANCH   7   8
ENDBRANCH   6   7
ENDBRANCH   5   6
ENDBRANCH   4   5
ENDBRANCH   3   4
ENDBRANCH   2   3
ENDBRANCH   1   2
BRANCH   1  12
ATOM     12  C   UNL     1      10.221  22.873  42.389  1.00  0.00     0.000 C 
BRANCH  12  13
ATOM     13  C   UNL     1       9.430  22.466  41.136  1.00  0.00    -0.000 C 
BRANCH  13  14
ATOM     14  C   UNL     1      10.197  21.475  40.244  1.00  0.00    -0.000 C 
BRANCH  14  15
ATOM     15  C   UNL     1      10.452  22.004  38.816  1.00  0.00    -0.000 C 
BRANCH  15  16
ATOM     16  C   UNL     1      11.930  21.878  38.404  1.00  0.00    -0.000 C 
BRANCH  16  17
ATOM     17  C   UNL     1      12.165  22.233  36.927  1.00  0.00    -0.000 C 
BRANCH  17  18
ATOM     18  C   UNL     1      13.034  21.196  36.201  1.00  0.00    -0.000 C 
BRANCH  18  19
ATOM     19  C   UNL     1      12.699  21.152  34.706  1.00  0.00    -0.003 C 
ATOM     20  C   UNL     1      12.206  22.508  34.211  1.00  0.00     0.004 C 
ENDBRANCH  18  19
ENDBRANCH  17  18
ENDBRANCH  16  17
ENDBRANCH  15  16
ENDBRANCH  14  15
ENDBRANCH  13  14
ENDBRANCH  12  13
ENDBRANCH   1  12
TORSDOF 16
ENDMDL
MODEL 8
REMARK VINA RESULT:    -5.117      7.550     10.531
REMARK INTER + INTRA:         -10.657
REMARK INTER:                  -9.962
REMARK INTRA:                  -0.694
REMARK UNBOUND:                -0.754
REMARK SMILES CCCCCCCCCCCCCCCCCC(=O)[O-]
REMARK SMILES IDX 10 1 11 2 12 3 13 4 14 5 15 6 16 7 17 8 18 9 19 10 20 11
REMARK SMILES IDX 9 12 8 13 7 14 6 15 5 16 4 17 3 18 2 19 1 20
REMARK H PARENT
REMARK Flexibility Score: inf
ROOT
ATOM      1  C   UNL     1      17.293  21.492  34.114  1.00  0.00     0.000 C 
ENDROOT
BRANCH   1   2
ATOM      2  C   UNL     1      15.830  21.978  34.155  1.00  0.00     0.000 C 
BRANCH   2   3
ATOM      3  C   UNL     1      15.520  23.025  35.244  1.00  0.00     0.000 C 
BRANCH   3   4
ATOM      4  C   UNL     1      14.092  23.603  35.202  1.00  0.00     0.000 C 
BRANCH   4   5
ATOM      5  C   UNL     1      13.098  22.817  34.324  1.00  0.00     0.000 C 
BRANCH   5   6
ATOM      6  C   UNL     1      12.017  22.037  35.096  1.00  0.00     0.000 C 
BRANCH   6   7
ATOM      7  C   UNL     1      12.276  21.874  36.606  1.00  0.00     0.006 C 
BRANCH   7   8
ATOM      8  C   UNL     1      11.038  22.132  37.485  1.00  0.00     0.053 C 
BRANCH   8   9
ATOM      9  C   UNL     1      11.373  22.223  38.943  1.00  0.00     0.041 C 
ATOM     10  O   UNL     1      10.871  23.135  39.653  1.00  0.00    -0.550 OA
ATOM     11  O   UNL     1      12.209  21.280  39.528  1.00  0.00    -0.550 OA
ENDBRANCH   8   9
ENDBRANCH   7   8
ENDBRANCH   6   7
ENDBRANCH   5   6
ENDBRANCH   4   5
ENDBRANCH   3   4
ENDBRANCH   2   3
ENDBRANCH   1   2
BRANCH   1  12
ATOM     12  C   UNL     1      18.238  22.354  33.257  1.00  0.00     0.000 C 
BRANCH  12  13
ATOM     13  C   UNL     1      19.435  21.562  32.710  1.00  0.00    -0.000 C 
BRANCH  13  14
ATOM     14  C   UNL     1      19.973  20.529  33.714  1.00  0.00    -0.000 C 
BRANCH  14  15
ATOM     15  C   UNL     1      20.569  21.165  34.989  1.00  0.00    -0.000 C 
BRANCH  15  16
ATOM     16  C   UNL     1      21.956  21.785  34.737  1.00  0.00    -0.000 C 
BRANCH  16  17
ATOM     17  C   UNL     1      22.786  21.921  36.023  1.00  0.00    -0.000 C 
BRANCH  17  18
ATOM     18  C   UNL     1      24.274  22.173  35.742  1.00  0.00    -0.000 C 
BRANCH  18  19
ATOM     19  C   UNL     1      25.096  22.093  37.034  1.00  0.00    -0.003 C 
ATOM     20  C   UNL     1      24.939  20.731  37.704  1.00  0.00     0.004 C 
ENDBRANCH  18  19
ENDBRANCH  17  18
ENDBRANCH  16  17
ENDBRANCH  15  16
ENDBRANCH  14  15
ENDBRANCH  13  14
ENDBRANCH  12  13
ENDBRANCH   1  12
TORSDOF 16
ENDMDL
MODEL 9
REMARK VINA RESULT:    -5.089      3.984      5.634
REMARK INTER + INTRA:         -10.603
REMARK INTER:                  -8.344
REMARK INTRA:                  -2.259
REMARK UNBOUND:                -0.754
REMARK SMILES CCCCCCCCCCCCCCCCCC(=O)[O-]
REMARK SMILES IDX 10 1 11 2 12 3 13 4 14 5 15 6 16 7 17 8 18 9 19 10 20 11
REMARK SMILES IDX 9 12 8 13 7 14 6 15 5 16 4 17 3 18 2 19 1 20
REMARK H PARENT
REMARK Flexibility Score: inf
ROOT
ATOM      1  C   UNL     1      16.776  22.935  46.206  1.00  0.00     0.000 C 
ENDROOT
BRANCH   1   2
ATOM      2  C   UNL     1      15.363  22.407  46.529  1.00  0.00     0.000 C 
BRANCH   2   3
ATOM      3  C   UNL     1      14.525  23.309  47.458  1.00  0.00     0.000 C 
BRANCH   3   4
ATOM      4  C   UNL     1      13.008  23.046  47.423  1.00  0.00     0.000 C 
BRANCH   4   5
ATOM      5  C   UNL     1      12.576  21.838  46.566  1.00  0.00     0.000 C 
BRANCH   5   6
ATOM      6  C   UNL     1      12.008  22.190  45.179  1.00  0.00     0.000 C 
BRANCH   6   7
ATOM      7  C   UNL     1      12.221  23.649  44.730  1.00  0.00     0.006 C 
BRANCH   7   8
ATOM      8  C   UNL     1      13.384  23.836  43.740  1.00  0.00     0.053 C 
BRANCH   8   9
ATOM      9  C   UNL     1      14.267  24.994  44.097  1.00  0.00     0.041 C 
ATOM     10  O   UNL     1      13.912  25.811  44.989  1.00  0.00    -0.550 OA
ATOM     11  O   UNL     1      15.498  25.151  43.475  1.00  0.00    -0.550 OA
ENDBRANCH   8   9
ENDBRANCH   7   8
ENDBRANCH   6   7
ENDBRANCH   5   6
ENDBRANCH   4   5
ENDBRANCH   3   4
ENDBRANCH   2   3
ENDBRANCH   1   2
BRANCH   1  12
ATOM     12  C   UNL     1      17.579  23.424  47.425  1.00  0.00     0.000 C 
BRANCH  12  13
ATOM     13  C   UNL     1      17.941  22.288  48.395  1.00  0.00    -0.000 C 
BRANCH  13  14
ATOM     14  C   UNL     1      19.450  21.993  48.428  1.00  0.00    -0.000 C 
BRANCH  14  15
ATOM     15  C   UNL     1      20.314  23.243  48.700  1.00  0.00    -0.000 C 
BRANCH  15  16
ATOM     16  C   UNL     1      21.497  23.358  47.721  1.00  0.00    -0.000 C 
BRANCH  16  17
ATOM     17  C   UNL     1      21.051  23.711  46.293  1.00  0.00    -0.000 C 
BRANCH  17  18
ATOM     18  C   UNL     1      21.255  22.552  45.307  1.00  0.00    -0.000 C 
BRANCH  18  19
ATOM     19  C   UNL     1      19.932  22.164  44.637  1.00  0.00    -0.003 C 
ATOM     20  C   UNL     1      19.567  20.712  44.935  1.00  0.00     0.004 C 
ENDBRANCH  18  19
ENDBRANCH  17  18
ENDBRANCH  16  17
ENDBRANCH  15  16
ENDBRANCH  14  15
ENDBRANCH  13  14
ENDBRANCH  12  13
ENDBRANCH   1  12
TORSDOF 16
ENDMDL
