MODEL 1
REMARK VINA RESULT:    -4.430      0.000      0.000
REMARK INTER + INTRA:         -11.316
REMARK INTER:                  -8.574
REMARK INTRA:                  -2.743
REMARK UNBOUND:                -2.743
REMARK SMILES CCCCCCCCCCCCCCCCCC(=O)[O-]
REMARK SMILES IDX 10 1 11 2 12 3 13 4 14 5 15 6 16 7 17 8 18 9 19 10 20 11
REMARK SMILES IDX 9 12 8 13 7 14 6 15 5 16 4 17 3 18 2 19 1 20
REMARK H PARENT
REMARK Flexibility Score: inf
ROOT
ATOM      1  C   UNL     1       8.780  -6.717  28.641  1.00  0.00     0.000 C 
ENDROOT
BRANCH   1   2
ATOM      2  C   UNL     1       8.382  -5.304  28.185  1.00  0.00     0.000 C 
BRANCH   2   3
ATOM      3  C   UNL     1       6.933  -4.950  28.557  1.00  0.00     0.000 C 
BRANCH   3   4
ATOM      4  C   UNL     1       6.060  -4.642  27.328  1.00  0.00     0.000 C 
BRANCH   4   5
ATOM      5  C   UNL     1       6.741  -4.974  25.982  1.00  0.00     0.000 C 
BRANCH   5   6
ATOM      6  C   UNL     1       5.741  -4.980  24.811  1.00  0.00     0.000 C 
BRANCH   6   7
ATOM      7  C   UNL     1       5.308  -6.401  24.407  1.00  0.00     0.006 C 
BRANCH   7   8
ATOM      8  C   UNL     1       3.800  -6.549  24.150  1.00  0.00     0.053 C 
BRANCH   8   9
ATOM      9  C   UNL     1       3.316  -5.613  23.085  1.00  0.00     0.041 C 
ATOM     10  O   UNL     1       2.532  -4.672  23.378  1.00  0.00    -0.550 OA
ATOM     11  O   UNL     1       3.718  -5.787  21.767  1.00  0.00    -0.550 OA
ENDBRANCH   8   9
ENDBRANCH   7   8
ENDBRANCH   6   7
ENDBRANCH   5   6
ENDBRANCH   4   5
ENDBRANCH   3   4
ENDBRANCH   2   3
ENDBRANCH   1   2
BRANCH   1  12
ATOM     12  C   UNL     1       8.615  -7.761  27.524  1.00  0.00     0.000 C 
BRANCH  12  13
ATOM     13  C   UNL     1       7.522  -8.800  27.835  1.00  0.00    -0.000 C 
BRANCH  13  14
ATOM     14  C   UNL     1       6.112  -8.448  27.315  1.00  0.00    -0.000 C 
BRANCH  14  15
ATOM     15  C   UNL     1       5.059  -8.171  28.403  1.00  0.00    -0.000 C 
BRANCH  15  16
ATOM     16  C   UNL     1       5.324  -8.949  29.702  1.00  0.00    -0.000 C 
BRANCH  16  17
ATOM     17  C   UNL     1       5.209  -8.068  30.960  1.00  0.00    -0.000 C 
BRANCH  17  18
ATOM     18  C   UNL     1       6.498  -7.326  31.365  1.00  0.00    -0.000 C 
BRANCH  18  19
ATOM     19  C   UNL     1       6.279  -5.966  32.050  1.00  0.00    -0.003 C 
ATOM     20  C   UNL     1       7.586  -5.281  32.447  1.00  0.00     0.004 C 
ENDBRANCH  18  19
ENDBRANCH  17  18
ENDBRANCH  16  17
ENDBRANCH  15  16
ENDBRANCH  14  15
ENDBRANCH  13  14
ENDBRANCH  12  13
ENDBRANCH   1  12
TORSDOF 16
ENDMDL
MODEL 2
REMARK VINA RESULT:    -4.411      1.411      4.129
REMARK INTER + INTRA:         -11.280
REMARK INTER:                  -8.639
REMARK INTRA:                  -2.642
REMARK UNBOUND:                -2.743
REMARK SMILES CCCCCCCCCCCCCCCCCC(=O)[O-]
REMARK SMILES IDX 10 1 11 2 12 3 13 4 14 5 15 6 16 7 17 8 18 9 19 10 20 11
REMARK SMILES IDX 9 12 8 13 7 14 6 15 5 16 4 17 3 18 2 19 1 20
REMARK H PARENT
REMARK Flexibility Score: inf
ROOT
ATOM      1  C   UNL     1       6.636  -5.602  32.972  1.00  0.00     0.000 C 
ENDROOT
BRANCH   1   2
ATOM      2  C   UNL     1       7.582  -5.190  31.833  1.00  0.00     0.000 C 
BRANCH   2   3
ATOM      3  C   UNL     1       8.195  -6.398  31.108  1.00  0.00     0.000 C 
BRANCH   3   4
ATOM      4  C   UNL     1       8.072  -6.300  29.577  1.00  0.00     0.000 C 
BRANCH   4   5
ATOM      5  C   UNL     1       7.105  -5.195  29.100  1.00  0.00     0.000 C 
BRANCH   5   6
ATOM      6  C   UNL     1       5.987  -5.751  28.200  1.00  0.00     0.000 C 
BRANCH   6   7
ATOM      7  C   UNL     1       6.134  -5.313  26.730  1.00  0.00     0.006 C 
BRANCH   7   8
ATOM      8  C   UNL     1       5.305  -6.146  25.740  1.00  0.00     0.053 C 
BRANCH   8   9
ATOM      9  C   UNL     1       5.350  -5.582  24.353  1.00  0.00     0.041 C 
ATOM     10  O   UNL     1       6.421  -5.615  23.690  1.00  0.00    -0.550 OA
ATOM     11  O   UNL     1       4.215  -5.006  23.796  1.00  0.00    -0.550 OA
ENDBRANCH   8   9
ENDBRANCH   7   8
ENDBRANCH   6   7
ENDBRANCH   5   6
ENDBRANCH   4   5
ENDBRANCH   3   4
ENDBRANCH   2   3
ENDBRANCH   1   2
BRANCH   1  12
ATOM     12  C   UNL     1       5.195  -5.828  32.484  1.00  0.00     0.000 C 
BRANCH  12  13
ATOM     13  C   UNL     1       4.827  -7.319  32.383  1.00  0.00    -0.000 C 
BRANCH  13  14
ATOM     14  C   UNL     1       4.587  -7.843  30.951  1.00  0.00    -0.000 C 
BRANCH  14  15
ATOM     15  C   UNL     1       5.684  -8.771  30.396  1.00  0.00    -0.000 C 
BRANCH  15  16
ATOM     16  C   UNL     1       5.315  -9.383  29.034  1.00  0.00    -0.000 C 
BRANCH  16  17
ATOM     17  C   UNL     1       6.550  -9.747  28.189  1.00  0.00    -0.000 C 
BRANCH  17  18
ATOM     18  C   UNL     1       6.487  -9.314  26.711  1.00  0.00    -0.000 C 
BRANCH  18  19
ATOM     19  C   UNL     1       7.826  -8.852  26.111  1.00  0.00    -0.003 C 
ATOM     20  C   UNL     1       8.986  -8.943  27.102  1.00  0.00     0.004 C 
ENDBRANCH  18  19
ENDBRANCH  17  18
ENDBRANCH  16  17
ENDBRANCH  15  16
ENDBRANCH  14  15
ENDBRANCH  13  14
ENDBRANCH  12  13
ENDBRANCH   1  12
TORSDOF 16
ENDMDL
MODEL 3
REMARK VINA RESULT:    -4.405      1.336      1.517
REMARK INTER + INTRA:         -11.267
REMARK INTER:                  -9.170
REMARK INTRA:                  -2.098
REMARK UNBOUND:                -2.743
REMARK SMILES CCCCCCCCCCCCCCCCCC(=O)[O-]
REMARK SMILES IDX 10 1 11 2 12 3 13 4 14 5 15 6 16 7 17 8 18 9 19 10 20 11
REMARK SMILES IDX 9 12 8 13 7 14 6 15 5 16 4 17 3 18 2 19 1 20
REMARK H PARENT
REMARK Flexibility Score: inf
ROOT
ATOM      1  C   UNL     1       8.727  -6.726  28.852  1.00  0.00     0.000 C 
ENDROOT
BRANCH   1   2
ATOM      2  C   UNL     1       7.680  -5.607  28.976  1.00  0.00     0.000 C 
BRANCH   2   3
ATOM      3  C   UNL     1       7.918  -4.462  27.978  1.00  0.00     0.000 C 
BRANCH   3   4
ATOM      4  C   UNL     1       6.812  -4.359  26.915  1.00  0.00     0.000 C 
BRANCH   4   5
ATOM      5  C   UNL     1       5.661  -5.371  27.112  1.00  0.00     0.000 C 
BRANCH   5   6
ATOM      6  C   UNL     1       5.299  -6.101  25.806  1.00  0.00     0.000 C 
BRANCH   6   7
ATOM      7  C   UNL     1       5.516  -5.226  24.558  1.00  0.00     0.006 C 
BRANCH   7   8
ATOM      8  C   UNL     1       4.535  -5.514  23.410  1.00  0.00     0.053 C 
BRANCH   8   9
ATOM      9  C   UNL     1       5.091  -6.497  22.426  1.00  0.00     0.041 C 
ATOM     10  O   UNL     1       4.716  -7.699  22.450  1.00  0.00    -0.550 OA
ATOM     11  O   UNL     1       6.036  -6.090  21.493  1.00  0.00    -0.550 OA
ENDBRANCH   8   9
ENDBRANCH   7   8
ENDBRANCH   6   7
ENDBRANCH   5   6
ENDBRANCH   4   5
ENDBRANCH   3   4
ENDBRANCH   2   3
ENDBRANCH   1   2
BRANCH   1  12
ATOM     12  C   UNL     1       8.616  -7.487  27.521  1.00  0.00     0.000 C 
BRANCH  12  13
ATOM     13  C   UNL     1       7.992  -8.885  27.683  1.00  0.00    -0.000 C 
BRANCH  13  14
ATOM     14  C   UNL     1       6.470  -8.901  27.941  1.00  0.00    -0.000 C 
BRANCH  14  15
ATOM     15  C   UNL     1       6.038  -9.483  29.299  1.00  0.00    -0.000 C 
BRANCH  15  16
ATOM     16  C   UNL     1       5.190  -8.502  30.126  1.00  0.00    -0.000 C 
BRANCH  16  17
ATOM     17  C   UNL     1       5.985  -7.842  31.269  1.00  0.00    -0.000 C 
BRANCH  17  18
ATOM     18  C   UNL     1       5.174  -6.890  32.171  1.00  0.00    -0.000 C 
BRANCH  18  19
ATOM     19  C   UNL     1       5.904  -5.599  32.578  1.00  0.00    -0.003 C 
ATOM     20  C   UNL     1       7.421  -5.697  32.417  1.00  0.00     0.004 C 
ENDBRANCH  18  19
ENDBRANCH  17  18
ENDBRANCH  16  17
ENDBRANCH  15  16
ENDBRANCH  14  15
ENDBRANCH  13  14
ENDBRANCH  12  13
ENDBRANCH   1  12
TORSDOF 16
ENDMDL
MODEL 4
REMARK VINA RESULT:    -4.208     11.550     14.311
REMARK INTER + INTRA:         -10.887
REMARK INTER:                  -8.291
REMARK INTRA:                  -2.596
REMARK UNBOUND:                -2.743
REMARK SMILES CCCCCCCCCCCCCCCCCC(=O)[O-]
REMARK SMILES IDX 10 1 11 2 12 3 13 4 14 5 15 6 16 7 17 8 18 9 19 10 20 11
REMARK SMILES IDX 9 12 8 13 7 14 6 15 5 16 4 17 3 18 2 19 1 20
REMARK H PARENT
REMARK Flexibility Score: inf
ROOT
ATOM      1  C   UNL     1      12.457  -6.305  17.460  1.00  0.00     0.000 C 
ENDROOT
BRANCH   1   2
ATOM      2  C   UNL     1      13.857  -5.933  16.946  1.00  0.00     0.000 C 
BRANCH   2   3
ATOM      3  C   UNL     1      14.918  -5.951  18.058  1.00  0.00     0.000 C 
BRANCH   3   4
ATOM      4  C   UNL     1      14.376  -5.451  19.407  1.00  0.00     0.000 C 
BRANCH   4   5
ATOM      5  C   UNL     1      14.816  -6.311  20.613  1.00  0.00     0.000 C 
BRANCH   5   6
ATOM      6  C   UNL     1      15.707  -7.492  20.189  1.00  0.00     0.000 C 
BRANCH   6   7
ATOM      7  C   UNL     1      15.707  -8.636  21.221  1.00  0.00     0.006 C 
BRANCH   7   8
ATOM      8  C   UNL     1      14.807  -8.381  22.441  1.00  0.00     0.053 C 
BRANCH   8   9
ATOM      9  C   UNL     1      15.603  -8.171  23.693  1.00  0.00     0.041 C 
ATOM     10  O   UNL     1      16.757  -7.670  23.634  1.00  0.00    -0.550 OA
ATOM     11  O   UNL     1      15.077  -8.541  24.924  1.00  0.00    -0.550 OA
ENDBRANCH   8   9
ENDBRANCH   7   8
ENDBRANCH   6   7
ENDBRANCH   5   6
ENDBRANCH   4   5
ENDBRANCH   3   4
ENDBRANCH   2   3
ENDBRANCH   1   2
BRANCH   1  12
ATOM     12  C   UNL     1      12.094  -7.769  17.162  1.00  0.00     0.000 C 
BRANCH  12  13
ATOM     13  C   UNL     1      12.664  -8.748  18.205  1.00  0.00    -0.000 C 
BRANCH  13  14
ATOM     14  C   UNL     1      13.879  -9.576  17.736  1.00  0.00    -0.000 C 
BRANCH  14  15
ATOM     15  C   UNL     1      13.926  -9.882  16.228  1.00  0.00    -0.000 C 
BRANCH  15  16
ATOM     16  C   UNL     1      15.248  -9.450  15.572  1.00  0.00    -0.000 C 
BRANCH  16  17
ATOM     17  C   UNL     1      15.077  -9.039  14.097  1.00  0.00    -0.000 C 
BRANCH  17  18
ATOM     18  C   UNL     1      15.349  -7.552  13.792  1.00  0.00    -0.000 C 
BRANCH  18  19
ATOM     19  C   UNL     1      14.238  -6.834  13.007  1.00  0.00    -0.003 C 
ATOM     20  C   UNL     1      12.843  -7.098  13.573  1.00  0.00     0.004 C 
ENDBRANCH  18  19
ENDBRANCH  17  18
ENDBRANCH  16  17
ENDBRANCH  15  16
ENDBRANCH  14  15
ENDBRANCH  13  14
ENDBRANCH  12  13
ENDBRANCH   1  12
TORSDOF 16
ENDMDL
MODEL 5
REMARK VINA RESULT:    -4.177      1.932      4.595
REMARK INTER + INTRA:         -10.826
REMARK INTER:                  -8.152
REMARK INTRA:                  -2.674
REMARK UNBOUND:                -2.743
REMARK SMILES CCCCCCCCCCCCCCCCCC(=O)[O-]
REMARK SMILES IDX 10 1 11 2 12 3 13 4 14 5 15 6 16 7 17 8 18 9 19 10 20 11
REMARK SMILES IDX 9 12 8 13 7 14 6 15 5 16 4 17 3 18 2 19 1 20
REMARK H PARENT
REMARK Flexibility Score: inf
ROOT
ATOM      1  C   UNL     1       4.254  -7.894  30.625  1.00  0.00     0.000 C 
ENDROOT
BRANCH   1   2
ATOM      2  C   UNL     1       4.613  -8.768  29.412  1.00  0.00     0.000 C 
BRANCH   2   3
ATOM      3  C   UNL     1       6.054  -9.299  29.473  1.00  0.00     0.000 C 
BRANCH   3   4
ATOM      4  C   UNL     1       6.539  -9.861  28.125  1.00  0.00     0.000 C 
BRANCH   4   5
ATOM      5  C   UNL     1       7.784  -9.141  27.561  1.00  0.00     0.000 C 
BRANCH   5   6
ATOM      6  C   UNL     1       7.493  -8.444  26.220  1.00  0.00     0.000 C 
BRANCH   6   7
ATOM      7  C   UNL     1       5.994  -8.440  25.866  1.00  0.00     0.006 C 
BRANCH   7   8
ATOM      8  C   UNL     1       5.703  -8.595  24.364  1.00  0.00     0.053 C 
BRANCH   8   9
ATOM      9  C   UNL     1       6.395  -7.547  23.546  1.00  0.00     0.041 C 
ATOM     10  O   UNL     1       7.184  -7.883  22.623  1.00  0.00    -0.550 OA
ATOM     11  O   UNL     1       6.180  -6.201  23.811  1.00  0.00    -0.550 OA
ENDBRANCH   8   9
ENDBRANCH   7   8
ENDBRANCH   6   7
ENDBRANCH   5   6
ENDBRANCH   4   5
ENDBRANCH   3   4
ENDBRANCH   2   3
ENDBRANCH   1   2
BRANCH   1  12
ATOM     12  C   UNL     1       5.391  -7.830  31.658  1.00  0.00     0.000 C 
BRANCH  12  13
ATOM     13  C   UNL     1       5.469  -6.470  32.376  1.00  0.00    -0.000 C 
BRANCH  13  14
ATOM     14  C   UNL     1       6.642  -5.565  31.946  1.00  0.00    -0.000 C 
BRANCH  14  15
ATOM     15  C   UNL     1       7.936  -6.303  31.556  1.00  0.00    -0.000 C 
BRANCH  15  16
ATOM     16  C   UNL     1       8.162  -6.349  30.036  1.00  0.00    -0.000 C 
BRANCH  16  17
ATOM     17  C   UNL     1       7.432  -5.217  29.290  1.00  0.00    -0.000 C 
BRANCH  17  18
ATOM     18  C   UNL     1       6.318  -5.673  28.326  1.00  0.00    -0.000 C 
BRANCH  18  19
ATOM     19  C   UNL     1       6.040  -4.718  27.153  1.00  0.00    -0.003 C 
ATOM     20  C   UNL     1       7.174  -3.722  26.914  1.00  0.00     0.004 C 
ENDBRANCH  18  19
ENDBRANCH  17  18
ENDBRANCH  16  17
ENDBRANCH  15  16
ENDBRANCH  14  15
ENDBRANCH  13  14
ENDBRANCH  12  13
ENDBRANCH   1  12
TORSDOF 16
ENDMDL
MODEL 6
REMARK VINA RESULT:    -4.127      2.992      4.944
REMARK INTER + INTRA:         -10.729
REMARK INTER:                  -7.955
REMARK INTRA:                  -2.774
REMARK UNBOUND:                -2.743
REMARK SMILES CCCCCCCCCCCCCCCCCC(=O)[O-]
REMARK SMILES IDX 10 1 11 2 12 3 13 4 14 5 15 6 16 7 17 8 18 9 19 10 20 11
REMARK SMILES IDX 9 12 8 13 7 14 6 15 5 16 4 17 3 18 2 19 1 20
REMARK H PARENT
REMARK Flexibility Score: inf
ROOT
ATOM      1  C   UNL     1       6.955  -4.672  27.180  1.00  0.00     0.000 C 
ENDROOT
BRANCH   1   2
ATOM      2  C   UNL     1       5.628  -5.236  27.711  1.00  0.00     0.000 C 
BRANCH   2   3
ATOM      3  C   UNL     1       5.348  -6.662  27.208  1.00  0.00     0.000 C 
BRANCH   3   4
ATOM      4  C   UNL     1       6.383  -7.143  26.177  1.00  0.00     0.000 C 
BRANCH   4   5
ATOM      5  C   UNL     1       6.714  -8.648  26.282  1.00  0.00     0.000 C 
BRANCH   5   6
ATOM      6  C   UNL     1       7.974  -8.908  27.127  1.00  0.00     0.000 C 
BRANCH   6   7
ATOM      7  C   UNL     1       9.191  -9.308  26.272  1.00  0.00     0.006 C 
BRANCH   7   8
ATOM      8  C   UNL     1       8.834 -10.093  24.999  1.00  0.00     0.053 C 
BRANCH   8   9
ATOM      9  C   UNL     1       9.728  -9.739  23.850  1.00  0.00     0.041 C 
ATOM     10  O   UNL     1       9.241  -9.546  22.705  1.00  0.00    -0.550 OA
ATOM     11  O   UNL     1      11.100  -9.637  24.040  1.00  0.00    -0.550 OA
ENDBRANCH   8   9
ENDBRANCH   7   8
ENDBRANCH   6   7
ENDBRANCH   5   6
ENDBRANCH   4   5
ENDBRANCH   3   4
ENDBRANCH   2   3
ENDBRANCH   1   2
BRANCH   1  12
ATOM     12  C   UNL     1       8.007  -4.506  28.289  1.00  0.00     0.000 C 
BRANCH  12  13
ATOM     13  C   UNL     1       8.748  -5.818  28.608  1.00  0.00    -0.000 C 
BRANCH  13  14
ATOM     14  C   UNL     1       8.501  -6.387  30.021  1.00  0.00    -0.000 C 
BRANCH  14  15
ATOM     15  C   UNL     1       7.472  -5.618  30.870  1.00  0.00    -0.000 C 
BRANCH  15  16
ATOM     16  C   UNL     1       6.209  -6.443  31.168  1.00  0.00    -0.000 C 
BRANCH  16  17
ATOM     17  C   UNL     1       6.312  -7.895  30.666  1.00  0.00    -0.000 C 
BRANCH  17  18
ATOM     18  C   UNL     1       4.973  -8.552  30.272  1.00  0.00    -0.000 C 
BRANCH  18  19
ATOM     19  C   UNL     1       5.093  -9.750  29.314  1.00  0.00    -0.003 C 
ATOM     20  C   UNL     1       3.816 -10.004  28.515  1.00  0.00     0.004 C 
ENDBRANCH  18  19
ENDBRANCH  17  18
ENDBRANCH  16  17
ENDBRANCH  15  16
ENDBRANCH  14  15
ENDBRANCH  13  14
ENDBRANCH  12  13
ENDBRANCH   1  12
TORSDOF 16
ENDMDL
MODEL 7
REMARK VINA RESULT:    -4.116      1.363      3.233
REMARK INTER + INTRA:         -10.708
REMARK INTER:                  -8.533
REMARK INTRA:                  -2.175
REMARK UNBOUND:                -2.743
REMARK SMILES CCCCCCCCCCCCCCCCCC(=O)[O-]
REMARK SMILES IDX 10 1 11 2 12 3 13 4 14 5 15 6 16 7 17 8 18 9 19 10 20 11
REMARK SMILES IDX 9 12 8 13 7 14 6 15 5 16 4 17 3 18 2 19 1 20
REMARK H PARENT
REMARK Flexibility Score: inf
ROOT
ATOM      1  C   UNL     1       7.857  -6.045  29.194  1.00  0.00     0.000 C 
ENDROOT
BRANCH   1   2
ATOM      2  C   UNL     1       6.561  -5.224  29.087  1.00  0.00     0.000 C 
BRANCH   2   3
ATOM      3  C   UNL     1       5.593  -5.784  28.033  1.00  0.00     0.000 C 
BRANCH   3   4
ATOM      4  C   UNL     1       6.231  -5.894  26.637  1.00  0.00     0.000 C 
BRANCH   4   5
ATOM      5  C   UNL     1       6.324  -7.342  26.107  1.00  0.00     0.000 C 
BRANCH   5   6
ATOM      6  C   UNL     1       5.736  -7.481  24.692  1.00  0.00     0.000 C 
BRANCH   6   7
ATOM      7  C   UNL     1       4.431  -6.682  24.510  1.00  0.00     0.006 C 
BRANCH   7   8
ATOM      8  C   UNL     1       4.501  -5.607  23.413  1.00  0.00     0.053 C 
BRANCH   8   9
ATOM      9  C   UNL     1       3.604  -5.923  22.256  1.00  0.00     0.041 C 
ATOM     10  O   UNL     1       4.097  -6.231  21.138  1.00  0.00    -0.550 OA
ATOM     11  O   UNL     1       2.225  -5.864  22.406  1.00  0.00    -0.550 OA
ENDBRANCH   8   9
ENDBRANCH   7   8
ENDBRANCH   6   7
ENDBRANCH   5   6
ENDBRANCH   4   5
ENDBRANCH   3   4
ENDBRANCH   2   3
ENDBRANCH   1   2
BRANCH   1  12
ATOM     12  C   UNL     1       8.239  -6.349  30.652  1.00  0.00     0.000 C 
BRANCH  12  13
ATOM     13  C   UNL     1       7.610  -5.361  31.652  1.00  0.00    -0.000 C 
BRANCH  13  14
ATOM     14  C   UNL     1       6.776  -6.007  32.778  1.00  0.00    -0.000 C 
BRANCH  14  15
ATOM     15  C   UNL     1       5.270  -5.688  32.749  1.00  0.00    -0.000 C 
BRANCH  15  16
ATOM     16  C   UNL     1       4.403  -6.930  32.477  1.00  0.00    -0.000 C 
BRANCH  16  17
ATOM     17  C   UNL     1       5.040  -7.891  31.457  1.00  0.00    -0.000 C 
BRANCH  17  18
ATOM     18  C   UNL     1       4.151  -8.255  30.251  1.00  0.00    -0.000 C 
BRANCH  18  19
ATOM     19  C   UNL     1       4.708  -9.366  29.343  1.00  0.00    -0.003 C 
ATOM     20  C   UNL     1       6.233  -9.344  29.243  1.00  0.00     0.004 C 
ENDBRANCH  18  19
ENDBRANCH  17  18
ENDBRANCH  16  17
ENDBRANCH  15  16
ENDBRANCH  14  15
ENDBRANCH  13  14
ENDBRANCH  12  13
ENDBRANCH   1  12
TORSDOF 16
ENDMDL
MODEL 8
REMARK VINA RESULT:    -4.063      3.720      6.249
REMARK INTER + INTRA:         -10.607
REMARK INTER:                  -7.735
REMARK INTRA:                  -2.871
REMARK UNBOUND:                -2.743
REMARK SMILES CCCCCCCCCCCCCCCCCC(=O)[O-]
REMARK SMILES IDX 10 1 11 2 12 3 13 4 14 5 15 6 16 7 17 8 18 9 19 10 20 11
REMARK SMILES IDX 9 12 8 13 7 14 6 15 5 16 4 17 3 18 2 19 1 20
REMARK H PARENT
REMARK Flexibility Score: inf
ROOT
ATOM      1  C   UNL     1       4.297  -7.898  25.463  1.00  0.00     0.000 C 
ENDROOT
BRANCH   1   2
ATOM      2  C   UNL     1       3.138  -8.244  26.412  1.00  0.00     0.000 C 
BRANCH   2   3
ATOM      3  C   UNL     1       3.581  -8.322  27.882  1.00  0.00     0.000 C 
BRANCH   3   4
ATOM      4  C   UNL     1       4.485  -9.534  28.168  1.00  0.00     0.000 C 
BRANCH   4   5
ATOM      5  C   UNL     1       5.319  -9.397  29.461  1.00  0.00     0.000 C 
BRANCH   5   6
ATOM      6  C   UNL     1       4.829  -8.239  30.349  1.00  0.00     0.000 C 
BRANCH   6   7
ATOM      7  C   UNL     1       5.905  -7.751  31.336  1.00  0.00     0.006 C 
BRANCH   7   8
ATOM      8  C   UNL     1       6.003  -6.221  31.454  1.00  0.00     0.053 C 
BRANCH   8   9
ATOM      9  C   UNL     1       7.307  -5.784  32.049  1.00  0.00     0.041 C 
ATOM     10  O   UNL     1       7.344  -4.813  32.849  1.00  0.00    -0.550 OA
ATOM     11  O   UNL     1       8.483  -6.441  31.709  1.00  0.00    -0.550 OA
ENDBRANCH   8   9
ENDBRANCH   7   8
ENDBRANCH   6   7
ENDBRANCH   5   6
ENDBRANCH   4   5
ENDBRANCH   3   4
ENDBRANCH   2   3
ENDBRANCH   1   2
BRANCH   1  12
ATOM     12  C   UNL     1       4.726  -9.097  24.601  1.00  0.00     0.000 C 
BRANCH  12  13
ATOM     13  C   UNL     1       6.225  -9.421  24.732  1.00  0.00    -0.000 C 
BRANCH  13  14
ATOM     14  C   UNL     1       7.037  -8.438  25.602  1.00  0.00    -0.000 C 
BRANCH  14  15
ATOM     15  C   UNL     1       7.976  -9.091  26.633  1.00  0.00    -0.000 C 
BRANCH  15  16
ATOM     16  C   UNL     1       8.705  -8.061  27.512  1.00  0.00    -0.000 C 
BRANCH  16  17
ATOM     17  C   UNL     1       7.741  -7.085  28.212  1.00  0.00    -0.000 C 
BRANCH  17  18
ATOM     18  C   UNL     1       8.191  -5.611  28.227  1.00  0.00    -0.000 C 
BRANCH  18  19
ATOM     19  C   UNL     1       7.070  -4.585  27.985  1.00  0.00    -0.003 C 
ATOM     20  C   UNL     1       5.686  -5.226  27.892  1.00  0.00     0.004 C 
ENDBRANCH  18  19
ENDBRANCH  17  18
ENDBRANCH  16  17
ENDBRANCH  15  16
ENDBRANCH  14  15
ENDBRANCH  13  14
ENDBRANCH  12  13
ENDBRANCH   1  12
TORSDOF 16
ENDMDL
MODEL 9
REMARK VINA RESULT:    -4.021     11.384     13.145
REMARK INTER + INTRA:         -10.525
REMARK INTER:                  -8.125
REMARK INTRA:                  -2.400
REMARK UNBOUND:                -2.743
REMARK SMILES CCCCCCCCCCCCCCCCCC(=O)[O-]
REMARK SMILES IDX 10 1 11 2 12 3 13 4 14 5 15 6 16 7 17 8 18 9 19 10 20 11
REMARK SMILES IDX 9 12 8 13 7 14 6 15 5 16 4 17 3 18 2 19 1 20
REMARK H PARENT
REMARK Flexibility Score: inf
ROOT
ATOM      1  C   UNL     1      13.205  -7.159  18.437  1.00  0.00     0.000 C 
ENDROOT
BRANCH   1   2
ATOM      2  C   UNL     1      14.220  -6.609  17.422  1.00  0.00     0.000 C 
BRANCH   2   3
ATOM      3  C   UNL     1      15.643  -7.138  17.663  1.00  0.00     0.000 C 
BRANCH   3   4
ATOM      4  C   UNL     1      15.700  -8.672  17.764  1.00  0.00     0.000 C 
BRANCH   4   5
ATOM      5  C   UNL     1      15.835  -9.381  16.398  1.00  0.00     0.000 C 
BRANCH   5   6
ATOM      6  C   UNL     1      14.470  -9.798  15.823  1.00  0.00     0.000 C 
BRANCH   6   7
ATOM      7  C   UNL     1      14.293  -9.380  14.351  1.00  0.00     0.006 C 
BRANCH   7   8
ATOM      8  C   UNL     1      13.626  -8.007  14.164  1.00  0.00     0.053 C 
BRANCH   8   9
ATOM      9  C   UNL     1      14.451  -7.093  13.310  1.00  0.00     0.041 C 
ATOM     10  O   UNL     1      13.960  -6.017  12.875  1.00  0.00    -0.550 OA
ATOM     11  O   UNL     1      15.757  -7.434  12.982  1.00  0.00    -0.550 OA
ENDBRANCH   8   9
ENDBRANCH   7   8
ENDBRANCH   6   7
ENDBRANCH   5   6
ENDBRANCH   4   5
ENDBRANCH   3   4
ENDBRANCH   2   3
ENDBRANCH   1   2
BRANCH   1  12
ATOM     12  C   UNL     1      12.033  -7.887  17.758  1.00  0.00     0.000 C 
BRANCH  12  13
ATOM     13  C   UNL     1      11.624  -9.175  18.495  1.00  0.00    -0.000 C 
BRANCH  13  14
ATOM     14  C   UNL     1      12.793 -10.020  19.044  1.00  0.00    -0.000 C 
BRANCH  14  15
ATOM     15  C   UNL     1      12.926 -10.045  20.578  1.00  0.00    -0.000 C 
BRANCH  15  16
ATOM     16  C   UNL     1      14.369  -9.810  21.055  1.00  0.00    -0.000 C 
BRANCH  16  17
ATOM     17  C   UNL     1      14.684  -8.321  21.293  1.00  0.00    -0.000 C 
BRANCH  17  18
ATOM     18  C   UNL     1      16.162  -8.000  21.594  1.00  0.00    -0.000 C 
BRANCH  18  19
ATOM     19  C   UNL     1      16.683  -8.535  22.939  1.00  0.00    -0.003 C 
ATOM     20  C   UNL     1      15.995  -7.892  24.143  1.00  0.00     0.004 C 
ENDBRANCH  18  19
ENDBRANCH  17  18
ENDBRANCH  16  17
ENDBRANCH  15  16
ENDBRANCH  14  15
ENDBRANCH  13  14
ENDBRANCH  12  13
ENDBRANCH   1  12
TORSDOF 16
ENDMDL
