MODEL 1
REMARK VINA RESULT:    -6.298      0.000      0.000
REMARK INTER + INTRA:         -10.777
REMARK INTER:                  -9.059
REMARK INTRA:                  -1.718
REMARK UNBOUND:                -1.718
REMARK SMILES O=c1c(O[C@@H]2O[C@@H](CO)[C@H](O)[C@@H](O)[C@@H]2O)c(-c2ccc(O)c(O)c2)oc2cc(O)cc(O)c12
REMARK SMILES IDX 4 1 3 2 16 3 25 4 2 5 26 6 1 7 33 8 27 9 31 10 28 11 30 12
REMARK SMILES IDX 17 13 18 14 19 15 20 16 24 17 22 18 21 19 23 21 32 23 29 25
REMARK SMILES IDX 5 27 14 28 6 29 12 30 7 31 10 32 15 33 13 35 8 37 9 38 11 40
REMARK H PARENT 21 20 23 22 32 24 29 26 15 34 13 36 9 39 11 41
REMARK Flexibility Score: inf
ROOT
ATOM      1  O   UNL     1      17.740  28.809  30.762  1.00  0.00    -0.454 OA
ENDROOT
BRANCH   1   2
ATOM      2  C   UNL     1      18.676  29.011  31.950  1.00  0.00     0.214 A 
ATOM      3  C   UNL     1      18.231  29.320  33.274  1.00  0.00     0.180 A 
ATOM      4  O   UNL     1      18.711  28.559  34.303  1.00  0.00    -0.452 OA
ATOM      5  C   UNL     1      19.947  28.303  31.900  1.00  0.00     0.239 A 
ATOM      6  C   UNL     1      19.503  27.494  34.087  1.00  0.00     0.146 A 
ATOM      7  O   UNL     1      21.020  28.918  31.743  1.00  0.00    -0.285 OA
ATOM      8  C   UNL     1      20.091  27.291  32.792  1.00  0.00     0.111 A 
ATOM      9  C   UNL     1      19.934  26.585  35.147  1.00  0.00     0.094 A 
ATOM     10  C   UNL     1      20.768  26.151  32.427  1.00  0.00     0.134 A 
ATOM     11  C   UNL     1      20.791  25.445  34.743  1.00  0.00     0.123 A 
ATOM     12  C   UNL     1      21.062  25.203  33.369  1.00  0.00     0.093 A 
BRANCH   3  13
ATOM     13  C   UNL     1      17.680  30.715  33.636  1.00  0.00     0.025 A 
ATOM     14  C   UNL     1      16.862  31.060  34.737  1.00  0.00     0.016 A 
ATOM     15  C   UNL     1      16.271  32.354  34.854  1.00  0.00     0.051 A 
ATOM     16  C   UNL     1      16.387  33.168  33.691  1.00  0.00     0.157 A 
ATOM     17  C   UNL     1      18.125  31.726  32.852  1.00  0.00     0.062 A 
ATOM     18  C   UNL     1      17.512  33.038  32.857  1.00  0.00     0.158 A 
BRANCH  16  19
ATOM     19  O   UNL     1      15.420  34.169  33.543  1.00  0.00    -0.504 OA
ATOM     20  H   UNL     1      15.273  34.682  32.638  1.00  0.00     0.293 HD
ENDBRANCH  16  19
BRANCH  18  21
ATOM     21  O   UNL     1      17.703  33.802  31.690  1.00  0.00    -0.504 OA
ATOM     22  H   UNL     1      17.667  34.854  31.830  1.00  0.00     0.293 HD
ENDBRANCH  18  21
ENDBRANCH   3  13
BRANCH  10  23
ATOM     23  O   UNL     1      21.064  25.855  31.036  1.00  0.00    -0.507 OA
ATOM     24  H   UNL     1      21.919  25.498  30.603  1.00  0.00     0.293 HD
ENDBRANCH  10  23
BRANCH  11  25
ATOM     25  O   UNL     1      21.242  24.583  35.720  1.00  0.00    -0.508 OA
ATOM     26  H   UNL     1      20.764  23.699  35.794  1.00  0.00     0.293 HD
ENDBRANCH  11  25
ENDBRANCH   1   2
BRANCH   1  27
ATOM     27  C   UNL     1      18.169  29.078  29.309  1.00  0.00     0.339 C 
ATOM     28  C   UNL     1      19.290  30.072  28.504  1.00  0.00     0.214 C 
ATOM     29  O   UNL     1      18.045  27.894  28.612  1.00  0.00    -0.332 OA
ATOM     30  C   UNL     1      19.883  29.505  26.982  1.00  0.00     0.180 C 
ATOM     31  C   UNL     1      19.271  27.306  28.224  1.00  0.00     0.179 C 
ATOM     32  C   UNL     1      19.635  27.883  26.800  1.00  0.00     0.177 C 
BRANCH  28  33
ATOM     33  O   UNL     1      20.306  30.593  29.330  1.00  0.00    -0.384 OA
ATOM     34  H   UNL     1      20.855  29.805  29.676  1.00  0.00     0.211 HD
ENDBRANCH  28  33
BRANCH  30  35
ATOM     35  O   UNL     1      20.183  30.467  25.875  1.00  0.00    -0.387 OA
ATOM     36  H   UNL     1      20.912  29.972  25.304  1.00  0.00     0.211 HD
ENDBRANCH  30  35
BRANCH  31  37
ATOM     37  C   UNL     1      18.772  25.774  28.358  1.00  0.00     0.191 C 
BRANCH  37  38
ATOM     38  O   UNL     1      19.557  24.826  27.654  1.00  0.00    -0.394 OA
ATOM     39  H   UNL     1      19.746  25.057  26.673  1.00  0.00     0.210 HD
ENDBRANCH  37  38
ENDBRANCH  31  37
BRANCH  32  40
ATOM     40  O   UNL     1      20.841  27.340  26.203  1.00  0.00    -0.387 OA
ATOM     41  H   UNL     1      20.472  26.859  25.389  1.00  0.00     0.211 HD
ENDBRANCH  32  40
ENDBRANCH   1  27
TORSDOF 12
ENDMDL
MODEL 2
REMARK VINA RESULT:    -6.204      2.212      8.115
REMARK INTER + INTRA:         -10.642
REMARK INTER:                  -8.790
REMARK INTRA:                  -1.852
REMARK UNBOUND:                -1.718
REMARK SMILES O=c1c(O[C@@H]2O[C@@H](CO)[C@H](O)[C@@H](O)[C@@H]2O)c(-c2ccc(O)c(O)c2)oc2cc(O)cc(O)c12
REMARK SMILES IDX 4 1 3 2 16 3 25 4 2 5 26 6 1 7 33 8 27 9 31 10 28 11 30 12
REMARK SMILES IDX 17 13 18 14 19 15 20 16 24 17 22 18 21 19 23 21 32 23 29 25
REMARK SMILES IDX 5 27 14 28 6 29 12 30 7 31 10 32 15 33 13 35 8 37 9 38 11 40
REMARK H PARENT 21 20 23 22 32 24 29 26 15 34 13 36 9 39 11 41
REMARK Flexibility Score: inf
ROOT
ATOM      1  O   UNL     1      17.550  29.557  31.432  1.00  0.00    -0.454 OA
ENDROOT
BRANCH   1   2
ATOM      2  C   UNL     1      18.514  30.137  30.400  1.00  0.00     0.214 A 
ATOM      3  C   UNL     1      18.354  29.989  28.986  1.00  0.00     0.180 A 
ATOM      4  O   UNL     1      18.426  31.114  28.214  1.00  0.00    -0.452 OA
ATOM      5  C   UNL     1      19.240  31.336  30.794  1.00  0.00     0.239 A 
ATOM      6  C   UNL     1      18.551  32.339  28.756  1.00  0.00     0.146 A 
ATOM      7  O   UNL     1      20.467  31.304  31.009  1.00  0.00    -0.285 OA
ATOM      8  C   UNL     1      18.888  32.475  30.146  1.00  0.00     0.111 A 
ATOM      9  C   UNL     1      18.506  33.573  27.973  1.00  0.00     0.094 A 
ATOM     10  C   UNL     1      18.868  33.670  30.826  1.00  0.00     0.134 A 
ATOM     11  C   UNL     1      18.637  34.845  28.723  1.00  0.00     0.123 A 
ATOM     12  C   UNL     1      18.680  34.839  30.143  1.00  0.00     0.093 A 
BRANCH   3  13
ATOM     13  C   UNL     1      18.613  28.641  28.281  1.00  0.00     0.025 A 
ATOM     14  C   UNL     1      17.865  28.060  27.230  1.00  0.00     0.016 A 
ATOM     15  C   UNL     1      18.105  26.722  26.792  1.00  0.00     0.051 A 
ATOM     16  C   UNL     1      18.979  25.970  27.627  1.00  0.00     0.157 A 
ATOM     17  C   UNL     1      19.749  28.007  28.660  1.00  0.00     0.062 A 
ATOM     18  C   UNL     1      20.012  26.623  28.323  1.00  0.00     0.158 A 
BRANCH  16  19
ATOM     19  O   UNL     1      18.835  24.579  27.573  1.00  0.00    -0.504 OA
ATOM     20  H   UNL     1      19.542  23.957  27.107  1.00  0.00     0.293 HD
ENDBRANCH  16  19
BRANCH  18  21
ATOM     21  O   UNL     1      20.918  25.955  29.170  1.00  0.00    -0.504 OA
ATOM     22  H   UNL     1      21.806  25.613  28.698  1.00  0.00     0.293 HD
ENDBRANCH  18  21
ENDBRANCH   3  13
BRANCH  10  23
ATOM     23  O   UNL     1      18.903  33.718  32.278  1.00  0.00    -0.507 OA
ATOM     24  H   UNL     1      19.683  33.892  32.915  1.00  0.00     0.293 HD
ENDBRANCH  10  23
BRANCH  11  25
ATOM     25  O   UNL     1      18.630  36.028  28.015  1.00  0.00    -0.508 OA
ATOM     26  H   UNL     1      19.516  36.336  27.647  1.00  0.00     0.293 HD
ENDBRANCH  11  25
ENDBRANCH   1   2
BRANCH   1  27
ATOM     27  C   UNL     1      17.993  29.153  32.849  1.00  0.00     0.339 C 
ATOM     28  C   UNL     1      19.426  28.643  33.609  1.00  0.00     0.214 C 
ATOM     29  O   UNL     1      17.257  29.901  33.744  1.00  0.00    -0.332 OA
ATOM     30  C   UNL     1      19.584  28.999  35.294  1.00  0.00     0.180 C 
ATOM     31  C   UNL     1      17.999  30.878  34.448  1.00  0.00     0.179 C 
ATOM     32  C   UNL     1      18.542  30.191  35.763  1.00  0.00     0.177 C 
BRANCH  28  33
ATOM     33  O   UNL     1      20.601  28.910  32.879  1.00  0.00    -0.384 OA
ATOM     34  H   UNL     1      20.653  28.228  32.120  1.00  0.00     0.211 HD
ENDBRANCH  28  33
BRANCH  30  35
ATOM     35  O   UNL     1      20.280  28.044  36.212  1.00  0.00    -0.387 OA
ATOM     36  H   UNL     1      19.843  28.232  37.148  1.00  0.00     0.211 HD
ENDBRANCH  30  35
BRANCH  31  37
ATOM     37  C   UNL     1      16.801  31.957  34.551  1.00  0.00     0.191 C 
BRANCH  37  38
ATOM     38  O   UNL     1      16.423  32.549  33.319  1.00  0.00    -0.394 OA
ATOM     39  H   UNL     1      15.841  33.389  33.399  1.00  0.00     0.210 HD
ENDBRANCH  37  38
ENDBRANCH  31  37
BRANCH  32  40
ATOM     40  O   UNL     1      19.281  31.065  36.655  1.00  0.00    -0.387 OA
ATOM     41  H   UNL     1      19.992  30.438  37.018  1.00  0.00     0.211 HD
ENDBRANCH  32  40
ENDBRANCH   1  27
TORSDOF 12
ENDMDL
MODEL 3
REMARK VINA RESULT:    -6.034      2.019      7.314
REMARK INTER + INTRA:         -10.397
REMARK INTER:                  -9.219
REMARK INTRA:                  -1.177
REMARK UNBOUND:                -1.718
REMARK SMILES O=c1c(O[C@@H]2O[C@@H](CO)[C@H](O)[C@@H](O)[C@@H]2O)c(-c2ccc(O)c(O)c2)oc2cc(O)cc(O)c12
REMARK SMILES IDX 4 1 3 2 16 3 25 4 2 5 26 6 1 7 33 8 27 9 31 10 28 11 30 12
REMARK SMILES IDX 17 13 18 14 19 15 20 16 24 17 22 18 21 19 23 21 32 23 29 25
REMARK SMILES IDX 5 27 14 28 6 29 12 30 7 31 10 32 15 33 13 35 8 37 9 38 11 40
REMARK H PARENT 21 20 23 22 32 24 29 26 15 34 13 36 9 39 11 41
REMARK Flexibility Score: inf
ROOT
ATOM      1  O   UNL     1      17.518  31.078  32.493  1.00  0.00    -0.454 OA
ENDROOT
BRANCH   1   2
ATOM      2  C   UNL     1      18.577  30.097  31.999  1.00  0.00     0.214 A 
ATOM      3  C   UNL     1      18.689  28.745  32.455  1.00  0.00     0.180 A 
ATOM      4  O   UNL     1      18.769  27.758  31.513  1.00  0.00    -0.452 OA
ATOM      5  C   UNL     1      19.081  30.312  30.650  1.00  0.00     0.239 A 
ATOM      6  C   UNL     1      18.655  28.022  30.199  1.00  0.00     0.146 A 
ATOM      7  O   UNL     1      20.245  30.710  30.454  1.00  0.00    -0.285 OA
ATOM      8  C   UNL     1      18.723  29.379  29.733  1.00  0.00     0.111 A 
ATOM      9  C   UNL     1      18.610  26.982  29.172  1.00  0.00     0.094 A 
ATOM     10  C   UNL     1      18.446  29.761  28.441  1.00  0.00     0.134 A 
ATOM     11  C   UNL     1      18.461  27.436  27.769  1.00  0.00     0.123 A 
ATOM     12  C   UNL     1      18.251  28.811  27.478  1.00  0.00     0.093 A 
BRANCH   3  13
ATOM     13  C   UNL     1      19.221  28.410  33.864  1.00  0.00     0.025 A 
ATOM     14  C   UNL     1      19.141  29.209  35.029  1.00  0.00     0.016 A 
ATOM     15  C   UNL     1      19.836  28.860  36.226  1.00  0.00     0.051 A 
ATOM     16  C   UNL     1      20.767  27.793  36.082  1.00  0.00     0.157 A 
ATOM     17  C   UNL     1      19.729  27.162  34.001  1.00  0.00     0.062 A 
ATOM     18  C   UNL     1      20.519  26.769  35.150  1.00  0.00     0.158 A 
BRANCH  16  19
ATOM     19  O   UNL     1      21.814  27.761  37.011  1.00  0.00    -0.504 OA
ATOM     20  H   UNL     1      22.254  26.864  37.335  1.00  0.00     0.293 HD
ENDBRANCH  16  19
BRANCH  18  21
ATOM     21  O   UNL     1      21.388  25.681  34.946  1.00  0.00    -0.504 OA
ATOM     22  H   UNL     1      22.108  25.530  35.711  1.00  0.00     0.293 HD
ENDBRANCH  18  21
ENDBRANCH   3  13
BRANCH  10  23
ATOM     23  O   UNL     1      18.217  31.153  28.093  1.00  0.00    -0.507 OA
ATOM     24  H   UNL     1      18.041  31.963  28.690  1.00  0.00     0.293 HD
ENDBRANCH  10  23
BRANCH  11  25
ATOM     25  O   UNL     1      18.445  26.486  26.769  1.00  0.00    -0.508 OA
ATOM     26  H   UNL     1      19.342  26.167  26.440  1.00  0.00     0.293 HD
ENDBRANCH  11  25
ENDBRANCH   1   2
BRANCH   1  27
ATOM     27  C   UNL     1      17.861  32.319  33.335  1.00  0.00     0.339 C 
ATOM     28  C   UNL     1      17.821  34.007  33.141  1.00  0.00     0.214 C 
ATOM     29  O   UNL     1      17.583  32.018  34.653  1.00  0.00    -0.332 OA
ATOM     30  C   UNL     1      17.621  34.954  34.574  1.00  0.00     0.180 C 
ATOM     31  C   UNL     1      16.474  32.706  35.196  1.00  0.00     0.179 C 
ATOM     32  C   UNL     1      17.020  34.051  35.819  1.00  0.00     0.177 C 
BRANCH  28  33
ATOM     33  O   UNL     1      17.016  34.453  32.072  1.00  0.00    -0.384 OA
ATOM     34  H   UNL     1      16.046  34.433  32.389  1.00  0.00     0.211 HD
ENDBRANCH  28  33
BRANCH  30  35
ATOM     35  O   UNL     1      18.304  36.279  34.714  1.00  0.00    -0.387 OA
ATOM     36  H   UNL     1      17.523  36.939  34.953  1.00  0.00     0.211 HD
ENDBRANCH  30  35
BRANCH  31  37
ATOM     37  C   UNL     1      15.998  31.511  36.175  1.00  0.00     0.191 C 
BRANCH  37  38
ATOM     38  O   UNL     1      15.149  31.912  37.238  1.00  0.00    -0.394 OA
ATOM     39  H   UNL     1      14.611  31.157  37.676  1.00  0.00     0.210 HD
ENDBRANCH  37  38
ENDBRANCH  31  37
BRANCH  32  40
ATOM     40  O   UNL     1      16.026  34.869  36.487  1.00  0.00    -0.387 OA
ATOM     41  H   UNL     1      16.596  35.397  37.140  1.00  0.00     0.211 HD
ENDBRANCH  32  40
ENDBRANCH   1  27
TORSDOF 12
ENDMDL
MODEL 4
REMARK VINA RESULT:    -6.012      2.474      8.358
REMARK INTER + INTRA:         -10.365
REMARK INTER:                  -8.762
REMARK INTRA:                  -1.603
REMARK UNBOUND:                -1.718
REMARK SMILES O=c1c(O[C@@H]2O[C@@H](CO)[C@H](O)[C@@H](O)[C@@H]2O)c(-c2ccc(O)c(O)c2)oc2cc(O)cc(O)c12
REMARK SMILES IDX 4 1 3 2 16 3 25 4 2 5 26 6 1 7 33 8 27 9 31 10 28 11 30 12
REMARK SMILES IDX 17 13 18 14 19 15 20 16 24 17 22 18 21 19 23 21 32 23 29 25
REMARK SMILES IDX 5 27 14 28 6 29 12 30 7 31 10 32 15 33 13 35 8 37 9 38 11 40
REMARK H PARENT 21 20 23 22 32 24 29 26 15 34 13 36 9 39 11 41
REMARK Flexibility Score: inf
ROOT
ATOM      1  O   UNL     1      17.263  29.831  32.149  1.00  0.00    -0.454 OA
ENDROOT
BRANCH   1   2
ATOM      2  C   UNL     1      18.322  30.120  31.089  1.00  0.00     0.214 A 
ATOM      3  C   UNL     1      18.308  29.558  29.773  1.00  0.00     0.180 A 
ATOM      4  O   UNL     1      18.449  30.410  28.714  1.00  0.00    -0.452 OA
ATOM      5  C   UNL     1      18.994  31.408  31.178  1.00  0.00     0.239 A 
ATOM      6  C   UNL     1      18.507  31.743  28.879  1.00  0.00     0.146 A 
ATOM      7  O   UNL     1      20.192  31.488  31.509  1.00  0.00    -0.285 OA
ATOM      8  C   UNL     1      18.700  32.293  30.192  1.00  0.00     0.111 A 
ATOM      9  C   UNL     1      18.532  32.691  27.766  1.00  0.00     0.094 A 
ATOM     10  C   UNL     1      18.600  33.633  30.484  1.00  0.00     0.134 A 
ATOM     11  C   UNL     1      18.576  34.131  28.116  1.00  0.00     0.123 A 
ATOM     12  C   UNL     1      18.473  34.543  29.471  1.00  0.00     0.093 A 
BRANCH   3  13
ATOM     13  C   UNL     1      18.650  28.074  29.525  1.00  0.00     0.025 A 
ATOM     14  C   UNL     1      19.411  27.214  30.353  1.00  0.00     0.016 A 
ATOM     15  C   UNL     1      19.806  25.913  29.918  1.00  0.00     0.051 A 
ATOM     16  C   UNL     1      19.570  25.650  28.538  1.00  0.00     0.157 A 
ATOM     17  C   UNL     1      18.060  27.525  28.436  1.00  0.00     0.062 A 
ATOM     18  C   UNL     1      18.474  26.249  27.891  1.00  0.00     0.158 A 
BRANCH  16  19
ATOM     19  O   UNL     1      20.379  24.670  27.952  1.00  0.00    -0.504 OA
ATOM     20  H   UNL     1      21.056  24.886  27.179  1.00  0.00     0.293 HD
ENDBRANCH  16  19
BRANCH  18  21
ATOM     21  O   UNL     1      18.171  26.043  26.532  1.00  0.00    -0.504 OA
ATOM     22  H   UNL     1      18.863  25.435  26.004  1.00  0.00     0.293 HD
ENDBRANCH  18  21
ENDBRANCH   3  13
BRANCH  10  23
ATOM     23  O   UNL     1      18.487  34.106  31.854  1.00  0.00    -0.507 OA
ATOM     24  H   UNL     1      18.775  33.667  32.731  1.00  0.00     0.293 HD
ENDBRANCH  10  23
BRANCH  11  25
ATOM     25  O   UNL     1      18.631  35.054  27.092  1.00  0.00    -0.508 OA
ATOM     26  H   UNL     1      18.118  34.826  26.256  1.00  0.00     0.293 HD
ENDBRANCH  11  25
ENDBRANCH   1   2
BRANCH   1  27
ATOM     27  C   UNL     1      17.523  30.009  33.655  1.00  0.00     0.339 C 
ATOM     28  C   UNL     1      18.856  29.933  34.707  1.00  0.00     0.214 C 
ATOM     29  O   UNL     1      16.647  30.969  34.118  1.00  0.00    -0.332 OA
ATOM     30  C   UNL     1      18.772  30.890  36.144  1.00  0.00     0.180 C 
ATOM     31  C   UNL     1      17.252  32.193  34.487  1.00  0.00     0.179 C 
ATOM     32  C   UNL     1      17.635  32.081  36.015  1.00  0.00     0.177 C 
BRANCH  28  33
ATOM     33  O   UNL     1      20.110  30.012  34.068  1.00  0.00    -0.384 OA
ATOM     34  H   UNL     1      20.396  30.992  34.072  1.00  0.00     0.211 HD
ENDBRANCH  28  33
BRANCH  30  35
ATOM     35  O   UNL     1      19.370  30.397  37.425  1.00  0.00    -0.387 OA
ATOM     36  H   UNL     1      20.402  30.385  37.232  1.00  0.00     0.211 HD
ENDBRANCH  30  35
BRANCH  31  37
ATOM     37  C   UNL     1      16.013  33.132  34.045  1.00  0.00     0.191 C 
BRANCH  37  38
ATOM     38  O   UNL     1      15.644  34.120  34.994  1.00  0.00    -0.394 OA
ATOM     39  H   UNL     1      15.193  34.954  34.603  1.00  0.00     0.210 HD
ENDBRANCH  37  38
ENDBRANCH  31  37
BRANCH  32  40
ATOM     40  O   UNL     1      18.215  33.278  36.596  1.00  0.00    -0.387 OA
ATOM     41  H   UNL     1      17.495  33.968  36.411  1.00  0.00     0.211 HD
ENDBRANCH  32  40
ENDBRANCH   1  27
TORSDOF 12
ENDMDL
MODEL 5
REMARK VINA RESULT:    -5.883      2.438      8.443
REMARK INTER + INTRA:         -10.180
REMARK INTER:                  -8.516
REMARK INTRA:                  -1.663
REMARK UNBOUND:                -1.718
REMARK SMILES O=c1c(O[C@@H]2O[C@@H](CO)[C@H](O)[C@@H](O)[C@@H]2O)c(-c2ccc(O)c(O)c2)oc2cc(O)cc(O)c12
REMARK SMILES IDX 4 1 3 2 16 3 25 4 2 5 26 6 1 7 33 8 27 9 31 10 28 11 30 12
REMARK SMILES IDX 17 13 18 14 19 15 20 16 24 17 22 18 21 19 23 21 32 23 29 25
REMARK SMILES IDX 5 27 14 28 6 29 12 30 7 31 10 32 15 33 13 35 8 37 9 38 11 40
REMARK H PARENT 21 20 23 22 32 24 29 26 15 34 13 36 9 39 11 41
REMARK Flexibility Score: inf
ROOT
ATOM      1  O   UNL     1      16.525  31.826  33.250  1.00  0.00    -0.454 OA
ENDROOT
BRANCH   1   2
ATOM      2  C   UNL     1      17.854  31.585  32.540  1.00  0.00     0.214 A 
ATOM      3  C   UNL     1      18.215  30.347  31.921  1.00  0.00     0.180 A 
ATOM      4  O   UNL     1      18.678  30.387  30.636  1.00  0.00    -0.452 OA
ATOM      5  C   UNL     1      18.496  32.753  31.953  1.00  0.00     0.239 A 
ATOM      6  C   UNL     1      18.712  31.531  29.930  1.00  0.00     0.146 A 
ATOM      7  O   UNL     1      19.546  33.219  32.435  1.00  0.00    -0.285 OA
ATOM      8  C   UNL     1      18.522  32.790  30.598  1.00  0.00     0.111 A 
ATOM      9  C   UNL     1      19.081  31.594  28.517  1.00  0.00     0.094 A 
ATOM     10  C   UNL     1      18.368  33.989  29.943  1.00  0.00     0.134 A 
ATOM     11  C   UNL     1      19.049  32.930  27.876  1.00  0.00     0.123 A 
ATOM     12  C   UNL     1      18.562  34.057  28.591  1.00  0.00     0.093 A 
BRANCH   3  13
ATOM     13  C   UNL     1      18.584  29.104  32.757  1.00  0.00     0.025 A 
ATOM     14  C   UNL     1      18.398  28.913  34.147  1.00  0.00     0.016 A 
ATOM     15  C   UNL     1      18.951  27.787  34.828  1.00  0.00     0.051 A 
ATOM     16  C   UNL     1      19.867  27.017  34.057  1.00  0.00     0.157 A 
ATOM     17  C   UNL     1      19.045  28.050  32.041  1.00  0.00     0.062 A 
ATOM     18  C   UNL     1      19.696  26.916  32.664  1.00  0.00     0.158 A 
BRANCH  16  19
ATOM     19  O   UNL     1      20.807  26.273  34.781  1.00  0.00    -0.504 OA
ATOM     20  H   UNL     1      21.278  25.421  34.385  1.00  0.00     0.293 HD
ENDBRANCH  16  19
BRANCH  18  21
ATOM     21  O   UNL     1      20.556  26.177  31.830  1.00  0.00    -0.504 OA
ATOM     22  H   UNL     1      20.428  25.123  31.872  1.00  0.00     0.293 HD
ENDBRANCH  18  21
ENDBRANCH   3  13
BRANCH  10  23
ATOM     23  O   UNL     1      17.868  35.169  30.628  1.00  0.00    -0.507 OA
ATOM     24  H   UNL     1      17.833  35.390  31.625  1.00  0.00     0.293 HD
ENDBRANCH  10  23
BRANCH  11  25
ATOM     25  O   UNL     1      19.420  33.033  26.552  1.00  0.00    -0.508 OA
ATOM     26  H   UNL     1      19.379  32.186  26.008  1.00  0.00     0.293 HD
ENDBRANCH  11  25
ENDBRANCH   1   2
BRANCH   1  27
ATOM     27  C   UNL     1      16.406  32.674  34.529  1.00  0.00     0.339 C 
ATOM     28  C   UNL     1      17.440  33.214  35.767  1.00  0.00     0.214 C 
ATOM     29  O   UNL     1      15.444  33.636  34.304  1.00  0.00    -0.332 OA
ATOM     30  C   UNL     1      17.005  34.688  36.558  1.00  0.00     0.180 C 
ATOM     31  C   UNL     1      15.940  34.956  34.203  1.00  0.00     0.179 C 
ATOM     32  C   UNL     1      15.936  35.568  35.659  1.00  0.00     0.177 C 
BRANCH  28  33
ATOM     33  O   UNL     1      18.812  33.143  35.454  1.00  0.00    -0.384 OA
ATOM     34  H   UNL     1      18.899  33.198  34.438  1.00  0.00     0.211 HD
ENDBRANCH  28  33
BRANCH  30  35
ATOM     35  O   UNL     1      17.270  34.876  38.020  1.00  0.00    -0.387 OA
ATOM     36  H   UNL     1      17.213  35.915  38.154  1.00  0.00     0.211 HD
ENDBRANCH  30  35
BRANCH  31  37
ATOM     37  C   UNL     1      14.849  35.463  33.124  1.00  0.00     0.191 C 
BRANCH  37  38
ATOM     38  O   UNL     1      15.354  35.667  31.814  1.00  0.00    -0.394 OA
ATOM     39  H   UNL     1      15.394  36.644  31.508  1.00  0.00     0.210 HD
ENDBRANCH  37  38
ENDBRANCH  31  37
BRANCH  32  40
ATOM     40  O   UNL     1      16.356  36.954  35.747  1.00  0.00    -0.387 OA
ATOM     41  H   UNL     1      17.326  36.896  35.457  1.00  0.00     0.211 HD
ENDBRANCH  32  40
ENDBRANCH   1  27
TORSDOF 12
ENDMDL
MODEL 6
REMARK VINA RESULT:    -5.854      1.762      5.951
REMARK INTER + INTRA:         -10.139
REMARK INTER:                  -8.136
REMARK INTRA:                  -2.003
REMARK UNBOUND:                -1.718
REMARK SMILES O=c1c(O[C@@H]2O[C@@H](CO)[C@H](O)[C@@H](O)[C@@H]2O)c(-c2ccc(O)c(O)c2)oc2cc(O)cc(O)c12
REMARK SMILES IDX 4 1 3 2 16 3 25 4 2 5 26 6 1 7 33 8 27 9 31 10 28 11 30 12
REMARK SMILES IDX 17 13 18 14 19 15 20 16 24 17 22 18 21 19 23 21 32 23 29 25
REMARK SMILES IDX 5 27 14 28 6 29 12 30 7 31 10 32 15 33 13 35 8 37 9 38 11 40
REMARK H PARENT 21 20 23 22 32 24 29 26 15 34 13 36 9 39 11 41
REMARK Flexibility Score: inf
ROOT
ATOM      1  O   UNL     1      21.269  29.428  31.606  1.00  0.00    -0.454 OA
ENDROOT
BRANCH   1   2
ATOM      2  C   UNL     1      19.885  30.065  31.510  1.00  0.00     0.214 A 
ATOM      3  C   UNL     1      18.690  29.338  31.209  1.00  0.00     0.180 A 
ATOM      4  O   UNL     1      17.614  29.509  32.033  1.00  0.00    -0.452 OA
ATOM      5  C   UNL     1      19.667  31.263  32.307  1.00  0.00     0.239 A 
ATOM      6  C   UNL     1      17.687  30.260  33.147  1.00  0.00     0.146 A 
ATOM      7  O   UNL     1      19.538  32.380  31.769  1.00  0.00    -0.285 OA
ATOM      8  C   UNL     1      18.815  31.125  33.354  1.00  0.00     0.111 A 
ATOM      9  C   UNL     1      16.599  30.366  34.117  1.00  0.00     0.094 A 
ATOM     10  C   UNL     1      19.063  31.794  34.529  1.00  0.00     0.134 A 
ATOM     11  C   UNL     1      16.843  31.219  35.305  1.00  0.00     0.123 A 
ATOM     12  C   UNL     1      18.124  31.793  35.524  1.00  0.00     0.093 A 
BRANCH   3  13
ATOM     13  C   UNL     1      18.404  28.809  29.788  1.00  0.00     0.025 A 
ATOM     14  C   UNL     1      17.713  27.626  29.432  1.00  0.00     0.016 A 
ATOM     15  C   UNL     1      17.676  27.158  28.083  1.00  0.00     0.051 A 
ATOM     16  C   UNL     1      18.556  27.838  27.194  1.00  0.00     0.157 A 
ATOM     17  C   UNL     1      18.778  29.636  28.783  1.00  0.00     0.062 A 
ATOM     18  C   UNL     1      18.848  29.198  27.404  1.00  0.00     0.158 A 
BRANCH  16  19
ATOM     19  O   UNL     1      18.956  27.123  26.059  1.00  0.00    -0.504 OA
ATOM     20  H   UNL     1      19.957  26.855  25.886  1.00  0.00     0.293 HD
ENDBRANCH  16  19
BRANCH  18  21
ATOM     21  O   UNL     1      19.707  29.943  26.574  1.00  0.00    -0.504 OA
ATOM     22  H   UNL     1      20.605  29.449  26.297  1.00  0.00     0.293 HD
ENDBRANCH  18  21
ENDBRANCH   3  13
BRANCH  10  23
ATOM     23  O   UNL     1      20.357  32.393  34.804  1.00  0.00    -0.507 OA
ATOM     24  H   UNL     1      21.262  31.957  34.991  1.00  0.00     0.293 HD
ENDBRANCH  10  23
BRANCH  11  25
ATOM     25  O   UNL     1      15.828  31.367  36.227  1.00  0.00    -0.508 OA
ATOM     26  H   UNL     1      15.837  32.216  36.770  1.00  0.00     0.293 HD
ENDBRANCH  11  25
ENDBRANCH   1   2
BRANCH   1  27
ATOM     27  C   UNL     1      21.484  27.970  32.047  1.00  0.00     0.339 C 
ATOM     28  C   UNL     1      20.774  26.880  33.143  1.00  0.00     0.214 C 
ATOM     29  O   UNL     1      21.932  27.265  30.948  1.00  0.00    -0.332 OA
ATOM     30  C   UNL     1      20.899  25.198  32.763  1.00  0.00     0.180 C 
ATOM     31  C   UNL     1      21.006  26.332  30.427  1.00  0.00     0.179 C 
ATOM     32  C   UNL     1      21.258  24.961  31.169  1.00  0.00     0.177 C 
BRANCH  28  33
ATOM     33  O   UNL     1      19.486  27.250  33.581  1.00  0.00    -0.384 OA
ATOM     34  H   UNL     1      18.810  26.707  33.042  1.00  0.00     0.211 HD
ENDBRANCH  28  33
BRANCH  30  35
ATOM     35  O   UNL     1      21.061  24.182  33.850  1.00  0.00    -0.387 OA
ATOM     36  H   UNL     1      22.078  24.247  34.104  1.00  0.00     0.211 HD
ENDBRANCH  30  35
BRANCH  31  37
ATOM     37  C   UNL     1      21.455  26.495  28.883  1.00  0.00     0.191 C 
BRANCH  37  38
ATOM     38  O   UNL     1      20.921  25.523  27.999  1.00  0.00    -0.394 OA
ATOM     39  H   UNL     1      21.073  25.709  27.002  1.00  0.00     0.210 HD
ENDBRANCH  37  38
ENDBRANCH  31  37
BRANCH  32  40
ATOM     40  O   UNL     1      20.436  23.854  30.716  1.00  0.00    -0.387 OA
ATOM     41  H   UNL     1      21.134  23.205  30.370  1.00  0.00     0.211 HD
ENDBRANCH  32  40
ENDBRANCH   1  27
TORSDOF 12
ENDMDL
MODEL 7
REMARK VINA RESULT:    -5.718      2.016      6.765
REMARK INTER + INTRA:          -9.942
REMARK INTER:                  -8.173
REMARK INTRA:                  -1.769
REMARK UNBOUND:                -1.718
REMARK SMILES O=c1c(O[C@@H]2O[C@@H](CO)[C@H](O)[C@@H](O)[C@@H]2O)c(-c2ccc(O)c(O)c2)oc2cc(O)cc(O)c12
REMARK SMILES IDX 4 1 3 2 16 3 25 4 2 5 26 6 1 7 33 8 27 9 31 10 28 11 30 12
REMARK SMILES IDX 17 13 18 14 19 15 20 16 24 17 22 18 21 19 23 21 32 23 29 25
REMARK SMILES IDX 5 27 14 28 6 29 12 30 7 31 10 32 15 33 13 35 8 37 9 38 11 40
REMARK H PARENT 21 20 23 22 32 24 29 26 15 34 13 36 9 39 11 41
REMARK Flexibility Score: inf
ROOT
ATOM      1  O   UNL     1      19.472  31.169  32.219  1.00  0.00    -0.454 OA
ENDROOT
BRANCH   1   2
ATOM      2  C   UNL     1      19.159  29.689  32.420  1.00  0.00     0.214 A 
ATOM      3  C   UNL     1      19.678  28.644  31.592  1.00  0.00     0.180 A 
ATOM      4  O   UNL     1      20.270  27.577  32.207  1.00  0.00    -0.452 OA
ATOM      5  C   UNL     1      18.848  29.271  33.779  1.00  0.00     0.239 A 
ATOM      6  C   UNL     1      20.450  27.537  33.539  1.00  0.00     0.146 A 
ATOM      7  O   UNL     1      17.695  28.922  34.097  1.00  0.00    -0.285 OA
ATOM      8  C   UNL     1      19.778  28.488  34.381  1.00  0.00     0.111 A 
ATOM      9  C   UNL     1      21.188  26.474  34.219  1.00  0.00     0.094 A 
ATOM     10  C   UNL     1      20.032  28.637  35.724  1.00  0.00     0.134 A 
ATOM     11  C   UNL     1      21.316  26.585  35.692  1.00  0.00     0.123 A 
ATOM     12  C   UNL     1      20.841  27.741  36.367  1.00  0.00     0.093 A 
BRANCH   3  13
ATOM     13  C   UNL     1      19.166  28.424  30.153  1.00  0.00     0.025 A 
ATOM     14  C   UNL     1      18.676  29.401  29.254  1.00  0.00     0.016 A 
ATOM     15  C   UNL     1      18.062  29.038  28.017  1.00  0.00     0.051 A 
ATOM     16  C   UNL     1      17.790  27.648  27.873  1.00  0.00     0.157 A 
ATOM     17  C   UNL     1      19.304  27.161  29.684  1.00  0.00     0.062 A 
ATOM     18  C   UNL     1      18.637  26.704  28.482  1.00  0.00     0.158 A 
BRANCH  16  19
ATOM     19  O   UNL     1      16.760  27.311  26.988  1.00  0.00    -0.504 OA
ATOM     20  H   UNL     1      15.950  27.952  26.793  1.00  0.00     0.293 HD
ENDBRANCH  16  19
BRANCH  18  21
ATOM     21  O   UNL     1      18.438  25.313  28.391  1.00  0.00    -0.504 OA
ATOM     22  H   UNL     1      18.298  24.942  27.405  1.00  0.00     0.293 HD
ENDBRANCH  18  21
ENDBRANCH   3  13
BRANCH  10  23
ATOM     23  O   UNL     1      19.573  29.803  36.459  1.00  0.00    -0.507 OA
ATOM     24  H   UNL     1      20.002  30.723  36.574  1.00  0.00     0.293 HD
ENDBRANCH  10  23
BRANCH  11  25
ATOM     25  O   UNL     1      21.979  25.585  36.371  1.00  0.00    -0.508 OA
ATOM     26  H   UNL     1      22.702  25.879  37.008  1.00  0.00     0.293 HD
ENDBRANCH  11  25
ENDBRANCH   1   2
BRANCH   1  27
ATOM     27  C   UNL     1      18.600  32.291  32.810  1.00  0.00     0.339 C 
ATOM     28  C   UNL     1      16.970  32.507  33.242  1.00  0.00     0.214 C 
ATOM     29  O   UNL     1      19.389  33.018  33.677  1.00  0.00    -0.332 OA
ATOM     30  C   UNL     1      16.640  33.652  34.495  1.00  0.00     0.180 C 
ATOM     31  C   UNL     1      19.057  32.870  35.044  1.00  0.00     0.179 C 
ATOM     32  C   UNL     1      17.990  33.983  35.387  1.00  0.00     0.177 C 
BRANCH  28  33
ATOM     33  O   UNL     1      16.241  31.309  33.388  1.00  0.00    -0.384 OA
ATOM     34  H   UNL     1      15.684  31.390  34.240  1.00  0.00     0.211 HD
ENDBRANCH  28  33
BRANCH  30  35
ATOM     35  O   UNL     1      15.401  34.491  34.453  1.00  0.00    -0.387 OA
ATOM     36  H   UNL     1      15.362  34.928  35.407  1.00  0.00     0.211 HD
ENDBRANCH  30  35
BRANCH  31  37
ATOM     37  C   UNL     1      20.567  33.018  35.600  1.00  0.00     0.191 C 
BRANCH  37  38
ATOM     38  O   UNL     1      21.411  31.908  35.339  1.00  0.00    -0.394 OA
ATOM     39  H   UNL     1      20.925  31.029  35.131  1.00  0.00     0.210 HD
ENDBRANCH  37  38
ENDBRANCH  31  37
BRANCH  32  40
ATOM     40  O   UNL     1      17.572  34.030  36.775  1.00  0.00    -0.387 OA
ATOM     41  H   UNL     1      16.694  34.536  36.711  1.00  0.00     0.211 HD
ENDBRANCH  32  40
ENDBRANCH   1  27
TORSDOF 12
ENDMDL
MODEL 8
REMARK VINA RESULT:    -5.708      2.264      5.689
REMARK INTER + INTRA:          -9.929
REMARK INTER:                  -8.039
REMARK INTRA:                  -1.889
REMARK UNBOUND:                -1.718
REMARK SMILES O=c1c(O[C@@H]2O[C@@H](CO)[C@H](O)[C@@H](O)[C@@H]2O)c(-c2ccc(O)c(O)c2)oc2cc(O)cc(O)c12
REMARK SMILES IDX 4 1 3 2 16 3 25 4 2 5 26 6 1 7 33 8 27 9 31 10 28 11 30 12
REMARK SMILES IDX 17 13 18 14 19 15 20 16 24 17 22 18 21 19 23 21 32 23 29 25
REMARK SMILES IDX 5 27 14 28 6 29 12 30 7 31 10 32 15 33 13 35 8 37 9 38 11 40
REMARK H PARENT 21 20 23 22 32 24 29 26 15 34 13 36 9 39 11 41
REMARK Flexibility Score: inf
ROOT
ATOM      1  O   UNL     1      20.845  30.582  30.935  1.00  0.00    -0.454 OA
ENDROOT
BRANCH   1   2
ATOM      2  C   UNL     1      20.005  29.308  30.959  1.00  0.00     0.214 A 
ATOM      3  C   UNL     1      18.602  29.281  31.236  1.00  0.00     0.180 A 
ATOM      4  O   UNL     1      17.792  28.608  30.367  1.00  0.00    -0.452 OA
ATOM      5  C   UNL     1      20.465  28.213  30.116  1.00  0.00     0.239 A 
ATOM      6  C   UNL     1      18.267  28.061  29.234  1.00  0.00     0.146 A 
ATOM      7  O   UNL     1      20.937  27.173  30.614  1.00  0.00    -0.285 OA
ATOM      8  C   UNL     1      19.685  27.930  29.043  1.00  0.00     0.111 A 
ATOM      9  C   UNL     1      17.415  27.443  28.220  1.00  0.00     0.094 A 
ATOM     10  C   UNL     1      20.268  27.547  27.857  1.00  0.00     0.134 A 
ATOM     11  C   UNL     1      18.091  26.903  27.016  1.00  0.00     0.123 A 
ATOM     12  C   UNL     1      19.486  27.100  26.828  1.00  0.00     0.093 A 
BRANCH   3  13
ATOM     13  C   UNL     1      18.057  29.514  32.660  1.00  0.00     0.025 A 
ATOM     14  C   UNL     1      16.916  30.264  33.036  1.00  0.00     0.016 A 
ATOM     15  C   UNL     1      16.627  30.551  34.404  1.00  0.00     0.051 A 
ATOM     16  C   UNL     1      17.671  30.223  35.315  1.00  0.00     0.157 A 
ATOM     17  C   UNL     1      18.700  28.831  33.638  1.00  0.00     0.062 A 
ATOM     18  C   UNL     1      18.518  29.133  35.043  1.00  0.00     0.158 A 
BRANCH  16  19
ATOM     19  O   UNL     1      17.683  30.935  36.519  1.00  0.00    -0.504 OA
ATOM     20  H   UNL     1      17.117  31.809  36.664  1.00  0.00     0.293 HD
ENDBRANCH  16  19
BRANCH  18  21
ATOM     21  O   UNL     1      19.574  28.743  35.889  1.00  0.00    -0.504 OA
ATOM     22  H   UNL     1      20.548  28.910  35.500  1.00  0.00     0.293 HD
ENDBRANCH  18  21
ENDBRANCH   3  13
BRANCH  10  23
ATOM     23  O   UNL     1      21.687  27.734  27.613  1.00  0.00    -0.507 OA
ATOM     24  H   UNL     1      22.433  27.046  27.490  1.00  0.00     0.293 HD
ENDBRANCH  10  23
BRANCH  11  25
ATOM     25  O   UNL     1      17.323  26.285  26.052  1.00  0.00    -0.508 OA
ATOM     26  H   UNL     1      16.430  26.707  25.852  1.00  0.00     0.293 HD
ENDBRANCH  11  25
ENDBRANCH   1   2
BRANCH   1  27
ATOM     27  C   UNL     1      20.298  31.930  30.434  1.00  0.00     0.339 C 
ATOM     28  C   UNL     1      19.223  32.470  29.232  1.00  0.00     0.214 C 
ATOM     29  O   UNL     1      20.206  32.772  31.523  1.00  0.00    -0.332 OA
ATOM     30  C   UNL     1      18.407  33.965  29.530  1.00  0.00     0.180 C 
ATOM     31  C   UNL     1      18.885  33.076  31.925  1.00  0.00     0.179 C 
ATOM     32  C   UNL     1      18.441  34.367  31.131  1.00  0.00     0.177 C 
BRANCH  28  33
ATOM     33  O   UNL     1      18.369  31.471  28.721  1.00  0.00    -0.384 OA
ATOM     34  H   UNL     1      18.957  30.708  28.383  1.00  0.00     0.211 HD
ENDBRANCH  28  33
BRANCH  30  35
ATOM     35  O   UNL     1      18.106  34.906  28.406  1.00  0.00    -0.387 OA
ATOM     36  H   UNL     1      17.470  34.353  27.779  1.00  0.00     0.211 HD
ENDBRANCH  30  35
BRANCH  31  37
ATOM     37  C   UNL     1      19.211  33.186  33.504  1.00  0.00     0.191 C 
BRANCH  37  38
ATOM     38  O   UNL     1      18.186  33.775  34.287  1.00  0.00    -0.394 OA
ATOM     39  H   UNL     1      18.161  33.480  35.268  1.00  0.00     0.210 HD
ENDBRANCH  37  38
ENDBRANCH  31  37
BRANCH  32  40
ATOM     40  O   UNL     1      17.122  34.873  31.464  1.00  0.00    -0.387 OA
ATOM     41  H   UNL     1      17.249  35.168  32.426  1.00  0.00     0.211 HD
ENDBRANCH  32  40
ENDBRANCH   1  27
TORSDOF 12
ENDMDL
MODEL 9
REMARK VINA RESULT:    -5.706      2.278      5.002
REMARK INTER + INTRA:          -9.926
REMARK INTER:                  -8.542
REMARK INTRA:                  -1.384
REMARK UNBOUND:                -1.718
REMARK SMILES O=c1c(O[C@@H]2O[C@@H](CO)[C@H](O)[C@@H](O)[C@@H]2O)c(-c2ccc(O)c(O)c2)oc2cc(O)cc(O)c12
REMARK SMILES IDX 4 1 3 2 16 3 25 4 2 5 26 6 1 7 33 8 27 9 31 10 28 11 30 12
REMARK SMILES IDX 17 13 18 14 19 15 20 16 24 17 22 18 21 19 23 21 32 23 29 25
REMARK SMILES IDX 5 27 14 28 6 29 12 30 7 31 10 32 15 33 13 35 8 37 9 38 11 40
REMARK H PARENT 21 20 23 22 32 24 29 26 15 34 13 36 9 39 11 41
REMARK Flexibility Score: inf
ROOT
ATOM      1  O   UNL     1      18.646  29.244  29.626  1.00  0.00    -0.454 OA
ENDROOT
BRANCH   1   2
ATOM      2  C   UNL     1      18.937  30.386  30.596  1.00  0.00     0.214 A 
ATOM      3  C   UNL     1      18.360  31.691  30.490  1.00  0.00     0.180 A 
ATOM      4  O   UNL     1      17.776  32.223  31.604  1.00  0.00    -0.452 OA
ATOM      5  C   UNL     1      19.302  30.006  31.953  1.00  0.00     0.239 A 
ATOM      6  C   UNL     1      17.656  31.521  32.745  1.00  0.00     0.146 A 
ATOM      7  O   UNL     1      20.461  30.173  32.379  1.00  0.00    -0.285 OA
ATOM      8  C   UNL     1      18.385  30.294  32.910  1.00  0.00     0.111 A 
ATOM      9  C   UNL     1      16.928  32.008  33.916  1.00  0.00     0.094 A 
ATOM     10  C   UNL     1      18.196  29.425  33.960  1.00  0.00     0.134 A 
ATOM     11  C   UNL     1      16.871  31.105  35.090  1.00  0.00     0.123 A 
ATOM     12  C   UNL     1      17.399  29.789  35.010  1.00  0.00     0.093 A 
BRANCH   3  13
ATOM     13  C   UNL     1      18.801  32.682  29.393  1.00  0.00     0.025 A 
ATOM     14  C   UNL     1      18.562  34.076  29.342  1.00  0.00     0.016 A 
ATOM     15  C   UNL     1      18.866  34.846  28.180  1.00  0.00     0.051 A 
ATOM     16  C   UNL     1      19.209  34.078  27.031  1.00  0.00     0.157 A 
ATOM     17  C   UNL     1      19.590  32.152  28.428  1.00  0.00     0.062 A 
ATOM     18  C   UNL     1      19.867  32.844  27.186  1.00  0.00     0.158 A 
BRANCH  16  19
ATOM     19  O   UNL     1      18.995  34.695  25.793  1.00  0.00    -0.504 OA
ATOM     20  H   UNL     1      18.516  35.626  25.701  1.00  0.00     0.293 HD
ENDBRANCH  16  19
BRANCH  18  21
ATOM     21  O   UNL     1      20.239  32.024  26.104  1.00  0.00    -0.504 OA
ATOM     22  H   UNL     1      20.880  31.215  26.352  1.00  0.00     0.293 HD
ENDBRANCH  18  21
ENDBRANCH   3  13
BRANCH  10  23
ATOM     23  O   UNL     1      18.711  28.067  33.923  1.00  0.00    -0.507 OA
ATOM     24  H   UNL     1      19.488  27.641  34.432  1.00  0.00     0.293 HD
ENDBRANCH  10  23
BRANCH  11  25
ATOM     25  O   UNL     1      16.219  31.543  36.224  1.00  0.00    -0.508 OA
ATOM     26  H   UNL     1      15.414  32.132  36.080  1.00  0.00     0.293 HD
ENDBRANCH  11  25
ENDBRANCH   1   2
BRANCH   1  27
ATOM     27  C   UNL     1      19.642  28.102  29.362  1.00  0.00     0.339 C 
ATOM     28  C   UNL     1      20.406  26.880  30.265  1.00  0.00     0.214 C 
ATOM     29  O   UNL     1      19.405  27.629  28.088  1.00  0.00    -0.332 OA
ATOM     30  C   UNL     1      20.856  25.445  29.413  1.00  0.00     0.180 C 
ATOM     31  C   UNL     1      18.840  26.334  28.034  1.00  0.00     0.179 C 
ATOM     32  C   UNL     1      20.038  25.305  27.985  1.00  0.00     0.177 C 
BRANCH  28  33
ATOM     33  O   UNL     1      19.804  26.613  31.512  1.00  0.00    -0.384 OA
ATOM     34  H   UNL     1      19.398  25.677  31.462  1.00  0.00     0.211 HD
ENDBRANCH  28  33
BRANCH  30  35
ATOM     35  O   UNL     1      22.107  24.706  29.772  1.00  0.00    -0.387 OA
ATOM     36  H   UNL     1      21.865  23.700  29.592  1.00  0.00     0.211 HD
ENDBRANCH  30  35
BRANCH  31  37
ATOM     37  C   UNL     1      17.959  26.591  26.704  1.00  0.00     0.191 C 
BRANCH  37  38
ATOM     38  O   UNL     1      16.805  27.393  26.898  1.00  0.00    -0.394 OA
ATOM     39  H   UNL     1      16.566  28.011  26.116  1.00  0.00     0.210 HD
ENDBRANCH  37  38
ENDBRANCH  31  37
BRANCH  32  40
ATOM     40  O   UNL     1      19.650  23.912  27.860  1.00  0.00    -0.387 OA
ATOM     41  H   UNL     1      18.815  23.876  28.436  1.00  0.00     0.211 HD
ENDBRANCH  32  40
ENDBRANCH   1  27
TORSDOF 12
ENDMDL
