MODEL 1
REMARK VINA RESULT:    -3.793      0.000      0.000
REMARK INTER + INTRA:         -11.559
REMARK INTER:                  -8.228
REMARK INTRA:                  -3.331
REMARK UNBOUND:                -3.331
REMARK SMILES CCCCCCCCCCCCCCCCCCCCCC(=O)[O-]
REMARK SMILES IDX 12 1 11 2 10 3 9 4 8 5 7 6 6 7 5 8 4 9 3 10 2 11 1 12 13 13
REMARK SMILES IDX 14 14 15 15 16 16 17 17 18 18 19 19 20 20 21 21 22 22 23 23
REMARK SMILES IDX 24 24
REMARK H PARENT
REMARK Flexibility Score: inf
ROOT
ATOM      1  C   UNL     1      22.823   2.383  29.551  1.00  0.00     0.000 C 
ENDROOT
BRANCH   1   2
ATOM      2  C   UNL     1      22.636   1.929  31.009  1.00  0.00     0.000 C 
BRANCH   2   3
ATOM      3  C   UNL     1      23.529   2.700  31.992  1.00  0.00     0.000 C 
BRANCH   3   4
ATOM      4  C   UNL     1      22.919   2.705  33.401  1.00  0.00    -0.000 C 
BRANCH   4   5
ATOM      5  C   UNL     1      21.395   2.926  33.397  1.00  0.00    -0.000 C 
BRANCH   5   6
ATOM      6  C   UNL     1      20.925   4.217  34.090  1.00  0.00    -0.000 C 
BRANCH   6   7
ATOM      7  C   UNL     1      20.098   5.126  33.163  1.00  0.00    -0.000 C 
BRANCH   7   8
ATOM      8  C   UNL     1      20.072   4.623  31.711  1.00  0.00    -0.000 C 
BRANCH   8   9
ATOM      9  C   UNL     1      21.032   5.407  30.799  1.00  0.00    -0.000 C 
BRANCH   9  10
ATOM     10  C   UNL     1      21.782   6.529  31.542  1.00  0.00    -0.000 C 
BRANCH  10  11
ATOM     11  C   UNL     1      23.310   6.353  31.614  1.00  0.00    -0.003 C 
ATOM     12  C   UNL     1      23.843   6.324  33.045  1.00  0.00     0.004 C 
ENDBRANCH  10  11
ENDBRANCH   9  10
ENDBRANCH   8   9
ENDBRANCH   7   8
ENDBRANCH   6   7
ENDBRANCH   5   6
ENDBRANCH   4   5
ENDBRANCH   3   4
ENDBRANCH   2   3
ENDBRANCH   1   2
BRANCH   1  13
ATOM     13  C   UNL     1      23.960   3.400  29.331  1.00  0.00     0.000 C 
BRANCH  13  14
ATOM     14  C   UNL     1      23.978   4.017  27.916  1.00  0.00     0.000 C 
BRANCH  14  15
ATOM     15  C   UNL     1      23.270   5.382  27.866  1.00  0.00     0.000 C 
BRANCH  15  16
ATOM     16  C   UNL     1      23.457   6.101  26.520  1.00  0.00     0.000 C 
BRANCH  16  17
ATOM     17  C   UNL     1      23.946   7.551  26.687  1.00  0.00     0.000 C 
BRANCH  17  18
ATOM     18  C   UNL     1      24.578   7.804  28.067  1.00  0.00     0.000 C 
BRANCH  18  19
ATOM     19  C   UNL     1      23.670   8.647  28.981  1.00  0.00     0.000 C 
BRANCH  19  20
ATOM     20  C   UNL     1      24.193  10.081  29.172  1.00  0.00     0.006 C 
BRANCH  20  21
ATOM     21  C   UNL     1      23.068  11.098  29.401  1.00  0.00     0.053 C 
BRANCH  21  22
ATOM     22  C   UNL     1      22.892  11.962  28.193  1.00  0.00     0.041 C 
ATOM     23  O   UNL     1      23.577  13.011  28.058  1.00  0.00    -0.550 OA
ATOM     24  O   UNL     1      22.014  11.579  27.187  1.00  0.00    -0.550 OA
ENDBRANCH  21  22
ENDBRANCH  20  21
ENDBRANCH  19  20
ENDBRANCH  18  19
ENDBRANCH  17  18
ENDBRANCH  16  17
ENDBRANCH  15  16
ENDBRANCH  14  15
ENDBRANCH  13  14
ENDBRANCH   1  13
TORSDOF 20
ENDMDL
MODEL 2
REMARK VINA RESULT:    -3.619     15.905     18.758
REMARK INTER + INTRA:         -11.182
REMARK INTER:                  -7.933
REMARK INTRA:                  -3.249
REMARK UNBOUND:                -3.331
REMARK SMILES CCCCCCCCCCCCCCCCCCCCCC(=O)[O-]
REMARK SMILES IDX 12 1 11 2 10 3 9 4 8 5 7 6 6 7 5 8 4 9 3 10 2 11 1 12 13 13
REMARK SMILES IDX 14 14 15 15 16 16 17 17 18 18 19 19 20 20 21 21 22 22 23 23
REMARK SMILES IDX 24 24
REMARK H PARENT
REMARK Flexibility Score: inf
ROOT
ATOM      1  C   UNL     1      10.441  17.076  23.758  1.00  0.00     0.000 C 
ENDROOT
BRANCH   1   2
ATOM      2  C   UNL     1      11.119  18.088  22.819  1.00  0.00     0.000 C 
BRANCH   2   3
ATOM      3  C   UNL     1      10.118  19.038  22.145  1.00  0.00     0.000 C 
BRANCH   3   4
ATOM      4  C   UNL     1      10.086  20.399  22.855  1.00  0.00    -0.000 C 
BRANCH   4   5
ATOM      5  C   UNL     1       8.729  20.704  23.514  1.00  0.00    -0.000 C 
BRANCH   5   6
ATOM      6  C   UNL     1       8.618  20.291  24.993  1.00  0.00    -0.000 C 
BRANCH   6   7
ATOM      7  C   UNL     1       9.983  20.239  25.702  1.00  0.00    -0.000 C 
BRANCH   7   8
ATOM      8  C   UNL     1       9.853  20.206  27.233  1.00  0.00    -0.000 C 
BRANCH   8   9
ATOM      9  C   UNL     1      10.564  18.993  27.858  1.00  0.00    -0.000 C 
BRANCH   9  10
ATOM     10  C   UNL     1      10.071  17.650  27.287  1.00  0.00    -0.000 C 
BRANCH  10  11
ATOM     11  C   UNL     1       8.915  16.998  28.066  1.00  0.00    -0.003 C 
ATOM     12  C   UNL     1       8.945  17.316  29.560  1.00  0.00     0.004 C 
ENDBRANCH  10  11
ENDBRANCH   9  10
ENDBRANCH   8   9
ENDBRANCH   7   8
ENDBRANCH   6   7
ENDBRANCH   5   6
ENDBRANCH   4   5
ENDBRANCH   3   4
ENDBRANCH   2   3
ENDBRANCH   1   2
BRANCH   1  13
ATOM     13  C   UNL     1       8.964  16.782  23.434  1.00  0.00     0.000 C 
BRANCH  13  14
ATOM     14  C   UNL     1       8.294  15.799  24.420  1.00  0.00     0.000 C 
BRANCH  14  15
ATOM     15  C   UNL     1       9.312  14.858  25.086  1.00  0.00     0.000 C 
BRANCH  15  16
ATOM     16  C   UNL     1       8.773  13.430  25.268  1.00  0.00     0.000 C 
BRANCH  16  17
ATOM     17  C   UNL     1       9.813  12.355  24.905  1.00  0.00     0.000 C 
BRANCH  17  18
ATOM     18  C   UNL     1       9.631  11.819  23.474  1.00  0.00     0.000 C 
BRANCH  18  19
ATOM     19  C   UNL     1      10.567  12.509  22.466  1.00  0.00     0.000 C 
BRANCH  19  20
ATOM     20  C   UNL     1       9.844  13.569  21.618  1.00  0.00     0.006 C 
BRANCH  20  21
ATOM     21  C   UNL     1      10.800  14.613  21.029  1.00  0.00     0.053 C 
BRANCH  21  22
ATOM     22  C   UNL     1      10.241  15.174  19.760  1.00  0.00     0.041 C 
ATOM     23  O   UNL     1       9.068  15.634  19.732  1.00  0.00    -0.550 OA
ATOM     24  O   UNL     1      11.034  15.242  18.622  1.00  0.00    -0.550 OA
ENDBRANCH  21  22
ENDBRANCH  20  21
ENDBRANCH  19  20
ENDBRANCH  18  19
ENDBRANCH  17  18
ENDBRANCH  16  17
ENDBRANCH  15  16
ENDBRANCH  14  15
ENDBRANCH  13  14
ENDBRANCH   1  13
TORSDOF 20
ENDMDL
MODEL 3
REMARK VINA RESULT:    -3.572      1.379      3.659
REMARK INTER + INTRA:         -11.080
REMARK INTER:                  -7.584
REMARK INTRA:                  -3.496
REMARK UNBOUND:                -3.331
REMARK SMILES CCCCCCCCCCCCCCCCCCCCCC(=O)[O-]
REMARK SMILES IDX 12 1 11 2 10 3 9 4 8 5 7 6 6 7 5 8 4 9 3 10 2 11 1 12 13 13
REMARK SMILES IDX 14 14 15 15 16 16 17 17 18 18 19 19 20 20 21 21 22 22 23 23
REMARK SMILES IDX 24 24
REMARK H PARENT
REMARK Flexibility Score: inf
ROOT
ATOM      1  C   UNL     1      20.544   5.042  31.168  1.00  0.00     0.000 C 
ENDROOT
BRANCH   1   2
ATOM      2  C   UNL     1      19.865   4.664  32.496  1.00  0.00     0.000 C 
BRANCH   2   3
ATOM      3  C   UNL     1      20.836   4.680  33.686  1.00  0.00     0.000 C 
BRANCH   3   4
ATOM      4  C   UNL     1      21.620   3.363  33.774  1.00  0.00    -0.000 C 
BRANCH   4   5
ATOM      5  C   UNL     1      23.103   3.517  33.387  1.00  0.00    -0.000 C 
BRANCH   5   6
ATOM      6  C   UNL     1      23.519   2.769  32.108  1.00  0.00    -0.000 C 
BRANCH   6   7
ATOM      7  C   UNL     1      22.414   1.844  31.570  1.00  0.00    -0.000 C 
BRANCH   7   8
ATOM      8  C   UNL     1      22.451   1.705  30.039  1.00  0.00    -0.000 C 
BRANCH   8   9
ATOM      9  C   UNL     1      23.882   1.761  29.478  1.00  0.00    -0.000 C 
BRANCH   9  10
ATOM     10  C   UNL     1      23.947   1.460  27.969  1.00  0.00    -0.000 C 
BRANCH  10  11
ATOM     11  C   UNL     1      25.173   2.041  27.243  1.00  0.00    -0.003 C 
ATOM     12  C   UNL     1      26.350   2.314  28.178  1.00  0.00     0.004 C 
ENDBRANCH  10  11
ENDBRANCH   9  10
ENDBRANCH   8   9
ENDBRANCH   7   8
ENDBRANCH   6   7
ENDBRANCH   5   6
ENDBRANCH   4   5
ENDBRANCH   3   4
ENDBRANCH   2   3
ENDBRANCH   1   2
BRANCH   1  13
ATOM     13  C   UNL     1      21.505   6.243  31.252  1.00  0.00     0.000 C 
BRANCH  13  14
ATOM     14  C   UNL     1      22.858   6.009  30.543  1.00  0.00     0.000 C 
BRANCH  14  15
ATOM     15  C   UNL     1      22.703   5.192  29.249  1.00  0.00     0.000 C 
BRANCH  15  16
ATOM     16  C   UNL     1      23.937   5.284  28.336  1.00  0.00     0.000 C 
BRANCH  16  17
ATOM     17  C   UNL     1      23.633   5.988  27.001  1.00  0.00     0.000 C 
BRANCH  17  18
ATOM     18  C   UNL     1      24.029   7.475  27.017  1.00  0.00     0.000 C 
BRANCH  18  19
ATOM     19  C   UNL     1      25.074   7.792  28.102  1.00  0.00     0.000 C 
BRANCH  19  20
ATOM     20  C   UNL     1      24.728   9.057  28.904  1.00  0.00     0.006 C 
BRANCH  20  21
ATOM     21  C   UNL     1      23.250   9.449  28.787  1.00  0.00     0.053 C 
BRANCH  21  22
ATOM     22  C   UNL     1      23.024  10.807  29.371  1.00  0.00     0.041 C 
ATOM     23  O   UNL     1      22.818  11.796  28.617  1.00  0.00    -0.550 OA
ATOM     24  O   UNL     1      22.982  10.973  30.749  1.00  0.00    -0.550 OA
ENDBRANCH  21  22
ENDBRANCH  20  21
ENDBRANCH  19  20
ENDBRANCH  18  19
ENDBRANCH  17  18
ENDBRANCH  16  17
ENDBRANCH  15  16
ENDBRANCH  14  15
ENDBRANCH  13  14
ENDBRANCH   1  13
TORSDOF 20
ENDMDL
MODEL 4
REMARK VINA RESULT:    -3.543      1.326      2.551
REMARK INTER + INTRA:         -11.017
REMARK INTER:                  -7.530
REMARK INTRA:                  -3.487
REMARK UNBOUND:                -3.331
REMARK SMILES CCCCCCCCCCCCCCCCCCCCCC(=O)[O-]
REMARK SMILES IDX 12 1 11 2 10 3 9 4 8 5 7 6 6 7 5 8 4 9 3 10 2 11 1 12 13 13
REMARK SMILES IDX 14 14 15 15 16 16 17 17 18 18 19 19 20 20 21 21 22 22 23 23
REMARK SMILES IDX 24 24
REMARK H PARENT
REMARK Flexibility Score: inf
ROOT
ATOM      1  C   UNL     1      24.353   2.560  27.775  1.00  0.00     0.000 C 
ENDROOT
BRANCH   1   2
ATOM      2  C   UNL     1      23.645   1.482  28.613  1.00  0.00     0.000 C 
BRANCH   2   3
ATOM      3  C   UNL     1      22.572   2.063  29.546  1.00  0.00     0.000 C 
BRANCH   3   4
ATOM      4  C   UNL     1      22.525   1.294  30.875  1.00  0.00    -0.000 C 
BRANCH   4   5
ATOM      5  C   UNL     1      23.030   2.124  32.070  1.00  0.00    -0.000 C 
BRANCH   5   6
ATOM      6  C   UNL     1      24.550   2.366  32.095  1.00  0.00    -0.000 C 
BRANCH   6   7
ATOM      7  C   UNL     1      24.916   3.855  32.223  1.00  0.00    -0.000 C 
BRANCH   7   8
ATOM      8  C   UNL     1      23.745   4.710  32.732  1.00  0.00    -0.000 C 
BRANCH   8   9
ATOM      9  C   UNL     1      23.410   5.874  31.782  1.00  0.00    -0.000 C 
BRANCH   9  10
ATOM     10  C   UNL     1      21.897   6.127  31.655  1.00  0.00    -0.000 C 
BRANCH  10  11
ATOM     11  C   UNL     1      21.147   5.136  30.745  1.00  0.00    -0.003 C 
ATOM     12  C   UNL     1      19.804   4.692  31.322  1.00  0.00     0.004 C 
ENDBRANCH  10  11
ENDBRANCH   9  10
ENDBRANCH   8   9
ENDBRANCH   7   8
ENDBRANCH   6   7
ENDBRANCH   5   6
ENDBRANCH   4   5
ENDBRANCH   3   4
ENDBRANCH   2   3
ENDBRANCH   1   2
BRANCH   1  13
ATOM     13  C   UNL     1      25.259   3.512  28.580  1.00  0.00     0.000 C 
BRANCH  13  14
ATOM     14  C   UNL     1      24.833   4.995  28.497  1.00  0.00     0.000 C 
BRANCH  14  15
ATOM     15  C   UNL     1      23.445   5.168  27.858  1.00  0.00     0.000 C 
BRANCH  15  16
ATOM     16  C   UNL     1      23.486   5.984  26.556  1.00  0.00     0.000 C 
BRANCH  16  17
ATOM     17  C   UNL     1      24.241   7.316  26.716  1.00  0.00     0.000 C 
BRANCH  17  18
ATOM     18  C   UNL     1      23.492   8.311  27.619  1.00  0.00     0.000 C 
BRANCH  18  19
ATOM     19  C   UNL     1      24.215   8.546  28.958  1.00  0.00     0.000 C 
BRANCH  19  20
ATOM     20  C   UNL     1      23.289   9.137  30.034  1.00  0.00     0.006 C 
BRANCH  20  21
ATOM     21  C   UNL     1      23.780  10.490  30.563  1.00  0.00     0.053 C 
BRANCH  21  22
ATOM     22  C   UNL     1      22.922  11.597  30.037  1.00  0.00     0.041 C 
ATOM     23  O   UNL     1      22.542  12.524  30.803  1.00  0.00    -0.550 OA
ATOM     24  O   UNL     1      22.588  11.637  28.690  1.00  0.00    -0.550 OA
ENDBRANCH  21  22
ENDBRANCH  20  21
ENDBRANCH  19  20
ENDBRANCH  18  19
ENDBRANCH  17  18
ENDBRANCH  16  17
ENDBRANCH  15  16
ENDBRANCH  14  15
ENDBRANCH  13  14
ENDBRANCH   1  13
TORSDOF 20
ENDMDL
MODEL 5
REMARK VINA RESULT:    -3.503      3.650      6.269
REMARK INTER + INTRA:         -10.930
REMARK INTER:                  -7.741
REMARK INTRA:                  -3.190
REMARK UNBOUND:                -3.331
REMARK SMILES CCCCCCCCCCCCCCCCCCCCCC(=O)[O-]
REMARK SMILES IDX 12 1 11 2 10 3 9 4 8 5 7 6 6 7 5 8 4 9 3 10 2 11 1 12 13 13
REMARK SMILES IDX 14 14 15 15 16 16 17 17 18 18 19 19 20 20 21 21 22 22 23 23
REMARK SMILES IDX 24 24
REMARK H PARENT
REMARK Flexibility Score: inf
ROOT
ATOM      1  C   UNL     1      23.811   9.087  28.664  1.00  0.00     0.000 C 
ENDROOT
BRANCH   1   2
ATOM      2  C   UNL     1      23.170   9.138  30.061  1.00  0.00     0.000 C 
BRANCH   2   3
ATOM      3  C   UNL     1      23.060   7.753  30.716  1.00  0.00     0.000 C 
BRANCH   3   4
ATOM      4  C   UNL     1      21.742   7.614  31.490  1.00  0.00    -0.000 C 
BRANCH   4   5
ATOM      5  C   UNL     1      21.868   6.725  32.741  1.00  0.00    -0.000 C 
BRANCH   5   6
ATOM      6  C   UNL     1      20.896   5.532  32.790  1.00  0.00    -0.000 C 
BRANCH   6   7
ATOM      7  C   UNL     1      20.518   5.012  31.392  1.00  0.00    -0.000 C 
BRANCH   7   8
ATOM      8  C   UNL     1      21.434   3.874  30.916  1.00  0.00    -0.000 C 
BRANCH   8   9
ATOM      9  C   UNL     1      22.008   3.053  32.085  1.00  0.00    -0.000 C 
BRANCH   9  10
ATOM     10  C   UNL     1      23.538   2.896  32.013  1.00  0.00    -0.000 C 
BRANCH  10  11
ATOM     11  C   UNL     1      24.338   4.168  32.347  1.00  0.00    -0.003 C 
ATOM     12  C   UNL     1      25.212   4.648  31.189  1.00  0.00     0.004 C 
ENDBRANCH  10  11
ENDBRANCH   9  10
ENDBRANCH   8   9
ENDBRANCH   7   8
ENDBRANCH   6   7
ENDBRANCH   5   6
ENDBRANCH   4   5
ENDBRANCH   3   4
ENDBRANCH   2   3
ENDBRANCH   1   2
BRANCH   1  13
ATOM     13  C   UNL     1      24.527   7.765  28.329  1.00  0.00     0.000 C 
BRANCH  13  14
ATOM     14  C   UNL     1      24.230   7.239  26.907  1.00  0.00     0.000 C 
BRANCH  14  15
ATOM     15  C   UNL     1      23.122   6.172  26.901  1.00  0.00     0.000 C 
BRANCH  15  16
ATOM     16  C   UNL     1      23.257   5.167  28.057  1.00  0.00     0.000 C 
BRANCH  16  17
ATOM     17  C   UNL     1      24.171   3.980  27.706  1.00  0.00     0.000 C 
BRANCH  17  18
ATOM     18  C   UNL     1      23.697   2.663  28.345  1.00  0.00     0.000 C 
BRANCH  18  19
ATOM     19  C   UNL     1      24.823   1.618  28.439  1.00  0.00     0.000 C 
BRANCH  19  20
ATOM     20  C   UNL     1      25.881   1.789  27.337  1.00  0.00     0.006 C 
BRANCH  20  21
ATOM     21  C   UNL     1      25.625   0.887  26.123  1.00  0.00     0.053 C 
BRANCH  21  22
ATOM     22  C   UNL     1      26.106   1.550  24.871  1.00  0.00     0.041 C 
ATOM     23  O   UNL     1      27.307   1.429  24.510  1.00  0.00    -0.550 OA
ATOM     24  O   UNL     1      25.214   2.254  24.072  1.00  0.00    -0.550 OA
ENDBRANCH  21  22
ENDBRANCH  20  21
ENDBRANCH  19  20
ENDBRANCH  18  19
ENDBRANCH  17  18
ENDBRANCH  16  17
ENDBRANCH  15  16
ENDBRANCH  14  15
ENDBRANCH  13  14
ENDBRANCH   1  13
TORSDOF 20
ENDMDL
MODEL 6
REMARK VINA RESULT:    -3.491      3.174      5.035
REMARK INTER + INTRA:         -10.903
REMARK INTER:                  -7.118
REMARK INTRA:                  -3.785
REMARK UNBOUND:                -3.331
REMARK SMILES CCCCCCCCCCCCCCCCCCCCCC(=O)[O-]
REMARK SMILES IDX 12 1 11 2 10 3 9 4 8 5 7 6 6 7 5 8 4 9 3 10 2 11 1 12 13 13
REMARK SMILES IDX 14 14 15 15 16 16 17 17 18 18 19 19 20 20 21 21 22 22 23 23
REMARK SMILES IDX 24 24
REMARK H PARENT
REMARK Flexibility Score: inf
ROOT
ATOM      1  C   UNL     1      23.223   4.523  28.748  1.00  0.00     0.000 C 
ENDROOT
BRANCH   1   2
ATOM      2  C   UNL     1      23.233   2.999  28.959  1.00  0.00     0.000 C 
BRANCH   2   3
ATOM      3  C   UNL     1      22.268   2.545  30.065  1.00  0.00     0.000 C 
BRANCH   3   4
ATOM      4  C   UNL     1      22.605   1.124  30.540  1.00  0.00    -0.000 C 
BRANCH   4   5
ATOM      5  C   UNL     1      24.086   0.954  30.927  1.00  0.00    -0.000 C 
BRANCH   5   6
ATOM      6  C   UNL     1      24.392   1.155  32.422  1.00  0.00    -0.000 C 
BRANCH   6   7
ATOM      7  C   UNL     1      25.435   2.258  32.675  1.00  0.00    -0.000 C 
BRANCH   7   8
ATOM      8  C   UNL     1      24.808   3.657  32.765  1.00  0.00    -0.000 C 
BRANCH   8   9
ATOM      9  C   UNL     1      25.326   4.606  31.670  1.00  0.00    -0.000 C 
BRANCH   9  10
ATOM     10  C   UNL     1      26.698   4.184  31.113  1.00  0.00    -0.000 C 
BRANCH  10  11
ATOM     11  C   UNL     1      26.833   4.274  29.582  1.00  0.00    -0.003 C 
ATOM     12  C   UNL     1      26.930   2.907  28.907  1.00  0.00     0.004 C 
ENDBRANCH  10  11
ENDBRANCH   9  10
ENDBRANCH   8   9
ENDBRANCH   7   8
ENDBRANCH   6   7
ENDBRANCH   5   6
ENDBRANCH   4   5
ENDBRANCH   3   4
ENDBRANCH   2   3
ENDBRANCH   1   2
BRANCH   1  13
ATOM     13  C   UNL     1      23.902   5.000  27.451  1.00  0.00     0.000 C 
BRANCH  13  14
ATOM     14  C   UNL     1      23.127   6.118  26.718  1.00  0.00     0.000 C 
BRANCH  14  15
ATOM     15  C   UNL     1      23.947   7.415  26.603  1.00  0.00     0.000 C 
BRANCH  15  16
ATOM     16  C   UNL     1      24.698   7.762  27.899  1.00  0.00     0.000 C 
BRANCH  16  17
ATOM     17  C   UNL     1      23.794   8.439  28.944  1.00  0.00     0.000 C 
BRANCH  17  18
ATOM     18  C   UNL     1      23.902   7.782  30.331  1.00  0.00     0.000 C 
BRANCH  18  19
ATOM     19  C   UNL     1      22.566   7.801  31.095  1.00  0.00     0.000 C 
BRANCH  19  20
ATOM     20  C   UNL     1      22.254   6.457  31.773  1.00  0.00     0.006 C 
BRANCH  20  21
ATOM     21  C   UNL     1      20.970   5.807  31.244  1.00  0.00     0.053 C 
BRANCH  21  22
ATOM     22  C   UNL     1      20.290   5.036  32.330  1.00  0.00     0.041 C 
ATOM     23  O   UNL     1      19.142   4.551  32.142  1.00  0.00    -0.550 OA
ATOM     24  O   UNL     1      20.947   4.803  33.532  1.00  0.00    -0.550 OA
ENDBRANCH  21  22
ENDBRANCH  20  21
ENDBRANCH  19  20
ENDBRANCH  18  19
ENDBRANCH  17  18
ENDBRANCH  16  17
ENDBRANCH  15  16
ENDBRANCH  14  15
ENDBRANCH  13  14
ENDBRANCH   1  13
TORSDOF 20
ENDMDL
MODEL 7
REMARK VINA RESULT:    -3.486      2.359      5.198
REMARK INTER + INTRA:         -10.894
REMARK INTER:                  -7.573
REMARK INTRA:                  -3.321
REMARK UNBOUND:                -3.331
REMARK SMILES CCCCCCCCCCCCCCCCCCCCCC(=O)[O-]
REMARK SMILES IDX 12 1 11 2 10 3 9 4 8 5 7 6 6 7 5 8 4 9 3 10 2 11 1 12 13 13
REMARK SMILES IDX 14 14 15 15 16 16 17 17 18 18 19 19 20 20 21 21 22 22 23 23
REMARK SMILES IDX 24 24
REMARK H PARENT
REMARK Flexibility Score: inf
ROOT
ATOM      1  C   UNL     1      22.037   4.623  30.294  1.00  0.00     0.000 C 
ENDROOT
BRANCH   1   2
ATOM      2  C   UNL     1      21.890   3.096  30.403  1.00  0.00     0.000 C 
BRANCH   2   3
ATOM      3  C   UNL     1      22.704   2.502  31.563  1.00  0.00     0.000 C 
BRANCH   3   4
ATOM      4  C   UNL     1      23.629   1.381  31.067  1.00  0.00    -0.000 C 
BRANCH   4   5
ATOM      5  C   UNL     1      25.122   1.690  31.284  1.00  0.00    -0.000 C 
BRANCH   5   6
ATOM      6  C   UNL     1      25.565   3.093  30.833  1.00  0.00    -0.000 C 
BRANCH   6   7
ATOM      7  C   UNL     1      26.090   3.118  29.387  1.00  0.00    -0.000 C 
BRANCH   7   8
ATOM      8  C   UNL     1      25.325   4.109  28.496  1.00  0.00    -0.000 C 
BRANCH   8   9
ATOM      9  C   UNL     1      24.220   3.427  27.670  1.00  0.00    -0.000 C 
BRANCH   9  10
ATOM     10  C   UNL     1      24.495   1.932  27.422  1.00  0.00    -0.000 C 
BRANCH  10  11
ATOM     11  C   UNL     1      25.076   1.599  26.035  1.00  0.00    -0.003 C 
ATOM     12  C   UNL     1      26.552   1.208  26.082  1.00  0.00     0.004 C 
ENDBRANCH  10  11
ENDBRANCH   9  10
ENDBRANCH   8   9
ENDBRANCH   7   8
ENDBRANCH   6   7
ENDBRANCH   5   6
ENDBRANCH   4   5
ENDBRANCH   3   4
ENDBRANCH   2   3
ENDBRANCH   1   2
BRANCH   1  13
ATOM     13  C   UNL     1      21.026   5.432  31.128  1.00  0.00     0.000 C 
BRANCH  13  14
ATOM     14  C   UNL     1      21.613   6.001  32.439  1.00  0.00     0.000 C 
BRANCH  14  15
ATOM     15  C   UNL     1      23.137   6.197  32.357  1.00  0.00     0.000 C 
BRANCH  15  16
ATOM     16  C   UNL     1      23.538   7.667  32.151  1.00  0.00     0.000 C 
BRANCH  16  17
ATOM     17  C   UNL     1      22.527   8.440  31.285  1.00  0.00     0.000 C 
BRANCH  17  18
ATOM     18  C   UNL     1      23.205   9.226  30.149  1.00  0.00     0.000 C 
BRANCH  18  19
ATOM     19  C   UNL     1      24.299   8.407  29.442  1.00  0.00     0.000 C 
BRANCH  19  20
ATOM     20  C   UNL     1      23.723   7.393  28.439  1.00  0.00     0.006 C 
BRANCH  20  21
ATOM     21  C   UNL     1      24.311   7.549  27.031  1.00  0.00     0.053 C 
BRANCH  21  22
ATOM     22  C   UNL     1      23.560   6.700  26.056  1.00  0.00     0.041 C 
ATOM     23  O   UNL     1      24.168   6.132  25.109  1.00  0.00    -0.550 OA
ATOM     24  O   UNL     1      22.197   6.490  26.224  1.00  0.00    -0.550 OA
ENDBRANCH  21  22
ENDBRANCH  20  21
ENDBRANCH  19  20
ENDBRANCH  18  19
ENDBRANCH  17  18
ENDBRANCH  16  17
ENDBRANCH  15  16
ENDBRANCH  14  15
ENDBRANCH  13  14
ENDBRANCH   1  13
TORSDOF 20
ENDMDL
MODEL 8
REMARK VINA RESULT:    -3.461      1.592      4.655
REMARK INTER + INTRA:         -10.839
REMARK INTER:                  -7.383
REMARK INTRA:                  -3.455
REMARK UNBOUND:                -3.331
REMARK SMILES CCCCCCCCCCCCCCCCCCCCCC(=O)[O-]
REMARK SMILES IDX 12 1 11 2 10 3 9 4 8 5 7 6 6 7 5 8 4 9 3 10 2 11 1 12 13 13
REMARK SMILES IDX 14 14 15 15 16 16 17 17 18 18 19 19 20 20 21 21 22 22 23 23
REMARK SMILES IDX 24 24
REMARK H PARENT
REMARK Flexibility Score: inf
ROOT
ATOM      1  C   UNL     1      22.732   2.309  29.640  1.00  0.00     0.000 C 
ENDROOT
BRANCH   1   2
ATOM      2  C   UNL     1      23.603   1.283  28.895  1.00  0.00     0.000 C 
BRANCH   2   3
ATOM      3  C   UNL     1      23.986   1.744  27.480  1.00  0.00     0.000 C 
BRANCH   3   4
ATOM      4  C   UNL     1      25.498   1.610  27.250  1.00  0.00    -0.000 C 
BRANCH   4   5
ATOM      5  C   UNL     1      26.330   1.929  28.505  1.00  0.00    -0.000 C 
BRANCH   5   6
ATOM      6  C   UNL     1      26.693   3.415  28.682  1.00  0.00    -0.000 C 
BRANCH   6   7
ATOM      7  C   UNL     1      26.159   4.008  29.997  1.00  0.00    -0.000 C 
BRANCH   7   8
ATOM      8  C   UNL     1      25.093   5.092  29.768  1.00  0.00    -0.000 C 
BRANCH   8   9
ATOM      9  C   UNL     1      24.896   5.417  28.277  1.00  0.00    -0.000 C 
BRANCH   9  10
ATOM     10  C   UNL     1      23.435   5.258  27.817  1.00  0.00    -0.000 C 
BRANCH  10  11
ATOM     11  C   UNL     1      22.965   6.291  26.777  1.00  0.00    -0.003 C 
ATOM     12  C   UNL     1      23.792   7.576  26.793  1.00  0.00     0.004 C 
ENDBRANCH  10  11
ENDBRANCH   9  10
ENDBRANCH   8   9
ENDBRANCH   7   8
ENDBRANCH   6   7
ENDBRANCH   5   6
ENDBRANCH   4   5
ENDBRANCH   3   4
ENDBRANCH   2   3
ENDBRANCH   1   2
BRANCH   1  13
ATOM     13  C   UNL     1      22.776   2.199  31.177  1.00  0.00     0.000 C 
BRANCH  13  14
ATOM     14  C   UNL     1      22.689   3.561  31.900  1.00  0.00     0.000 C 
BRANCH  14  15
ATOM     15  C   UNL     1      21.273   3.852  32.426  1.00  0.00     0.000 C 
BRANCH  15  16
ATOM     16  C   UNL     1      20.645   5.101  31.786  1.00  0.00     0.000 C 
BRANCH  16  17
ATOM     17  C   UNL     1      21.624   5.849  30.864  1.00  0.00     0.000 C 
BRANCH  17  18
ATOM     18  C   UNL     1      22.242   7.085  31.541  1.00  0.00     0.000 C 
BRANCH  18  19
ATOM     19  C   UNL     1      23.200   7.847  30.608  1.00  0.00     0.000 C 
BRANCH  19  20
ATOM     20  C   UNL     1      22.753   9.297  30.360  1.00  0.00     0.006 C 
BRANCH  20  21
ATOM     21  C   UNL     1      23.758  10.093  29.517  1.00  0.00     0.053 C 
BRANCH  21  22
ATOM     22  C   UNL     1      23.069  11.216  28.809  1.00  0.00     0.041 C 
ATOM     23  O   UNL     1      22.407  10.994  27.760  1.00  0.00    -0.550 OA
ATOM     24  O   UNL     1      23.109  12.500  29.338  1.00  0.00    -0.550 OA
ENDBRANCH  21  22
ENDBRANCH  20  21
ENDBRANCH  19  20
ENDBRANCH  18  19
ENDBRANCH  17  18
ENDBRANCH  16  17
ENDBRANCH  15  16
ENDBRANCH  14  15
ENDBRANCH  13  14
ENDBRANCH   1  13
TORSDOF 20
ENDMDL
MODEL 9
REMARK VINA RESULT:    -3.444      2.505      4.350
REMARK INTER + INTRA:         -10.802
REMARK INTER:                  -7.042
REMARK INTRA:                  -3.760
REMARK UNBOUND:                -3.331
REMARK SMILES CCCCCCCCCCCCCCCCCCCCCC(=O)[O-]
REMARK SMILES IDX 12 1 11 2 10 3 9 4 8 5 7 6 6 7 5 8 4 9 3 10 2 11 1 12 13 13
REMARK SMILES IDX 14 14 15 15 16 16 17 17 18 18 19 19 20 20 21 21 22 22 23 23
REMARK SMILES IDX 24 24
REMARK H PARENT
REMARK Flexibility Score: inf
ROOT
ATOM      1  C   UNL     1      26.305   1.996  28.216  1.00  0.00     0.000 C 
ENDROOT
BRANCH   1   2
ATOM      2  C   UNL     1      24.877   2.244  27.700  1.00  0.00     0.000 C 
BRANCH   2   3
ATOM      3  C   UNL     1      23.811   1.498  28.517  1.00  0.00     0.000 C 
BRANCH   3   4
ATOM      4  C   UNL     1      22.893   2.485  29.253  1.00  0.00    -0.000 C 
BRANCH   4   5
ATOM      5  C   UNL     1      22.144   1.844  30.436  1.00  0.00    -0.000 C 
BRANCH   5   6
ATOM      6  C   UNL     1      23.005   1.588  31.686  1.00  0.00    -0.000 C 
BRANCH   6   7
ATOM      7  C   UNL     1      22.284   1.960  32.994  1.00  0.00    -0.000 C 
BRANCH   7   8
ATOM      8  C   UNL     1      22.162   3.480  33.190  1.00  0.00    -0.000 C 
BRANCH   8   9
ATOM      9  C   UNL     1      20.697   3.946  33.269  1.00  0.00    -0.000 C 
BRANCH   9  10
ATOM     10  C   UNL     1      20.291   4.848  32.089  1.00  0.00    -0.000 C 
BRANCH  10  11
ATOM     11  C   UNL     1      21.461   5.355  31.226  1.00  0.00    -0.003 C 
ATOM     12  C   UNL     1      21.749   6.843  31.422  1.00  0.00     0.004 C 
ENDBRANCH  10  11
ENDBRANCH   9  10
ENDBRANCH   8   9
ENDBRANCH   7   8
ENDBRANCH   6   7
ENDBRANCH   5   6
ENDBRANCH   4   5
ENDBRANCH   3   4
ENDBRANCH   2   3
ENDBRANCH   1   2
BRANCH   1  13
ATOM     13  C   UNL     1      26.413   0.957  29.348  1.00  0.00     0.000 C 
BRANCH  13  14
ATOM     14  C   UNL     1      27.214   1.451  30.573  1.00  0.00     0.000 C 
BRANCH  14  15
ATOM     15  C   UNL     1      26.345   2.264  31.548  1.00  0.00     0.000 C 
BRANCH  15  16
ATOM     16  C   UNL     1      26.968   3.622  31.910  1.00  0.00     0.000 C 
BRANCH  16  17
ATOM     17  C   UNL     1      26.697   4.700  30.845  1.00  0.00     0.000 C 
BRANCH  17  18
ATOM     18  C   UNL     1      25.199   4.862  30.539  1.00  0.00     0.000 C 
BRANCH  18  19
ATOM     19  C   UNL     1      24.911   6.081  29.645  1.00  0.00     0.000 C 
BRANCH  19  20
ATOM     20  C   UNL     1      24.834   5.716  28.154  1.00  0.00     0.006 C 
BRANCH  20  21
ATOM     21  C   UNL     1      23.433   5.916  27.564  1.00  0.00     0.053 C 
BRANCH  21  22
ATOM     22  C   UNL     1      23.494   6.808  26.365  1.00  0.00     0.041 C 
ATOM     23  O   UNL     1      23.185   8.026  26.463  1.00  0.00    -0.550 OA
ATOM     24  O   UNL     1      23.949   6.310  25.151  1.00  0.00    -0.550 OA
ENDBRANCH  21  22
ENDBRANCH  20  21
ENDBRANCH  19  20
ENDBRANCH  18  19
ENDBRANCH  17  18
ENDBRANCH  16  17
ENDBRANCH  15  16
ENDBRANCH  14  15
ENDBRANCH  13  14
ENDBRANCH   1  13
TORSDOF 20
ENDMDL
