MODEL 1
REMARK VINA RESULT:    -6.097      0.000      0.000
REMARK INTER + INTRA:         -12.964
REMARK INTER:                 -11.444
REMARK INTRA:                  -1.520
REMARK UNBOUND:                -1.520
REMARK SMILES CCCCCCCCC=CCCCCCCCC(=O)[O-]
REMARK SMILES IDX 10 1 9 2 11 3 12 4 13 5 14 6 15 7 16 8 17 9 18 10 19 11
REMARK SMILES IDX 20 12 8 13 7 14 6 15 5 16 4 17 3 18 2 19 1 20
REMARK H PARENT
REMARK Flexibility Score: inf
ROOT
ATOM      1  C   UNL     1      -4.306  10.359 -18.154  1.00  0.00    -0.031 C 
ATOM      2  C   UNL     1      -3.832  11.439 -18.793  1.00  0.00    -0.031 C 
ENDROOT
BRANCH   1   3
ATOM      3  C   UNL     1      -3.448   9.556 -17.214  1.00  0.00     0.027 C 
BRANCH   3   4
ATOM      4  C   UNL     1      -2.392   8.743 -17.975  1.00  0.00     0.004 C 
BRANCH   4   5
ATOM      5  C   UNL     1      -1.129   9.571 -18.272  1.00  0.00     0.000 C 
BRANCH   5   6
ATOM      6  C   UNL     1       0.164   8.758 -18.105  1.00  0.00     0.000 C 
BRANCH   6   7
ATOM      7  C   UNL     1       0.276   7.603 -19.115  1.00  0.00     0.000 C 
BRANCH   7   8
ATOM      8  C   UNL     1       0.316   6.223 -18.425  1.00  0.00     0.006 C 
BRANCH   8   9
ATOM      9  C   UNL     1      -0.446   5.131 -19.192  1.00  0.00     0.053 C 
BRANCH   9  10
ATOM     10  C   UNL     1      -1.796   4.863 -18.604  1.00  0.00     0.041 C 
ATOM     11  O   UNL     1      -2.635   4.167 -19.235  1.00  0.00    -0.550 OA
ATOM     12  O   UNL     1      -2.138   5.403 -17.372  1.00  0.00    -0.550 OA
ENDBRANCH   9  10
ENDBRANCH   8   9
ENDBRANCH   7   8
ENDBRANCH   6   7
ENDBRANCH   5   6
ENDBRANCH   4   5
ENDBRANCH   3   4
ENDBRANCH   1   3
BRANCH   2  13
ATOM     13  C   UNL     1      -4.677  12.204 -19.772  1.00  0.00     0.027 C 
BRANCH  13  14
ATOM     14  C   UNL     1      -5.501  11.250 -20.650  1.00  0.00     0.004 C 
BRANCH  14  15
ATOM     15  C   UNL     1      -6.971  11.683 -20.791  1.00  0.00     0.000 C 
BRANCH  15  16
ATOM     16  C   UNL     1      -8.006  10.731 -20.153  1.00  0.00     0.000 C 
BRANCH  16  17
ATOM     17  C   UNL     1      -7.955  10.641 -18.614  1.00  0.00    -0.000 C 
BRANCH  17  18
ATOM     18  C   UNL     1      -7.744  12.003 -17.916  1.00  0.00    -0.000 C 
BRANCH  18  19
ATOM     19  C   UNL     1      -7.564  11.890 -16.394  1.00  0.00    -0.003 C 
ATOM     20  C   UNL     1      -7.480  10.443 -15.912  1.00  0.00     0.004 C 
ENDBRANCH  18  19
ENDBRANCH  17  18
ENDBRANCH  16  17
ENDBRANCH  15  16
ENDBRANCH  14  15
ENDBRANCH  13  14
ENDBRANCH   2  13
TORSDOF 15
ENDMDL
MODEL 2
REMARK VINA RESULT:    -5.855      1.039      2.741
REMARK INTER + INTRA:         -12.509
REMARK INTER:                 -11.461
REMARK INTRA:                  -1.048
REMARK UNBOUND:                -1.520
REMARK SMILES CCCCCCCCC=CCCCCCCCC(=O)[O-]
REMARK SMILES IDX 10 1 9 2 11 3 12 4 13 5 14 6 15 7 16 8 17 9 18 10 19 11
REMARK SMILES IDX 20 12 8 13 7 14 6 15 5 16 4 17 3 18 2 19 1 20
REMARK H PARENT
REMARK Flexibility Score: inf
ROOT
ATOM      1  C   UNL     1      -5.083  10.055 -17.366  1.00  0.00    -0.031 C 
ATOM      2  C   UNL     1      -6.065  10.412 -16.525  1.00  0.00    -0.031 C 
ENDROOT
BRANCH   1   3
ATOM      3  C   UNL     1      -3.812   9.416 -16.872  1.00  0.00     0.027 C 
BRANCH   3   4
ATOM      4  C   UNL     1      -2.602   9.860 -17.706  1.00  0.00     0.004 C 
BRANCH   4   5
ATOM      5  C   UNL     1      -1.828   8.664 -18.286  1.00  0.00     0.000 C 
BRANCH   5   6
ATOM      6  C   UNL     1      -0.308   8.880 -18.275  1.00  0.00     0.000 C 
BRANCH   6   7
ATOM      7  C   UNL     1       0.465   7.704 -18.898  1.00  0.00     0.000 C 
BRANCH   7   8
ATOM      8  C   UNL     1       0.230   6.380 -18.141  1.00  0.00     0.006 C 
BRANCH   8   9
ATOM      9  C   UNL     1      -0.444   5.295 -18.996  1.00  0.00     0.053 C 
BRANCH   9  10
ATOM     10  C   UNL     1      -1.791   4.912 -18.466  1.00  0.00     0.041 C 
ATOM     11  O   UNL     1      -2.503   4.080 -19.088  1.00  0.00    -0.550 OA
ATOM     12  O   UNL     1      -2.271   5.493 -17.300  1.00  0.00    -0.550 OA
ENDBRANCH   9  10
ENDBRANCH   8   9
ENDBRANCH   7   8
ENDBRANCH   6   7
ENDBRANCH   5   6
ENDBRANCH   4   5
ENDBRANCH   3   4
ENDBRANCH   1   3
BRANCH   2  13
ATOM     13  C   UNL     1      -7.308  11.098 -17.017  1.00  0.00     0.027 C 
BRANCH  13  14
ATOM     14  C   UNL     1      -7.629  10.682 -18.461  1.00  0.00     0.004 C 
BRANCH  14  15
ATOM     15  C   UNL     1      -7.200  11.735 -19.499  1.00  0.00     0.000 C 
BRANCH  15  16
ATOM     16  C   UNL     1      -6.286  11.215 -20.630  1.00  0.00     0.000 C 
BRANCH  16  17
ATOM     17  C   UNL     1      -4.773  11.371 -20.376  1.00  0.00    -0.000 C 
BRANCH  17  18
ATOM     18  C   UNL     1      -4.408  12.600 -19.515  1.00  0.00    -0.000 C 
BRANCH  18  19
ATOM     19  C   UNL     1      -2.934  12.630 -19.083  1.00  0.00    -0.003 C 
ATOM     20  C   UNL     1      -2.434  14.040 -18.776  1.00  0.00     0.004 C 
ENDBRANCH  18  19
ENDBRANCH  17  18
ENDBRANCH  16  17
ENDBRANCH  15  16
ENDBRANCH  14  15
ENDBRANCH  13  14
ENDBRANCH   2  13
TORSDOF 15
ENDMDL
MODEL 3
REMARK VINA RESULT:    -5.838      2.722      7.602
REMARK INTER + INTRA:         -12.478
REMARK INTER:                 -10.827
REMARK INTRA:                  -1.651
REMARK UNBOUND:                -1.520
REMARK SMILES CCCCCCCCC=CCCCCCCCC(=O)[O-]
REMARK SMILES IDX 10 1 9 2 11 3 12 4 13 5 14 6 15 7 16 8 17 9 18 10 19 11
REMARK SMILES IDX 20 12 8 13 7 14 6 15 5 16 4 17 3 18 2 19 1 20
REMARK H PARENT
REMARK Flexibility Score: inf
ROOT
ATOM      1  C   UNL     1      -2.871   9.259 -17.711  1.00  0.00    -0.031 C 
ATOM      2  C   UNL     1      -1.743   9.553 -18.374  1.00  0.00    -0.031 C 
ENDROOT
BRANCH   1   3
ATOM      3  C   UNL     1      -4.139  10.042 -17.921  1.00  0.00     0.027 C 
BRANCH   3   4
ATOM      4  C   UNL     1      -3.921  11.212 -18.890  1.00  0.00     0.004 C 
BRANCH   4   5
ATOM      5  C   UNL     1      -4.696  11.026 -20.206  1.00  0.00     0.000 C 
BRANCH   5   6
ATOM      6  C   UNL     1      -5.958  11.899 -20.278  1.00  0.00     0.000 C 
BRANCH   6   7
ATOM      7  C   UNL     1      -7.253  11.071 -20.334  1.00  0.00     0.000 C 
BRANCH   7   8
ATOM      8  C   UNL     1      -7.816  10.766 -18.929  1.00  0.00     0.006 C 
BRANCH   8   9
ATOM      9  C   UNL     1      -7.642  11.924 -17.934  1.00  0.00     0.053 C 
BRANCH   9  10
ATOM     10  C   UNL     1      -7.680  11.459 -16.511  1.00  0.00     0.041 C 
ATOM     11  O   UNL     1      -8.344  12.098 -15.653  1.00  0.00    -0.550 OA
ATOM     12  O   UNL     1      -6.960  10.335 -16.128  1.00  0.00    -0.550 OA
ENDBRANCH   9  10
ENDBRANCH   8   9
ENDBRANCH   7   8
ENDBRANCH   6   7
ENDBRANCH   5   6
ENDBRANCH   4   5
ENDBRANCH   3   4
ENDBRANCH   1   3
BRANCH   2  13
ATOM     13  C   UNL     1      -0.466   8.801 -18.120  1.00  0.00     0.027 C 
BRANCH  13  14
ATOM     14  C   UNL     1      -0.214   7.760 -19.220  1.00  0.00     0.004 C 
BRANCH  14  15
ATOM     15  C   UNL     1       0.834   6.705 -18.820  1.00  0.00     0.000 C 
BRANCH  15  16
ATOM     16  C   UNL     1       0.356   5.238 -18.886  1.00  0.00     0.000 C 
BRANCH  16  17
ATOM     17  C   UNL     1      -0.849   4.981 -19.815  1.00  0.00    -0.000 C 
BRANCH  17  18
ATOM     18  C   UNL     1      -2.127   4.538 -19.070  1.00  0.00    -0.000 C 
BRANCH  18  19
ATOM     19  C   UNL     1      -2.024   4.672 -17.543  1.00  0.00    -0.003 C 
ATOM     20  C   UNL     1      -2.768   5.892 -17.003  1.00  0.00     0.004 C 
ENDBRANCH  18  19
ENDBRANCH  17  18
ENDBRANCH  16  17
ENDBRANCH  15  16
ENDBRANCH  14  15
ENDBRANCH  13  14
ENDBRANCH   2  13
TORSDOF 15
ENDMDL
MODEL 4
REMARK VINA RESULT:    -5.623      2.631      7.541
REMARK INTER + INTRA:         -12.074
REMARK INTER:                 -10.970
REMARK INTRA:                  -1.105
REMARK UNBOUND:                -1.520
REMARK SMILES CCCCCCCCC=CCCCCCCCC(=O)[O-]
REMARK SMILES IDX 10 1 9 2 11 3 12 4 13 5 14 6 15 7 16 8 17 9 18 10 19 11
REMARK SMILES IDX 20 12 8 13 7 14 6 15 5 16 4 17 3 18 2 19 1 20
REMARK H PARENT
REMARK Flexibility Score: inf
ROOT
ATOM      1  C   UNL     1      -2.771  11.334 -18.631  1.00  0.00    -0.031 C 
ATOM      2  C   UNL     1      -3.117  10.501 -17.638  1.00  0.00    -0.031 C 
ENDROOT
BRANCH   1   3
ATOM      3  C   UNL     1      -3.355  12.717 -18.742  1.00  0.00     0.027 C 
BRANCH   3   4
ATOM      4  C   UNL     1      -4.643  12.717 -19.576  1.00  0.00     0.004 C 
BRANCH   4   5
ATOM      5  C   UNL     1      -5.060  11.297 -19.996  1.00  0.00     0.000 C 
BRANCH   5   6
ATOM      6  C   UNL     1      -6.189  11.294 -21.038  1.00  0.00     0.000 C 
BRANCH   6   7
ATOM      7  C   UNL     1      -7.579  11.101 -20.409  1.00  0.00     0.000 C 
BRANCH   7   8
ATOM      8  C   UNL     1      -7.500  10.675 -18.928  1.00  0.00     0.006 C 
BRANCH   8   9
ATOM      9  C   UNL     1      -7.769  11.823 -17.943  1.00  0.00     0.053 C 
BRANCH   9  10
ATOM     10  C   UNL     1      -7.484  11.433 -16.526  1.00  0.00     0.041 C 
ATOM     11  O   UNL     1      -8.063  12.025 -15.577  1.00  0.00    -0.550 OA
ATOM     12  O   UNL     1      -6.561  10.433 -16.252  1.00  0.00    -0.550 OA
ENDBRANCH   9  10
ENDBRANCH   8   9
ENDBRANCH   7   8
ENDBRANCH   6   7
ENDBRANCH   5   6
ENDBRANCH   4   5
ENDBRANCH   3   4
ENDBRANCH   1   3
BRANCH   2  13
ATOM     13  C   UNL     1      -2.573   9.102 -17.564  1.00  0.00     0.027 C 
BRANCH  13  14
ATOM     14  C   UNL     1      -1.584   8.836 -18.710  1.00  0.00     0.004 C 
BRANCH  14  15
ATOM     15  C   UNL     1      -0.127   8.716 -18.229  1.00  0.00     0.000 C 
BRANCH  15  16
ATOM     16  C   UNL     1       0.637   7.472 -18.734  1.00  0.00     0.000 C 
BRANCH  16  17
ATOM     17  C   UNL     1       0.216   6.136 -18.089  1.00  0.00    -0.000 C 
BRANCH  17  18
ATOM     18  C   UNL     1      -0.313   5.094 -19.099  1.00  0.00    -0.000 C 
BRANCH  18  19
ATOM     19  C   UNL     1      -1.785   4.716 -18.874  1.00  0.00    -0.003 C 
ATOM     20  C   UNL     1      -2.366   5.324 -17.598  1.00  0.00     0.004 C 
ENDBRANCH  18  19
ENDBRANCH  17  18
ENDBRANCH  16  17
ENDBRANCH  15  16
ENDBRANCH  14  15
ENDBRANCH  13  14
ENDBRANCH   2  13
TORSDOF 15
ENDMDL
MODEL 5
REMARK VINA RESULT:    -5.262      3.142      7.509
REMARK INTER + INTRA:         -11.397
REMARK INTER:                 -10.574
REMARK INTRA:                  -0.823
REMARK UNBOUND:                -1.520
REMARK SMILES CCCCCCCCC=CCCCCCCCC(=O)[O-]
REMARK SMILES IDX 10 1 9 2 11 3 12 4 13 5 14 6 15 7 16 8 17 9 18 10 19 11
REMARK SMILES IDX 20 12 8 13 7 14 6 15 5 16 4 17 3 18 2 19 1 20
REMARK H PARENT
REMARK Flexibility Score: inf
ROOT
ATOM      1  C   UNL     1      -5.943  10.355 -16.520  1.00  0.00    -0.031 C 
ATOM      2  C   UNL     1      -5.005   9.980 -17.403  1.00  0.00    -0.031 C 
ENDROOT
BRANCH   1   3
ATOM      3  C   UNL     1      -7.335  10.725 -16.955  1.00  0.00     0.027 C 
BRANCH   3   4
ATOM      4  C   UNL     1      -7.312  11.774 -18.076  1.00  0.00     0.004 C 
BRANCH   4   5
ATOM      5  C   UNL     1      -7.485  11.138 -19.467  1.00  0.00     0.000 C 
BRANCH   5   6
ATOM      6  C   UNL     1      -6.511  11.714 -20.506  1.00  0.00     0.000 C 
BRANCH   6   7
ATOM      7  C   UNL     1      -5.038  11.570 -20.086  1.00  0.00     0.000 C 
BRANCH   7   8
ATOM      8  C   UNL     1      -4.452  12.890 -19.542  1.00  0.00     0.006 C 
BRANCH   8   9
ATOM      9  C   UNL     1      -3.116  12.710 -18.803  1.00  0.00     0.053 C 
BRANCH   9  10
ATOM     10  C   UNL     1      -2.280  13.951 -18.833  1.00  0.00     0.041 C 
ATOM     11  O   UNL     1      -2.478  14.870 -17.995  1.00  0.00    -0.550 OA
ATOM     12  O   UNL     1      -1.298  14.104 -19.803  1.00  0.00    -0.550 OA
ENDBRANCH   9  10
ENDBRANCH   8   9
ENDBRANCH   7   8
ENDBRANCH   6   7
ENDBRANCH   5   6
ENDBRANCH   4   5
ENDBRANCH   3   4
ENDBRANCH   1   3
BRANCH   2  13
ATOM     13  C   UNL     1      -3.601   9.665 -16.968  1.00  0.00     0.027 C 
BRANCH  13  14
ATOM     14  C   UNL     1      -2.682   9.464 -18.183  1.00  0.00     0.004 C 
BRANCH  14  15
ATOM     15  C   UNL     1      -1.728   8.267 -18.023  1.00  0.00     0.000 C 
BRANCH  15  16
ATOM     16  C   UNL     1      -0.264   8.527 -18.439  1.00  0.00     0.000 C 
BRANCH  16  17
ATOM     17  C   UNL     1       0.594   7.261 -18.647  1.00  0.00    -0.000 C 
BRANCH  17  18
ATOM     18  C   UNL     1      -0.080   5.963 -18.154  1.00  0.00    -0.000 C 
BRANCH  18  19
ATOM     19  C   UNL     1      -0.754   5.157 -19.276  1.00  0.00    -0.003 C 
ATOM     20  C   UNL     1      -1.909   4.294 -18.774  1.00  0.00     0.004 C 
ENDBRANCH  18  19
ENDBRANCH  17  18
ENDBRANCH  16  17
ENDBRANCH  15  16
ENDBRANCH  14  15
ENDBRANCH  13  14
ENDBRANCH   2  13
TORSDOF 15
ENDMDL
MODEL 6
REMARK VINA RESULT:    -5.174      2.691      7.707
REMARK INTER + INTRA:         -11.232
REMARK INTER:                 -10.120
REMARK INTRA:                  -1.112
REMARK UNBOUND:                -1.520
REMARK SMILES CCCCCCCCC=CCCCCCCCC(=O)[O-]
REMARK SMILES IDX 10 1 9 2 11 3 12 4 13 5 14 6 15 7 16 8 17 9 18 10 19 11
REMARK SMILES IDX 20 12 8 13 7 14 6 15 5 16 4 17 3 18 2 19 1 20
REMARK H PARENT
REMARK Flexibility Score: inf
ROOT
ATOM      1  C   UNL     1      -2.861   9.254 -17.845  1.00  0.00    -0.031 C 
ATOM      2  C   UNL     1      -3.102   8.071 -17.260  1.00  0.00    -0.031 C 
ENDROOT
BRANCH   1   3
ATOM      3  C   UNL     1      -3.920  10.321 -17.938  1.00  0.00     0.027 C 
BRANCH   3   4
ATOM      4  C   UNL     1      -3.386  11.580 -18.634  1.00  0.00     0.004 C 
BRANCH   4   5
ATOM      5  C   UNL     1      -4.430  12.208 -19.574  1.00  0.00     0.000 C 
BRANCH   5   6
ATOM      6  C   UNL     1      -5.217  11.158 -20.372  1.00  0.00     0.000 C 
BRANCH   6   7
ATOM      7  C   UNL     1      -6.728  11.442 -20.402  1.00  0.00     0.000 C 
BRANCH   7   8
ATOM      8  C   UNL     1      -7.446  10.936 -19.133  1.00  0.00     0.006 C 
BRANCH   8   9
ATOM      9  C   UNL     1      -7.627  12.019 -18.058  1.00  0.00     0.053 C 
BRANCH   9  10
ATOM     10  C   UNL     1      -7.615  11.451 -16.673  1.00  0.00     0.041 C 
ATOM     11  O   UNL     1      -8.365  11.932 -15.783  1.00  0.00    -0.550 OA
ATOM     12  O   UNL     1      -6.756  10.406 -16.358  1.00  0.00    -0.550 OA
ENDBRANCH   9  10
ENDBRANCH   8   9
ENDBRANCH   7   8
ENDBRANCH   6   7
ENDBRANCH   5   6
ENDBRANCH   4   5
ENDBRANCH   3   4
ENDBRANCH   1   3
BRANCH   2  13
ATOM     13  C   UNL     1      -2.058   6.991 -17.219  1.00  0.00     0.027 C 
BRANCH  13  14
ATOM     14  C   UNL     1      -2.706   5.599 -17.272  1.00  0.00     0.004 C 
BRANCH  14  15
ATOM     15  C   UNL     1      -1.921   4.605 -18.146  1.00  0.00     0.000 C 
BRANCH  15  16
ATOM     16  C   UNL     1      -1.100   5.235 -19.293  1.00  0.00     0.000 C 
BRANCH  16  17
ATOM     17  C   UNL     1       0.426   5.267 -19.068  1.00  0.00    -0.000 C 
BRANCH  17  18
ATOM     18  C   UNL     1       0.956   6.632 -18.578  1.00  0.00    -0.000 C 
BRANCH  18  19
ATOM     19  C   UNL     1       0.314   7.831 -19.294  1.00  0.00    -0.003 C 
ATOM     20  C   UNL     1       0.588   9.158 -18.589  1.00  0.00     0.004 C 
ENDBRANCH  18  19
ENDBRANCH  17  18
ENDBRANCH  16  17
ENDBRANCH  15  16
ENDBRANCH  14  15
ENDBRANCH  13  14
ENDBRANCH   2  13
TORSDOF 15
ENDMDL
MODEL 7
REMARK VINA RESULT:    -5.130      4.109      6.066
REMARK INTER + INTRA:         -11.149
REMARK INTER:                 -10.218
REMARK INTRA:                  -0.931
REMARK UNBOUND:                -1.520
REMARK SMILES CCCCCCCCC=CCCCCCCCC(=O)[O-]
REMARK SMILES IDX 10 1 9 2 11 3 12 4 13 5 14 6 15 7 16 8 17 9 18 10 19 11
REMARK SMILES IDX 20 12 8 13 7 14 6 15 5 16 4 17 3 18 2 19 1 20
REMARK H PARENT
REMARK Flexibility Score: inf
ROOT
ATOM      1  C   UNL     1      -3.659  11.921 -19.048  1.00  0.00    -0.031 C 
ATOM      2  C   UNL     1      -2.700  12.686 -18.506  1.00  0.00    -0.031 C 
ENDROOT
BRANCH   1   3
ATOM      3  C   UNL     1      -3.980  10.553 -18.509  1.00  0.00     0.027 C 
BRANCH   3   4
ATOM      4  C   UNL     1      -2.836  10.010 -17.642  1.00  0.00     0.004 C 
BRANCH   4   5
ATOM      5  C   UNL     1      -2.047   8.899 -18.355  1.00  0.00     0.000 C 
BRANCH   5   6
ATOM      6  C   UNL     1      -0.527   9.059 -18.203  1.00  0.00     0.000 C 
BRANCH   6   7
ATOM      7  C   UNL     1       0.266   7.995 -18.982  1.00  0.00     0.000 C 
BRANCH   7   8
ATOM      8  C   UNL     1       0.389   6.669 -18.205  1.00  0.00     0.006 C 
BRANCH   8   9
ATOM      9  C   UNL     1      -0.256   5.473 -18.924  1.00  0.00     0.053 C 
BRANCH   9  10
ATOM     10  C   UNL     1      -1.442   4.938 -18.183  1.00  0.00     0.041 C 
ATOM     11  O   UNL     1      -1.849   3.766 -18.399  1.00  0.00    -0.550 OA
ATOM     12  O   UNL     1      -2.114   5.743 -17.273  1.00  0.00    -0.550 OA
ENDBRANCH   9  10
ENDBRANCH   8   9
ENDBRANCH   7   8
ENDBRANCH   6   7
ENDBRANCH   5   6
ENDBRANCH   4   5
ENDBRANCH   3   4
ENDBRANCH   1   3
BRANCH   2  13
ATOM     13  C   UNL     1      -2.347  14.028 -19.083  1.00  0.00     0.027 C 
BRANCH  13  14
ATOM     14  C   UNL     1      -1.929  15.009 -17.977  1.00  0.00     0.004 C 
BRANCH  14  15
ATOM     15  C   UNL     1      -1.292  16.297 -18.527  1.00  0.00     0.000 C 
BRANCH  15  16
ATOM     16  C   UNL     1       0.252  16.330 -18.515  1.00  0.00     0.000 C 
BRANCH  16  17
ATOM     17  C   UNL     1       0.889  17.557 -19.199  1.00  0.00    -0.000 C 
BRANCH  17  18
ATOM     18  C   UNL     1       1.350  17.293 -20.649  1.00  0.00    -0.000 C 
BRANCH  18  19
ATOM     19  C   UNL     1       2.027  15.927 -20.838  1.00  0.00    -0.003 C 
ATOM     20  C   UNL     1       1.578  15.213 -22.112  1.00  0.00     0.004 C 
ENDBRANCH  18  19
ENDBRANCH  17  18
ENDBRANCH  16  17
ENDBRANCH  15  16
ENDBRANCH  14  15
ENDBRANCH  13  14
ENDBRANCH   2  13
TORSDOF 15
ENDMDL
MODEL 8
REMARK VINA RESULT:    -5.055      0.834      2.597
REMARK INTER + INTRA:         -11.007
REMARK INTER:                  -9.853
REMARK INTRA:                  -1.154
REMARK UNBOUND:                -1.520
REMARK SMILES CCCCCCCCC=CCCCCCCCC(=O)[O-]
REMARK SMILES IDX 10 1 9 2 11 3 12 4 13 5 14 6 15 7 16 8 17 9 18 10 19 11
REMARK SMILES IDX 20 12 8 13 7 14 6 15 5 16 4 17 3 18 2 19 1 20
REMARK H PARENT
REMARK Flexibility Score: inf
ROOT
ATOM      1  C   UNL     1      -2.996   9.826 -18.218  1.00  0.00    -0.031 C 
ATOM      2  C   UNL     1      -4.036   9.753 -17.374  1.00  0.00    -0.031 C 
ENDROOT
BRANCH   1   3
ATOM      3  C   UNL     1      -1.833   8.876 -18.125  1.00  0.00     0.027 C 
BRANCH   3   4
ATOM      4  C   UNL     1      -0.502   9.631 -18.001  1.00  0.00     0.004 C 
BRANCH   4   5
ATOM      5  C   UNL     1       0.610   8.986 -18.846  1.00  0.00     0.000 C 
BRANCH   5   6
ATOM      6  C   UNL     1       0.253   7.566 -19.311  1.00  0.00     0.000 C 
BRANCH   6   7
ATOM      7  C   UNL     1       0.760   6.479 -18.347  1.00  0.00     0.000 C 
BRANCH   7   8
ATOM      8  C   UNL     1       0.413   5.056 -18.833  1.00  0.00     0.006 C 
BRANCH   8   9
ATOM      9  C   UNL     1      -0.925   4.972 -19.583  1.00  0.00     0.053 C 
BRANCH   9  10
ATOM     10  C   UNL     1      -2.070   4.669 -18.667  1.00  0.00     0.041 C 
ATOM     11  O   UNL     1      -2.900   3.769 -18.965  1.00  0.00    -0.550 OA
ATOM     12  O   UNL     1      -2.236   5.397 -17.497  1.00  0.00    -0.550 OA
ENDBRANCH   9  10
ENDBRANCH   8   9
ENDBRANCH   7   8
ENDBRANCH   6   7
ENDBRANCH   5   6
ENDBRANCH   4   5
ENDBRANCH   3   4
ENDBRANCH   1   3
BRANCH   2  13
ATOM     13  C   UNL     1      -5.169  10.739 -17.437  1.00  0.00     0.027 C 
BRANCH  13  14
ATOM     14  C   UNL     1      -6.298  10.340 -16.476  1.00  0.00     0.004 C 
BRANCH  14  15
ATOM     15  C   UNL     1      -7.554  11.217 -16.628  1.00  0.00     0.000 C 
BRANCH  15  16
ATOM     16  C   UNL     1      -7.830  11.737 -18.056  1.00  0.00     0.000 C 
BRANCH  16  17
ATOM     17  C   UNL     1      -8.077  10.644 -19.116  1.00  0.00    -0.000 C 
BRANCH  17  18
ATOM     18  C   UNL     1      -7.690  11.067 -20.550  1.00  0.00    -0.000 C 
BRANCH  18  19
ATOM     19  C   UNL     1      -6.397  11.894 -20.617  1.00  0.00    -0.003 C 
ATOM     20  C   UNL     1      -5.173  11.054 -20.975  1.00  0.00     0.004 C 
ENDBRANCH  18  19
ENDBRANCH  17  18
ENDBRANCH  16  17
ENDBRANCH  15  16
ENDBRANCH  14  15
ENDBRANCH  13  14
ENDBRANCH   2  13
TORSDOF 15
ENDMDL
MODEL 9
REMARK VINA RESULT:    -4.899      2.314      7.386
REMARK INTER + INTRA:         -10.716
REMARK INTER:                  -9.075
REMARK INTRA:                  -1.641
REMARK UNBOUND:                -1.520
REMARK SMILES CCCCCCCCC=CCCCCCCCC(=O)[O-]
REMARK SMILES IDX 10 1 9 2 11 3 12 4 13 5 14 6 15 7 16 8 17 9 18 10 19 11
REMARK SMILES IDX 20 12 8 13 7 14 6 15 5 16 4 17 3 18 2 19 1 20
REMARK H PARENT
REMARK Flexibility Score: inf
ROOT
ATOM      1  C   UNL     1      -4.781   9.801 -17.237  1.00  0.00    -0.031 C 
ATOM      2  C   UNL     1      -3.561   9.309 -16.974  1.00  0.00    -0.031 C 
ENDROOT
BRANCH   1   3
ATOM      3  C   UNL     1      -5.667  10.343 -16.148  1.00  0.00     0.027 C 
BRANCH   3   4
ATOM      4  C   UNL     1      -7.147  10.289 -16.552  1.00  0.00     0.004 C 
BRANCH   4   5
ATOM      5  C   UNL     1      -7.778  11.691 -16.623  1.00  0.00     0.000 C 
BRANCH   5   6
ATOM      6  C   UNL     1      -7.942  12.194 -18.065  1.00  0.00     0.000 C 
BRANCH   6   7
ATOM      7  C   UNL     1      -7.830  11.067 -19.106  1.00  0.00     0.000 C 
BRANCH   7   8
ATOM      8  C   UNL     1      -6.832  11.405 -20.233  1.00  0.00     0.006 C 
BRANCH   8   9
ATOM      9  C   UNL     1      -5.784  12.455 -19.830  1.00  0.00     0.053 C 
BRANCH   9  10
ATOM     10  C   UNL     1      -4.403  11.881 -19.763  1.00  0.00     0.041 C 
ATOM     11  O   UNL     1      -4.135  10.804 -20.358  1.00  0.00    -0.550 OA
ATOM     12  O   UNL     1      -3.419  12.522 -19.022  1.00  0.00    -0.550 OA
ENDBRANCH   9  10
ENDBRANCH   8   9
ENDBRANCH   7   8
ENDBRANCH   6   7
ENDBRANCH   5   6
ENDBRANCH   4   5
ENDBRANCH   3   4
ENDBRANCH   1   3
BRANCH   2  13
ATOM     13  C   UNL     1      -2.703   8.719 -18.058  1.00  0.00     0.027 C 
BRANCH  13  14
ATOM     14  C   UNL     1      -1.467   9.593 -18.316  1.00  0.00     0.004 C 
BRANCH  14  15
ATOM     15  C   UNL     1      -0.143   8.829 -18.136  1.00  0.00     0.000 C 
BRANCH  15  16
ATOM     16  C   UNL     1       0.079   7.649 -19.108  1.00  0.00     0.000 C 
BRANCH  16  17
ATOM     17  C   UNL     1       0.172   6.260 -18.444  1.00  0.00    -0.000 C 
BRANCH  17  18
ATOM     18  C   UNL     1      -0.415   5.118 -19.302  1.00  0.00    -0.000 C 
BRANCH  18  19
ATOM     19  C   UNL     1      -1.834   4.704 -18.883  1.00  0.00    -0.003 C 
ATOM     20  C   UNL     1      -2.219   5.222 -17.498  1.00  0.00     0.004 C 
ENDBRANCH  18  19
ENDBRANCH  17  18
ENDBRANCH  16  17
ENDBRANCH  15  16
ENDBRANCH  14  15
ENDBRANCH  13  14
ENDBRANCH   2  13
TORSDOF 15
ENDMDL
