MODEL 1
REMARK VINA RESULT:    -5.356      0.000      0.000
REMARK INTER + INTRA:          -6.746
REMARK INTER:                  -6.452
REMARK INTRA:                  -0.294
REMARK UNBOUND:                -0.294
REMARK SMILES O=c1c(O)c(-c2ccc(O)c(O)c2)oc2cc(O)cc(O)c12
REMARK SMILES IDX 5 1 3 2 2 3 1 4 22 5 20 6 19 7 17 8 16 9 15 10 14 11 6 12
REMARK SMILES IDX 7 13 8 14 9 15 13 16 11 17 10 18 12 20 4 22 21 24 18 26
REMARK H PARENT 10 19 12 21 4 23 21 25 18 27
REMARK Flexibility Score: inf
ROOT
ATOM      1  C   UNL     1       6.756  36.577  25.595  1.00  0.00     0.180 A 
ATOM      2  C   UNL     1       7.085  35.975  24.366  1.00  0.00     0.208 A 
ATOM      3  C   UNL     1       7.651  34.691  24.369  1.00  0.00     0.238 A 
ATOM      4  O   UNL     1       7.961  34.146  23.274  1.00  0.00    -0.285 OA
ATOM      5  C   UNL     1       7.861  34.024  25.594  1.00  0.00     0.111 A 
ATOM      6  C   UNL     1       8.423  32.728  25.684  1.00  0.00     0.134 A 
ATOM      7  C   UNL     1       8.591  32.130  26.941  1.00  0.00     0.093 A 
ATOM      8  C   UNL     1       8.209  32.797  28.106  1.00  0.00     0.123 A 
ATOM      9  C   UNL     1       7.653  34.078  28.023  1.00  0.00     0.094 A 
ATOM     10  C   UNL     1       7.479  34.694  26.781  1.00  0.00     0.146 A 
ATOM     11  O   UNL     1       6.953  35.913  26.731  1.00  0.00    -0.452 OA
ENDROOT
BRANCH   1  12
ATOM     12  C   UNL     1       6.172  37.935  25.674  1.00  0.00     0.025 A 
ATOM     13  C   UNL     1       7.007  39.056  25.540  1.00  0.00     0.016 A 
ATOM     14  C   UNL     1       6.475  40.346  25.591  1.00  0.00     0.051 A 
ATOM     15  C   UNL     1       5.099  40.537  25.758  1.00  0.00     0.157 A 
ATOM     16  C   UNL     1       4.787  38.129  25.822  1.00  0.00     0.062 A 
ATOM     17  C   UNL     1       4.249  39.424  25.869  1.00  0.00     0.158 A 
BRANCH  15  18
ATOM     18  O   UNL     1       4.597  41.837  25.806  1.00  0.00    -0.504 OA
ATOM     19  H   UNL     1       4.418  42.376  24.968  1.00  0.00     0.293 HD
ENDBRANCH  15  18
BRANCH  17  20
ATOM     20  O   UNL     1       2.876  39.608  26.022  1.00  0.00    -0.504 OA
ATOM     21  H   UNL     1       2.325  39.010  26.629  1.00  0.00     0.293 HD
ENDBRANCH  17  20
ENDBRANCH   1  12
BRANCH   2  22
ATOM     22  O   UNL     1       6.821  36.636  23.163  1.00  0.00    -0.502 OA
ATOM     23  H   UNL     1       6.211  37.443  23.109  1.00  0.00     0.293 HD
ENDBRANCH   2  22
BRANCH   6  24
ATOM     24  O   UNL     1       8.814  32.034  24.539  1.00  0.00    -0.507 OA
ATOM     25  H   UNL     1       8.552  32.346  23.611  1.00  0.00     0.293 HD
ENDBRANCH   6  24
BRANCH   8  26
ATOM     26  O   UNL     1       8.384  32.180  29.343  1.00  0.00    -0.508 OA
ATOM     27  H   UNL     1       8.368  32.709  30.206  1.00  0.00     0.293 HD
ENDBRANCH   8  26
TORSDOF 6
ENDMDL
MODEL 2
REMARK VINA RESULT:    -5.285      2.350      3.122
REMARK INTER + INTRA:          -6.661
REMARK INTER:                  -6.341
REMARK INTRA:                  -0.320
REMARK UNBOUND:                -0.294
REMARK SMILES O=c1c(O)c(-c2ccc(O)c(O)c2)oc2cc(O)cc(O)c12
REMARK SMILES IDX 5 1 3 2 2 3 1 4 22 5 20 6 19 7 17 8 16 9 15 10 14 11 6 12
REMARK SMILES IDX 7 13 8 14 9 15 13 16 11 17 10 18 12 20 4 22 21 24 18 26
REMARK H PARENT 10 19 12 21 4 23 21 25 18 27
REMARK Flexibility Score: inf
ROOT
ATOM      1  C   UNL     1       5.949  36.001  25.949  1.00  0.00     0.180 A 
ATOM      2  C   UNL     1       4.637  35.495  26.016  1.00  0.00     0.208 A 
ATOM      3  C   UNL     1       4.398  34.321  26.748  1.00  0.00     0.238 A 
ATOM      4  O   UNL     1       3.230  33.851  26.806  1.00  0.00    -0.285 OA
ATOM      5  C   UNL     1       5.467  33.686  27.415  1.00  0.00     0.111 A 
ATOM      6  C   UNL     1       5.311  32.503  28.177  1.00  0.00     0.134 A 
ATOM      7  C   UNL     1       6.423  31.938  28.818  1.00  0.00     0.093 A 
ATOM      8  C   UNL     1       7.683  32.530  28.715  1.00  0.00     0.123 A 
ATOM      9  C   UNL     1       7.843  33.699  27.964  1.00  0.00     0.094 A 
ATOM     10  C   UNL     1       6.749  34.278  27.315  1.00  0.00     0.146 A 
ATOM     11  O   UNL     1       6.929  35.385  26.604  1.00  0.00    -0.452 OA
ENDROOT
BRANCH   1  12
ATOM     12  C   UNL     1       6.282  37.223  25.182  1.00  0.00     0.025 A 
ATOM     13  C   UNL     1       6.680  37.110  23.840  1.00  0.00     0.016 A 
ATOM     14  C   UNL     1       6.979  38.251  23.092  1.00  0.00     0.051 A 
ATOM     15  C   UNL     1       6.868  39.522  23.666  1.00  0.00     0.157 A 
ATOM     16  C   UNL     1       6.152  38.502  25.751  1.00  0.00     0.062 A 
ATOM     17  C   UNL     1       6.448  39.650  25.001  1.00  0.00     0.158 A 
BRANCH  15  18
ATOM     18  O   UNL     1       7.175  40.642  22.895  1.00  0.00    -0.504 OA
ATOM     19  H   UNL     1       6.634  41.497  22.948  1.00  0.00     0.293 HD
ENDBRANCH  15  18
BRANCH  17  20
ATOM     20  O   UNL     1       6.323  40.915  25.574  1.00  0.00    -0.504 OA
ATOM     21  H   UNL     1       6.432  41.759  25.024  1.00  0.00     0.293 HD
ENDBRANCH  17  20
ENDBRANCH   1  12
BRANCH   2  22
ATOM     22  O   UNL     1       3.586  36.169  25.387  1.00  0.00    -0.502 OA
ATOM     23  H   UNL     1       3.691  36.614  24.483  1.00  0.00     0.293 HD
ENDBRANCH   2  22
BRANCH   6  24
ATOM     24  O   UNL     1       4.065  31.888  28.300  1.00  0.00    -0.507 OA
ATOM     25  H   UNL     1       3.849  31.021  27.823  1.00  0.00     0.293 HD
ENDBRANCH   6  24
BRANCH   8  26
ATOM     26  O   UNL     1       8.772  31.950  29.363  1.00  0.00    -0.508 OA
ATOM     27  H   UNL     1       9.375  32.490  29.972  1.00  0.00     0.293 HD
ENDBRANCH   8  26
TORSDOF 6
ENDMDL
MODEL 3
REMARK VINA RESULT:    -5.050      1.976      2.307
REMARK INTER + INTRA:          -6.378
REMARK INTER:                  -6.132
REMARK INTRA:                  -0.246
REMARK UNBOUND:                -0.294
REMARK SMILES O=c1c(O)c(-c2ccc(O)c(O)c2)oc2cc(O)cc(O)c12
REMARK SMILES IDX 5 1 3 2 2 3 1 4 22 5 20 6 19 7 17 8 16 9 15 10 14 11 6 12
REMARK SMILES IDX 7 13 8 14 9 15 13 16 11 17 10 18 12 20 4 22 21 24 18 26
REMARK H PARENT 10 19 12 21 4 23 21 25 18 27
REMARK Flexibility Score: inf
ROOT
ATOM      1  C   UNL     1       5.990  36.731  26.114  1.00  0.00     0.180 A 
ATOM      2  C   UNL     1       7.365  36.464  25.965  1.00  0.00     0.208 A 
ATOM      3  C   UNL     1       7.877  35.251  26.449  1.00  0.00     0.238 A 
ATOM      4  O   UNL     1       9.108  35.005  26.332  1.00  0.00    -0.285 OA
ATOM      5  C   UNL     1       7.007  34.319  27.055  1.00  0.00     0.111 A 
ATOM      6  C   UNL     1       7.442  33.073  27.566  1.00  0.00     0.134 A 
ATOM      7  C   UNL     1       6.513  32.197  28.146  1.00  0.00     0.093 A 
ATOM      8  C   UNL     1       5.162  32.540  28.224  1.00  0.00     0.123 A 
ATOM      9  C   UNL     1       4.726  33.771  27.721  1.00  0.00     0.094 A 
ATOM     10  C   UNL     1       5.636  34.659  27.141  1.00  0.00     0.146 A 
ATOM     11  O   UNL     1       5.197  35.823  26.676  1.00  0.00    -0.452 OA
ENDROOT
BRANCH   1  12
ATOM     12  C   UNL     1       5.380  37.996  25.645  1.00  0.00     0.025 A 
ATOM     13  C   UNL     1       5.630  39.186  26.346  1.00  0.00     0.016 A 
ATOM     14  C   UNL     1       5.081  40.394  25.909  1.00  0.00     0.051 A 
ATOM     15  C   UNL     1       4.289  40.435  24.757  1.00  0.00     0.157 A 
ATOM     16  C   UNL     1       4.601  38.043  24.475  1.00  0.00     0.062 A 
ATOM     17  C   UNL     1       4.051  39.255  24.032  1.00  0.00     0.158 A 
BRANCH  15  18
ATOM     18  O   UNL     1       3.753  41.656  24.346  1.00  0.00    -0.504 OA
ATOM     19  H   UNL     1       3.829  41.981  23.391  1.00  0.00     0.293 HD
ENDBRANCH  15  18
BRANCH  17  20
ATOM     20  O   UNL     1       3.275  39.292  22.875  1.00  0.00    -0.504 OA
ATOM     21  H   UNL     1       2.837  40.150  22.557  1.00  0.00     0.293 HD
ENDBRANCH  17  20
ENDBRANCH   1  12
BRANCH   2  22
ATOM     22  O   UNL     1       8.196  37.382  25.317  1.00  0.00    -0.502 OA
ATOM     23  H   UNL     1       8.547  38.215  25.775  1.00  0.00     0.293 HD
ENDBRANCH   2  22
BRANCH   6  24
ATOM     24  O   UNL     1       8.785  32.700  27.502  1.00  0.00    -0.507 OA
ATOM     25  H   UNL     1       9.466  33.041  28.170  1.00  0.00     0.293 HD
ENDBRANCH   6  24
BRANCH   8  26
ATOM     26  O   UNL     1       4.258  31.652  28.803  1.00  0.00    -0.508 OA
ATOM     27  H   UNL     1       4.449  31.206  29.692  1.00  0.00     0.293 HD
ENDBRANCH   8  26
TORSDOF 6
ENDMDL
MODEL 4
REMARK VINA RESULT:    -4.783      1.808      6.670
REMARK INTER + INTRA:          -6.056
REMARK INTER:                  -5.885
REMARK INTRA:                  -0.171
REMARK UNBOUND:                -0.294
REMARK SMILES O=c1c(O)c(-c2ccc(O)c(O)c2)oc2cc(O)cc(O)c12
REMARK SMILES IDX 5 1 3 2 2 3 1 4 22 5 20 6 19 7 17 8 16 9 15 10 14 11 6 12
REMARK SMILES IDX 7 13 8 14 9 15 13 16 11 17 10 18 12 20 4 22 21 24 18 26
REMARK H PARENT 10 19 12 21 4 23 21 25 18 27
REMARK Flexibility Score: inf
ROOT
ATOM      1  C   UNL     1       6.367  36.195  25.820  1.00  0.00     0.180 A 
ATOM      2  C   UNL     1       7.319  36.317  24.790  1.00  0.00     0.208 A 
ATOM      3  C   UNL     1       7.456  37.550  24.135  1.00  0.00     0.238 A 
ATOM      4  O   UNL     1       8.297  37.669  23.203  1.00  0.00    -0.285 OA
ATOM      5  C   UNL     1       6.655  38.643  24.531  1.00  0.00     0.111 A 
ATOM      6  C   UNL     1       6.733  39.919  23.924  1.00  0.00     0.134 A 
ATOM      7  C   UNL     1       5.908  40.957  24.382  1.00  0.00     0.093 A 
ATOM      8  C   UNL     1       5.011  40.746  25.431  1.00  0.00     0.123 A 
ATOM      9  C   UNL     1       4.930  39.486  26.034  1.00  0.00     0.094 A 
ATOM     10  C   UNL     1       5.741  38.438  25.591  1.00  0.00     0.146 A 
ATOM     11  O   UNL     1       5.641  37.250  26.178  1.00  0.00    -0.452 OA
ENDROOT
BRANCH   1  12
ATOM     12  C   UNL     1       6.153  34.923  26.546  1.00  0.00     0.025 A 
ATOM     13  C   UNL     1       4.948  34.222  26.373  1.00  0.00     0.016 A 
ATOM     14  C   UNL     1       4.733  33.010  27.032  1.00  0.00     0.051 A 
ATOM     15  C   UNL     1       5.723  32.468  27.858  1.00  0.00     0.157 A 
ATOM     16  C   UNL     1       7.155  34.366  27.361  1.00  0.00     0.062 A 
ATOM     17  C   UNL     1       6.943  33.147  28.021  1.00  0.00     0.158 A 
BRANCH  15  18
ATOM     18  O   UNL     1       5.479  31.257  28.504  1.00  0.00    -0.504 OA
ATOM     19  H   UNL     1       5.509  30.371  28.015  1.00  0.00     0.293 HD
ENDBRANCH  15  18
BRANCH  17  20
ATOM     20  O   UNL     1       7.939  32.606  28.832  1.00  0.00    -0.504 OA
ATOM     21  H   UNL     1       7.715  32.112  29.689  1.00  0.00     0.293 HD
ENDBRANCH  17  20
ENDBRANCH   1  12
BRANCH   2  22
ATOM     22  O   UNL     1       8.135  35.234  24.450  1.00  0.00    -0.502 OA
ATOM     23  H   UNL     1       9.139  35.246  24.588  1.00  0.00     0.293 HD
ENDBRANCH   2  22
BRANCH   6  24
ATOM     24  O   UNL     1       7.619  40.163  22.875  1.00  0.00    -0.507 OA
ATOM     25  H   UNL     1       7.294  40.442  21.956  1.00  0.00     0.293 HD
ENDBRANCH   6  24
BRANCH   8  26
ATOM     26  O   UNL     1       4.204  41.794  25.869  1.00  0.00    -0.508 OA
ATOM     27  H   UNL     1       3.460  42.167  25.291  1.00  0.00     0.293 HD
ENDBRANCH   8  26
TORSDOF 6
ENDMDL
MODEL 5
REMARK VINA RESULT:    -4.497      2.199      6.957
REMARK INTER + INTRA:          -5.711
REMARK INTER:                  -5.778
REMARK INTRA:                   0.067
REMARK UNBOUND:                -0.294
REMARK SMILES O=c1c(O)c(-c2ccc(O)c(O)c2)oc2cc(O)cc(O)c12
REMARK SMILES IDX 5 1 3 2 2 3 1 4 22 5 20 6 19 7 17 8 16 9 15 10 14 11 6 12
REMARK SMILES IDX 7 13 8 14 9 15 13 16 11 17 10 18 12 20 4 22 21 24 18 26
REMARK H PARENT 10 19 12 21 4 23 21 25 18 27
REMARK Flexibility Score: inf
ROOT
ATOM      1  C   UNL     1       5.976  35.887  26.945  1.00  0.00     0.180 A 
ATOM      2  C   UNL     1       4.736  36.494  27.220  1.00  0.00     0.208 A 
ATOM      3  C   UNL     1       4.408  37.693  26.568  1.00  0.00     0.238 A 
ATOM      4  O   UNL     1       3.306  38.253  26.814  1.00  0.00    -0.285 OA
ATOM      5  C   UNL     1       5.313  38.253  25.641  1.00  0.00     0.111 A 
ATOM      6  C   UNL     1       5.057  39.455  24.938  1.00  0.00     0.134 A 
ATOM      7  C   UNL     1       6.004  39.941  24.025  1.00  0.00     0.093 A 
ATOM      8  C   UNL     1       7.197  39.251  23.800  1.00  0.00     0.123 A 
ATOM      9  C   UNL     1       7.455  38.063  24.491  1.00  0.00     0.094 A 
ATOM     10  C   UNL     1       6.525  37.562  25.406  1.00  0.00     0.146 A 
ATOM     11  O   UNL     1       6.798  36.434  26.053  1.00  0.00    -0.452 OA
ENDROOT
BRANCH   1  12
ATOM     12  C   UNL     1       6.401  34.632  27.606  1.00  0.00     0.025 A 
ATOM     13  C   UNL     1       7.679  34.552  28.181  1.00  0.00     0.016 A 
ATOM     14  C   UNL     1       8.092  33.385  28.828  1.00  0.00     0.051 A 
ATOM     15  C   UNL     1       7.231  32.287  28.926  1.00  0.00     0.157 A 
ATOM     16  C   UNL     1       5.529  33.535  27.723  1.00  0.00     0.062 A 
ATOM     17  C   UNL     1       5.940  32.363  28.375  1.00  0.00     0.158 A 
BRANCH  15  18
ATOM     18  O   UNL     1       7.672  31.135  29.575  1.00  0.00    -0.504 OA
ATOM     19  H   UNL     1       7.684  31.058  30.585  1.00  0.00     0.293 HD
ENDBRANCH  15  18
BRANCH  17  20
ATOM     20  O   UNL     1       5.072  31.277  28.481  1.00  0.00    -0.504 OA
ATOM     21  H   UNL     1       4.357  31.239  29.198  1.00  0.00     0.293 HD
ENDBRANCH  17  20
ENDBRANCH   1  12
BRANCH   2  22
ATOM     22  O   UNL     1       3.836  35.894  28.105  1.00  0.00    -0.502 OA
ATOM     23  H   UNL     1       4.120  35.543  29.013  1.00  0.00     0.293 HD
ENDBRANCH   2  22
BRANCH   6  24
ATOM     24  O   UNL     1       3.875  40.167  25.141  1.00  0.00    -0.507 OA
ATOM     25  H   UNL     1       3.535  40.384  26.071  1.00  0.00     0.293 HD
ENDBRANCH   6  24
BRANCH   8  26
ATOM     26  O   UNL     1       8.121  39.755  22.886  1.00  0.00    -0.508 OA
ATOM     27  H   UNL     1       7.878  40.497  22.241  1.00  0.00     0.293 HD
ENDBRANCH   8  26
TORSDOF 6
ENDMDL
MODEL 6
REMARK VINA RESULT:    -4.352      2.126      6.685
REMARK INTER + INTRA:          -5.537
REMARK INTER:                  -5.595
REMARK INTRA:                   0.058
REMARK UNBOUND:                -0.294
REMARK SMILES O=c1c(O)c(-c2ccc(O)c(O)c2)oc2cc(O)cc(O)c12
REMARK SMILES IDX 5 1 3 2 2 3 1 4 22 5 20 6 19 7 17 8 16 9 15 10 14 11 6 12
REMARK SMILES IDX 7 13 8 14 9 15 13 16 11 17 10 18 12 20 4 22 21 24 18 26
REMARK H PARENT 10 19 12 21 4 23 21 25 18 27
REMARK Flexibility Score: inf
ROOT
ATOM      1  C   UNL     1       5.809  35.498  26.236  1.00  0.00     0.180 A 
ATOM      2  C   UNL     1       4.996  35.273  25.108  1.00  0.00     0.208 A 
ATOM      3  C   UNL     1       4.572  36.374  24.347  1.00  0.00     0.238 A 
ATOM      4  O   UNL     1       3.834  36.186  23.341  1.00  0.00    -0.285 OA
ATOM      5  C   UNL     1       4.981  37.674  24.713  1.00  0.00     0.111 A 
ATOM      6  C   UNL     1       4.600  38.834  23.997  1.00  0.00     0.134 A 
ATOM      7  C   UNL     1       5.057  40.091  24.420  1.00  0.00     0.093 A 
ATOM      8  C   UNL     1       5.884  40.211  25.538  1.00  0.00     0.123 A 
ATOM      9  C   UNL     1       6.263  39.067  26.249  1.00  0.00     0.094 A 
ATOM     10  C   UNL     1       5.817  37.805  25.846  1.00  0.00     0.146 A 
ATOM     11  O   UNL     1       6.188  36.736  26.541  1.00  0.00    -0.452 OA
ENDROOT
BRANCH   1  12
ATOM     12  C   UNL     1       6.281  34.391  27.097  1.00  0.00     0.025 A 
ATOM     13  C   UNL     1       7.601  34.403  27.576  1.00  0.00     0.016 A 
ATOM     14  C   UNL     1       8.062  33.380  28.407  1.00  0.00     0.051 A 
ATOM     15  C   UNL     1       7.209  32.339  28.788  1.00  0.00     0.157 A 
ATOM     16  C   UNL     1       5.419  33.355  27.497  1.00  0.00     0.062 A 
ATOM     17  C   UNL     1       5.879  32.327  28.335  1.00  0.00     0.158 A 
BRANCH  15  18
ATOM     18  O   UNL     1       7.698  31.330  29.617  1.00  0.00    -0.504 OA
ATOM     19  H   UNL     1       8.624  31.371  30.024  1.00  0.00     0.293 HD
ENDBRANCH  15  18
BRANCH  17  20
ATOM     20  O   UNL     1       5.020  31.300  28.721  1.00  0.00    -0.504 OA
ATOM     21  H   UNL     1       4.103  31.190  28.303  1.00  0.00     0.293 HD
ENDBRANCH  17  20
ENDBRANCH   1  12
BRANCH   2  22
ATOM     22  O   UNL     1       4.646  33.972  24.738  1.00  0.00    -0.502 OA
ATOM     23  H   UNL     1       5.252  33.178  24.906  1.00  0.00     0.293 HD
ENDBRANCH   2  22
BRANCH   6  24
ATOM     24  O   UNL     1       3.776  38.749  22.875  1.00  0.00    -0.507 OA
ATOM     25  H   UNL     1       3.447  39.576  22.391  1.00  0.00     0.293 HD
ENDBRANCH   6  24
BRANCH   8  26
ATOM     26  O   UNL     1       6.325  41.471  25.937  1.00  0.00    -0.508 OA
ATOM     27  H   UNL     1       6.417  42.234  25.276  1.00  0.00     0.293 HD
ENDBRANCH   8  26
TORSDOF 6
ENDMDL
MODEL 7
REMARK VINA RESULT:    -4.277      1.573      7.221
REMARK INTER + INTRA:          -5.446
REMARK INTER:                  -5.348
REMARK INTRA:                  -0.098
REMARK UNBOUND:                -0.294
REMARK SMILES O=c1c(O)c(-c2ccc(O)c(O)c2)oc2cc(O)cc(O)c12
REMARK SMILES IDX 5 1 3 2 2 3 1 4 22 5 20 6 19 7 17 8 16 9 15 10 14 11 6 12
REMARK SMILES IDX 7 13 8 14 9 15 13 16 11 17 10 18 12 20 4 22 21 24 18 26
REMARK H PARENT 10 19 12 21 4 23 21 25 18 27
REMARK Flexibility Score: inf
ROOT
ATOM      1  C   UNL     1       6.041  36.586  25.927  1.00  0.00     0.180 A 
ATOM      2  C   UNL     1       4.790  36.851  26.516  1.00  0.00     0.208 A 
ATOM      3  C   UNL     1       4.185  38.098  26.292  1.00  0.00     0.238 A 
ATOM      4  O   UNL     1       3.070  38.352  26.823  1.00  0.00    -0.285 OA
ATOM      5  C   UNL     1       4.829  39.047  25.470  1.00  0.00     0.111 A 
ATOM      6  C   UNL     1       4.285  40.324  25.191  1.00  0.00     0.134 A 
ATOM      7  C   UNL     1       4.983  41.209  24.356  1.00  0.00     0.093 A 
ATOM      8  C   UNL     1       6.209  40.844  23.796  1.00  0.00     0.123 A 
ATOM      9  C   UNL     1       6.750  39.583  24.068  1.00  0.00     0.094 A 
ATOM     10  C   UNL     1       6.072  38.687  24.899  1.00  0.00     0.146 A 
ATOM     11  O   UNL     1       6.611  37.498  25.146  1.00  0.00    -0.452 OA
ENDROOT
BRANCH   1  12
ATOM     12  C   UNL     1       6.749  35.302  26.132  1.00  0.00     0.025 A 
ATOM     13  C   UNL     1       7.173  34.562  25.017  1.00  0.00     0.016 A 
ATOM     14  C   UNL     1       7.862  33.358  25.186  1.00  0.00     0.051 A 
ATOM     15  C   UNL     1       8.153  32.884  26.470  1.00  0.00     0.157 A 
ATOM     16  C   UNL     1       7.061  34.834  27.421  1.00  0.00     0.062 A 
ATOM     17  C   UNL     1       7.755  33.627  27.594  1.00  0.00     0.158 A 
BRANCH  15  18
ATOM     18  O   UNL     1       8.840  31.678  26.607  1.00  0.00    -0.504 OA
ATOM     19  H   UNL     1       9.531  31.373  25.933  1.00  0.00     0.293 HD
ENDBRANCH  15  18
BRANCH  17  20
ATOM     20  O   UNL     1       8.054  33.167  28.875  1.00  0.00    -0.504 OA
ATOM     21  H   UNL     1       8.717  32.416  29.027  1.00  0.00     0.293 HD
ENDBRANCH  17  20
ENDBRANCH   1  12
BRANCH   2  22
ATOM     22  O   UNL     1       4.149  35.875  27.285  1.00  0.00    -0.502 OA
ATOM     23  H   UNL     1       4.528  35.542  28.164  1.00  0.00     0.293 HD
ENDBRANCH   2  22
BRANCH   6  24
ATOM     24  O   UNL     1       3.063  40.719  25.735  1.00  0.00    -0.507 OA
ATOM     25  H   UNL     1       2.570  41.539  25.401  1.00  0.00     0.293 HD
ENDBRANCH   6  24
BRANCH   8  26
ATOM     26  O   UNL     1       6.882  41.740  22.968  1.00  0.00    -0.508 OA
ATOM     27  H   UNL     1       7.823  41.556  22.642  1.00  0.00     0.293 HD
ENDBRANCH   8  26
TORSDOF 6
ENDMDL
MODEL 8
REMARK VINA RESULT:    -4.126     17.469     19.900
REMARK INTER + INTRA:          -5.264
REMARK INTER:                  -5.256
REMARK INTRA:                  -0.009
REMARK UNBOUND:                -0.294
REMARK SMILES O=c1c(O)c(-c2ccc(O)c(O)c2)oc2cc(O)cc(O)c12
REMARK SMILES IDX 5 1 3 2 2 3 1 4 22 5 20 6 19 7 17 8 16 9 15 10 14 11 6 12
REMARK SMILES IDX 7 13 8 14 9 15 13 16 11 17 10 18 12 20 4 22 21 24 18 26
REMARK H PARENT 10 19 12 21 4 23 21 25 18 27
REMARK Flexibility Score: inf
ROOT
ATOM      1  C   UNL     1      18.017  40.491  40.862  1.00  0.00     0.180 A 
ATOM      2  C   UNL     1      16.855  40.425  41.655  1.00  0.00     0.208 A 
ATOM      3  C   UNL     1      15.618  40.746  41.074  1.00  0.00     0.238 A 
ATOM      4  O   UNL     1      14.572  40.703  41.776  1.00  0.00    -0.285 OA
ATOM      5  C   UNL     1      15.560  41.106  39.711  1.00  0.00     0.111 A 
ATOM      6  C   UNL     1      14.354  41.439  39.049  1.00  0.00     0.134 A 
ATOM      7  C   UNL     1      14.380  41.777  37.688  1.00  0.00     0.093 A 
ATOM      8  C   UNL     1      15.582  41.787  36.978  1.00  0.00     0.123 A 
ATOM      9  C   UNL     1      16.776  41.459  37.627  1.00  0.00     0.094 A 
ATOM     10  C   UNL     1      16.774  41.121  38.983  1.00  0.00     0.146 A 
ATOM     11  O   UNL     1      17.922  40.818  39.577  1.00  0.00    -0.452 OA
ENDROOT
BRANCH   1  12
ATOM     12  C   UNL     1      19.358  40.185  41.408  1.00  0.00     0.025 A 
ATOM     13  C   UNL     1      19.790  40.825  42.580  1.00  0.00     0.016 A 
ATOM     14  C   UNL     1      21.044  40.536  43.124  1.00  0.00     0.051 A 
ATOM     15  C   UNL     1      21.878  39.591  42.517  1.00  0.00     0.157 A 
ATOM     16  C   UNL     1      20.189  39.220  40.810  1.00  0.00     0.062 A 
ATOM     17  C   UNL     1      21.448  38.926  41.356  1.00  0.00     0.158 A 
BRANCH  15  18
ATOM     18  O   UNL     1      23.125  39.325  43.082  1.00  0.00    -0.504 OA
ATOM     19  H   UNL     1      23.987  39.456  42.567  1.00  0.00     0.293 HD
ENDBRANCH  15  18
BRANCH  17  20
ATOM     20  O   UNL     1      22.268  37.973  40.754  1.00  0.00    -0.504 OA
ATOM     21  H   UNL     1      22.924  38.225  40.023  1.00  0.00     0.293 HD
ENDBRANCH  17  20
ENDBRANCH   1  12
BRANCH   2  22
ATOM     22  O   UNL     1      16.932  40.019  42.990  1.00  0.00    -0.502 OA
ATOM     23  H   UNL     1      17.791  39.674  43.404  1.00  0.00     0.293 HD
ENDBRANCH   2  22
BRANCH   6  24
ATOM     24  O   UNL     1      13.137  41.437  39.730  1.00  0.00    -0.507 OA
ATOM     25  H   UNL     1      12.908  42.149  40.414  1.00  0.00     0.293 HD
ENDBRANCH   6  24
BRANCH   8  26
ATOM     26  O   UNL     1      15.580  42.125  35.626  1.00  0.00    -0.508 OA
ATOM     27  H   UNL     1      16.049  41.551  34.935  1.00  0.00     0.293 HD
ENDBRANCH   8  26
TORSDOF 6
ENDMDL
MODEL 9
REMARK VINA RESULT:    -3.893      2.856      4.140
REMARK INTER + INTRA:          -4.984
REMARK INTER:                  -5.524
REMARK INTRA:                   0.540
REMARK UNBOUND:                -0.294
REMARK SMILES O=c1c(O)c(-c2ccc(O)c(O)c2)oc2cc(O)cc(O)c12
REMARK SMILES IDX 5 1 3 2 2 3 1 4 22 5 20 6 19 7 17 8 16 9 15 10 14 11 6 12
REMARK SMILES IDX 7 13 8 14 9 15 13 16 11 17 10 18 12 20 4 22 21 24 18 26
REMARK H PARENT 10 19 12 21 4 23 21 25 18 27
REMARK Flexibility Score: inf
ROOT
ATOM      1  C   UNL     1       7.267  35.236  25.855  1.00  0.00     0.180 A 
ATOM      2  C   UNL     1       5.872  35.104  25.718  1.00  0.00     0.208 A 
ATOM      3  C   UNL     1       5.206  34.129  26.476  1.00  0.00     0.238 A 
ATOM      4  O   UNL     1       3.958  33.992  26.353  1.00  0.00    -0.285 OA
ATOM      5  C   UNL     1       5.938  33.318  27.368  1.00  0.00     0.111 A 
ATOM      6  C   UNL     1       5.342  32.315  28.171  1.00  0.00     0.134 A 
ATOM      7  C   UNL     1       6.139  31.557  29.041  1.00  0.00     0.093 A 
ATOM      8  C   UNL     1       7.514  31.781  29.126  1.00  0.00     0.123 A 
ATOM      9  C   UNL     1       8.109  32.771  28.336  1.00  0.00     0.094 A 
ATOM     10  C   UNL     1       7.333  33.536  27.461  1.00  0.00     0.146 A 
ATOM     11  O   UNL     1       7.923  34.466  26.718  1.00  0.00    -0.452 OA
ENDROOT
BRANCH   1  12
ATOM     12  C   UNL     1       8.043  36.229  25.077  1.00  0.00     0.025 A 
ATOM     13  C   UNL     1       7.380  37.057  24.157  1.00  0.00     0.016 A 
ATOM     14  C   UNL     1       8.088  38.015  23.428  1.00  0.00     0.051 A 
ATOM     15  C   UNL     1       9.465  38.174  23.619  1.00  0.00     0.157 A 
ATOM     16  C   UNL     1       9.423  36.405  25.283  1.00  0.00     0.062 A 
ATOM     17  C   UNL     1      10.136  37.368  24.554  1.00  0.00     0.158 A 
BRANCH  15  18
ATOM     18  O   UNL     1      10.145  39.137  22.875  1.00  0.00    -0.504 OA
ATOM     19  H   UNL     1      10.524  38.939  21.957  1.00  0.00     0.293 HD
ENDBRANCH  15  18
BRANCH  17  20
ATOM     20  O   UNL     1      11.505  37.531  24.759  1.00  0.00    -0.504 OA
ATOM     21  H   UNL     1      11.901  38.433  25.002  1.00  0.00     0.293 HD
ENDBRANCH  17  20
ENDBRANCH   1  12
BRANCH   2  22
ATOM     22  O   UNL     1       5.163  35.953  24.864  1.00  0.00    -0.502 OA
ATOM     23  H   UNL     1       5.508  36.867  24.596  1.00  0.00     0.293 HD
ENDBRANCH   2  22
BRANCH   6  24
ATOM     24  O   UNL     1       3.971  32.068  28.109  1.00  0.00    -0.507 OA
ATOM     25  H   UNL     1       3.546  31.618  27.307  1.00  0.00     0.293 HD
ENDBRANCH   6  24
BRANCH   8  26
ATOM     26  O   UNL     1       8.284  31.015  30.000  1.00  0.00    -0.508 OA
ATOM     27  H   UNL     1       8.175  31.088  31.005  1.00  0.00     0.293 HD
ENDBRANCH   8  26
TORSDOF 6
ENDMDL
