MODEL 1
REMARK VINA RESULT:    -3.154      0.000      0.000
REMARK INTER + INTRA:         -13.997
REMARK INTER:                  -8.318
REMARK INTRA:                  -5.679
REMARK UNBOUND:                -5.679
REMARK SMILES CCCCCCCCCCCCCCCCCCCCCCCCCCCCCC(=O)[O-]
REMARK SMILES IDX 16 1 17 2 18 3 19 4 20 5 21 6 22 7 23 8 24 9 25 10 26 11
REMARK SMILES IDX 27 12 28 13 29 14 30 15 31 16 32 17 15 18 14 19 13 20 12 21
REMARK SMILES IDX 11 22 10 23 9 24 8 25 7 26 6 27 5 28 4 29 3 30 2 31 1 32
REMARK H PARENT
REMARK Flexibility Score: inf
ROOT
ATOM      1  C   UNL     1     -42.331 -42.357  69.225  1.00  0.00     0.000 C 
ENDROOT
BRANCH   1   2
ATOM      2  C   UNL     1     -43.115 -41.789  70.417  1.00  0.00     0.000 C 
BRANCH   2   3
ATOM      3  C   UNL     1     -42.204 -41.340  71.571  1.00  0.00     0.000 C 
BRANCH   3   4
ATOM      4  C   UNL     1     -40.839 -42.051  71.566  1.00  0.00     0.000 C 
BRANCH   4   5
ATOM      5  C   UNL     1     -40.809 -43.264  72.511  1.00  0.00     0.000 C 
BRANCH   5   6
ATOM      6  C   UNL     1     -40.627 -44.595  71.760  1.00  0.00     0.000 C 
BRANCH   6   7
ATOM      7  C   UNL     1     -41.773 -45.589  72.028  1.00  0.00     0.000 C 
BRANCH   7   8
ATOM      8  C   UNL     1     -43.165 -44.947  72.193  1.00  0.00     0.000 C 
BRANCH   8   9
ATOM      9  C   UNL     1     -43.941 -45.378  73.454  1.00  0.00     0.000 C 
BRANCH   9  10
ATOM     10  C   UNL     1     -43.115 -45.364  74.756  1.00  0.00     0.000 C 
BRANCH  10  11
ATOM     11  C   UNL     1     -43.471 -44.178  75.669  1.00  0.00     0.000 C 
BRANCH  11  12
ATOM     12  C   UNL     1     -42.469 -43.019  75.546  1.00  0.00     0.000 C 
BRANCH  12  13
ATOM     13  C   UNL     1     -43.160 -41.694  75.181  1.00  0.00     0.006 C 
BRANCH  13  14
ATOM     14  C   UNL     1     -44.482 -41.911  74.434  1.00  0.00     0.053 C 
BRANCH  14  15
ATOM     15  C   UNL     1     -45.250 -40.638  74.235  1.00  0.00     0.041 C 
ATOM     16  O   UNL     1     -46.144 -40.298  75.054  1.00  0.00    -0.550 OA
ATOM     17  O   UNL     1     -45.027 -39.862  73.104  1.00  0.00    -0.550 OA
ENDBRANCH  14  15
ENDBRANCH  13  14
ENDBRANCH  12  13
ENDBRANCH  11  12
ENDBRANCH  10  11
ENDBRANCH   9  10
ENDBRANCH   8   9
ENDBRANCH   7   8
ENDBRANCH   6   7
ENDBRANCH   5   6
ENDBRANCH   4   5
ENDBRANCH   3   4
ENDBRANCH   2   3
ENDBRANCH   1   2
BRANCH   1  18
ATOM     18  C   UNL     1     -42.978 -43.639  68.687  1.00  0.00     0.000 C 
BRANCH  18  19
ATOM     19  C   UNL     1     -41.910 -44.605  68.154  1.00  0.00     0.000 C 
BRANCH  19  20
ATOM     20  C   UNL     1     -42.294 -46.080  68.347  1.00  0.00     0.000 C 
BRANCH  20  21
ATOM     21  C   UNL     1     -42.767 -46.737  67.041  1.00  0.00     0.000 C 
BRANCH  21  22
ATOM     22  C   UNL     1     -42.974 -48.244  67.227  1.00  0.00     0.000 C 
BRANCH  22  23
ATOM     23  C   UNL     1     -44.385 -48.667  66.792  1.00  0.00     0.000 C 
BRANCH  23  24
ATOM     24  C   UNL     1     -44.906 -49.892  67.563  1.00  0.00    -0.000 C 
BRANCH  24  25
ATOM     25  C   UNL     1     -43.814 -50.763  68.214  1.00  0.00    -0.000 C 
BRANCH  25  26
ATOM     26  C   UNL     1     -43.763 -50.714  69.754  1.00  0.00    -0.000 C 
BRANCH  26  27
ATOM     27  C   UNL     1     -44.817 -49.801  70.407  1.00  0.00    -0.000 C 
BRANCH  27  28
ATOM     28  C   UNL     1     -44.270 -48.398  70.725  1.00  0.00    -0.000 C 
BRANCH  28  29
ATOM     29  C   UNL     1     -45.230 -47.279  70.291  1.00  0.00    -0.000 C 
BRANCH  29  30
ATOM     30  C   UNL     1     -46.426 -47.130  71.247  1.00  0.00    -0.000 C 
BRANCH  30  31
ATOM     31  C   UNL     1     -47.777 -47.279  70.531  1.00  0.00    -0.003 C 
ATOM     32  C   UNL     1     -47.639 -47.856  69.123  1.00  0.00     0.004 C 
ENDBRANCH  30  31
ENDBRANCH  29  30
ENDBRANCH  28  29
ENDBRANCH  27  28
ENDBRANCH  26  27
ENDBRANCH  25  26
ENDBRANCH  24  25
ENDBRANCH  23  24
ENDBRANCH  22  23
ENDBRANCH  21  22
ENDBRANCH  20  21
ENDBRANCH  19  20
ENDBRANCH  18  19
ENDBRANCH   1  18
TORSDOF 28
ENDMDL
MODEL 2
REMARK VINA RESULT:    -3.152      2.686      7.446
REMARK INTER + INTRA:         -13.989
REMARK INTER:                  -9.384
REMARK INTRA:                  -4.605
REMARK UNBOUND:                -5.679
REMARK SMILES CCCCCCCCCCCCCCCCCCCCCCCCCCCCCC(=O)[O-]
REMARK SMILES IDX 16 1 17 2 18 3 19 4 20 5 21 6 22 7 23 8 24 9 25 10 26 11
REMARK SMILES IDX 27 12 28 13 29 14 30 15 31 16 32 17 15 18 14 19 13 20 12 21
REMARK SMILES IDX 11 22 10 23 9 24 8 25 7 26 6 27 5 28 4 29 3 30 2 31 1 32
REMARK H PARENT
REMARK Flexibility Score: inf
ROOT
ATOM      1  C   UNL     1     -40.612 -43.647  72.512  1.00  0.00     0.000 C 
ENDROOT
BRANCH   1   2
ATOM      2  C   UNL     1     -41.109 -42.483  71.643  1.00  0.00     0.000 C 
BRANCH   2   3
ATOM      3  C   UNL     1     -42.641 -42.432  71.534  1.00  0.00     0.000 C 
BRANCH   3   4
ATOM      4  C   UNL     1     -43.132 -42.246  70.086  1.00  0.00     0.000 C 
BRANCH   4   5
ATOM      5  C   UNL     1     -43.104 -43.560  69.287  1.00  0.00     0.000 C 
BRANCH   5   6
ATOM      6  C   UNL     1     -41.918 -43.632  68.309  1.00  0.00     0.000 C 
BRANCH   6   7
ATOM      7  C   UNL     1     -41.477 -45.078  68.016  1.00  0.00     0.000 C 
BRANCH   7   8
ATOM      8  C   UNL     1     -42.368 -45.840  67.014  1.00  0.00     0.000 C 
BRANCH   8   9
ATOM      9  C   UNL     1     -42.836 -47.233  67.480  1.00  0.00     0.000 C 
BRANCH   9  10
ATOM     10  C   UNL     1     -43.478 -47.263  68.881  1.00  0.00     0.000 C 
BRANCH  10  11
ATOM     11  C   UNL     1     -43.073 -48.508  69.691  1.00  0.00     0.000 C 
BRANCH  11  12
ATOM     12  C   UNL     1     -44.238 -49.079  70.513  1.00  0.00     0.000 C 
BRANCH  12  13
ATOM     13  C   UNL     1     -45.422 -48.099  70.597  1.00  0.00     0.006 C 
BRANCH  13  14
ATOM     14  C   UNL     1     -46.768 -48.820  70.745  1.00  0.00     0.053 C 
BRANCH  14  15
ATOM     15  C   UNL     1     -47.929 -47.871  70.796  1.00  0.00     0.041 C 
ATOM     16  O   UNL     1     -49.037 -48.244  71.264  1.00  0.00    -0.550 OA
ATOM     17  O   UNL     1     -47.806 -46.595  70.260  1.00  0.00    -0.550 OA
ENDBRANCH  14  15
ENDBRANCH  13  14
ENDBRANCH  12  13
ENDBRANCH  11  12
ENDBRANCH  10  11
ENDBRANCH   9  10
ENDBRANCH   8   9
ENDBRANCH   7   8
ENDBRANCH   6   7
ENDBRANCH   5   6
ENDBRANCH   4   5
ENDBRANCH   3   4
ENDBRANCH   2   3
ENDBRANCH   1   2
BRANCH   1  18
ATOM     18  C   UNL     1     -40.086 -44.804  71.653  1.00  0.00     0.000 C 
BRANCH  18  19
ATOM     19  C   UNL     1     -41.155 -45.896  71.500  1.00  0.00     0.000 C 
BRANCH  19  20
ATOM     20  C   UNL     1     -42.016 -46.065  72.761  1.00  0.00     0.000 C 
BRANCH  20  21
ATOM     21  C   UNL     1     -43.515 -45.887  72.474  1.00  0.00     0.000 C 
BRANCH  21  22
ATOM     22  C   UNL     1     -44.223 -45.208  73.653  1.00  0.00     0.000 C 
BRANCH  22  23
ATOM     23  C   UNL     1     -43.265 -45.019  74.838  1.00  0.00     0.000 C 
BRANCH  23  24
ATOM     24  C   UNL     1     -43.189 -43.559  75.318  1.00  0.00    -0.000 C 
BRANCH  24  25
ATOM     25  C   UNL     1     -44.214 -42.608  74.670  1.00  0.00    -0.000 C 
BRANCH  25  26
ATOM     26  C   UNL     1     -44.876 -41.600  75.630  1.00  0.00    -0.000 C 
BRANCH  26  27
ATOM     27  C   UNL     1     -45.097 -40.195  75.041  1.00  0.00    -0.000 C 
BRANCH  27  28
ATOM     28  C   UNL     1     -45.342 -40.221  73.522  1.00  0.00    -0.000 C 
BRANCH  28  29
ATOM     29  C   UNL     1     -46.440 -39.238  73.084  1.00  0.00    -0.000 C 
BRANCH  29  30
ATOM     30  C   UNL     1     -45.867 -37.884  72.634  1.00  0.00    -0.000 C 
BRANCH  30  31
ATOM     31  C   UNL     1     -46.925 -36.983  71.980  1.00  0.00    -0.003 C 
ATOM     32  C   UNL     1     -48.327 -37.590  72.025  1.00  0.00     0.004 C 
ENDBRANCH  30  31
ENDBRANCH  29  30
ENDBRANCH  28  29
ENDBRANCH  27  28
ENDBRANCH  26  27
ENDBRANCH  25  26
ENDBRANCH  24  25
ENDBRANCH  23  24
ENDBRANCH  22  23
ENDBRANCH  21  22
ENDBRANCH  20  21
ENDBRANCH  19  20
ENDBRANCH  18  19
ENDBRANCH   1  18
TORSDOF 28
ENDMDL
MODEL 3
REMARK VINA RESULT:    -3.091      1.538      3.339
REMARK INTER + INTRA:         -13.830
REMARK INTER:                  -9.148
REMARK INTRA:                  -4.682
REMARK UNBOUND:                -5.679
REMARK SMILES CCCCCCCCCCCCCCCCCCCCCCCCCCCCCC(=O)[O-]
REMARK SMILES IDX 16 1 17 2 18 3 19 4 20 5 21 6 22 7 23 8 24 9 25 10 26 11
REMARK SMILES IDX 27 12 28 13 29 14 30 15 31 16 32 17 15 18 14 19 13 20 12 21
REMARK SMILES IDX 11 22 10 23 9 24 8 25 7 26 6 27 5 28 4 29 3 30 2 31 1 32
REMARK H PARENT
REMARK Flexibility Score: inf
ROOT
ATOM      1  C   UNL     1     -42.242 -44.922  67.260  1.00  0.00     0.000 C 
ENDROOT
BRANCH   1   2
ATOM      2  C   UNL     1     -41.703 -43.829  68.196  1.00  0.00     0.000 C 
BRANCH   2   3
ATOM      3  C   UNL     1     -42.820 -43.046  68.904  1.00  0.00     0.000 C 
BRANCH   3   4
ATOM      4  C   UNL     1     -42.865 -43.307  70.420  1.00  0.00     0.000 C 
BRANCH   4   5
ATOM      5  C   UNL     1     -43.419 -44.701  70.757  1.00  0.00     0.000 C 
BRANCH   5   6
ATOM      6  C   UNL     1     -42.342 -45.645  71.322  1.00  0.00     0.000 C 
BRANCH   6   7
ATOM      7  C   UNL     1     -42.713 -46.206  72.708  1.00  0.00     0.000 C 
BRANCH   7   8
ATOM      8  C   UNL     1     -43.662 -45.316  73.537  1.00  0.00     0.000 C 
BRANCH   8   9
ATOM      9  C   UNL     1     -42.998 -44.556  74.703  1.00  0.00     0.000 C 
BRANCH   9  10
ATOM     10  C   UNL     1     -42.841 -43.039  74.478  1.00  0.00     0.000 C 
BRANCH  10  11
ATOM     11  C   UNL     1     -44.195 -42.311  74.393  1.00  0.00     0.000 C 
BRANCH  11  12
ATOM     12  C   UNL     1     -44.116 -41.019  73.565  1.00  0.00     0.000 C 
BRANCH  12  13
ATOM     13  C   UNL     1     -45.378 -40.152  73.727  1.00  0.00     0.006 C 
BRANCH  13  14
ATOM     14  C   UNL     1     -45.927 -39.664  72.380  1.00  0.00     0.053 C 
BRANCH  14  15
ATOM     15  C   UNL     1     -46.701 -38.384  72.501  1.00  0.00     0.041 C 
ATOM     16  O   UNL     1     -47.845 -38.378  73.027  1.00  0.00    -0.550 OA
ATOM     17  O   UNL     1     -46.186 -37.208  71.968  1.00  0.00    -0.550 OA
ENDBRANCH  14  15
ENDBRANCH  13  14
ENDBRANCH  12  13
ENDBRANCH  11  12
ENDBRANCH  10  11
ENDBRANCH   9  10
ENDBRANCH   8   9
ENDBRANCH   7   8
ENDBRANCH   6   7
ENDBRANCH   5   6
ENDBRANCH   4   5
ENDBRANCH   3   4
ENDBRANCH   2   3
ENDBRANCH   1   2
BRANCH   1  18
ATOM     18  C   UNL     1     -41.811 -46.319  67.722  1.00  0.00     0.000 C 
BRANCH  18  19
ATOM     19  C   UNL     1     -43.032 -47.233  67.898  1.00  0.00     0.000 C 
BRANCH  19  20
ATOM     20  C   UNL     1     -42.695 -48.719  67.703  1.00  0.00     0.000 C 
BRANCH  20  21
ATOM     21  C   UNL     1     -42.120 -49.361  68.975  1.00  0.00     0.000 C 
BRANCH  21  22
ATOM     22  C   UNL     1     -43.013 -49.073  70.188  1.00  0.00     0.000 C 
BRANCH  22  23
ATOM     23  C   UNL     1     -44.215 -50.028  70.228  1.00  0.00     0.000 C 
BRANCH  23  24
ATOM     24  C   UNL     1     -45.513 -49.335  70.681  1.00  0.00    -0.000 C 
BRANCH  24  25
ATOM     25  C   UNL     1     -45.445 -47.797  70.729  1.00  0.00    -0.000 C 
BRANCH  25  26
ATOM     26  C   UNL     1     -46.775 -47.089  71.055  1.00  0.00    -0.000 C 
BRANCH  26  27
ATOM     27  C   UNL     1     -48.029 -47.775  70.484  1.00  0.00    -0.000 C 
BRANCH  27  28
ATOM     28  C   UNL     1     -48.286 -47.410  69.011  1.00  0.00    -0.000 C 
BRANCH  28  29
ATOM     29  C   UNL     1     -48.088 -48.604  68.064  1.00  0.00    -0.000 C 
BRANCH  29  30
ATOM     30  C   UNL     1     -46.743 -48.544  67.321  1.00  0.00    -0.000 C 
BRANCH  30  31
ATOM     31  C   UNL     1     -46.153 -49.937  67.053  1.00  0.00    -0.003 C 
ATOM     32  C   UNL     1     -45.549 -50.064  65.655  1.00  0.00     0.004 C 
ENDBRANCH  30  31
ENDBRANCH  29  30
ENDBRANCH  28  29
ENDBRANCH  27  28
ENDBRANCH  26  27
ENDBRANCH  25  26
ENDBRANCH  24  25
ENDBRANCH  23  24
ENDBRANCH  22  23
ENDBRANCH  21  22
ENDBRANCH  20  21
ENDBRANCH  19  20
ENDBRANCH  18  19
ENDBRANCH   1  18
TORSDOF 28
ENDMDL
MODEL 4
REMARK VINA RESULT:    -3.084      2.348      5.735
REMARK INTER + INTRA:         -13.811
REMARK INTER:                  -8.576
REMARK INTRA:                  -5.235
REMARK UNBOUND:                -5.679
REMARK SMILES CCCCCCCCCCCCCCCCCCCCCCCCCCCCCC(=O)[O-]
REMARK SMILES IDX 16 1 17 2 18 3 19 4 20 5 21 6 22 7 23 8 24 9 25 10 26 11
REMARK SMILES IDX 27 12 28 13 29 14 30 15 31 16 32 17 15 18 14 19 13 20 12 21
REMARK SMILES IDX 11 22 10 23 9 24 8 25 7 26 6 27 5 28 4 29 3 30 2 31 1 32
REMARK H PARENT
REMARK Flexibility Score: inf
ROOT
ATOM      1  C   UNL     1     -48.012 -47.872  70.936  1.00  0.00     0.000 C 
ENDROOT
BRANCH   1   2
ATOM      2  C   UNL     1     -46.865 -47.003  70.397  1.00  0.00     0.000 C 
BRANCH   2   3
ATOM      3  C   UNL     1     -45.585 -47.114  71.241  1.00  0.00     0.000 C 
BRANCH   3   4
ATOM      4  C   UNL     1     -44.394 -46.363  70.621  1.00  0.00     0.000 C 
BRANCH   4   5
ATOM      5  C   UNL     1     -43.568 -45.605  71.675  1.00  0.00     0.000 C 
BRANCH   5   6
ATOM      6  C   UNL     1     -42.053 -45.798  71.490  1.00  0.00     0.000 C 
BRANCH   6   7
ATOM      7  C   UNL     1     -41.714 -46.921  70.491  1.00  0.00     0.000 C 
BRANCH   7   8
ATOM      8  C   UNL     1     -40.957 -46.462  69.229  1.00  0.00     0.000 C 
BRANCH   8   9
ATOM      9  C   UNL     1     -41.721 -46.649  67.902  1.00  0.00     0.000 C 
BRANCH   9  10
ATOM     10  C   UNL     1     -42.455 -45.391  67.398  1.00  0.00     0.000 C 
BRANCH  10  11
ATOM     11  C   UNL     1     -41.945 -44.100  68.064  1.00  0.00     0.000 C 
BRANCH  11  12
ATOM     12  C   UNL     1     -43.044 -43.369  68.850  1.00  0.00     0.000 C 
BRANCH  12  13
ATOM     13  C   UNL     1     -42.574 -41.995  69.358  1.00  0.00     0.006 C 
BRANCH  13  14
ATOM     14  C   UNL     1     -43.474 -41.444  70.471  1.00  0.00     0.053 C 
BRANCH  14  15
ATOM     15  C   UNL     1     -43.147 -40.025  70.830  1.00  0.00     0.041 C 
ATOM     16  O   UNL     1     -42.390 -39.339  70.095  1.00  0.00    -0.550 OA
ATOM     17  O   UNL     1     -43.624 -39.481  72.018  1.00  0.00    -0.550 OA
ENDBRANCH  14  15
ENDBRANCH  13  14
ENDBRANCH  12  13
ENDBRANCH  11  12
ENDBRANCH  10  11
ENDBRANCH   9  10
ENDBRANCH   8   9
ENDBRANCH   7   8
ENDBRANCH   6   7
ENDBRANCH   5   6
ENDBRANCH   4   5
ENDBRANCH   3   4
ENDBRANCH   2   3
ENDBRANCH   1   2
BRANCH   1  18
ATOM     18  C   UNL     1     -47.722 -49.366  70.744  1.00  0.00     0.000 C 
BRANCH  18  19
ATOM     19  C   UNL     1     -48.908 -50.066  70.065  1.00  0.00     0.000 C 
BRANCH  19  20
ATOM     20  C   UNL     1     -49.860 -49.081  69.370  1.00  0.00     0.000 C 
BRANCH  20  21
ATOM     21  C   UNL     1     -49.713 -49.106  67.841  1.00  0.00     0.000 C 
BRANCH  21  22
ATOM     22  C   UNL     1     -48.953 -47.872  67.341  1.00  0.00     0.000 C 
BRANCH  22  23
ATOM     23  C   UNL     1     -47.810 -48.271  66.398  1.00  0.00     0.000 C 
BRANCH  23  24
ATOM     24  C   UNL     1     -46.760 -49.168  67.077  1.00  0.00    -0.000 C 
BRANCH  24  25
ATOM     25  C   UNL     1     -45.426 -48.472  67.405  1.00  0.00    -0.000 C 
BRANCH  25  26
ATOM     26  C   UNL     1     -44.408 -49.330  68.182  1.00  0.00    -0.000 C 
BRANCH  26  27
ATOM     27  C   UNL     1     -45.003 -50.569  68.876  1.00  0.00    -0.000 C 
BRANCH  27  28
ATOM     28  C   UNL     1     -44.208 -50.990  70.124  1.00  0.00    -0.000 C 
BRANCH  28  29
ATOM     29  C   UNL     1     -43.025 -50.052  70.413  1.00  0.00    -0.000 C 
BRANCH  29  30
ATOM     30  C   UNL     1     -41.669 -50.768  70.303  1.00  0.00    -0.000 C 
BRANCH  30  31
ATOM     31  C   UNL     1     -40.658 -50.285  71.354  1.00  0.00    -0.003 C 
ATOM     32  C   UNL     1     -40.481 -51.276  72.503  1.00  0.00     0.004 C 
ENDBRANCH  30  31
ENDBRANCH  29  30
ENDBRANCH  28  29
ENDBRANCH  27  28
ENDBRANCH  26  27
ENDBRANCH  25  26
ENDBRANCH  24  25
ENDBRANCH  23  24
ENDBRANCH  22  23
ENDBRANCH  21  22
ENDBRANCH  20  21
ENDBRANCH  19  20
ENDBRANCH  18  19
ENDBRANCH   1  18
TORSDOF 28
ENDMDL
MODEL 5
REMARK VINA RESULT:    -3.074      2.313      5.316
REMARK INTER + INTRA:         -13.785
REMARK INTER:                  -8.549
REMARK INTRA:                  -5.237
REMARK UNBOUND:                -5.679
REMARK SMILES CCCCCCCCCCCCCCCCCCCCCCCCCCCCCC(=O)[O-]
REMARK SMILES IDX 16 1 17 2 18 3 19 4 20 5 21 6 22 7 23 8 24 9 25 10 26 11
REMARK SMILES IDX 27 12 28 13 29 14 30 15 31 16 32 17 15 18 14 19 13 20 12 21
REMARK SMILES IDX 11 22 10 23 9 24 8 25 7 26 6 27 5 28 4 29 3 30 2 31 1 32
REMARK H PARENT
REMARK Flexibility Score: inf
ROOT
ATOM      1  C   UNL     1     -47.763 -48.195  69.621  1.00  0.00     0.000 C 
ENDROOT
BRANCH   1   2
ATOM      2  C   UNL     1     -47.280 -47.015  70.478  1.00  0.00     0.000 C 
BRANCH   2   3
ATOM      3  C   UNL     1     -45.945 -47.298  71.185  1.00  0.00     0.000 C 
BRANCH   3   4
ATOM      4  C   UNL     1     -44.843 -46.292  70.806  1.00  0.00     0.000 C 
BRANCH   4   5
ATOM      5  C   UNL     1     -43.433 -46.841  71.077  1.00  0.00     0.000 C 
BRANCH   5   6
ATOM      6  C   UNL     1     -42.332 -46.004  70.400  1.00  0.00     0.000 C 
BRANCH   6   7
ATOM      7  C   UNL     1     -42.599 -45.774  68.900  1.00  0.00     0.000 C 
BRANCH   7   8
ATOM      8  C   UNL     1     -42.403 -44.321  68.421  1.00  0.00     0.000 C 
BRANCH   8   9
ATOM      9  C   UNL     1     -43.331 -43.282  69.083  1.00  0.00     0.000 C 
BRANCH   9  10
ATOM     10  C   UNL     1     -42.608 -42.057  69.677  1.00  0.00     0.000 C 
BRANCH  10  11
ATOM     11  C   UNL     1     -42.985 -41.802  71.147  1.00  0.00     0.000 C 
BRANCH  11  12
ATOM     12  C   UNL     1     -42.384 -42.849  72.098  1.00  0.00     0.000 C 
BRANCH  12  13
ATOM     13  C   UNL     1     -43.166 -42.946  73.419  1.00  0.00     0.006 C 
BRANCH  13  14
ATOM     14  C   UNL     1     -43.531 -44.393  73.777  1.00  0.00     0.053 C 
BRANCH  14  15
ATOM     15  C   UNL     1     -43.877 -44.560  75.227  1.00  0.00     0.041 C 
ATOM     16  O   UNL     1     -43.746 -45.680  75.789  1.00  0.00    -0.550 OA
ATOM     17  O   UNL     1     -44.412 -43.494  75.941  1.00  0.00    -0.550 OA
ENDBRANCH  14  15
ENDBRANCH  13  14
ENDBRANCH  12  13
ENDBRANCH  11  12
ENDBRANCH  10  11
ENDBRANCH   9  10
ENDBRANCH   8   9
ENDBRANCH   7   8
ENDBRANCH   6   7
ENDBRANCH   5   6
ENDBRANCH   4   5
ENDBRANCH   3   4
ENDBRANCH   2   3
ENDBRANCH   1   2
BRANCH   1  18
ATOM     18  C   UNL     1     -48.898 -48.963  70.310  1.00  0.00     0.000 C 
BRANCH  18  19
ATOM     19  C   UNL     1     -48.507 -50.432  70.527  1.00  0.00     0.000 C 
BRANCH  19  20
ATOM     20  C   UNL     1     -46.989 -50.659  70.458  1.00  0.00     0.000 C 
BRANCH  20  21
ATOM     21  C   UNL     1     -46.610 -51.785  69.484  1.00  0.00     0.000 C 
BRANCH  21  22
ATOM     22  C   UNL     1     -45.192 -51.584  68.936  1.00  0.00     0.000 C 
BRANCH  22  23
ATOM     23  C   UNL     1     -44.511 -50.375  69.595  1.00  0.00     0.000 C 
BRANCH  23  24
ATOM     24  C   UNL     1     -43.860 -49.426  68.573  1.00  0.00    -0.000 C 
BRANCH  24  25
ATOM     25  C   UNL     1     -44.844 -48.518  67.811  1.00  0.00    -0.000 C 
BRANCH  25  26
ATOM     26  C   UNL     1     -44.924 -48.763  66.291  1.00  0.00    -0.000 C 
BRANCH  26  27
ATOM     27  C   UNL     1     -46.354 -48.838  65.724  1.00  0.00    -0.000 C 
BRANCH  27  28
ATOM     28  C   UNL     1     -47.035 -50.188  66.008  1.00  0.00    -0.000 C 
BRANCH  28  29
ATOM     29  C   UNL     1     -48.396 -50.027  66.704  1.00  0.00    -0.000 C 
BRANCH  29  30
ATOM     30  C   UNL     1     -49.521 -49.681  65.714  1.00  0.00    -0.000 C 
BRANCH  30  31
ATOM     31  C   UNL     1     -50.381 -48.499  66.187  1.00  0.00    -0.003 C 
ATOM     32  C   UNL     1     -49.544 -47.307  66.651  1.00  0.00     0.004 C 
ENDBRANCH  30  31
ENDBRANCH  29  30
ENDBRANCH  28  29
ENDBRANCH  27  28
ENDBRANCH  26  27
ENDBRANCH  25  26
ENDBRANCH  24  25
ENDBRANCH  23  24
ENDBRANCH  22  23
ENDBRANCH  21  22
ENDBRANCH  20  21
ENDBRANCH  19  20
ENDBRANCH  18  19
ENDBRANCH   1  18
TORSDOF 28
ENDMDL
MODEL 6
REMARK VINA RESULT:    -3.061      3.875      8.649
REMARK INTER + INTRA:         -13.751
REMARK INTER:                  -8.928
REMARK INTRA:                  -4.823
REMARK UNBOUND:                -5.679
REMARK SMILES CCCCCCCCCCCCCCCCCCCCCCCCCCCCCC(=O)[O-]
REMARK SMILES IDX 16 1 17 2 18 3 19 4 20 5 21 6 22 7 23 8 24 9 25 10 26 11
REMARK SMILES IDX 27 12 28 13 29 14 30 15 31 16 32 17 15 18 14 19 13 20 12 21
REMARK SMILES IDX 11 22 10 23 9 24 8 25 7 26 6 27 5 28 4 29 3 30 2 31 1 32
REMARK H PARENT
REMARK Flexibility Score: inf
ROOT
ATOM      1  C   UNL     1     -45.891 -47.083  70.685  1.00  0.00     0.000 C 
ENDROOT
BRANCH   1   2
ATOM      2  C   UNL     1     -47.349 -47.102  70.202  1.00  0.00     0.000 C 
BRANCH   2   3
ATOM      3  C   UNL     1     -48.293 -47.815  71.184  1.00  0.00     0.000 C 
BRANCH   3   4
ATOM      4  C   UNL     1     -49.197 -48.854  70.497  1.00  0.00     0.000 C 
BRANCH   4   5
ATOM      5  C   UNL     1     -48.505 -50.219  70.342  1.00  0.00     0.000 C 
BRANCH   5   6
ATOM      6  C   UNL     1     -48.305 -50.617  68.869  1.00  0.00     0.000 C 
BRANCH   6   7
ATOM      7  C   UNL     1     -46.820 -50.660  68.463  1.00  0.00     0.000 C 
BRANCH   7   8
ATOM      8  C   UNL     1     -46.487 -49.943  67.138  1.00  0.00     0.000 C 
BRANCH   8   9
ATOM      9  C   UNL     1     -47.217 -48.602  66.918  1.00  0.00     0.000 C 
BRANCH   9  10
ATOM     10  C   UNL     1     -48.100 -48.547  65.656  1.00  0.00     0.000 C 
BRANCH  10  11
ATOM     11  C   UNL     1     -49.139 -47.413  65.709  1.00  0.00     0.000 C 
BRANCH  11  12
ATOM     12  C   UNL     1     -49.732 -47.223  67.113  1.00  0.00     0.000 C 
BRANCH  12  13
ATOM     13  C   UNL     1     -50.819 -48.267  67.427  1.00  0.00     0.006 C 
BRANCH  13  14
ATOM     14  C   UNL     1     -52.010 -48.176  66.465  1.00  0.00     0.053 C 
BRANCH  14  15
ATOM     15  C   UNL     1     -53.074 -47.236  66.949  1.00  0.00     0.041 C 
ATOM     16  O   UNL     1     -53.802 -47.546  67.928  1.00  0.00    -0.550 OA
ATOM     17  O   UNL     1     -53.308 -46.045  66.272  1.00  0.00    -0.550 OA
ENDBRANCH  14  15
ENDBRANCH  13  14
ENDBRANCH  12  13
ENDBRANCH  11  12
ENDBRANCH  10  11
ENDBRANCH   9  10
ENDBRANCH   8   9
ENDBRANCH   7   8
ENDBRANCH   6   7
ENDBRANCH   5   6
ENDBRANCH   4   5
ENDBRANCH   3   4
ENDBRANCH   2   3
ENDBRANCH   1   2
BRANCH   1  18
ATOM     18  C   UNL     1     -45.317 -48.501  70.796  1.00  0.00     0.000 C 
BRANCH  18  19
ATOM     19  C   UNL     1     -44.059 -48.647  69.927  1.00  0.00     0.000 C 
BRANCH  19  20
ATOM     20  C   UNL     1     -44.072 -47.717  68.704  1.00  0.00     0.000 C 
BRANCH  20  21
ATOM     21  C   UNL     1     -42.694 -47.615  68.033  1.00  0.00     0.000 C 
BRANCH  21  22
ATOM     22  C   UNL     1     -42.408 -46.179  67.579  1.00  0.00     0.000 C 
BRANCH  22  23
ATOM     23  C   UNL     1     -42.107 -45.269  68.779  1.00  0.00     0.000 C 
BRANCH  23  24
ATOM     24  C   UNL     1     -42.134 -43.774  68.417  1.00  0.00    -0.000 C 
BRANCH  24  25
ATOM     25  C   UNL     1     -43.303 -42.979  69.029  1.00  0.00    -0.000 C 
BRANCH  25  26
ATOM     26  C   UNL     1     -42.907 -41.680  69.758  1.00  0.00    -0.000 C 
BRANCH  26  27
ATOM     27  C   UNL     1     -43.237 -41.657  71.262  1.00  0.00    -0.000 C 
BRANCH  27  28
ATOM     28  C   UNL     1     -42.364 -42.628  72.077  1.00  0.00    -0.000 C 
BRANCH  28  29
ATOM     29  C   UNL     1     -42.964 -42.944  73.456  1.00  0.00    -0.000 C 
BRANCH  29  30
ATOM     30  C   UNL     1     -43.302 -44.436  73.618  1.00  0.00    -0.000 C 
BRANCH  30  31
ATOM     31  C   UNL     1     -43.264 -45.199  72.285  1.00  0.00    -0.003 C 
ATOM     32  C   UNL     1     -42.372 -46.439  72.340  1.00  0.00     0.004 C 
ENDBRANCH  30  31
ENDBRANCH  29  30
ENDBRANCH  28  29
ENDBRANCH  27  28
ENDBRANCH  26  27
ENDBRANCH  25  26
ENDBRANCH  24  25
ENDBRANCH  23  24
ENDBRANCH  22  23
ENDBRANCH  21  22
ENDBRANCH  20  21
ENDBRANCH  19  20
ENDBRANCH  18  19
ENDBRANCH   1  18
TORSDOF 28
ENDMDL
MODEL 7
REMARK VINA RESULT:    -3.058      3.631      8.625
REMARK INTER + INTRA:         -13.741
REMARK INTER:                  -8.630
REMARK INTRA:                  -5.111
REMARK UNBOUND:                -5.679
REMARK SMILES CCCCCCCCCCCCCCCCCCCCCCCCCCCCCC(=O)[O-]
REMARK SMILES IDX 16 1 17 2 18 3 19 4 20 5 21 6 22 7 23 8 24 9 25 10 26 11
REMARK SMILES IDX 27 12 28 13 29 14 30 15 31 16 32 17 15 18 14 19 13 20 12 21
REMARK SMILES IDX 11 22 10 23 9 24 8 25 7 26 6 27 5 28 4 29 3 30 2 31 1 32
REMARK H PARENT
REMARK Flexibility Score: inf
ROOT
ATOM      1  C   UNL     1     -44.220 -45.739  70.593  1.00  0.00     0.000 C 
ENDROOT
BRANCH   1   2
ATOM      2  C   UNL     1     -44.846 -47.140  70.654  1.00  0.00     0.000 C 
BRANCH   2   3
ATOM      3  C   UNL     1     -46.213 -47.152  71.356  1.00  0.00     0.000 C 
BRANCH   3   4
ATOM      4  C   UNL     1     -47.392 -47.066  70.370  1.00  0.00     0.000 C 
BRANCH   4   5
ATOM      5  C   UNL     1     -48.405 -48.207  70.569  1.00  0.00     0.000 C 
BRANCH   5   6
ATOM      6  C   UNL     1     -49.079 -48.636  69.254  1.00  0.00     0.000 C 
BRANCH   6   7
ATOM      7  C   UNL     1     -48.540 -47.868  68.032  1.00  0.00     0.000 C 
BRANCH   7   8
ATOM      8  C   UNL     1     -48.529 -48.669  66.714  1.00  0.00     0.000 C 
BRANCH   8   9
ATOM      9  C   UNL     1     -47.136 -49.132  66.240  1.00  0.00     0.000 C 
BRANCH   9  10
ATOM     10  C   UNL     1     -45.963 -48.643  67.112  1.00  0.00     0.000 C 
BRANCH  10  11
ATOM     11  C   UNL     1     -45.155 -49.803  67.722  1.00  0.00     0.000 C 
BRANCH  11  12
ATOM     12  C   UNL     1     -45.647 -50.188  69.126  1.00  0.00     0.000 C 
BRANCH  12  13
ATOM     13  C   UNL     1     -46.402 -51.529  69.126  1.00  0.00     0.006 C 
BRANCH  13  14
ATOM     14  C   UNL     1     -46.960 -51.885  70.510  1.00  0.00     0.053 C 
BRANCH  14  15
ATOM     15  C   UNL     1     -48.457 -51.981  70.522  1.00  0.00     0.041 C 
ATOM     16  O   UNL     1     -49.093 -51.906  71.607  1.00  0.00    -0.550 OA
ATOM     17  O   UNL     1     -49.147 -52.226  69.340  1.00  0.00    -0.550 OA
ENDBRANCH  14  15
ENDBRANCH  13  14
ENDBRANCH  12  13
ENDBRANCH  11  12
ENDBRANCH  10  11
ENDBRANCH   9  10
ENDBRANCH   8   9
ENDBRANCH   7   8
ENDBRANCH   6   7
ENDBRANCH   5   6
ENDBRANCH   4   5
ENDBRANCH   3   4
ENDBRANCH   2   3
ENDBRANCH   1   2
BRANCH   1  18
ATOM     18  C   UNL     1     -42.921 -45.668  71.406  1.00  0.00     0.000 C 
BRANCH  18  19
ATOM     19  C   UNL     1     -43.223 -45.656  72.911  1.00  0.00     0.000 C 
BRANCH  19  20
ATOM     20  C   UNL     1     -42.577 -44.465  73.636  1.00  0.00     0.000 C 
BRANCH  20  21
ATOM     21  C   UNL     1     -41.484 -43.790  72.794  1.00  0.00     0.000 C 
BRANCH  21  22
ATOM     22  C   UNL     1     -41.635 -42.265  72.818  1.00  0.00     0.000 C 
BRANCH  22  23
ATOM     23  C   UNL     1     -43.115 -41.856  72.824  1.00  0.00     0.000 C 
BRANCH  23  24
ATOM     24  C   UNL     1     -43.473 -40.891  71.680  1.00  0.00    -0.000 C 
BRANCH  24  25
ATOM     25  C   UNL     1     -43.517 -41.532  70.279  1.00  0.00    -0.000 C 
BRANCH  25  26
ATOM     26  C   UNL     1     -42.307 -41.226  69.376  1.00  0.00    -0.000 C 
BRANCH  26  27
ATOM     27  C   UNL     1     -41.475 -42.457  68.970  1.00  0.00    -0.000 C 
BRANCH  27  28
ATOM     28  C   UNL     1     -42.342 -43.606  68.425  1.00  0.00    -0.000 C 
BRANCH  28  29
ATOM     29  C   UNL     1     -41.501 -44.770  67.877  1.00  0.00    -0.000 C 
BRANCH  29  30
ATOM     30  C   UNL     1     -42.236 -45.554  66.777  1.00  0.00    -0.000 C 
BRANCH  30  31
ATOM     31  C   UNL     1     -42.730 -46.926  67.259  1.00  0.00    -0.003 C 
ATOM     32  C   UNL     1     -41.828 -47.535  68.332  1.00  0.00     0.004 C 
ENDBRANCH  30  31
ENDBRANCH  29  30
ENDBRANCH  28  29
ENDBRANCH  27  28
ENDBRANCH  26  27
ENDBRANCH  25  26
ENDBRANCH  24  25
ENDBRANCH  23  24
ENDBRANCH  22  23
ENDBRANCH  21  22
ENDBRANCH  20  21
ENDBRANCH  19  20
ENDBRANCH  18  19
ENDBRANCH   1  18
TORSDOF 28
ENDMDL
MODEL 8
REMARK VINA RESULT:    -3.055      1.967      4.261
REMARK INTER + INTRA:         -13.735
REMARK INTER:                  -7.367
REMARK INTRA:                  -6.369
REMARK UNBOUND:                -5.679
REMARK SMILES CCCCCCCCCCCCCCCCCCCCCCCCCCCCCC(=O)[O-]
REMARK SMILES IDX 16 1 17 2 18 3 19 4 20 5 21 6 22 7 23 8 24 9 25 10 26 11
REMARK SMILES IDX 27 12 28 13 29 14 30 15 31 16 32 17 15 18 14 19 13 20 12 21
REMARK SMILES IDX 11 22 10 23 9 24 8 25 7 26 6 27 5 28 4 29 3 30 2 31 1 32
REMARK H PARENT
REMARK Flexibility Score: inf
ROOT
ATOM      1  C   UNL     1     -41.821 -45.174  67.207  1.00  0.00     0.000 C 
ENDROOT
BRANCH   1   2
ATOM      2  C   UNL     1     -41.643 -43.986  68.164  1.00  0.00     0.000 C 
BRANCH   2   3
ATOM      3  C   UNL     1     -42.914 -43.676  68.972  1.00  0.00     0.000 C 
BRANCH   3   4
ATOM      4  C   UNL     1     -42.862 -42.303  69.665  1.00  0.00     0.000 C 
BRANCH   4   5
ATOM      5  C   UNL     1     -41.829 -41.363  69.022  1.00  0.00     0.000 C 
BRANCH   5   6
ATOM      6  C   UNL     1     -40.806 -40.825  70.038  1.00  0.00     0.000 C 
BRANCH   6   7
ATOM      7  C   UNL     1     -39.438 -41.526  69.932  1.00  0.00     0.000 C 
BRANCH   7   8
ATOM      8  C   UNL     1     -38.999 -42.290  71.198  1.00  0.00     0.000 C 
BRANCH   8   9
ATOM      9  C   UNL     1     -39.726 -43.628  71.441  1.00  0.00     0.000 C 
BRANCH   9  10
ATOM     10  C   UNL     1     -40.819 -43.580  72.526  1.00  0.00     0.000 C 
BRANCH  10  11
ATOM     11  C   UNL     1     -40.655 -42.382  73.479  1.00  0.00     0.000 C 
BRANCH  11  12
ATOM     12  C   UNL     1     -41.984 -41.662  73.753  1.00  0.00     0.000 C 
BRANCH  12  13
ATOM     13  C   UNL     1     -43.199 -42.533  73.389  1.00  0.00     0.006 C 
BRANCH  13  14
ATOM     14  C   UNL     1     -44.136 -42.756  74.584  1.00  0.00     0.053 C 
BRANCH  14  15
ATOM     15  C   UNL     1     -43.740 -43.939  75.417  1.00  0.00     0.041 C 
ATOM     16  O   UNL     1     -42.801 -43.846  76.251  1.00  0.00    -0.550 OA
ATOM     17  O   UNL     1     -44.361 -45.166  75.220  1.00  0.00    -0.550 OA
ENDBRANCH  14  15
ENDBRANCH  13  14
ENDBRANCH  12  13
ENDBRANCH  11  12
ENDBRANCH  10  11
ENDBRANCH   9  10
ENDBRANCH   8   9
ENDBRANCH   7   8
ENDBRANCH   6   7
ENDBRANCH   5   6
ENDBRANCH   4   5
ENDBRANCH   3   4
ENDBRANCH   2   3
ENDBRANCH   1   2
BRANCH   1  18
ATOM     18  C   UNL     1     -42.771 -46.227  67.790  1.00  0.00     0.000 C 
BRANCH  18  19
ATOM     19  C   UNL     1     -42.784 -47.491  66.917  1.00  0.00     0.000 C 
BRANCH  19  20
ATOM     20  C   UNL     1     -43.976 -48.410  67.221  1.00  0.00     0.000 C 
BRANCH  20  21
ATOM     21  C   UNL     1     -43.609 -49.542  68.192  1.00  0.00     0.000 C 
BRANCH  21  22
ATOM     22  C   UNL     1     -44.823 -49.965  69.027  1.00  0.00     0.000 C 
BRANCH  22  23
ATOM     23  C   UNL     1     -44.803 -49.296  70.409  1.00  0.00     0.000 C 
BRANCH  23  24
ATOM     24  C   UNL     1     -46.152 -48.658  70.784  1.00  0.00    -0.000 C 
BRANCH  24  25
ATOM     25  C   UNL     1     -46.083 -47.166  71.159  1.00  0.00    -0.000 C 
BRANCH  25  26
ATOM     26  C   UNL     1     -44.809 -46.429  70.700  1.00  0.00    -0.000 C 
BRANCH  26  27
ATOM     27  C   UNL     1     -43.981 -45.801  71.835  1.00  0.00    -0.000 C 
BRANCH  27  28
ATOM     28  C   UNL     1     -42.752 -46.647  72.212  1.00  0.00    -0.000 C 
BRANCH  28  29
ATOM     29  C   UNL     1     -41.741 -46.763  71.061  1.00  0.00    -0.000 C 
BRANCH  29  30
ATOM     30  C   UNL     1     -41.360 -48.223  70.761  1.00  0.00    -0.000 C 
BRANCH  30  31
ATOM     31  C   UNL     1     -40.243 -48.339  69.713  1.00  0.00    -0.003 C 
ATOM     32  C   UNL     1     -39.525 -47.013  69.465  1.00  0.00     0.004 C 
ENDBRANCH  30  31
ENDBRANCH  29  30
ENDBRANCH  28  29
ENDBRANCH  27  28
ENDBRANCH  26  27
ENDBRANCH  25  26
ENDBRANCH  24  25
ENDBRANCH  23  24
ENDBRANCH  22  23
ENDBRANCH  21  22
ENDBRANCH  20  21
ENDBRANCH  19  20
ENDBRANCH  18  19
ENDBRANCH   1  18
TORSDOF 28
ENDMDL
MODEL 9
REMARK VINA RESULT:    -3.049      1.667      4.877
REMARK INTER + INTRA:         -13.717
REMARK INTER:                  -8.623
REMARK INTRA:                  -5.095
REMARK UNBOUND:                -5.679
REMARK SMILES CCCCCCCCCCCCCCCCCCCCCCCCCCCCCC(=O)[O-]
REMARK SMILES IDX 16 1 17 2 18 3 19 4 20 5 21 6 22 7 23 8 24 9 25 10 26 11
REMARK SMILES IDX 27 12 28 13 29 14 30 15 31 16 32 17 15 18 14 19 13 20 12 21
REMARK SMILES IDX 11 22 10 23 9 24 8 25 7 26 6 27 5 28 4 29 3 30 2 31 1 32
REMARK H PARENT
REMARK Flexibility Score: inf
ROOT
ATOM      1  C   UNL     1     -41.705 -49.507  70.173  1.00  0.00     0.000 C 
ENDROOT
BRANCH   1   2
ATOM      2  C   UNL     1     -40.918 -48.910  71.349  1.00  0.00     0.000 C 
BRANCH   2   3
ATOM      3  C   UNL     1     -40.746 -47.386  71.239  1.00  0.00     0.000 C 
BRANCH   3   4
ATOM      4  C   UNL     1     -41.297 -46.632  72.462  1.00  0.00     0.000 C 
BRANCH   4   5
ATOM      5  C   UNL     1     -42.787 -46.284  72.311  1.00  0.00     0.000 C 
BRANCH   5   6
ATOM      6  C   UNL     1     -43.011 -44.854  71.788  1.00  0.00     0.000 C 
BRANCH   6   7
ATOM      7  C   UNL     1     -43.483 -44.825  70.322  1.00  0.00     0.000 C 
BRANCH   7   8
ATOM      8  C   UNL     1     -42.357 -44.672  69.279  1.00  0.00     0.000 C 
BRANCH   8   9
ATOM      9  C   UNL     1     -42.099 -43.230  68.799  1.00  0.00     0.000 C 
BRANCH   9  10
ATOM     10  C   UNL     1     -43.160 -42.203  69.242  1.00  0.00     0.000 C 
BRANCH  10  11
ATOM     11  C   UNL     1     -42.626 -41.217  70.297  1.00  0.00     0.000 C 
BRANCH  11  12
ATOM     12  C   UNL     1     -43.636 -40.959  71.425  1.00  0.00     0.000 C 
BRANCH  12  13
ATOM     13  C   UNL     1     -43.016 -41.176  72.817  1.00  0.00     0.006 C 
BRANCH  13  14
ATOM     14  C   UNL     1     -44.035 -41.706  73.834  1.00  0.00     0.053 C 
BRANCH  14  15
ATOM     15  C   UNL     1     -44.878 -40.616  74.428  1.00  0.00     0.041 C 
ATOM     16  O   UNL     1     -44.502 -40.013  75.468  1.00  0.00    -0.550 OA
ATOM     17  O   UNL     1     -46.116 -40.315  73.873  1.00  0.00    -0.550 OA
ENDBRANCH  14  15
ENDBRANCH  13  14
ENDBRANCH  12  13
ENDBRANCH  11  12
ENDBRANCH  10  11
ENDBRANCH   9  10
ENDBRANCH   8   9
ENDBRANCH   7   8
ENDBRANCH   6   7
ENDBRANCH   5   6
ENDBRANCH   4   5
ENDBRANCH   3   4
ENDBRANCH   2   3
ENDBRANCH   1   2
BRANCH   1  18
ATOM     18  C   UNL     1     -42.254 -48.412  69.250  1.00  0.00     0.000 C 
BRANCH  18  19
ATOM     19  C   UNL     1     -43.782 -48.320  69.365  1.00  0.00     0.000 C 
BRANCH  19  20
ATOM     20  C   UNL     1     -44.384 -49.457  70.204  1.00  0.00     0.000 C 
BRANCH  20  21
ATOM     21  C   UNL     1     -45.786 -49.117  70.732  1.00  0.00     0.000 C 
BRANCH  21  22
ATOM     22  C   UNL     1     -45.951 -47.603  70.915  1.00  0.00     0.000 C 
BRANCH  22  23
ATOM     23  C   UNL     1     -47.391 -47.164  70.610  1.00  0.00     0.000 C 
BRANCH  23  24
ATOM     24  C   UNL     1     -48.404 -48.316  70.724  1.00  0.00    -0.000 C 
BRANCH  24  25
ATOM     25  C   UNL     1     -49.210 -48.602  69.442  1.00  0.00    -0.000 C 
BRANCH  25  26
ATOM     26  C   UNL     1     -48.720 -47.868  68.179  1.00  0.00    -0.000 C 
BRANCH  26  27
ATOM     27  C   UNL     1     -48.012 -48.762  67.144  1.00  0.00    -0.000 C 
BRANCH  27  28
ATOM     28  C   UNL     1     -46.482 -48.604  67.171  1.00  0.00    -0.000 C 
BRANCH  28  29
ATOM     29  C   UNL     1     -45.775 -49.533  66.172  1.00  0.00    -0.000 C 
BRANCH  29  30
ATOM     30  C   UNL     1     -44.473 -48.923  65.625  1.00  0.00    -0.000 C 
BRANCH  30  31
ATOM     31  C   UNL     1     -43.243 -49.796  65.917  1.00  0.00    -0.003 C 
ATOM     32  C   UNL     1     -43.575 -51.016  66.775  1.00  0.00     0.004 C 
ENDBRANCH  30  31
ENDBRANCH  29  30
ENDBRANCH  28  29
ENDBRANCH  27  28
ENDBRANCH  26  27
ENDBRANCH  25  26
ENDBRANCH  24  25
ENDBRANCH  23  24
ENDBRANCH  22  23
ENDBRANCH  21  22
ENDBRANCH  20  21
ENDBRANCH  19  20
ENDBRANCH  18  19
ENDBRANCH   1  18
TORSDOF 28
ENDMDL
