MODEL 1
REMARK VINA RESULT:    -3.295      0.000      0.000
REMARK INTER + INTRA:          -6.394
REMARK INTER:                  -5.221
REMARK INTRA:                  -1.173
REMARK UNBOUND:                -1.173
REMARK SMILES CCCCCCCCCCCC(=O)[O-]
REMARK SMILES IDX 7 1 8 2 9 3 10 4 11 5 12 6 13 7 14 8 6 9 5 10 4 11 3 12 2 13
REMARK SMILES IDX 1 14
REMARK H PARENT
REMARK Flexibility Score: inf
ROOT
ATOM      1  C   UNL     1      43.495  28.871  89.649  1.00  0.00     0.000 C 
ENDROOT
BRANCH   1   2
ATOM      2  C   UNL     1      43.356  29.584  88.298  1.00  0.00     0.000 C 
BRANCH   2   3
ATOM      3  C   UNL     1      42.573  30.898  88.448  1.00  0.00     0.000 C 
BRANCH   3   4
ATOM      4  C   UNL     1      41.313  30.938  87.569  1.00  0.00     0.006 C 
BRANCH   4   5
ATOM      5  C   UNL     1      40.027  30.686  88.367  1.00  0.00     0.053 C 
BRANCH   5   6
ATOM      6  C   UNL     1      39.618  29.251  88.259  1.00  0.00     0.041 C 
ATOM      7  O   UNL     1      39.981  28.421  89.134  1.00  0.00    -0.550 OA
ATOM      8  O   UNL     1      38.877  28.819  87.166  1.00  0.00    -0.550 OA
ENDBRANCH   5   6
ENDBRANCH   4   5
ENDBRANCH   3   4
ENDBRANCH   2   3
ENDBRANCH   1   2
BRANCH   1   9
ATOM      9  C   UNL     1      42.757  29.636  90.754  1.00  0.00     0.000 C 
BRANCH   9  10
ATOM     10  C   UNL     1      43.582  29.671  92.046  1.00  0.00    -0.000 C 
BRANCH  10  11
ATOM     11  C   UNL     1      45.054  29.996  91.750  1.00  0.00    -0.000 C 
BRANCH  11  12
ATOM     12  C   UNL     1      45.256  31.424  91.211  1.00  0.00    -0.000 C 
BRANCH  12  13
ATOM     13  C   UNL     1      46.170  31.526  89.977  1.00  0.00    -0.003 C 
ATOM     14  C   UNL     1      47.577  30.985  90.228  1.00  0.00     0.004 C 
ENDBRANCH  12  13
ENDBRANCH  11  12
ENDBRANCH  10  11
ENDBRANCH   9  10
ENDBRANCH   1   9
TORSDOF 10
ENDMDL
MODEL 2
REMARK VINA RESULT:    -3.290      1.121      2.534
REMARK INTER + INTRA:          -6.386
REMARK INTER:                  -5.183
REMARK INTRA:                  -1.203
REMARK UNBOUND:                -1.173
REMARK SMILES CCCCCCCCCCCC(=O)[O-]
REMARK SMILES IDX 7 1 8 2 9 3 10 4 11 5 12 6 13 7 14 8 6 9 5 10 4 11 3 12 2 13
REMARK SMILES IDX 1 14
REMARK H PARENT
REMARK Flexibility Score: inf
ROOT
ATOM      1  C   UNL     1      43.760  31.510  88.965  1.00  0.00     0.000 C 
ENDROOT
BRANCH   1   2
ATOM      2  C   UNL     1      43.053  30.550  88.003  1.00  0.00     0.000 C 
BRANCH   2   3
ATOM      3  C   UNL     1      41.771  31.183  87.437  1.00  0.00     0.000 C 
BRANCH   3   4
ATOM      4  C   UNL     1      40.549  30.948  88.337  1.00  0.00     0.006 C 
BRANCH   4   5
ATOM      5  C   UNL     1      40.413  29.485  88.781  1.00  0.00     0.053 C 
BRANCH   5   6
ATOM      6  C   UNL     1      39.647  28.701  87.765  1.00  0.00     0.041 C 
ATOM      7  O   UNL     1      40.217  27.793  87.103  1.00  0.00    -0.550 OA
ATOM      8  O   UNL     1      38.315  29.002  87.512  1.00  0.00    -0.550 OA
ENDBRANCH   5   6
ENDBRANCH   4   5
ENDBRANCH   3   4
ENDBRANCH   2   3
ENDBRANCH   1   2
BRANCH   1   9
ATOM      9  C   UNL     1      45.256  31.189  89.065  1.00  0.00     0.000 C 
BRANCH   9  10
ATOM     10  C   UNL     1      45.711  31.129  90.527  1.00  0.00    -0.000 C 
BRANCH  10  11
ATOM     11  C   UNL     1      44.523  31.319  91.482  1.00  0.00    -0.000 C 
BRANCH  11  12
ATOM     12  C   UNL     1      44.209  30.058  92.307  1.00  0.00    -0.000 C 
BRANCH  12  13
ATOM     13  C   UNL     1      43.013  29.234  91.800  1.00  0.00    -0.003 C 
ATOM     14  C   UNL     1      43.416  28.139  90.813  1.00  0.00     0.004 C 
ENDBRANCH  12  13
ENDBRANCH  11  12
ENDBRANCH  10  11
ENDBRANCH   9  10
ENDBRANCH   1   9
TORSDOF 10
ENDMDL
MODEL 3
REMARK VINA RESULT:    -3.289      3.587      6.133
REMARK INTER + INTRA:          -6.384
REMARK INTER:                  -5.291
REMARK INTRA:                  -1.093
REMARK UNBOUND:                -1.173
REMARK SMILES CCCCCCCCCCCC(=O)[O-]
REMARK SMILES IDX 7 1 8 2 9 3 10 4 11 5 12 6 13 7 14 8 6 9 5 10 4 11 3 12 2 13
REMARK SMILES IDX 1 14
REMARK H PARENT
REMARK Flexibility Score: inf
ROOT
ATOM      1  C   UNL     1      42.902  29.858  91.112  1.00  0.00     0.000 C 
ENDROOT
BRANCH   1   2
ATOM      2  C   UNL     1      44.088  30.098  92.053  1.00  0.00     0.000 C 
BRANCH   2   3
ATOM      3  C   UNL     1      45.421  30.012  91.291  1.00  0.00     0.000 C 
BRANCH   3   4
ATOM      4  C   UNL     1      45.846  31.361  90.691  1.00  0.00     0.006 C 
BRANCH   4   5
ATOM      5  C   UNL     1      46.101  31.282  89.180  1.00  0.00     0.053 C 
BRANCH   5   6
ATOM      6  C   UNL     1      47.519  31.642  88.870  1.00  0.00     0.041 C 
ATOM      7  O   UNL     1      48.465  31.070  89.474  1.00  0.00    -0.550 OA
ATOM      8  O   UNL     1      47.797  32.644  87.949  1.00  0.00    -0.550 OA
ENDBRANCH   5   6
ENDBRANCH   4   5
ENDBRANCH   3   4
ENDBRANCH   2   3
ENDBRANCH   1   2
BRANCH   1   9
ATOM      9  C   UNL     1      43.230  28.775  90.077  1.00  0.00     0.000 C 
BRANCH   9  10
ATOM     10  C   UNL     1      42.696  29.156  88.691  1.00  0.00    -0.000 C 
BRANCH  10  11
ATOM     11  C   UNL     1      42.458  30.671  88.590  1.00  0.00    -0.000 C 
BRANCH  11  12
ATOM     12  C   UNL     1      41.155  31.025  87.851  1.00  0.00    -0.000 C 
BRANCH  12  13
ATOM     13  C   UNL     1      39.868  30.546  88.543  1.00  0.00    -0.003 C 
ATOM     14  C   UNL     1      39.200  29.375  87.822  1.00  0.00     0.004 C 
ENDBRANCH  12  13
ENDBRANCH  11  12
ENDBRANCH  10  11
ENDBRANCH   9  10
ENDBRANCH   1   9
TORSDOF 10
ENDMDL
MODEL 4
REMARK VINA RESULT:    -3.279      3.014      6.022
REMARK INTER + INTRA:          -6.369
REMARK INTER:                  -4.966
REMARK INTRA:                  -1.403
REMARK UNBOUND:                -1.173
REMARK SMILES CCCCCCCCCCCC(=O)[O-]
REMARK SMILES IDX 7 1 8 2 9 3 10 4 11 5 12 6 13 7 14 8 6 9 5 10 4 11 3 12 2 13
REMARK SMILES IDX 1 14
REMARK H PARENT
REMARK Flexibility Score: inf
ROOT
ATOM      1  C   UNL     1      43.277  29.771  87.743  1.00  0.00     0.000 C 
ENDROOT
BRANCH   1   2
ATOM      2  C   UNL     1      43.641  28.978  89.004  1.00  0.00     0.000 C 
BRANCH   2   3
ATOM      3  C   UNL     1      43.409  29.821  90.269  1.00  0.00     0.000 C 
BRANCH   3   4
ATOM      4  C   UNL     1      44.682  29.982  91.114  1.00  0.00     0.006 C 
BRANCH   4   5
ATOM      5  C   UNL     1      45.287  31.388  91.010  1.00  0.00     0.053 C 
BRANCH   5   6
ATOM      6  C   UNL     1      46.415  31.399  90.028  1.00  0.00     0.041 C 
ATOM      7  O   UNL     1      46.181  31.496  88.794  1.00  0.00    -0.550 OA
ATOM      8  O   UNL     1      47.724  31.254  90.470  1.00  0.00    -0.550 OA
ENDBRANCH   5   6
ENDBRANCH   4   5
ENDBRANCH   3   4
ENDBRANCH   2   3
ENDBRANCH   1   2
BRANCH   1   9
ATOM      9  C   UNL     1      42.631  31.114  88.103  1.00  0.00     0.000 C 
BRANCH   9  10
ATOM     10  C   UNL     1      41.277  31.279  87.404  1.00  0.00    -0.000 C 
BRANCH  10  11
ATOM     11  C   UNL     1      40.124  30.882  88.337  1.00  0.00    -0.000 C 
BRANCH  11  12
ATOM     12  C   UNL     1      39.571  29.475  88.043  1.00  0.00    -0.000 C 
BRANCH  12  13
ATOM     13  C   UNL     1      39.937  28.405  89.086  1.00  0.00    -0.003 C 
ATOM     14  C   UNL     1      40.436  27.104  88.458  1.00  0.00     0.004 C 
ENDBRANCH  12  13
ENDBRANCH  11  12
ENDBRANCH  10  11
ENDBRANCH   9  10
ENDBRANCH   1   9
TORSDOF 10
ENDMDL
MODEL 5
REMARK VINA RESULT:    -3.262      3.283      5.513
REMARK INTER + INTRA:          -6.341
REMARK INTER:                  -4.947
REMARK INTRA:                  -1.395
REMARK UNBOUND:                -1.173
REMARK SMILES CCCCCCCCCCCC(=O)[O-]
REMARK SMILES IDX 7 1 8 2 9 3 10 4 11 5 12 6 13 7 14 8 6 9 5 10 4 11 3 12 2 13
REMARK SMILES IDX 1 14
REMARK H PARENT
REMARK Flexibility Score: inf
ROOT
ATOM      1  C   UNL     1      42.214  30.196  86.976  1.00  0.00     0.000 C 
ENDROOT
BRANCH   1   2
ATOM      2  C   UNL     1      43.580  30.209  87.671  1.00  0.00     0.000 C 
BRANCH   2   3
ATOM      3  C   UNL     1      43.677  31.372  88.672  1.00  0.00     0.000 C 
BRANCH   3   4
ATOM      4  C   UNL     1      44.928  31.285  89.560  1.00  0.00     0.006 C 
BRANCH   4   5
ATOM      5  C   UNL     1      45.674  29.953  89.403  1.00  0.00     0.053 C 
BRANCH   5   6
ATOM      6  C   UNL     1      46.753  29.835  90.432  1.00  0.00     0.041 C 
ATOM      7  O   UNL     1      46.725  28.899  91.275  1.00  0.00    -0.550 OA
ATOM      8  O   UNL     1      47.764  30.784  90.491  1.00  0.00    -0.550 OA
ENDBRANCH   5   6
ENDBRANCH   4   5
ENDBRANCH   3   4
ENDBRANCH   2   3
ENDBRANCH   1   2
BRANCH   1   9
ATOM      9  C   UNL     1      41.267  31.226  87.603  1.00  0.00     0.000 C 
BRANCH   9  10
ATOM     10  C   UNL     1      40.058  30.541  88.251  1.00  0.00    -0.000 C 
BRANCH  10  11
ATOM     11  C   UNL     1      40.396  30.052  89.667  1.00  0.00    -0.000 C 
BRANCH  11  12
ATOM     12  C   UNL     1      40.540  28.521  89.754  1.00  0.00    -0.000 C 
BRANCH  12  13
ATOM     13  C   UNL     1      41.927  28.027  90.199  1.00  0.00    -0.003 C 
ATOM     14  C   UNL     1      42.568  28.918  91.261  1.00  0.00     0.004 C 
ENDBRANCH  12  13
ENDBRANCH  11  12
ENDBRANCH  10  11
ENDBRANCH   9  10
ENDBRANCH   1   9
TORSDOF 10
ENDMDL
MODEL 6
REMARK VINA RESULT:    -3.258      1.409      2.516
REMARK INTER + INTRA:          -6.336
REMARK INTER:                  -5.277
REMARK INTRA:                  -1.059
REMARK UNBOUND:                -1.173
REMARK SMILES CCCCCCCCCCCC(=O)[O-]
REMARK SMILES IDX 7 1 8 2 9 3 10 4 11 5 12 6 13 7 14 8 6 9 5 10 4 11 3 12 2 13
REMARK SMILES IDX 1 14
REMARK H PARENT
REMARK Flexibility Score: inf
ROOT
ATOM      1  C   UNL     1      43.546  29.911  87.536  1.00  0.00     0.000 C 
ENDROOT
BRANCH   1   2
ATOM      2  C   UNL     1      42.264  30.260  86.772  1.00  0.00     0.000 C 
BRANCH   2   3
ATOM      3  C   UNL     1      41.414  31.272  87.556  1.00  0.00     0.000 C 
BRANCH   3   4
ATOM      4  C   UNL     1      40.203  30.621  88.243  1.00  0.00     0.006 C 
BRANCH   4   5
ATOM      5  C   UNL     1      40.513  30.155  89.671  1.00  0.00     0.053 C 
BRANCH   5   6
ATOM      6  C   UNL     1      40.626  28.664  89.720  1.00  0.00     0.041 C 
ATOM      7  O   UNL     1      39.614  27.945  89.507  1.00  0.00    -0.550 OA
ATOM      8  O   UNL     1      41.837  28.068  90.047  1.00  0.00    -0.550 OA
ENDBRANCH   5   6
ENDBRANCH   4   5
ENDBRANCH   3   4
ENDBRANCH   2   3
ENDBRANCH   1   2
BRANCH   1   9
ATOM      9  C   UNL     1      43.901  31.009  88.546  1.00  0.00     0.000 C 
BRANCH   9  10
ATOM     10  C   UNL     1      45.411  31.047  88.811  1.00  0.00    -0.000 C 
BRANCH  10  11
ATOM     11  C   UNL     1      45.703  31.169  90.313  1.00  0.00    -0.000 C 
BRANCH  11  12
ATOM     12  C   UNL     1      44.426  31.191  91.173  1.00  0.00    -0.000 C 
BRANCH  12  13
ATOM     13  C   UNL     1      44.230  29.957  92.071  1.00  0.00    -0.003 C 
ATOM     14  C   UNL     1      45.322  28.904  91.888  1.00  0.00     0.004 C 
ENDBRANCH  12  13
ENDBRANCH  11  12
ENDBRANCH  10  11
ENDBRANCH   9  10
ENDBRANCH   1   9
TORSDOF 10
ENDMDL
MODEL 7
REMARK VINA RESULT:    -3.255      2.847      6.290
REMARK INTER + INTRA:          -6.330
REMARK INTER:                  -5.541
REMARK INTRA:                  -0.789
REMARK UNBOUND:                -1.173
REMARK SMILES CCCCCCCCCCCC(=O)[O-]
REMARK SMILES IDX 7 1 8 2 9 3 10 4 11 5 12 6 13 7 14 8 6 9 5 10 4 11 3 12 2 13
REMARK SMILES IDX 1 14
REMARK H PARENT
REMARK Flexibility Score: inf
ROOT
ATOM      1  C   UNL     1      41.877  31.196  87.806  1.00  0.00     0.000 C 
ENDROOT
BRANCH   1   2
ATOM      2  C   UNL     1      42.869  30.373  88.637  1.00  0.00     0.000 C 
BRANCH   2   3
ATOM      3  C   UNL     1      44.106  31.209  89.002  1.00  0.00     0.000 C 
BRANCH   3   4
ATOM      4  C   UNL     1      44.417  31.181  90.506  1.00  0.00     0.006 C 
BRANCH   4   5
ATOM      5  C   UNL     1      43.516  30.207  91.278  1.00  0.00     0.053 C 
BRANCH   5   6
ATOM      6  C   UNL     1      44.342  29.300  92.134  1.00  0.00     0.041 C 
ATOM      7  O   UNL     1      45.583  29.204  91.942  1.00  0.00    -0.550 OA
ATOM      8  O   UNL     1      43.735  28.524  93.113  1.00  0.00    -0.550 OA
ENDBRANCH   5   6
ENDBRANCH   4   5
ENDBRANCH   3   4
ENDBRANCH   2   3
ENDBRANCH   1   2
BRANCH   1   9
ATOM      9  C   UNL     1      40.430  30.809  88.135  1.00  0.00     0.000 C 
BRANCH   9  10
ATOM     10  C   UNL     1      40.380  29.738  89.230  1.00  0.00    -0.000 C 
BRANCH  10  11
ATOM     11  C   UNL     1      39.791  28.426  88.691  1.00  0.00    -0.000 C 
BRANCH  11  12
ATOM     12  C   UNL     1      38.935  28.628  87.427  1.00  0.00    -0.000 C 
BRANCH  12  13
ATOM     13  C   UNL     1      37.444  28.288  87.596  1.00  0.00    -0.003 C 
ATOM     14  C   UNL     1      36.531  29.157  86.732  1.00  0.00     0.004 C 
ENDBRANCH  12  13
ENDBRANCH  11  12
ENDBRANCH  10  11
ENDBRANCH   9  10
ENDBRANCH   1   9
TORSDOF 10
ENDMDL
MODEL 8
REMARK VINA RESULT:    -3.253      2.922      5.160
REMARK INTER + INTRA:          -6.328
REMARK INTER:                  -4.897
REMARK INTRA:                  -1.431
REMARK UNBOUND:                -1.173
REMARK SMILES CCCCCCCCCCCC(=O)[O-]
REMARK SMILES IDX 7 1 8 2 9 3 10 4 11 5 12 6 13 7 14 8 6 9 5 10 4 11 3 12 2 13
REMARK SMILES IDX 1 14
REMARK H PARENT
REMARK Flexibility Score: inf
ROOT
ATOM      1  C   UNL     1      40.584  28.491  89.819  1.00  0.00     0.000 C 
ENDROOT
BRANCH   1   2
ATOM      2  C   UNL     1      41.780  27.535  89.755  1.00  0.00     0.000 C 
BRANCH   2   3
ATOM      3  C   UNL     1      42.845  27.917  90.796  1.00  0.00     0.000 C 
BRANCH   3   4
ATOM      4  C   UNL     1      42.697  29.364  91.289  1.00  0.00     0.006 C 
BRANCH   4   5
ATOM      5  C   UNL     1      43.813  29.775  92.259  1.00  0.00     0.053 C 
BRANCH   5   6
ATOM      6  C   UNL     1      45.064  30.100  91.508  1.00  0.00     0.041 C 
ATOM      7  O   UNL     1      46.019  29.279  91.482  1.00  0.00    -0.550 OA
ATOM      8  O   UNL     1      45.197  31.329  90.874  1.00  0.00    -0.550 OA
ENDBRANCH   5   6
ENDBRANCH   4   5
ENDBRANCH   3   4
ENDBRANCH   2   3
ENDBRANCH   1   2
BRANCH   1   9
ATOM      9  C   UNL     1      39.663  28.303  88.607  1.00  0.00     0.000 C 
BRANCH   9  10
ATOM     10  C   UNL     1      39.403  29.638  87.900  1.00  0.00    -0.000 C 
BRANCH  10  11
ATOM     11  C   UNL     1      40.277  30.754  88.491  1.00  0.00    -0.000 C 
BRANCH  11  12
ATOM     12  C   UNL     1      41.417  31.184  87.549  1.00  0.00    -0.000 C 
BRANCH  12  13
ATOM     13  C   UNL     1      42.804  31.274  88.211  1.00  0.00    -0.003 C 
ATOM     14  C   UNL     1      43.740  30.142  87.792  1.00  0.00     0.004 C 
ENDBRANCH  12  13
ENDBRANCH  11  12
ENDBRANCH  10  11
ENDBRANCH   9  10
ENDBRANCH   1   9
TORSDOF 10
ENDMDL
MODEL 9
REMARK VINA RESULT:    -3.162      2.175      5.221
REMARK INTER + INTRA:          -6.184
REMARK INTER:                  -4.948
REMARK INTRA:                  -1.236
REMARK UNBOUND:                -1.173
REMARK SMILES CCCCCCCCCCCC(=O)[O-]
REMARK SMILES IDX 7 1 8 2 9 3 10 4 11 5 12 6 13 7 14 8 6 9 5 10 4 11 3 12 2 13
REMARK SMILES IDX 1 14
REMARK H PARENT
REMARK Flexibility Score: inf
ROOT
ATOM      1  C   UNL     1      44.454  30.876  88.594  1.00  0.00     0.000 C 
ENDROOT
BRANCH   1   2
ATOM      2  C   UNL     1      44.266  31.307  90.053  1.00  0.00     0.000 C 
BRANCH   2   3
ATOM      3  C   UNL     1      45.410  30.779  90.934  1.00  0.00     0.000 C 
BRANCH   3   4
ATOM      4  C   UNL     1      44.932  29.750  91.969  1.00  0.00     0.006 C 
BRANCH   4   5
ATOM      5  C   UNL     1      43.406  29.579  91.973  1.00  0.00     0.053 C 
BRANCH   5   6
ATOM      6  C   UNL     1      43.037  28.175  91.616  1.00  0.00     0.041 C 
ATOM      7  O   UNL     1      43.456  27.663  90.543  1.00  0.00    -0.550 OA
ATOM      8  O   UNL     1      42.192  27.445  92.442  1.00  0.00    -0.550 OA
ENDBRANCH   5   6
ENDBRANCH   4   5
ENDBRANCH   3   4
ENDBRANCH   2   3
ENDBRANCH   1   2
BRANCH   1   9
ATOM      9  C   UNL     1      43.183  30.215  88.048  1.00  0.00     0.000 C 
BRANCH   9  10
ATOM     10  C   UNL     1      42.140  31.267  87.654  1.00  0.00    -0.000 C 
BRANCH  10  11
ATOM     11  C   UNL     1      40.728  30.823  88.063  1.00  0.00    -0.000 C 
BRANCH  11  12
ATOM     12  C   UNL     1      40.702  30.071  89.407  1.00  0.00    -0.000 C 
BRANCH  12  13
ATOM     13  C   UNL     1      40.085  28.663  89.348  1.00  0.00    -0.003 C 
ATOM     14  C   UNL     1      39.342  28.389  88.041  1.00  0.00     0.004 C 
ENDBRANCH  12  13
ENDBRANCH  11  12
ENDBRANCH  10  11
ENDBRANCH   9  10
ENDBRANCH   1   9
TORSDOF 10
ENDMDL
