MODEL 1
REMARK VINA RESULT:    -2.556      0.000      0.000
REMARK INTER + INTRA:          -5.478
REMARK INTER:                  -4.946
REMARK INTRA:                  -0.532
REMARK UNBOUND:                -0.532
REMARK SMILES CCCCCCCCCCCCCCCCCC(=O)[O-]
REMARK SMILES IDX 10 1 11 2 12 3 13 4 14 5 15 6 16 7 17 8 18 9 19 10 20 11
REMARK SMILES IDX 9 12 8 13 7 14 6 15 5 16 4 17 3 18 2 19 1 20
REMARK H PARENT
REMARK Flexibility Score: inf
ROOT
ATOM      1  C   UNL     1      41.477  13.913 -35.531  1.00  0.00     0.000 C 
ENDROOT
BRANCH   1   2
ATOM      2  C   UNL     1      42.202  12.652 -36.033  1.00  0.00     0.000 C 
BRANCH   2   3
ATOM      3  C   UNL     1      42.759  11.794 -34.885  1.00  0.00     0.000 C 
BRANCH   3   4
ATOM      4  C   UNL     1      44.248  12.057 -34.615  1.00  0.00     0.000 C 
BRANCH   4   5
ATOM      5  C   UNL     1      44.468  12.525 -33.169  1.00  0.00     0.000 C 
BRANCH   5   6
ATOM      6  C   UNL     1      45.955  12.735 -32.826  1.00  0.00     0.000 C 
BRANCH   6   7
ATOM      7  C   UNL     1      46.465  11.929 -31.614  1.00  0.00     0.006 C 
BRANCH   7   8
ATOM      8  C   UNL     1      45.656  12.134 -30.324  1.00  0.00     0.053 C 
BRANCH   8   9
ATOM      9  C   UNL     1      46.206  11.329 -29.187  1.00  0.00     0.041 C 
ATOM     10  O   UNL     1      45.489  11.080 -28.182  1.00  0.00    -0.550 OA
ATOM     11  O   UNL     1      47.519  10.878 -29.224  1.00  0.00    -0.550 OA
ENDBRANCH   8   9
ENDBRANCH   7   8
ENDBRANCH   6   7
ENDBRANCH   5   6
ENDBRANCH   4   5
ENDBRANCH   3   4
ENDBRANCH   2   3
ENDBRANCH   1   2
BRANCH   1  12
ATOM     12  C   UNL     1      40.007  13.964 -35.980  1.00  0.00     0.000 C 
BRANCH  12  13
ATOM     13  C   UNL     1      39.128  14.805 -35.038  1.00  0.00    -0.000 C 
BRANCH  13  14
ATOM     14  C   UNL     1      37.662  14.866 -35.497  1.00  0.00    -0.000 C 
BRANCH  14  15
ATOM     15  C   UNL     1      37.041  13.470 -35.680  1.00  0.00    -0.000 C 
BRANCH  15  16
ATOM     16  C   UNL     1      37.137  12.619 -34.395  1.00  0.00    -0.000 C 
BRANCH  16  17
ATOM     17  C   UNL     1      36.899  13.421 -33.104  1.00  0.00    -0.000 C 
BRANCH  17  18
ATOM     18  C   UNL     1      37.609  12.814 -31.883  1.00  0.00    -0.000 C 
BRANCH  18  19
ATOM     19  C   UNL     1      36.980  13.259 -30.553  1.00  0.00    -0.003 C 
ATOM     20  C   UNL     1      37.162  14.752 -30.282  1.00  0.00     0.004 C 
ENDBRANCH  18  19
ENDBRANCH  17  18
ENDBRANCH  16  17
ENDBRANCH  15  16
ENDBRANCH  14  15
ENDBRANCH  13  14
ENDBRANCH  12  13
ENDBRANCH   1  12
TORSDOF 16
ENDMDL
MODEL 2
REMARK VINA RESULT:    -2.382      3.250      7.868
REMARK INTER + INTRA:          -5.143
REMARK INTER:                  -4.681
REMARK INTRA:                  -0.462
REMARK UNBOUND:                -0.532
REMARK SMILES CCCCCCCCCCCCCCCCCC(=O)[O-]
REMARK SMILES IDX 10 1 11 2 12 3 13 4 14 5 15 6 16 7 17 8 18 9 19 10 20 11
REMARK SMILES IDX 9 12 8 13 7 14 6 15 5 16 4 17 3 18 2 19 1 20
REMARK H PARENT
REMARK Flexibility Score: inf
ROOT
ATOM      1  C   UNL     1      41.747  13.797 -36.472  1.00  0.00     0.000 C 
ENDROOT
BRANCH   1   2
ATOM      2  C   UNL     1      41.029  14.814 -35.567  1.00  0.00     0.000 C 
BRANCH   2   3
ATOM      3  C   UNL     1      39.587  14.397 -35.237  1.00  0.00     0.000 C 
BRANCH   3   4
ATOM      4  C   UNL     1      39.015  13.388 -36.244  1.00  0.00     0.000 C 
BRANCH   4   5
ATOM      5  C   UNL     1      37.481  13.349 -36.169  1.00  0.00     0.000 C 
BRANCH   5   6
ATOM      6  C   UNL     1      36.923  14.066 -34.926  1.00  0.00     0.000 C 
BRANCH   6   7
ATOM      7  C   UNL     1      37.182  13.344 -33.587  1.00  0.00     0.006 C 
BRANCH   7   8
ATOM      8  C   UNL     1      36.875  14.185 -32.338  1.00  0.00     0.053 C 
BRANCH   8   9
ATOM      9  C   UNL     1      37.015  13.387 -31.079  1.00  0.00     0.041 C 
ATOM     10  O   UNL     1      37.056  12.129 -31.126  1.00  0.00    -0.550 OA
ATOM     11  O   UNL     1      37.072  14.032 -29.849  1.00  0.00    -0.550 OA
ENDBRANCH   8   9
ENDBRANCH   7   8
ENDBRANCH   6   7
ENDBRANCH   5   6
ENDBRANCH   4   5
ENDBRANCH   3   4
ENDBRANCH   2   3
ENDBRANCH   1   2
BRANCH   1  12
ATOM     12  C   UNL     1      42.171  12.530 -35.711  1.00  0.00     0.000 C 
BRANCH  12  13
ATOM     13  C   UNL     1      43.544  12.000 -36.159  1.00  0.00    -0.000 C 
BRANCH  13  14
ATOM     14  C   UNL     1      44.606  12.100 -35.053  1.00  0.00    -0.000 C 
BRANCH  14  15
ATOM     15  C   UNL     1      43.995  12.050 -33.641  1.00  0.00    -0.000 C 
BRANCH  15  16
ATOM     16  C   UNL     1      44.776  12.928 -32.638  1.00  0.00    -0.000 C 
BRANCH  16  17
ATOM     17  C   UNL     1      46.209  12.436 -32.375  1.00  0.00    -0.000 C 
BRANCH  17  18
ATOM     18  C   UNL     1      46.259  11.193 -31.473  1.00  0.00    -0.000 C 
BRANCH  18  19
ATOM     19  C   UNL     1      46.943  11.468 -30.124  1.00  0.00    -0.003 C 
ATOM     20  C   UNL     1      45.956  11.509 -28.958  1.00  0.00     0.004 C 
ENDBRANCH  18  19
ENDBRANCH  17  18
ENDBRANCH  16  17
ENDBRANCH  15  16
ENDBRANCH  14  15
ENDBRANCH  13  14
ENDBRANCH  12  13
ENDBRANCH   1  12
TORSDOF 16
ENDMDL
MODEL 3
REMARK VINA RESULT:    -1.895      3.210      7.968
REMARK INTER + INTRA:          -4.200
REMARK INTER:                  -3.380
REMARK INTRA:                  -0.820
REMARK UNBOUND:                -0.532
REMARK SMILES CCCCCCCCCCCCCCCCCC(=O)[O-]
REMARK SMILES IDX 10 1 11 2 12 3 13 4 14 5 15 6 16 7 17 8 18 9 19 10 20 11
REMARK SMILES IDX 9 12 8 13 7 14 6 15 5 16 4 17 3 18 2 19 1 20
REMARK H PARENT
REMARK Flexibility Score: inf
ROOT
ATOM      1  C   UNL     1      42.814  13.231 -36.144  1.00  0.00     0.000 C 
ENDROOT
BRANCH   1   2
ATOM      2  C   UNL     1      41.331  13.022 -36.500  1.00  0.00     0.000 C 
BRANCH   2   3
ATOM      3  C   UNL     1      40.391  13.895 -35.655  1.00  0.00     0.000 C 
BRANCH   3   4
ATOM      4  C   UNL     1      39.023  14.113 -36.319  1.00  0.00     0.000 C 
BRANCH   4   5
ATOM      5  C   UNL     1      37.960  14.485 -35.275  1.00  0.00     0.000 C 
BRANCH   5   6
ATOM      6  C   UNL     1      37.724  13.373 -34.236  1.00  0.00     0.000 C 
BRANCH   6   7
ATOM      7  C   UNL     1      37.086  13.842 -32.912  1.00  0.00     0.006 C 
BRANCH   7   8
ATOM      8  C   UNL     1      36.960  12.748 -31.841  1.00  0.00     0.053 C 
BRANCH   8   9
ATOM      9  C   UNL     1      37.051  13.309 -30.455  1.00  0.00     0.041 C 
ATOM     10  O   UNL     1      36.926  12.553 -29.456  1.00  0.00    -0.550 OA
ATOM     11  O   UNL     1      37.246  14.671 -30.268  1.00  0.00    -0.550 OA
ENDBRANCH   8   9
ENDBRANCH   7   8
ENDBRANCH   6   7
ENDBRANCH   5   6
ENDBRANCH   4   5
ENDBRANCH   3   4
ENDBRANCH   2   3
ENDBRANCH   1   2
BRANCH   1  12
ATOM     12  C   UNL     1      43.597  11.909 -36.082  1.00  0.00     0.000 C 
BRANCH  12  13
ATOM     13  C   UNL     1      43.795  11.403 -34.644  1.00  0.00    -0.000 C 
BRANCH  13  14
ATOM     14  C   UNL     1      44.007  12.546 -33.639  1.00  0.00    -0.000 C 
BRANCH  14  15
ATOM     15  C   UNL     1      45.496  12.827 -33.368  1.00  0.00    -0.000 C 
BRANCH  15  16
ATOM     16  C   UNL     1      46.076  11.893 -32.284  1.00  0.00    -0.000 C 
BRANCH  16  17
ATOM     17  C   UNL     1      45.221  11.825 -31.007  1.00  0.00    -0.000 C 
BRANCH  17  18
ATOM     18  C   UNL     1      46.010  12.190 -29.739  1.00  0.00    -0.000 C 
BRANCH  18  19
ATOM     19  C   UNL     1      46.341  10.962 -28.876  1.00  0.00    -0.003 C 
ATOM     20  C   UNL     1      47.822  10.878 -28.510  1.00  0.00     0.004 C 
ENDBRANCH  18  19
ENDBRANCH  17  18
ENDBRANCH  16  17
ENDBRANCH  15  16
ENDBRANCH  14  15
ENDBRANCH  13  14
ENDBRANCH  12  13
ENDBRANCH   1  12
TORSDOF 16
ENDMDL
MODEL 4
REMARK VINA RESULT:    -1.775      1.318      2.035
REMARK INTER + INTRA:          -3.968
REMARK INTER:                  -3.273
REMARK INTRA:                  -0.695
REMARK UNBOUND:                -0.532
REMARK SMILES CCCCCCCCCCCCCCCCCC(=O)[O-]
REMARK SMILES IDX 10 1 11 2 12 3 13 4 14 5 15 6 16 7 17 8 18 9 19 10 20 11
REMARK SMILES IDX 9 12 8 13 7 14 6 15 5 16 4 17 3 18 2 19 1 20
REMARK H PARENT
REMARK Flexibility Score: inf
ROOT
ATOM      1  C   UNL     1      39.995  14.157 -35.955  1.00  0.00     0.000 C 
ENDROOT
BRANCH   1   2
ATOM      2  C   UNL     1      41.384  13.640 -36.370  1.00  0.00     0.000 C 
BRANCH   2   3
ATOM      3  C   UNL     1      41.837  12.431 -35.537  1.00  0.00     0.000 C 
BRANCH   3   4
ATOM      4  C   UNL     1      43.296  12.035 -35.809  1.00  0.00     0.000 C 
BRANCH   4   5
ATOM      5  C   UNL     1      44.000  11.613 -34.510  1.00  0.00     0.000 C 
BRANCH   5   6
ATOM      6  C   UNL     1      45.190  12.522 -34.151  1.00  0.00     0.000 C 
BRANCH   6   7
ATOM      7  C   UNL     1      45.154  13.108 -32.724  1.00  0.00     0.006 C 
BRANCH   7   8
ATOM      8  C   UNL     1      44.791  12.097 -31.627  1.00  0.00     0.053 C 
BRANCH   8   9
ATOM      9  C   UNL     1      45.951  11.809 -30.725  1.00  0.00     0.041 C 
ATOM     10  O   UNL     1      47.097  11.614 -31.209  1.00  0.00    -0.550 OA
ATOM     11  O   UNL     1      45.762  11.729 -29.351  1.00  0.00    -0.550 OA
ENDBRANCH   8   9
ENDBRANCH   7   8
ENDBRANCH   6   7
ENDBRANCH   5   6
ENDBRANCH   4   5
ENDBRANCH   3   4
ENDBRANCH   2   3
ENDBRANCH   1   2
BRANCH   1  12
ATOM     12  C   UNL     1      38.885  13.695 -36.913  1.00  0.00     0.000 C 
BRANCH  12  13
ATOM     13  C   UNL     1      37.481  13.802 -36.292  1.00  0.00    -0.000 C 
BRANCH  13  14
ATOM     14  C   UNL     1      37.518  14.258 -34.825  1.00  0.00    -0.000 C 
BRANCH  14  15
ATOM     15  C   UNL     1      36.924  13.212 -33.866  1.00  0.00    -0.000 C 
BRANCH  15  16
ATOM     16  C   UNL     1      36.908  13.707 -32.403  1.00  0.00    -0.000 C 
BRANCH  16  17
ATOM     17  C   UNL     1      37.259  12.615 -31.378  1.00  0.00    -0.000 C 
BRANCH  17  18
ATOM     18  C   UNL     1      36.956  13.033 -29.930  1.00  0.00    -0.000 C 
BRANCH  18  19
ATOM     19  C   UNL     1      37.630  12.117 -28.897  1.00  0.00    -0.003 C 
ATOM     20  C   UNL     1      36.875  12.065 -27.570  1.00  0.00     0.004 C 
ENDBRANCH  18  19
ENDBRANCH  17  18
ENDBRANCH  16  17
ENDBRANCH  15  16
ENDBRANCH  14  15
ENDBRANCH  13  14
ENDBRANCH  12  13
ENDBRANCH   1  12
TORSDOF 16
ENDMDL
MODEL 5
REMARK VINA RESULT:    -1.545      1.208      2.588
REMARK INTER + INTRA:          -3.523
REMARK INTER:                  -3.067
REMARK INTRA:                  -0.456
REMARK UNBOUND:                -0.532
REMARK SMILES CCCCCCCCCCCCCCCCCC(=O)[O-]
REMARK SMILES IDX 10 1 11 2 12 3 13 4 14 5 15 6 16 7 17 8 18 9 19 10 20 11
REMARK SMILES IDX 9 12 8 13 7 14 6 15 5 16 4 17 3 18 2 19 1 20
REMARK H PARENT
REMARK Flexibility Score: inf
ROOT
ATOM      1  C   UNL     1      39.183  13.288 -36.693  1.00  0.00     0.000 C 
ENDROOT
BRANCH   1   2
ATOM      2  C   UNL     1      40.057  14.190 -35.804  1.00  0.00     0.000 C 
BRANCH   2   3
ATOM      3  C   UNL     1      41.494  13.666 -35.662  1.00  0.00     0.000 C 
BRANCH   3   4
ATOM      4  C   UNL     1      41.594  12.144 -35.848  1.00  0.00     0.000 C 
BRANCH   4   5
ATOM      5  C   UNL     1      42.827  11.584 -35.124  1.00  0.00     0.000 C 
BRANCH   5   6
ATOM      6  C   UNL     1      43.852  12.672 -34.754  1.00  0.00     0.000 C 
BRANCH   6   7
ATOM      7  C   UNL     1      44.919  12.240 -33.727  1.00  0.00     0.006 C 
BRANCH   7   8
ATOM      8  C   UNL     1      44.449  12.275 -32.264  1.00  0.00     0.053 C 
BRANCH   8   9
ATOM      9  C   UNL     1      45.601  12.332 -31.308  1.00  0.00     0.041 C 
ATOM     10  O   UNL     1      45.400  12.240 -30.069  1.00  0.00    -0.550 OA
ATOM     11  O   UNL     1      46.892  12.516 -31.786  1.00  0.00    -0.550 OA
ENDBRANCH   8   9
ENDBRANCH   7   8
ENDBRANCH   6   7
ENDBRANCH   5   6
ENDBRANCH   4   5
ENDBRANCH   3   4
ENDBRANCH   2   3
ENDBRANCH   1   2
BRANCH   1  12
ATOM     12  C   UNL     1      37.682  13.569 -36.522  1.00  0.00     0.000 C 
BRANCH  12  13
ATOM     13  C   UNL     1      37.341  14.158 -35.143  1.00  0.00    -0.000 C 
BRANCH  13  14
ATOM     14  C   UNL     1      36.986  13.076 -34.110  1.00  0.00    -0.000 C 
BRANCH  14  15
ATOM     15  C   UNL     1      36.917  13.629 -32.675  1.00  0.00    -0.000 C 
BRANCH  15  16
ATOM     16  C   UNL     1      37.594  12.687 -31.656  1.00  0.00    -0.000 C 
BRANCH  16  17
ATOM     17  C   UNL     1      37.095  12.878 -30.214  1.00  0.00    -0.000 C 
BRANCH  17  18
ATOM     18  C   UNL     1      36.875  14.355 -29.847  1.00  0.00    -0.000 C 
BRANCH  18  19
ATOM     19  C   UNL     1      37.935  15.281 -30.464  1.00  0.00    -0.003 C 
ATOM     20  C   UNL     1      38.753  16.028 -29.411  1.00  0.00     0.004 C 
ENDBRANCH  18  19
ENDBRANCH  17  18
ENDBRANCH  16  17
ENDBRANCH  15  16
ENDBRANCH  14  15
ENDBRANCH  13  14
ENDBRANCH  12  13
ENDBRANCH   1  12
TORSDOF 16
ENDMDL
MODEL 6
REMARK VINA RESULT:    -0.794      4.166      8.462
REMARK INTER + INTRA:          -2.070
REMARK INTER:                  -1.158
REMARK INTRA:                  -0.912
REMARK UNBOUND:                -0.532
REMARK SMILES CCCCCCCCCCCCCCCCCC(=O)[O-]
REMARK SMILES IDX 10 1 11 2 12 3 13 4 14 5 15 6 16 7 17 8 18 9 19 10 20 11
REMARK SMILES IDX 9 12 8 13 7 14 6 15 5 16 4 17 3 18 2 19 1 20
REMARK H PARENT
REMARK Flexibility Score: inf
ROOT
ATOM      1  C   UNL     1      44.702  13.157 -33.097  1.00  0.00     0.000 C 
ENDROOT
BRANCH   1   2
ATOM      2  C   UNL     1      44.784  11.909 -33.994  1.00  0.00     0.000 C 
BRANCH   2   3
ATOM      3  C   UNL     1      44.932  12.259 -35.483  1.00  0.00     0.000 C 
BRANCH   3   4
ATOM      4  C   UNL     1      43.612  12.127 -36.258  1.00  0.00     0.000 C 
BRANCH   4   5
ATOM      5  C   UNL     1      42.497  11.582 -35.353  1.00  0.00     0.000 C 
BRANCH   5   6
ATOM      6  C   UNL     1      41.112  12.165 -35.690  1.00  0.00     0.000 C 
BRANCH   6   7
ATOM      7  C   UNL     1      41.132  13.589 -36.285  1.00  0.00     0.006 C 
BRANCH   7   8
ATOM      8  C   UNL     1      40.126  14.560 -35.649  1.00  0.00     0.053 C 
BRANCH   8   9
ATOM      9  C   UNL     1      38.717  14.067 -35.771  1.00  0.00     0.041 C 
ATOM     10  O   UNL     1      38.196  13.914 -36.907  1.00  0.00    -0.550 OA
ATOM     11  O   UNL     1      37.971  13.802 -34.630  1.00  0.00    -0.550 OA
ENDBRANCH   8   9
ENDBRANCH   7   8
ENDBRANCH   6   7
ENDBRANCH   5   6
ENDBRANCH   4   5
ENDBRANCH   3   4
ENDBRANCH   2   3
ENDBRANCH   1   2
BRANCH   1  12
ATOM     12  C   UNL     1      45.737  13.135 -31.961  1.00  0.00     0.000 C 
BRANCH  12  13
ATOM     13  C   UNL     1      46.650  11.898 -32.013  1.00  0.00    -0.000 C 
BRANCH  13  14
ATOM     14  C   UNL     1      46.510  11.008 -30.768  1.00  0.00    -0.000 C 
BRANCH  14  15
ATOM     15  C   UNL     1      46.429  11.823 -29.465  1.00  0.00    -0.000 C 
BRANCH  15  16
ATOM     16  C   UNL     1      46.435  10.918 -28.213  1.00  0.00    -0.000 C 
BRANCH  16  17
ATOM     17  C   UNL     1      45.098  10.909 -27.452  1.00  0.00    -0.000 C 
BRANCH  17  18
ATOM     18  C   UNL     1      45.249  11.299 -25.973  1.00  0.00    -0.000 C 
BRANCH  18  19
ATOM     19  C   UNL     1      44.020  12.044 -25.430  1.00  0.00    -0.003 C 
ATOM     20  C   UNL     1      44.391  13.203 -24.505  1.00  0.00     0.004 C 
ENDBRANCH  18  19
ENDBRANCH  17  18
ENDBRANCH  16  17
ENDBRANCH  15  16
ENDBRANCH  14  15
ENDBRANCH  13  14
ENDBRANCH  12  13
ENDBRANCH   1  12
TORSDOF 16
ENDMDL
MODEL 7
REMARK VINA RESULT:    -0.202      3.535      8.363
REMARK INTER + INTRA:          -0.923
REMARK INTER:                  -0.471
REMARK INTRA:                  -0.452
REMARK UNBOUND:                -0.532
REMARK SMILES CCCCCCCCCCCCCCCCCC(=O)[O-]
REMARK SMILES IDX 10 1 11 2 12 3 13 4 14 5 15 6 16 7 17 8 18 9 19 10 20 11
REMARK SMILES IDX 9 12 8 13 7 14 6 15 5 16 4 17 3 18 2 19 1 20
REMARK H PARENT
REMARK Flexibility Score: inf
ROOT
ATOM      1  C   UNL     1      43.725  12.703 -34.422  1.00  0.00     0.000 C 
ENDROOT
BRANCH   1   2
ATOM      2  C   UNL     1      43.019  11.713 -35.365  1.00  0.00     0.000 C 
BRANCH   2   3
ATOM      3  C   UNL     1      42.106  12.415 -36.383  1.00  0.00     0.000 C 
BRANCH   3   4
ATOM      4  C   UNL     1      40.731  12.775 -35.800  1.00  0.00     0.000 C 
BRANCH   4   5
ATOM      5  C   UNL     1      40.521  14.297 -35.792  1.00  0.00     0.000 C 
BRANCH   5   6
ATOM      6  C   UNL     1      39.280  14.727 -34.989  1.00  0.00     0.000 C 
BRANCH   6   7
ATOM      7  C   UNL     1      37.933  14.232 -35.557  1.00  0.00     0.006 C 
BRANCH   7   8
ATOM      8  C   UNL     1      37.266  13.117 -34.738  1.00  0.00     0.053 C 
BRANCH   8   9
ATOM      9  C   UNL     1      36.994  13.544 -33.328  1.00  0.00     0.041 C 
ATOM     10  O   UNL     1      36.898  14.767 -33.044  1.00  0.00    -0.550 OA
ATOM     11  O   UNL     1      36.875  12.592 -32.324  1.00  0.00    -0.550 OA
ENDBRANCH   8   9
ENDBRANCH   7   8
ENDBRANCH   6   7
ENDBRANCH   5   6
ENDBRANCH   4   5
ENDBRANCH   3   4
ENDBRANCH   2   3
ENDBRANCH   1   2
BRANCH   1  12
ATOM     12  C   UNL     1      44.440  11.999 -33.258  1.00  0.00     0.000 C 
BRANCH  12  13
ATOM     13  C   UNL     1      45.352  12.947 -32.460  1.00  0.00    -0.000 C 
BRANCH  13  14
ATOM     14  C   UNL     1      45.509  12.519 -30.992  1.00  0.00    -0.000 C 
BRANCH  14  15
ATOM     15  C   UNL     1      46.753  11.642 -30.761  1.00  0.00    -0.000 C 
BRANCH  15  16
ATOM     16  C   UNL     1      46.721  10.940 -29.386  1.00  0.00    -0.000 C 
BRANCH  16  17
ATOM     17  C   UNL     1      45.463  11.259 -28.560  1.00  0.00    -0.000 C 
BRANCH  17  18
ATOM     18  C   UNL     1      45.643  10.969 -27.061  1.00  0.00    -0.000 C 
BRANCH  18  19
ATOM     19  C   UNL     1      44.372  11.259 -26.247  1.00  0.00    -0.003 C 
ATOM     20  C   UNL     1      44.615  12.238 -25.099  1.00  0.00     0.004 C 
ENDBRANCH  18  19
ENDBRANCH  17  18
ENDBRANCH  16  17
ENDBRANCH  15  16
ENDBRANCH  14  15
ENDBRANCH  13  14
ENDBRANCH  12  13
ENDBRANCH   1  12
TORSDOF 16
ENDMDL
MODEL 8
REMARK VINA RESULT:    -0.014      3.147      7.317
REMARK INTER + INTRA:          -0.559
REMARK INTER:                  -1.585
REMARK INTRA:                   1.026
REMARK UNBOUND:                -0.532
REMARK SMILES CCCCCCCCCCCCCCCCCC(=O)[O-]
REMARK SMILES IDX 10 1 11 2 12 3 13 4 14 5 15 6 16 7 17 8 18 9 19 10 20 11
REMARK SMILES IDX 9 12 8 13 7 14 6 15 5 16 4 17 3 18 2 19 1 20
REMARK H PARENT
REMARK Flexibility Score: inf
ROOT
ATOM      1  C   UNL     1      39.297  14.587 -34.911  1.00  0.00     0.000 C 
ENDROOT
BRANCH   1   2
ATOM      2  C   UNL     1      37.834  14.402 -35.351  1.00  0.00     0.000 C 
BRANCH   2   3
ATOM      3  C   UNL     1      37.397  12.929 -35.345  1.00  0.00     0.000 C 
BRANCH   3   4
ATOM      4  C   UNL     1      36.875  12.469 -33.975  1.00  0.00     0.000 C 
BRANCH   4   5
ATOM      5  C   UNL     1      36.908  13.623 -32.961  1.00  0.00     0.000 C 
BRANCH   5   6
ATOM      6  C   UNL     1      37.379  13.180 -31.563  1.00  0.00     0.000 C 
BRANCH   6   7
ATOM      7  C   UNL     1      37.345  14.282 -30.484  1.00  0.00     0.006 C 
BRANCH   7   8
ATOM      8  C   UNL     1      36.880  13.805 -29.100  1.00  0.00     0.053 C 
BRANCH   8   9
ATOM      9  C   UNL     1      36.950  12.315 -28.969  1.00  0.00     0.041 C 
ATOM     10  O   UNL     1      37.029  11.592 -29.997  1.00  0.00    -0.550 OA
ATOM     11  O   UNL     1      36.899  11.724 -27.713  1.00  0.00    -0.550 OA
ENDBRANCH   8   9
ENDBRANCH   7   8
ENDBRANCH   6   7
ENDBRANCH   5   6
ENDBRANCH   4   5
ENDBRANCH   3   4
ENDBRANCH   2   3
ENDBRANCH   1   2
BRANCH   1  12
ATOM     12  C   UNL     1      40.286  14.434 -36.077  1.00  0.00     0.000 C 
BRANCH  12  13
ATOM     13  C   UNL     1      40.363  12.992 -36.607  1.00  0.00    -0.000 C 
BRANCH  13  14
ATOM     14  C   UNL     1      41.496  12.184 -35.956  1.00  0.00    -0.000 C 
BRANCH  14  15
ATOM     15  C   UNL     1      42.544  13.079 -35.271  1.00  0.00    -0.000 C 
BRANCH  15  16
ATOM     16  C   UNL     1      43.600  12.255 -34.503  1.00  0.00    -0.000 C 
BRANCH  16  17
ATOM     17  C   UNL     1      43.933  12.821 -33.112  1.00  0.00    -0.000 C 
BRANCH  17  18
ATOM     18  C   UNL     1      45.440  12.809 -32.806  1.00  0.00    -0.000 C 
BRANCH  18  19
ATOM     19  C   UNL     1      45.737  12.855 -31.299  1.00  0.00    -0.003 C 
ATOM     20  C   UNL     1      45.658  11.479 -30.638  1.00  0.00     0.004 C 
ENDBRANCH  18  19
ENDBRANCH  17  18
ENDBRANCH  16  17
ENDBRANCH  15  16
ENDBRANCH  14  15
ENDBRANCH  13  14
ENDBRANCH  12  13
ENDBRANCH   1  12
TORSDOF 16
ENDMDL
