MODEL 1
REMARK VINA RESULT:    -3.996      0.000      0.000
REMARK INTER + INTRA:          -9.478
REMARK INTER:                  -7.499
REMARK INTRA:                  -1.979
REMARK UNBOUND:                -1.979
REMARK SMILES CCCCCCCCC=CCCCCCCCC(=O)[O-]
REMARK SMILES IDX 10 1 9 2 11 3 12 4 13 5 14 6 15 7 16 8 17 9 18 10 19 11
REMARK SMILES IDX 20 12 8 13 7 14 6 15 5 16 4 17 3 18 2 19 1 20
REMARK H PARENT
REMARK Flexibility Score: inf
ROOT
ATOM      1  C   UNL     1       2.375  -2.017  -6.581  1.00  0.00    -0.031 C 
ATOM      2  C   UNL     1       2.554  -3.342  -6.418  1.00  0.00    -0.031 C 
ENDROOT
BRANCH   1   3
ATOM      3  C   UNL     1       1.082  -1.289  -6.317  1.00  0.00     0.027 C 
BRANCH   3   4
ATOM      4  C   UNL     1       0.445  -0.821  -7.630  1.00  0.00     0.004 C 
BRANCH   4   5
ATOM      5  C   UNL     1       1.178  -1.413  -8.841  1.00  0.00     0.000 C 
BRANCH   5   6
ATOM      6  C   UNL     1       0.230  -1.634 -10.042  1.00  0.00     0.000 C 
BRANCH   6   7
ATOM      7  C   UNL     1      -1.200  -2.027  -9.626  1.00  0.00     0.000 C 
BRANCH   7   8
ATOM      8  C   UNL     1      -2.288  -1.020 -10.057  1.00  0.00     0.006 C 
BRANCH   8   9
ATOM      9  C   UNL     1      -3.440  -0.881  -9.049  1.00  0.00     0.053 C 
BRANCH   9  10
ATOM     10  C   UNL     1      -4.220   0.383  -9.239  1.00  0.00     0.041 C 
ATOM     11  O   UNL     1      -5.276   0.382  -9.925  1.00  0.00    -0.550 OA
ATOM     12  O   UNL     1      -3.778   1.566  -8.658  1.00  0.00    -0.550 OA
ENDBRANCH   9  10
ENDBRANCH   8   9
ENDBRANCH   7   8
ENDBRANCH   6   7
ENDBRANCH   5   6
ENDBRANCH   4   5
ENDBRANCH   3   4
ENDBRANCH   1   3
BRANCH   2  13
ATOM     13  C   UNL     1       1.464  -4.312  -6.037  1.00  0.00     0.027 C 
BRANCH  13  14
ATOM     14  C   UNL     1       0.675  -4.755  -7.273  1.00  0.00     0.004 C 
BRANCH  14  15
ATOM     15  C   UNL     1       1.621  -5.115  -8.429  1.00  0.00     0.000 C 
BRANCH  15  16
ATOM     16  C   UNL     1       0.893  -5.232  -9.777  1.00  0.00     0.000 C 
BRANCH  16  17
ATOM     17  C   UNL     1      -0.461  -5.949  -9.660  1.00  0.00    -0.000 C 
BRANCH  17  18
ATOM     18  C   UNL     1      -0.271  -7.473  -9.612  1.00  0.00    -0.000 C 
BRANCH  18  19
ATOM     19  C   UNL     1      -1.602  -8.231  -9.487  1.00  0.00    -0.003 C 
ATOM     20  C   UNL     1      -2.668  -7.434  -8.735  1.00  0.00     0.004 C 
ENDBRANCH  18  19
ENDBRANCH  17  18
ENDBRANCH  16  17
ENDBRANCH  15  16
ENDBRANCH  14  15
ENDBRANCH  13  14
ENDBRANCH   2  13
TORSDOF 15
ENDMDL
MODEL 2
REMARK VINA RESULT:    -3.992     12.058     13.605
REMARK INTER + INTRA:          -9.472
REMARK INTER:                  -6.705
REMARK INTRA:                  -2.767
REMARK UNBOUND:                -1.979
REMARK SMILES CCCCCCCCC=CCCCCCCCC(=O)[O-]
REMARK SMILES IDX 10 1 9 2 11 3 12 4 13 5 14 6 15 7 16 8 17 9 18 10 19 11
REMARK SMILES IDX 20 12 8 13 7 14 6 15 5 16 4 17 3 18 2 19 1 20
REMARK H PARENT
REMARK Flexibility Score: inf
ROOT
ATOM      1  C   UNL     1      -7.214  -5.519   2.056  1.00  0.00    -0.031 C 
ATOM      2  C   UNL     1      -7.192  -5.875   0.758  1.00  0.00    -0.031 C 
ENDROOT
BRANCH   1   3
ATOM      3  C   UNL     1      -8.289  -5.918   3.035  1.00  0.00     0.027 C 
BRANCH   3   4
ATOM      4  C   UNL     1      -7.797  -5.754   4.477  1.00  0.00     0.004 C 
BRANCH   4   5
ATOM      5  C   UNL     1      -6.313  -5.366   4.514  1.00  0.00     0.000 C 
BRANCH   5   6
ATOM      6  C   UNL     1      -6.009  -4.341   5.631  1.00  0.00     0.000 C 
BRANCH   6   7
ATOM      7  C   UNL     1      -6.323  -2.888   5.229  1.00  0.00     0.000 C 
BRANCH   7   8
ATOM      8  C   UNL     1      -5.928  -2.529   3.781  1.00  0.00     0.006 C 
BRANCH   8   9
ATOM      9  C   UNL     1      -7.040  -1.820   2.991  1.00  0.00     0.053 C 
BRANCH   9  10
ATOM     10  C   UNL     1      -6.965  -2.096   1.521  1.00  0.00     0.041 C 
ATOM     11  O   UNL     1      -5.850  -2.141   0.939  1.00  0.00    -0.550 OA
ATOM     12  O   UNL     1      -8.130  -2.303   0.792  1.00  0.00    -0.550 OA
ENDBRANCH   9  10
ENDBRANCH   8   9
ENDBRANCH   7   8
ENDBRANCH   6   7
ENDBRANCH   5   6
ENDBRANCH   4   5
ENDBRANCH   3   4
ENDBRANCH   1   3
BRANCH   2  13
ATOM     13  C   UNL     1      -8.284  -6.649   0.063  1.00  0.00     0.027 C 
BRANCH  13  14
ATOM     14  C   UNL     1      -7.692  -7.746  -0.827  1.00  0.00     0.004 C 
BRANCH  14  15
ATOM     15  C   UNL     1      -7.014  -8.834   0.021  1.00  0.00     0.000 C 
BRANCH  15  16
ATOM     16  C   UNL     1      -7.929  -9.380   1.128  1.00  0.00     0.000 C 
BRANCH  16  17
ATOM     17  C   UNL     1      -7.268  -9.345   2.514  1.00  0.00    -0.000 C 
BRANCH  17  18
ATOM     18  C   UNL     1      -5.784  -8.963   2.404  1.00  0.00    -0.000 C 
BRANCH  18  19
ATOM     19  C   UNL     1      -5.185  -8.524   3.750  1.00  0.00    -0.003 C 
ATOM     20  C   UNL     1      -5.581  -9.447   4.902  1.00  0.00     0.004 C 
ENDBRANCH  18  19
ENDBRANCH  17  18
ENDBRANCH  16  17
ENDBRANCH  15  16
ENDBRANCH  14  15
ENDBRANCH  13  14
ENDBRANCH   2  13
TORSDOF 15
ENDMDL
MODEL 3
REMARK VINA RESULT:    -3.990     11.857     13.473
REMARK INTER + INTRA:          -9.467
REMARK INTER:                  -6.875
REMARK INTRA:                  -2.591
REMARK UNBOUND:                -1.979
REMARK SMILES CCCCCCCCC=CCCCCCCCC(=O)[O-]
REMARK SMILES IDX 10 1 9 2 11 3 12 4 13 5 14 6 15 7 16 8 17 9 18 10 19 11
REMARK SMILES IDX 20 12 8 13 7 14 6 15 5 16 4 17 3 18 2 19 1 20
REMARK H PARENT
REMARK Flexibility Score: inf
ROOT
ATOM      1  C   UNL     1      -5.250  -8.604   3.306  1.00  0.00    -0.031 C 
ATOM      2  C   UNL     1      -5.994  -8.918   2.229  1.00  0.00    -0.031 C 
ENDROOT
BRANCH   1   3
ATOM      3  C   UNL     1      -5.727  -8.699   4.733  1.00  0.00     0.027 C 
BRANCH   3   4
ATOM      4  C   UNL     1      -6.392  -7.389   5.170  1.00  0.00     0.004 C 
BRANCH   4   5
ATOM      5  C   UNL     1      -5.558  -6.175   4.740  1.00  0.00     0.000 C 
BRANCH   5   6
ATOM      6  C   UNL     1      -6.435  -4.929   4.483  1.00  0.00     0.000 C 
BRANCH   6   7
ATOM      7  C   UNL     1      -5.768  -3.611   4.917  1.00  0.00     0.000 C 
BRANCH   7   8
ATOM      8  C   UNL     1      -5.811  -2.495   3.852  1.00  0.00     0.006 C 
BRANCH   8   9
ATOM      9  C   UNL     1      -7.132  -2.434   3.068  1.00  0.00     0.053 C 
BRANCH   9  10
ATOM     10  C   UNL     1      -6.919  -2.204   1.604  1.00  0.00     0.041 C 
ATOM     11  O   UNL     1      -7.900  -2.193   0.813  1.00  0.00    -0.550 OA
ATOM     12  O   UNL     1      -5.636  -2.002   1.110  1.00  0.00    -0.550 OA
ENDBRANCH   9  10
ENDBRANCH   8   9
ENDBRANCH   7   8
ENDBRANCH   6   7
ENDBRANCH   5   6
ENDBRANCH   4   5
ENDBRANCH   3   4
ENDBRANCH   1   3
BRANCH   2  13
ATOM     13  C   UNL     1      -7.446  -9.322   2.279  1.00  0.00     0.027 C 
BRANCH  13  14
ATOM     14  C   UNL     1      -7.969  -9.645   0.876  1.00  0.00     0.004 C 
BRANCH  14  15
ATOM     15  C   UNL     1      -7.109  -8.963  -0.201  1.00  0.00     0.000 C 
BRANCH  15  16
ATOM     16  C   UNL     1      -7.779  -7.712  -0.790  1.00  0.00     0.000 C 
BRANCH  16  17
ATOM     17  C   UNL     1      -6.935  -6.442  -0.601  1.00  0.00    -0.000 C 
BRANCH  17  18
ATOM     18  C   UNL     1      -7.190  -5.816   0.779  1.00  0.00    -0.000 C 
BRANCH  18  19
ATOM     19  C   UNL     1      -8.685  -5.603   1.064  1.00  0.00    -0.003 C 
ATOM     20  C   UNL     1      -9.107  -6.137   2.433  1.00  0.00     0.004 C 
ENDBRANCH  18  19
ENDBRANCH  17  18
ENDBRANCH  16  17
ENDBRANCH  15  16
ENDBRANCH  14  15
ENDBRANCH  13  14
ENDBRANCH   2  13
TORSDOF 15
ENDMDL
MODEL 4
REMARK VINA RESULT:    -3.967     12.559     14.532
REMARK INTER + INTRA:          -9.424
REMARK INTER:                  -7.038
REMARK INTRA:                  -2.387
REMARK UNBOUND:                -1.979
REMARK SMILES CCCCCCCCC=CCCCCCCCC(=O)[O-]
REMARK SMILES IDX 10 1 9 2 11 3 12 4 13 5 14 6 15 7 16 8 17 9 18 10 19 11
REMARK SMILES IDX 20 12 8 13 7 14 6 15 5 16 4 17 3 18 2 19 1 20
REMARK H PARENT
REMARK Flexibility Score: inf
ROOT
ATOM      1  C   UNL     1      -7.261  -8.466   6.177  1.00  0.00    -0.031 C 
ATOM      2  C   UNL     1      -7.312  -7.120   6.183  1.00  0.00    -0.031 C 
ENDROOT
BRANCH   1   3
ATOM      3  C   UNL     1      -5.991  -9.273   6.090  1.00  0.00     0.027 C 
BRANCH   3   4
ATOM      4  C   UNL     1      -5.903 -10.003   4.745  1.00  0.00     0.004 C 
BRANCH   4   5
ATOM      5  C   UNL     1      -4.937  -9.288   3.791  1.00  0.00     0.000 C 
BRANCH   5   6
ATOM      6  C   UNL     1      -5.638  -8.833   2.490  1.00  0.00     0.000 C 
BRANCH   6   7
ATOM      7  C   UNL     1      -7.162  -9.050   2.509  1.00  0.00     0.000 C 
BRANCH   7   8
ATOM      8  C   UNL     1      -7.812  -9.128   1.111  1.00  0.00     0.006 C 
BRANCH   8   9
ATOM      9  C   UNL     1      -6.925  -8.579  -0.018  1.00  0.00     0.053 C 
BRANCH   9  10
ATOM     10  C   UNL     1      -7.626  -7.550  -0.849  1.00  0.00     0.041 C 
ATOM     11  O   UNL     1      -7.147  -6.391  -0.964  1.00  0.00    -0.550 OA
ATOM     12  O   UNL     1      -8.813  -7.871  -1.498  1.00  0.00    -0.550 OA
ENDBRANCH   9  10
ENDBRANCH   8   9
ENDBRANCH   7   8
ENDBRANCH   6   7
ENDBRANCH   5   6
ENDBRANCH   4   5
ENDBRANCH   3   4
ENDBRANCH   1   3
BRANCH   2  13
ATOM     13  C   UNL     1      -6.117  -6.217   6.011  1.00  0.00     0.027 C 
BRANCH  13  14
ATOM     14  C   UNL     1      -5.925  -5.843   4.538  1.00  0.00     0.004 C 
BRANCH  14  15
ATOM     15  C   UNL     1      -7.232  -5.307   3.933  1.00  0.00     0.000 C 
BRANCH  15  16
ATOM     16  C   UNL     1      -7.290  -5.469   2.407  1.00  0.00     0.000 C 
BRANCH  16  17
ATOM     17  C   UNL     1      -7.343  -4.123   1.668  1.00  0.00    -0.000 C 
BRANCH  17  18
ATOM     18  C   UNL     1      -7.223  -2.952   2.656  1.00  0.00    -0.000 C 
BRANCH  18  19
ATOM     19  C   UNL     1      -6.261  -1.860   2.164  1.00  0.00    -0.003 C 
ATOM     20  C   UNL     1      -5.873  -2.031   0.695  1.00  0.00     0.004 C 
ENDBRANCH  18  19
ENDBRANCH  17  18
ENDBRANCH  16  17
ENDBRANCH  15  16
ENDBRANCH  14  15
ENDBRANCH  13  14
ENDBRANCH   2  13
TORSDOF 15
ENDMDL
MODEL 5
REMARK VINA RESULT:    -3.961     12.082     13.938
REMARK INTER + INTRA:          -9.412
REMARK INTER:                  -7.209
REMARK INTRA:                  -2.203
REMARK UNBOUND:                -1.979
REMARK SMILES CCCCCCCCC=CCCCCCCCC(=O)[O-]
REMARK SMILES IDX 10 1 9 2 11 3 12 4 13 5 14 6 15 7 16 8 17 9 18 10 19 11
REMARK SMILES IDX 20 12 8 13 7 14 6 15 5 16 4 17 3 18 2 19 1 20
REMARK H PARENT
REMARK Flexibility Score: inf
ROOT
ATOM      1  C   UNL     1      -7.863  -9.412   1.305  1.00  0.00    -0.031 C 
ATOM      2  C   UNL     1      -7.121  -9.117   2.390  1.00  0.00    -0.031 C 
ENDROOT
BRANCH   1   3
ATOM      3  C   UNL     1      -7.340  -9.435  -0.109  1.00  0.00     0.027 C 
BRANCH   3   4
ATOM      4  C   UNL     1      -8.107  -8.441  -0.988  1.00  0.00     0.004 C 
BRANCH   4   5
ATOM      5  C   UNL     1      -7.411  -7.074  -1.013  1.00  0.00     0.000 C 
BRANCH   5   6
ATOM      6  C   UNL     1      -8.053  -6.077  -0.021  1.00  0.00     0.000 C 
BRANCH   6   7
ATOM      7  C   UNL     1      -7.034  -5.414   0.924  1.00  0.00     0.000 C 
BRANCH   7   8
ATOM      8  C   UNL     1      -7.665  -4.531   2.022  1.00  0.00     0.006 C 
BRANCH   8   9
ATOM      9  C   UNL     1      -7.691  -3.033   1.677  1.00  0.00     0.053 C 
BRANCH   9  10
ATOM     10  C   UNL     1      -6.319  -2.436   1.612  1.00  0.00     0.041 C 
ATOM     11  O   UNL     1      -5.748  -2.040   2.662  1.00  0.00    -0.550 OA
ATOM     12  O   UNL     1      -5.670  -2.316   0.389  1.00  0.00    -0.550 OA
ENDBRANCH   9  10
ENDBRANCH   8   9
ENDBRANCH   7   8
ENDBRANCH   6   7
ENDBRANCH   5   6
ENDBRANCH   4   5
ENDBRANCH   3   4
ENDBRANCH   1   3
BRANCH   2  13
ATOM     13  C   UNL     1      -5.679  -8.678   2.347  1.00  0.00     0.027 C 
BRANCH  13  14
ATOM     14  C   UNL     1      -4.905  -9.240   3.544  1.00  0.00     0.004 C 
BRANCH  14  15
ATOM     15  C   UNL     1      -5.839 -10.012   4.488  1.00  0.00     0.000 C 
BRANCH  15  16
ATOM     16  C   UNL     1      -5.935  -9.372   5.881  1.00  0.00     0.000 C 
BRANCH  16  17
ATOM     17  C   UNL     1      -6.830  -8.123   5.899  1.00  0.00    -0.000 C 
BRANCH  17  18
ATOM     18  C   UNL     1      -5.996  -6.855   6.134  1.00  0.00    -0.000 C 
BRANCH  18  19
ATOM     19  C   UNL     1      -5.907  -5.966   4.884  1.00  0.00    -0.003 C 
ATOM     20  C   UNL     1      -5.686  -4.491   5.221  1.00  0.00     0.004 C 
ENDBRANCH  18  19
ENDBRANCH  17  18
ENDBRANCH  16  17
ENDBRANCH  15  16
ENDBRANCH  14  15
ENDBRANCH  13  14
ENDBRANCH   2  13
TORSDOF 15
ENDMDL
MODEL 6
REMARK VINA RESULT:    -3.873      3.465      6.327
REMARK INTER + INTRA:          -9.248
REMARK INTER:                  -8.019
REMARK INTRA:                  -1.229
REMARK UNBOUND:                -1.979
REMARK SMILES CCCCCCCCC=CCCCCCCCC(=O)[O-]
REMARK SMILES IDX 10 1 9 2 11 3 12 4 13 5 14 6 15 7 16 8 17 9 18 10 19 11
REMARK SMILES IDX 20 12 8 13 7 14 6 15 5 16 4 17 3 18 2 19 1 20
REMARK H PARENT
REMARK Flexibility Score: inf
ROOT
ATOM      1  C   UNL     1       2.611  -4.867  -6.990  1.00  0.00    -0.031 C 
ATOM      2  C   UNL     1       2.253  -4.067  -5.967  1.00  0.00    -0.031 C 
ENDROOT
BRANCH   1   3
ATOM      3  C   UNL     1       1.969  -4.851  -8.353  1.00  0.00     0.027 C 
BRANCH   3   4
ATOM      4  C   UNL     1       0.645  -5.623  -8.338  1.00  0.00     0.004 C 
BRANCH   4   5
ATOM      5  C   UNL     1       0.456  -6.422  -9.635  1.00  0.00     0.000 C 
BRANCH   5   6
ATOM      6  C   UNL     1      -0.543  -7.588  -9.458  1.00  0.00     0.000 C 
BRANCH   6   7
ATOM      7  C   UNL     1      -1.795  -7.202  -8.648  1.00  0.00     0.000 C 
BRANCH   7   8
ATOM      8  C   UNL     1      -3.072  -7.974  -9.044  1.00  0.00     0.006 C 
BRANCH   8   9
ATOM      9  C   UNL     1      -4.097  -8.104  -7.905  1.00  0.00     0.053 C 
BRANCH   9  10
ATOM     10  C   UNL     1      -5.010  -9.277  -8.087  1.00  0.00     0.041 C 
ATOM     11  O   UNL     1      -5.145 -10.125  -7.166  1.00  0.00    -0.550 OA
ATOM     12  O   UNL     1      -5.712  -9.434  -9.276  1.00  0.00    -0.550 OA
ENDBRANCH   9  10
ENDBRANCH   8   9
ENDBRANCH   7   8
ENDBRANCH   6   7
ENDBRANCH   5   6
ENDBRANCH   4   5
ENDBRANCH   3   4
ENDBRANCH   1   3
BRANCH   2  13
ATOM     13  C   UNL     1       1.097  -3.100  -6.000  1.00  0.00     0.027 C 
BRANCH  13  14
ATOM     14  C   UNL     1       1.576  -1.693  -6.373  1.00  0.00     0.004 C 
BRANCH  14  15
ATOM     15  C   UNL     1       0.471  -0.911  -7.100  1.00  0.00     0.000 C 
BRANCH  15  16
ATOM     16  C   UNL     1       0.721  -0.798  -8.612  1.00  0.00     0.000 C 
BRANCH  16  17
ATOM     17  C   UNL     1       0.243  -2.036  -9.386  1.00  0.00    -0.000 C 
BRANCH  17  18
ATOM     18  C   UNL     1      -1.259  -1.943  -9.694  1.00  0.00    -0.000 C 
BRANCH  18  19
ATOM     19  C   UNL     1      -1.717  -0.503  -9.975  1.00  0.00    -0.003 C 
ATOM     20  C   UNL     1      -2.751  -0.004  -8.965  1.00  0.00     0.004 C 
ENDBRANCH  18  19
ENDBRANCH  17  18
ENDBRANCH  16  17
ENDBRANCH  15  16
ENDBRANCH  14  15
ENDBRANCH  13  14
ENDBRANCH   2  13
TORSDOF 15
ENDMDL
MODEL 7
REMARK VINA RESULT:    -3.842     12.614     14.834
REMARK INTER + INTRA:          -9.190
REMARK INTER:                  -6.201
REMARK INTRA:                  -2.989
REMARK UNBOUND:                -1.979
REMARK SMILES CCCCCCCCC=CCCCCCCCC(=O)[O-]
REMARK SMILES IDX 10 1 9 2 11 3 12 4 13 5 14 6 15 7 16 8 17 9 18 10 19 11
REMARK SMILES IDX 20 12 8 13 7 14 6 15 5 16 4 17 3 18 2 19 1 20
REMARK H PARENT
REMARK Flexibility Score: inf
ROOT
ATOM      1  C   UNL     1      -7.048  -6.674  -0.378  1.00  0.00    -0.031 C 
ATOM      2  C   UNL     1      -7.542  -5.802   0.521  1.00  0.00    -0.031 C 
ENDROOT
BRANCH   1   3
ATOM      3  C   UNL     1      -7.690  -7.989  -0.738  1.00  0.00     0.027 C 
BRANCH   3   4
ATOM      4  C   UNL     1      -7.048  -9.139   0.046  1.00  0.00     0.004 C 
BRANCH   4   5
ATOM      5  C   UNL     1      -7.934  -9.567   1.224  1.00  0.00     0.000 C 
BRANCH   5   6
ATOM      6  C   UNL     1      -7.284  -9.241   2.588  1.00  0.00     0.000 C 
BRANCH   6   7
ATOM      7  C   UNL     1      -5.827  -8.757   2.470  1.00  0.00     0.000 C 
BRANCH   7   8
ATOM      8  C   UNL     1      -5.257  -8.134   3.762  1.00  0.00     0.006 C 
BRANCH   8   9
ATOM      9  C   UNL     1      -5.887  -8.688   5.050  1.00  0.00     0.053 C 
BRANCH   9  10
ATOM     10  C   UNL     1      -6.626  -7.640   5.824  1.00  0.00     0.041 C 
ATOM     11  O   UNL     1      -7.873  -7.520   5.699  1.00  0.00    -0.550 OA
ATOM     12  O   UNL     1      -5.935  -6.794   6.684  1.00  0.00    -0.550 OA
ENDBRANCH   9  10
ENDBRANCH   8   9
ENDBRANCH   7   8
ENDBRANCH   6   7
ENDBRANCH   5   6
ENDBRANCH   4   5
ENDBRANCH   3   4
ENDBRANCH   1   3
BRANCH   2  13
ATOM     13  C   UNL     1      -8.762  -6.050   1.372  1.00  0.00     0.027 C 
BRANCH  13  14
ATOM     14  C   UNL     1      -8.581  -5.449   2.770  1.00  0.00     0.004 C 
BRANCH  14  15
ATOM     15  C   UNL     1      -7.095  -5.205   3.074  1.00  0.00     0.000 C 
BRANCH  15  16
ATOM     16  C   UNL     1      -6.876  -4.080   4.097  1.00  0.00     0.000 C 
BRANCH  16  17
ATOM     17  C   UNL     1      -7.226  -2.693   3.538  1.00  0.00    -0.000 C 
BRANCH  17  18
ATOM     18  C   UNL     1      -6.203  -2.255   2.479  1.00  0.00    -0.000 C 
BRANCH  18  19
ATOM     19  C   UNL     1      -6.830  -2.087   1.086  1.00  0.00    -0.003 C 
ATOM     20  C   UNL     1      -8.354  -2.202   1.105  1.00  0.00     0.004 C 
ENDBRANCH  18  19
ENDBRANCH  17  18
ENDBRANCH  16  17
ENDBRANCH  15  16
ENDBRANCH  14  15
ENDBRANCH  13  14
ENDBRANCH   2  13
TORSDOF 15
ENDMDL
MODEL 8
REMARK VINA RESULT:    -3.826      3.247      6.015
REMARK INTER + INTRA:          -9.159
REMARK INTER:                  -7.655
REMARK INTRA:                  -1.504
REMARK UNBOUND:                -1.979
REMARK SMILES CCCCCCCCC=CCCCCCCCC(=O)[O-]
REMARK SMILES IDX 10 1 9 2 11 3 12 4 13 5 14 6 15 7 16 8 17 9 18 10 19 11
REMARK SMILES IDX 20 12 8 13 7 14 6 15 5 16 4 17 3 18 2 19 1 20
REMARK H PARENT
REMARK Flexibility Score: inf
ROOT
ATOM      1  C   UNL     1       2.042  -2.885  -5.946  1.00  0.00    -0.031 C 
ATOM      2  C   UNL     1       2.492  -1.909  -6.758  1.00  0.00    -0.031 C 
ENDROOT
BRANCH   1   3
ATOM      3  C   UNL     1       2.033  -4.351  -6.295  1.00  0.00     0.027 C 
BRANCH   3   4
ATOM      4  C   UNL     1       0.716  -4.740  -6.974  1.00  0.00     0.004 C 
BRANCH   4   5
ATOM      5  C   UNL     1       0.961  -5.266  -8.395  1.00  0.00     0.000 C 
BRANCH   5   6
ATOM      6  C   UNL     1      -0.321  -5.225  -9.258  1.00  0.00     0.000 C 
BRANCH   6   7
ATOM      7  C   UNL     1      -0.726  -6.603  -9.814  1.00  0.00     0.000 C 
BRANCH   7   8
ATOM      8  C   UNL     1      -1.497  -7.492  -8.813  1.00  0.00     0.006 C 
BRANCH   8   9
ATOM      9  C   UNL     1      -3.020  -7.479  -9.017  1.00  0.00     0.053 C 
BRANCH   9  10
ATOM     10  C   UNL     1      -3.701  -8.621  -8.326  1.00  0.00     0.041 C 
ATOM     11  O   UNL     1      -3.573  -9.795  -8.764  1.00  0.00    -0.550 OA
ATOM     12  O   UNL     1      -4.478  -8.388  -7.198  1.00  0.00    -0.550 OA
ENDBRANCH   9  10
ENDBRANCH   8   9
ENDBRANCH   7   8
ENDBRANCH   6   7
ENDBRANCH   5   6
ENDBRANCH   4   5
ENDBRANCH   3   4
ENDBRANCH   1   3
BRANCH   2  13
ATOM     13  C   UNL     1       2.969  -2.123  -8.172  1.00  0.00     0.027 C 
BRANCH  13  14
ATOM     14  C   UNL     1       2.235  -1.191  -9.141  1.00  0.00     0.004 C 
BRANCH  14  15
ATOM     15  C   UNL     1       0.817  -1.709  -9.432  1.00  0.00     0.000 C 
BRANCH  15  16
ATOM     16  C   UNL     1      -0.270  -0.896  -8.713  1.00  0.00     0.000 C 
BRANCH  16  17
ATOM     17  C   UNL     1      -1.647  -1.026  -9.382  1.00  0.00    -0.000 C 
BRANCH  17  18
ATOM     18  C   UNL     1      -2.663  -0.072  -8.734  1.00  0.00    -0.000 C 
BRANCH  18  19
ATOM     19  C   UNL     1      -4.057  -0.170  -9.373  1.00  0.00    -0.003 C 
ATOM     20  C   UNL     1      -4.858  -1.369  -8.865  1.00  0.00     0.004 C 
ENDBRANCH  18  19
ENDBRANCH  17  18
ENDBRANCH  16  17
ENDBRANCH  15  16
ENDBRANCH  14  15
ENDBRANCH  13  14
ENDBRANCH   2  13
TORSDOF 15
ENDMDL
MODEL 9
REMARK VINA RESULT:    -3.815     12.591     14.562
REMARK INTER + INTRA:          -9.140
REMARK INTER:                  -6.306
REMARK INTRA:                  -2.834
REMARK UNBOUND:                -1.979
REMARK SMILES CCCCCCCCC=CCCCCCCCC(=O)[O-]
REMARK SMILES IDX 10 1 9 2 11 3 12 4 13 5 14 6 15 7 16 8 17 9 18 10 19 11
REMARK SMILES IDX 20 12 8 13 7 14 6 15 5 16 4 17 3 18 2 19 1 20
REMARK H PARENT
REMARK Flexibility Score: inf
ROOT
ATOM      1  C   UNL     1      -6.886  -6.620   5.848  1.00  0.00    -0.031 C 
ATOM      2  C   UNL     1      -7.973  -6.028   5.318  1.00  0.00    -0.031 C 
ENDROOT
BRANCH   1   3
ATOM      3  C   UNL     1      -6.266  -7.893   5.330  1.00  0.00     0.027 C 
BRANCH   3   4
ATOM      4  C   UNL     1      -5.252  -7.591   4.222  1.00  0.00     0.004 C 
BRANCH   4   5
ATOM      5  C   UNL     1      -5.342  -8.626   3.093  1.00  0.00     0.000 C 
BRANCH   5   6
ATOM      6  C   UNL     1      -6.691  -9.380   3.102  1.00  0.00     0.000 C 
BRANCH   6   7
ATOM      7  C   UNL     1      -7.515  -9.173   1.818  1.00  0.00     0.000 C 
BRANCH   7   8
ATOM      8  C   UNL     1      -6.764  -8.432   0.692  1.00  0.00     0.006 C 
BRANCH   8   9
ATOM      9  C   UNL     1      -7.547  -8.352  -0.629  1.00  0.00     0.053 C 
BRANCH   9  10
ATOM     10  C   UNL     1      -7.645  -6.953  -1.154  1.00  0.00     0.041 C 
ATOM     11  O   UNL     1      -6.790  -6.090  -0.824  1.00  0.00    -0.550 OA
ATOM     12  O   UNL     1      -8.684  -6.602  -2.009  1.00  0.00    -0.550 OA
ENDBRANCH   9  10
ENDBRANCH   8   9
ENDBRANCH   7   8
ENDBRANCH   6   7
ENDBRANCH   5   6
ENDBRANCH   4   5
ENDBRANCH   3   4
ENDBRANCH   1   3
BRANCH   2  13
ATOM     13  C   UNL     1      -8.790  -6.596   4.185  1.00  0.00     0.027 C 
BRANCH  13  14
ATOM     14  C   UNL     1      -8.848  -5.612   3.011  1.00  0.00     0.004 C 
BRANCH  14  15
ATOM     15  C   UNL     1      -7.435  -5.249   2.529  1.00  0.00     0.000 C 
BRANCH  15  16
ATOM     16  C   UNL     1      -7.303  -3.769   2.140  1.00  0.00     0.000 C 
BRANCH  16  17
ATOM     17  C   UNL     1      -7.272  -2.836   3.360  1.00  0.00    -0.000 C 
BRANCH  17  18
ATOM     18  C   UNL     1      -5.828  -2.585   3.821  1.00  0.00    -0.000 C 
BRANCH  18  19
ATOM     19  C   UNL     1      -5.539  -3.179   5.208  1.00  0.00    -0.003 C 
ATOM     20  C   UNL     1      -6.562  -2.751   6.260  1.00  0.00     0.004 C 
ENDBRANCH  18  19
ENDBRANCH  17  18
ENDBRANCH  16  17
ENDBRANCH  15  16
ENDBRANCH  14  15
ENDBRANCH  13  14
ENDBRANCH   2  13
TORSDOF 15
ENDMDL
