MODEL 1
REMARK VINA RESULT:    -5.861      0.000      0.000
REMARK INTER + INTRA:          -6.372
REMARK INTER:                  -6.375
REMARK INTRA:                   0.003
REMARK UNBOUND:                 0.003
REMARK SMILES C[C@H]1[C@@H](C)CC[C@@]2(C(=O)[O-])CC[C@]3(C)C(=CC[C@@H]4[C@@]5(C)CC[C@@H](O)C(C)(C)[C@H]5CC[C@@]43C)[C@@H]12
REMARK SMILES IDX 7 1 6 2 11 3 33 4 5 5 12 6 15 7 2 8 3 9 13 10 16 11 1 12
REMARK SMILES IDX 4 13 14 14 31 15 17 16 18 17 30 18 32 19 19 20 29 21 28 22
REMARK SMILES IDX 21 23 20 24 25 25 22 26 23 27 26 28 27 29 8 30 9 31 10 32
REMARK SMILES IDX 24 33
REMARK H PARENT 24 34
REMARK Flexibility Score: inf
ROOT
ATOM      1  C   UNL     1     485.156  44.344 463.548  1.00  0.00     0.017 C 
ATOM      2  C   UNL     1     486.151  44.495 462.363  1.00  0.00     0.014 C 
ATOM      3  C   UNL     1     483.720  44.685 463.101  1.00  0.00     0.014 C 
ATOM      4  C   UNL     1     485.263  42.875 464.097  1.00  0.00     0.030 C 
ATOM      5  C   UNL     1     487.615  44.298 462.802  1.00  0.00     0.004 C 
ATOM      6  C   UNL     1     483.078  43.648 462.182  1.00  0.00     0.013 C 
ATOM      7  C   UNL     1     484.483  41.841 463.206  1.00  0.00    -0.063 C 
ATOM      8  C   UNL     1     486.763  42.622 464.543  1.00  0.00    -0.003 C 
ATOM      9  C   UNL     1     487.862  42.932 463.482  1.00  0.00    -0.011 C 
ATOM     10  C   UNL     1     483.038  42.191 462.734  1.00  0.00    -0.006 C 
ATOM     11  C   UNL     1     484.861  40.549 463.176  1.00  0.00    -0.027 C 
ATOM     12  C   UNL     1     487.034  41.372 465.414  1.00  0.00     0.008 C 
ATOM     13  C   UNL     1     488.073  41.835 462.440  1.00  0.00     0.008 C 
ATOM     14  C   UNL     1     482.184  42.218 464.052  1.00  0.00     0.017 C 
ATOM     15  C   UNL     1     482.374  41.148 461.611  1.00  0.00    -0.020 C 
ATOM     16  C   UNL     1     483.961  39.456 462.689  1.00  0.00     0.032 C 
ATOM     17  C   UNL     1     483.251  39.832 461.377  1.00  0.00     0.006 C 
ATOM     18  C   UNL     1     481.992  41.800 460.218  1.00  0.00     0.008 C 
ATOM     19  C   UNL     1     480.972  40.633 462.112  1.00  0.00     0.012 C 
ATOM     20  C   UNL     1     484.176  39.678 460.071  1.00  0.00    -0.025 C 
ATOM     21  C   UNL     1     483.059  41.793 459.138  1.00  0.00     0.005 C 
ATOM     22  C   UNL     1     483.575  40.381 458.799  1.00  0.00     0.003 C 
ATOM     23  C   UNL     1     484.401  38.152 459.777  1.00  0.00     0.010 C 
ATOM     24  C   UNL     1     485.577  40.291 460.303  1.00  0.00     0.012 C 
ATOM     25  C   UNL     1     482.733  39.458 457.817  1.00  0.00    -0.006 C 
ATOM     26  C   UNL     1     484.776  37.869 458.323  1.00  0.00     0.033 C 
ATOM     27  C   UNL     1     483.674  38.283 457.319  1.00  0.00     0.120 C 
ATOM     28  C   UNL     1     482.310  40.271 456.562  1.00  0.00     0.014 C 
ATOM     29  C   UNL     1     481.423  38.890 458.439  1.00  0.00     0.014 C 
ENDROOT
BRANCH   1  30
ATOM     30  C   UNL     1     485.468  45.376 464.636  1.00  0.00     0.048 C 
ATOM     31  O   UNL     1     485.812  46.549 464.327  1.00  0.00    -0.550 OA
ATOM     32  O   UNL     1     485.258  45.075 465.980  1.00  0.00    -0.550 OA
ENDBRANCH   1  30
BRANCH  27  33
ATOM     33  O   UNL     1     482.943  37.135 456.957  1.00  0.00    -0.393 OA
ATOM     34  H   UNL     1     482.046  37.443 456.663  1.00  0.00     0.210 HD
ENDBRANCH  27  33
TORSDOF 2
ENDMDL
MODEL 2
REMARK VINA RESULT:    -5.714      4.982      8.019
REMARK INTER + INTRA:          -6.212
REMARK INTER:                  -6.217
REMARK INTRA:                   0.005
REMARK UNBOUND:                 0.003
REMARK SMILES C[C@H]1[C@@H](C)CC[C@@]2(C(=O)[O-])CC[C@]3(C)C(=CC[C@@H]4[C@@]5(C)CC[C@@H](O)C(C)(C)[C@H]5CC[C@@]43C)[C@@H]12
REMARK SMILES IDX 7 1 6 2 11 3 33 4 5 5 12 6 15 7 2 8 3 9 13 10 16 11 1 12
REMARK SMILES IDX 4 13 14 14 31 15 17 16 18 17 30 18 32 19 19 20 29 21 28 22
REMARK SMILES IDX 21 23 20 24 25 25 22 26 23 27 26 28 27 29 8 30 9 31 10 32
REMARK SMILES IDX 24 33
REMARK H PARENT 24 34
REMARK Flexibility Score: inf
ROOT
ATOM      1  C   UNL     1     474.984  40.470 462.323  1.00  0.00     0.017 C 
ATOM      2  C   UNL     1     475.381  41.905 461.871  1.00  0.00     0.014 C 
ATOM      3  C   UNL     1     474.897  39.522 461.112  1.00  0.00     0.014 C 
ATOM      4  C   UNL     1     476.040  39.977 463.377  1.00  0.00     0.030 C 
ATOM      5  C   UNL     1     475.343  42.915 463.034  1.00  0.00     0.004 C 
ATOM      6  C   UNL     1     476.244  39.158 460.491  1.00  0.00     0.013 C 
ATOM      7  C   UNL     1     477.374  39.483 462.706  1.00  0.00    -0.063 C 
ATOM      8  C   UNL     1     476.049  41.002 464.586  1.00  0.00    -0.003 C 
ATOM      9  C   UNL     1     476.247  42.504 464.218  1.00  0.00    -0.011 C 
ATOM     10  C   UNL     1     477.290  38.539 461.467  1.00  0.00    -0.006 C 
ATOM     11  C   UNL     1     478.534  39.528 463.388  1.00  0.00    -0.027 C 
ATOM     12  C   UNL     1     476.763  40.550 465.883  1.00  0.00     0.008 C 
ATOM     13  C   UNL     1     477.696  42.916 463.966  1.00  0.00     0.008 C 
ATOM     14  C   UNL     1     476.673  37.206 462.023  1.00  0.00     0.017 C 
ATOM     15  C   UNL     1     478.736  38.249 460.683  1.00  0.00    -0.020 C 
ATOM     16  C   UNL     1     479.737  38.731 462.987  1.00  0.00     0.032 C 
ATOM     17  C   UNL     1     480.006  38.811 461.474  1.00  0.00     0.006 C 
ATOM     18  C   UNL     1     478.794  38.710 459.168  1.00  0.00     0.008 C 
ATOM     19  C   UNL     1     478.978  36.698 460.549  1.00  0.00     0.012 C 
ATOM     20  C   UNL     1     480.730  40.171 461.014  1.00  0.00    -0.025 C 
ATOM     21  C   UNL     1     479.283  40.121 458.894  1.00  0.00     0.005 C 
ATOM     22  C   UNL     1     480.689  40.400 459.458  1.00  0.00     0.003 C 
ATOM     23  C   UNL     1     482.221  40.153 461.509  1.00  0.00     0.010 C 
ATOM     24  C   UNL     1     480.066  41.406 461.667  1.00  0.00     0.012 C 
ATOM     25  C   UNL     1     481.966  39.919 458.643  1.00  0.00    -0.006 C 
ATOM     26  C   UNL     1     483.132  41.080 460.705  1.00  0.00     0.033 C 
ATOM     27  C   UNL     1     483.230  40.690 459.210  1.00  0.00     0.120 C 
ATOM     28  C   UNL     1     481.817  40.318 457.149  1.00  0.00     0.014 C 
ATOM     29  C   UNL     1     482.200  38.380 458.670  1.00  0.00     0.014 C 
ENDROOT
BRANCH   1  30
ATOM     30  C   UNL     1     473.567  40.472 462.905  1.00  0.00     0.048 C 
ATOM     31  O   UNL     1     472.682  41.237 462.433  1.00  0.00    -0.550 OA
ATOM     32  O   UNL     1     473.199  39.545 463.877  1.00  0.00    -0.550 OA
ENDBRANCH   1  30
BRANCH  27  33
ATOM     33  O   UNL     1     484.423  39.969 459.013  1.00  0.00    -0.393 OA
ATOM     34  H   UNL     1     485.171  40.564 459.285  1.00  0.00     0.210 HD
ENDBRANCH  27  33
TORSDOF 2
ENDMDL
MODEL 3
REMARK VINA RESULT:    -5.666      1.454      7.463
REMARK INTER + INTRA:          -6.160
REMARK INTER:                  -6.174
REMARK INTRA:                   0.014
REMARK UNBOUND:                 0.003
REMARK SMILES C[C@H]1[C@@H](C)CC[C@@]2(C(=O)[O-])CC[C@]3(C)C(=CC[C@@H]4[C@@]5(C)CC[C@@H](O)C(C)(C)[C@H]5CC[C@@]43C)[C@@H]12
REMARK SMILES IDX 7 1 6 2 11 3 33 4 5 5 12 6 15 7 2 8 3 9 13 10 16 11 1 12
REMARK SMILES IDX 4 13 14 14 31 15 17 16 18 17 30 18 32 19 19 20 29 21 28 22
REMARK SMILES IDX 21 23 20 24 25 25 22 26 23 27 26 28 27 29 8 30 9 31 10 32
REMARK SMILES IDX 24 33
REMARK H PARENT 24 34
REMARK Flexibility Score: inf
ROOT
ATOM      1  C   UNL     1     484.083  39.612 458.650  1.00  0.00     0.017 C 
ATOM      2  C   UNL     1     484.868  40.663 457.814  1.00  0.00     0.014 C 
ATOM      3  C   UNL     1     485.032  38.847 459.593  1.00  0.00     0.014 C 
ATOM      4  C   UNL     1     482.950  40.359 459.442  1.00  0.00     0.030 C 
ATOM      5  C   UNL     1     483.979  41.353 456.761  1.00  0.00     0.004 C 
ATOM      6  C   UNL     1     485.557  39.667 460.768  1.00  0.00     0.013 C 
ATOM      7  C   UNL     1     483.493  41.089 460.724  1.00  0.00    -0.063 C 
ATOM      8  C   UNL     1     482.021  41.102 458.394  1.00  0.00    -0.003 C 
ATOM      9  C   UNL     1     482.738  42.039 457.376  1.00  0.00    -0.011 C 
ATOM     10  C   UNL     1     484.470  40.325 461.670  1.00  0.00    -0.006 C 
ATOM     11  C   UNL     1     482.850  42.166 461.216  1.00  0.00    -0.027 C 
ATOM     12  C   UNL     1     480.659  41.624 458.911  1.00  0.00     0.008 C 
ATOM     13  C   UNL     1     483.093  43.422 457.918  1.00  0.00     0.008 C 
ATOM     14  C   UNL     1     483.607  39.163 462.279  1.00  0.00     0.017 C 
ATOM     15  C   UNL     1     485.173  41.244 462.874  1.00  0.00    -0.020 C 
ATOM     16  C   UNL     1     483.059  42.660 462.614  1.00  0.00     0.032 C 
ATOM     17  C   UNL     1     484.549  42.711 462.995  1.00  0.00     0.006 C 
ATOM     18  C   UNL     1     486.755  41.330 462.830  1.00  0.00     0.008 C 
ATOM     19  C   UNL     1     484.934  40.571 464.279  1.00  0.00     0.012 C 
ATOM     20  C   UNL     1     485.326  43.990 462.406  1.00  0.00    -0.025 C 
ATOM     21  C   UNL     1     487.361  42.470 462.032  1.00  0.00     0.005 C 
ATOM     22  C   UNL     1     486.891  43.861 462.499  1.00  0.00     0.003 C 
ATOM     23  C   UNL     1     484.853  45.277 463.172  1.00  0.00     0.010 C 
ATOM     24  C   UNL     1     484.982  44.216 460.915  1.00  0.00     0.012 C 
ATOM     25  C   UNL     1     487.578  44.531 463.766  1.00  0.00    -0.006 C 
ATOM     26  C   UNL     1     485.862  46.422 463.103  1.00  0.00     0.033 C 
ATOM     27  C   UNL     1     487.220  46.076 463.759  1.00  0.00     0.120 C 
ATOM     28  C   UNL     1     489.122  44.417 463.651  1.00  0.00     0.014 C 
ATOM     29  C   UNL     1     487.185  43.881 465.126  1.00  0.00     0.014 C 
ENDROOT
BRANCH   1  30
ATOM     30  C   UNL     1     483.508  38.529 457.731  1.00  0.00     0.048 C 
ATOM     31  O   UNL     1     484.219  38.012 456.827  1.00  0.00    -0.550 OA
ATOM     32  O   UNL     1     482.235  38.011 457.957  1.00  0.00    -0.550 OA
ENDBRANCH   1  30
BRANCH  27  33
ATOM     33  O   UNL     1     487.249  46.633 465.052  1.00  0.00    -0.393 OA
ATOM     34  H   UNL     1     486.983  47.586 464.963  1.00  0.00     0.210 HD
ENDBRANCH  27  33
TORSDOF 2
ENDMDL
MODEL 4
REMARK VINA RESULT:    -5.603      1.793      7.130
REMARK INTER + INTRA:          -6.091
REMARK INTER:                  -6.098
REMARK INTRA:                   0.007
REMARK UNBOUND:                 0.003
REMARK SMILES C[C@H]1[C@@H](C)CC[C@@]2(C(=O)[O-])CC[C@]3(C)C(=CC[C@@H]4[C@@]5(C)CC[C@@H](O)C(C)(C)[C@H]5CC[C@@]43C)[C@@H]12
REMARK SMILES IDX 7 1 6 2 11 3 33 4 5 5 12 6 15 7 2 8 3 9 13 10 16 11 1 12
REMARK SMILES IDX 4 13 14 14 31 15 17 16 18 17 30 18 32 19 19 20 29 21 28 22
REMARK SMILES IDX 21 23 20 24 25 25 22 26 23 27 26 28 27 29 8 30 9 31 10 32
REMARK SMILES IDX 24 33
REMARK H PARENT 24 34
REMARK Flexibility Score: inf
ROOT
ATOM      1  C   UNL     1     481.782  39.449 459.721  1.00  0.00     0.017 C 
ATOM      2  C   UNL     1     483.000  38.484 459.638  1.00  0.00     0.014 C 
ATOM      3  C   UNL     1     481.189  39.456 461.144  1.00  0.00     0.014 C 
ATOM      4  C   UNL     1     482.257  40.880 459.280  1.00  0.00     0.030 C 
ATOM      5  C   UNL     1     483.535  38.344 458.201  1.00  0.00     0.004 C 
ATOM      6  C   UNL     1     482.054  40.154 462.190  1.00  0.00     0.013 C 
ATOM      7  C   UNL     1     483.034  41.635 460.420  1.00  0.00    -0.063 C 
ATOM      8  C   UNL     1     482.836  40.777 457.808  1.00  0.00    -0.003 C 
ATOM      9  C   UNL     1     483.935  39.698 457.571  1.00  0.00    -0.011 C 
ATOM     10  C   UNL     1     482.447  41.626 461.865  1.00  0.00    -0.006 C 
ATOM     11  C   UNL     1     483.940  42.582 460.112  1.00  0.00    -0.027 C 
ATOM     12  C   UNL     1     483.055  42.107 457.047  1.00  0.00     0.008 C 
ATOM     13  C   UNL     1     485.340  40.108 458.007  1.00  0.00     0.008 C 
ATOM     14  C   UNL     1     481.113  42.449 461.758  1.00  0.00     0.017 C 
ATOM     15  C   UNL     1     483.443  42.251 463.051  1.00  0.00    -0.020 C 
ATOM     16  C   UNL     1     484.414  43.598 461.105  1.00  0.00     0.032 C 
ATOM     17  C   UNL     1     484.749  42.964 462.467  1.00  0.00     0.006 C 
ATOM     18  C   UNL     1     483.847  41.241 464.204  1.00  0.00     0.008 C 
ATOM     19  C   UNL     1     482.685  43.369 463.863  1.00  0.00     0.012 C 
ATOM     20  C   UNL     1     486.179  42.229 462.507  1.00  0.00    -0.025 C 
ATOM     21  C   UNL     1     485.114  40.431 463.999  1.00  0.00     0.005 C 
ATOM     22  C   UNL     1     486.364  41.301 463.764  1.00  0.00     0.003 C 
ATOM     23  C   UNL     1     487.315  43.313 462.476  1.00  0.00     0.010 C 
ATOM     24  C   UNL     1     486.386  41.340 461.258  1.00  0.00     0.012 C 
ATOM     25  C   UNL     1     487.111  41.945 465.010  1.00  0.00    -0.006 C 
ATOM     26  C   UNL     1     488.642  42.809 463.043  1.00  0.00     0.033 C 
ATOM     27  C   UNL     1     488.552  42.406 464.534  1.00  0.00     0.120 C 
ATOM     28  C   UNL     1     487.313  40.872 466.115  1.00  0.00     0.014 C 
ATOM     29  C   UNL     1     486.345  43.127 465.674  1.00  0.00     0.014 C 
ENDROOT
BRANCH   1  30
ATOM     30  C   UNL     1     480.641  38.936 458.837  1.00  0.00     0.048 C 
ATOM     31  O   UNL     1     480.433  37.699 458.712  1.00  0.00    -0.550 OA
ATOM     32  O   UNL     1     479.739  39.826 458.259  1.00  0.00    -0.550 OA
ENDBRANCH   1  30
BRANCH  27  33
ATOM     33  O   UNL     1     489.055  43.463 465.316  1.00  0.00    -0.393 OA
ATOM     34  H   UNL     1     489.311  43.079 466.195  1.00  0.00     0.210 HD
ENDBRANCH  27  33
TORSDOF 2
ENDMDL
MODEL 5
REMARK VINA RESULT:    -5.572      1.629      7.838
REMARK INTER + INTRA:          -6.057
REMARK INTER:                  -6.108
REMARK INTRA:                   0.051
REMARK UNBOUND:                 0.003
REMARK SMILES C[C@H]1[C@@H](C)CC[C@@]2(C(=O)[O-])CC[C@]3(C)C(=CC[C@@H]4[C@@]5(C)CC[C@@H](O)C(C)(C)[C@H]5CC[C@@]43C)[C@@H]12
REMARK SMILES IDX 7 1 6 2 11 3 33 4 5 5 12 6 15 7 2 8 3 9 13 10 16 11 1 12
REMARK SMILES IDX 4 13 14 14 31 15 17 16 18 17 30 18 32 19 19 20 29 21 28 22
REMARK SMILES IDX 21 23 20 24 25 25 22 26 23 27 26 28 27 29 8 30 9 31 10 32
REMARK SMILES IDX 24 33
REMARK H PARENT 24 34
REMARK Flexibility Score: inf
ROOT
ATOM      1  C   UNL     1     481.822  39.142 456.989  1.00  0.00     0.017 C 
ATOM      2  C   UNL     1     481.024  40.476 456.923  1.00  0.00     0.014 C 
ATOM      3  C   UNL     1     483.320  39.390 456.723  1.00  0.00     0.014 C 
ATOM      4  C   UNL     1     481.579  38.491 458.398  1.00  0.00     0.030 C 
ATOM      5  C   UNL     1     479.505  40.253 457.045  1.00  0.00     0.004 C 
ATOM      6  C   UNL     1     484.056  40.105 457.854  1.00  0.00     0.013 C 
ATOM      7  C   UNL     1     482.446  39.158 459.527  1.00  0.00    -0.063 C 
ATOM      8  C   UNL     1     480.020  38.262 458.574  1.00  0.00    -0.003 C 
ATOM      9  C   UNL     1     479.108  39.504 458.338  1.00  0.00    -0.011 C 
ATOM     10  C   UNL     1     483.958  39.430 459.255  1.00  0.00    -0.006 C 
ATOM     11  C   UNL     1     482.030  39.134 460.807  1.00  0.00    -0.027 C 
ATOM     12  C   UNL     1     479.574  37.339 459.733  1.00  0.00     0.008 C 
ATOM     13  C   UNL     1     479.017  40.467 459.520  1.00  0.00     0.008 C 
ATOM     14  C   UNL     1     484.602  38.003 459.127  1.00  0.00     0.017 C 
ATOM     15  C   UNL     1     484.746  40.342 460.411  1.00  0.00    -0.020 C 
ATOM     16  C   UNL     1     482.953  39.379 461.961  1.00  0.00     0.032 C 
ATOM     17  C   UNL     1     483.868  40.594 461.722  1.00  0.00     0.006 C 
ATOM     18  C   UNL     1     485.359  41.710 459.898  1.00  0.00     0.008 C 
ATOM     19  C   UNL     1     486.036  39.587 460.910  1.00  0.00     0.012 C 
ATOM     20  C   UNL     1     483.146  42.009 461.973  1.00  0.00    -0.025 C 
ATOM     21  C   UNL     1     484.470  42.938 459.979  1.00  0.00     0.005 C 
ATOM     22  C   UNL     1     483.959  43.229 461.404  1.00  0.00     0.003 C 
ATOM     23  C   UNL     1     482.912  42.201 463.514  1.00  0.00     0.010 C 
ATOM     24  C   UNL     1     481.750  42.050 461.309  1.00  0.00     0.012 C 
ATOM     25  C   UNL     1     484.906  43.985 462.431  1.00  0.00    -0.006 C 
ATOM     26  C   UNL     1     482.752  43.665 463.920  1.00  0.00     0.033 C 
ATOM     27  C   UNL     1     484.009  44.519 463.625  1.00  0.00     0.120 C 
ATOM     28  C   UNL     1     485.544  45.225 461.747  1.00  0.00     0.014 C 
ATOM     29  C   UNL     1     486.084  43.121 462.971  1.00  0.00     0.014 C 
ENDROOT
BRANCH   1  30
ATOM     30  C   UNL     1     481.387  38.209 455.854  1.00  0.00     0.048 C 
ATOM     31  O   UNL     1     481.382  38.612 454.659  1.00  0.00    -0.550 OA
ATOM     32  O   UNL     1     481.109  36.868 456.107  1.00  0.00    -0.550 OA
ENDBRANCH   1  30
BRANCH  27  33
ATOM     33  O   UNL     1     484.743  44.663 464.818  1.00  0.00    -0.393 OA
ATOM     34  H   UNL     1     485.637  45.018 464.568  1.00  0.00     0.210 HD
ENDBRANCH  27  33
TORSDOF 2
ENDMDL
MODEL 6
REMARK VINA RESULT:    -5.569      1.654      3.307
REMARK INTER + INTRA:          -6.054
REMARK INTER:                  -6.058
REMARK INTRA:                   0.004
REMARK UNBOUND:                 0.003
REMARK SMILES C[C@H]1[C@@H](C)CC[C@@]2(C(=O)[O-])CC[C@]3(C)C(=CC[C@@H]4[C@@]5(C)CC[C@@H](O)C(C)(C)[C@H]5CC[C@@]43C)[C@@H]12
REMARK SMILES IDX 7 1 6 2 11 3 33 4 5 5 12 6 15 7 2 8 3 9 13 10 16 11 1 12
REMARK SMILES IDX 4 13 14 14 31 15 17 16 18 17 30 18 32 19 19 20 29 21 28 22
REMARK SMILES IDX 21 23 20 24 25 25 22 26 23 27 26 28 27 29 8 30 9 31 10 32
REMARK SMILES IDX 24 33
REMARK H PARENT 24 34
REMARK Flexibility Score: inf
ROOT
ATOM      1  C   UNL     1     486.376  42.541 463.445  1.00  0.00     0.017 C 
ATOM      2  C   UNL     1     486.488  41.015 463.727  1.00  0.00     0.014 C 
ATOM      3  C   UNL     1     486.977  42.885 462.068  1.00  0.00     0.014 C 
ATOM      4  C   UNL     1     484.862  42.950 463.541  1.00  0.00     0.030 C 
ATOM      5  C   UNL     1     486.025  40.650 465.150  1.00  0.00     0.004 C 
ATOM      6  C   UNL     1     486.147  42.412 460.876  1.00  0.00     0.013 C 
ATOM      7  C   UNL     1     484.053  42.571 462.247  1.00  0.00    -0.063 C 
ATOM      8  C   UNL     1     484.339  42.572 464.989  1.00  0.00    -0.003 C 
ATOM      9  C   UNL     1     484.577  41.102 465.448  1.00  0.00    -0.011 C 
ATOM     10  C   UNL     1     484.667  42.900 460.851  1.00  0.00    -0.006 C 
ATOM     11  C   UNL     1     482.727  42.346 462.317  1.00  0.00    -0.027 C 
ATOM     12  C   UNL     1     482.982  43.178 465.423  1.00  0.00     0.008 C 
ATOM     13  C   UNL     1     483.568  40.090 464.909  1.00  0.00     0.008 C 
ATOM     14  C   UNL     1     484.696  44.469 460.788  1.00  0.00     0.017 C 
ATOM     15  C   UNL     1     483.854  42.262 459.539  1.00  0.00    -0.020 C 
ATOM     16  C   UNL     1     481.839  42.376 461.111  1.00  0.00     0.032 C 
ATOM     17  C   UNL     1     482.447  41.608 459.925  1.00  0.00     0.006 C 
ATOM     18  C   UNL     1     484.690  41.259 458.640  1.00  0.00     0.008 C 
ATOM     19  C   UNL     1     483.515  43.402 458.505  1.00  0.00     0.012 C 
ATOM     20  C   UNL     1     482.281  40.012 460.032  1.00  0.00    -0.025 C 
ATOM     21  C   UNL     1     484.624  39.787 459.006  1.00  0.00     0.005 C 
ATOM     22  C   UNL     1     483.189  39.225 459.017  1.00  0.00     0.003 C 
ATOM     23  C   UNL     1     480.774  39.635 459.797  1.00  0.00     0.010 C 
ATOM     24  C   UNL     1     482.645  39.505 461.447  1.00  0.00     0.012 C 
ATOM     25  C   UNL     1     482.508  38.800 457.645  1.00  0.00    -0.006 C 
ATOM     26  C   UNL     1     480.580  38.190 459.340  1.00  0.00     0.033 C 
ATOM     27  C   UNL     1     481.256  37.886 457.981  1.00  0.00     0.120 C 
ATOM     28  C   UNL     1     483.495  37.939 456.811  1.00  0.00     0.014 C 
ATOM     29  C   UNL     1     482.090  39.997 456.741  1.00  0.00     0.014 C 
ENDROOT
BRANCH   1  30
ATOM     30  C   UNL     1     487.237  43.326 464.440  1.00  0.00     0.048 C 
ATOM     31  O   UNL     1     488.353  42.877 464.816  1.00  0.00    -0.550 OA
ATOM     32  O   UNL     1     486.860  44.603 464.849  1.00  0.00    -0.550 OA
ENDBRANCH   1  30
BRANCH  27  33
ATOM     33  O   UNL     1     480.276  37.938 456.972  1.00  0.00    -0.393 OA
ATOM     34  H   UNL     1     480.230  38.880 456.659  1.00  0.00     0.210 HD
ENDBRANCH  27  33
TORSDOF 2
ENDMDL
MODEL 7
REMARK VINA RESULT:    -5.537      3.631      6.855
REMARK INTER + INTRA:          -6.020
REMARK INTER:                  -6.095
REMARK INTRA:                   0.075
REMARK UNBOUND:                 0.003
REMARK SMILES C[C@H]1[C@@H](C)CC[C@@]2(C(=O)[O-])CC[C@]3(C)C(=CC[C@@H]4[C@@]5(C)CC[C@@H](O)C(C)(C)[C@H]5CC[C@@]43C)[C@@H]12
REMARK SMILES IDX 7 1 6 2 11 3 33 4 5 5 12 6 15 7 2 8 3 9 13 10 16 11 1 12
REMARK SMILES IDX 4 13 14 14 31 15 17 16 18 17 30 18 32 19 19 20 29 21 28 22
REMARK SMILES IDX 21 23 20 24 25 25 22 26 23 27 26 28 27 29 8 30 9 31 10 32
REMARK SMILES IDX 24 33
REMARK H PARENT 24 34
REMARK Flexibility Score: inf
ROOT
ATOM      1  C   UNL     1     483.757  39.530 460.067  1.00  0.00     0.017 C 
ATOM      2  C   UNL     1     483.770  39.104 461.563  1.00  0.00     0.014 C 
ATOM      3  C   UNL     1     483.046  38.468 459.205  1.00  0.00     0.014 C 
ATOM      4  C   UNL     1     483.057  40.933 459.960  1.00  0.00     0.030 C 
ATOM      5  C   UNL     1     484.592  40.071 462.438  1.00  0.00     0.004 C 
ATOM      6  C   UNL     1     481.533  38.404 459.396  1.00  0.00     0.013 C 
ATOM      7  C   UNL     1     481.490  40.831 460.027  1.00  0.00    -0.063 C 
ATOM      8  C   UNL     1     483.862  41.957 460.864  1.00  0.00    -0.003 C 
ATOM      9  C   UNL     1     484.100  41.533 462.345  1.00  0.00    -0.011 C 
ATOM     10  C   UNL     1     480.769  39.744 459.172  1.00  0.00    -0.006 C 
ATOM     11  C   UNL     1     480.760  41.870 460.473  1.00  0.00    -0.027 C 
ATOM     12  C   UNL     1     483.560  43.461 460.658  1.00  0.00     0.008 C 
ATOM     13  C   UNL     1     482.913  41.769 463.278  1.00  0.00     0.008 C 
ATOM     14  C   UNL     1     481.019  40.177 457.683  1.00  0.00     0.017 C 
ATOM     15  C   UNL     1     479.137  39.555 459.474  1.00  0.00    -0.020 C 
ATOM     16  C   UNL     1     479.293  42.003 460.199  1.00  0.00     0.032 C 
ATOM     17  C   UNL     1     478.539  40.682 460.435  1.00  0.00     0.006 C 
ATOM     18  C   UNL     1     478.700  38.119 459.985  1.00  0.00     0.008 C 
ATOM     19  C   UNL     1     478.320  39.673 458.132  1.00  0.00     0.012 C 
ATOM     20  C   UNL     1     478.241  40.374 461.985  1.00  0.00    -0.025 C 
ATOM     21  C   UNL     1     478.690  37.895 461.486  1.00  0.00     0.005 C 
ATOM     22  C   UNL     1     477.790  38.889 462.246  1.00  0.00     0.003 C 
ATOM     23  C   UNL     1     477.136  41.362 462.504  1.00  0.00     0.010 C 
ATOM     24  C   UNL     1     479.495  40.621 462.856  1.00  0.00     0.012 C 
ATOM     25  C   UNL     1     476.224  38.630 462.309  1.00  0.00    -0.006 C 
ATOM     26  C   UNL     1     476.395  40.843 463.736  1.00  0.00     0.033 C 
ATOM     27  C   UNL     1     475.624  39.527 463.472  1.00  0.00     0.120 C 
ATOM     28  C   UNL     1     475.949  37.148 462.685  1.00  0.00     0.014 C 
ATOM     29  C   UNL     1     475.477  38.894 460.968  1.00  0.00     0.014 C 
ENDROOT
BRANCH   1  30
ATOM     30  C   UNL     1     485.186  39.570 459.517  1.00  0.00     0.048 C 
ATOM     31  O   UNL     1     486.109  38.922 460.082  1.00  0.00    -0.550 OA
ATOM     32  O   UNL     1     485.465  40.218 458.316  1.00  0.00    -0.550 OA
ENDBRANCH   1  30
BRANCH  27  33
ATOM     33  O   UNL     1     474.268  39.838 463.256  1.00  0.00    -0.393 OA
ATOM     34  H   UNL     1     473.974  39.319 462.462  1.00  0.00     0.210 HD
ENDBRANCH  27  33
TORSDOF 2
ENDMDL
MODEL 8
REMARK VINA RESULT:    -5.461      2.163      4.342
REMARK INTER + INTRA:          -5.937
REMARK INTER:                  -5.944
REMARK INTRA:                   0.007
REMARK UNBOUND:                 0.003
REMARK SMILES C[C@H]1[C@@H](C)CC[C@@]2(C(=O)[O-])CC[C@]3(C)C(=CC[C@@H]4[C@@]5(C)CC[C@@H](O)C(C)(C)[C@H]5CC[C@@]43C)[C@@H]12
REMARK SMILES IDX 7 1 6 2 11 3 33 4 5 5 12 6 15 7 2 8 3 9 13 10 16 11 1 12
REMARK SMILES IDX 4 13 14 14 31 15 17 16 18 17 30 18 32 19 19 20 29 21 28 22
REMARK SMILES IDX 21 23 20 24 25 25 22 26 23 27 26 28 27 29 8 30 9 31 10 32
REMARK SMILES IDX 24 33
REMARK H PARENT 24 34
REMARK Flexibility Score: inf
ROOT
ATOM      1  C   UNL     1     483.739  41.084 463.150  1.00  0.00     0.017 C 
ATOM      2  C   UNL     1     482.418  41.895 463.017  1.00  0.00     0.014 C 
ATOM      3  C   UNL     1     483.471  39.576 462.983  1.00  0.00     0.014 C 
ATOM      4  C   UNL     1     484.756  41.620 462.078  1.00  0.00     0.030 C 
ATOM      5  C   UNL     1     482.621  43.393 463.316  1.00  0.00     0.004 C 
ATOM      6  C   UNL     1     483.129  39.146 461.558  1.00  0.00     0.013 C 
ATOM      7  C   UNL     1     484.464  41.059 460.639  1.00  0.00    -0.063 C 
ATOM      8  C   UNL     1     484.978  43.168 462.338  1.00  0.00    -0.003 C 
ATOM      9  C   UNL     1     483.694  44.047 462.416  1.00  0.00    -0.011 C 
ATOM     10  C   UNL     1     484.172  39.536 460.468  1.00  0.00    -0.006 C 
ATOM     11  C   UNL     1     484.838  41.756 459.550  1.00  0.00    -0.027 C 
ATOM     12  C   UNL     1     486.179  43.832 461.623  1.00  0.00     0.008 C 
ATOM     13  C   UNL     1     483.104  44.442 461.064  1.00  0.00     0.008 C 
ATOM     14  C   UNL     1     485.522  38.827 460.842  1.00  0.00     0.017 C 
ATOM     15  C   UNL     1     483.649  39.069 458.952  1.00  0.00    -0.020 C 
ATOM     16  C   UNL     1     484.958  41.131 458.194  1.00  0.00     0.032 C 
ATOM     17  C   UNL     1     483.754  40.232 457.861  1.00  0.00     0.006 C 
ATOM     18  C   UNL     1     482.211  38.405 458.901  1.00  0.00     0.008 C 
ATOM     19  C   UNL     1     484.554  37.900 458.404  1.00  0.00     0.012 C 
ATOM     20  C   UNL     1     482.448  41.045 457.393  1.00  0.00    -0.025 C 
ATOM     21  C   UNL     1     481.031  39.335 458.682  1.00  0.00     0.005 C 
ATOM     22  C   UNL     1     481.141  40.169 457.390  1.00  0.00     0.003 C 
ATOM     23  C   UNL     1     482.695  41.632 455.957  1.00  0.00     0.010 C 
ATOM     24  C   UNL     1     482.177  42.252 458.320  1.00  0.00     0.012 C 
ATOM     25  C   UNL     1     480.737  39.511 456.002  1.00  0.00    -0.006 C 
ATOM     26  C   UNL     1     481.402  41.935 455.201  1.00  0.00     0.033 C 
ATOM     27  C   UNL     1     480.537  40.677 454.945  1.00  0.00     0.120 C 
ATOM     28  C   UNL     1     479.374  38.779 456.141  1.00  0.00     0.014 C 
ATOM     29  C   UNL     1     481.754  38.456 455.473  1.00  0.00     0.014 C 
ENDROOT
BRANCH   1  30
ATOM     30  C   UNL     1     484.298  41.214 464.571  1.00  0.00     0.048 C 
ATOM     31  O   UNL     1     483.520  41.285 465.561  1.00  0.00    -0.550 OA
ATOM     32  O   UNL     1     485.668  41.129 464.804  1.00  0.00    -0.550 OA
ENDBRANCH   1  30
BRANCH  27  33
ATOM     33  O   UNL     1     480.760  40.241 453.625  1.00  0.00    -0.393 OA
ATOM     34  H   UNL     1     480.423  39.309 453.566  1.00  0.00     0.210 HD
ENDBRANCH  27  33
TORSDOF 2
ENDMDL
MODEL 9
REMARK VINA RESULT:    -5.452      4.548      7.500
REMARK INTER + INTRA:          -5.927
REMARK INTER:                  -5.934
REMARK INTRA:                   0.007
REMARK UNBOUND:                 0.003
REMARK SMILES C[C@H]1[C@@H](C)CC[C@@]2(C(=O)[O-])CC[C@]3(C)C(=CC[C@@H]4[C@@]5(C)CC[C@@H](O)C(C)(C)[C@H]5CC[C@@]43C)[C@@H]12
REMARK SMILES IDX 7 1 6 2 11 3 33 4 5 5 12 6 15 7 2 8 3 9 13 10 16 11 1 12
REMARK SMILES IDX 4 13 14 14 31 15 17 16 18 17 30 18 32 19 19 20 29 21 28 22
REMARK SMILES IDX 21 23 20 24 25 25 22 26 23 27 26 28 27 29 8 30 9 31 10 32
REMARK SMILES IDX 24 33
REMARK H PARENT 24 34
REMARK Flexibility Score: inf
ROOT
ATOM      1  C   UNL     1     476.574  41.051 460.635  1.00  0.00     0.017 C 
ATOM      2  C   UNL     1     477.448  41.684 461.756  1.00  0.00     0.014 C 
ATOM      3  C   UNL     1     476.761  41.809 459.306  1.00  0.00     0.014 C 
ATOM      4  C   UNL     1     476.966  39.535 460.503  1.00  0.00     0.030 C 
ATOM      5  C   UNL     1     477.186  41.043 463.132  1.00  0.00     0.004 C 
ATOM      6  C   UNL     1     478.114  41.592 458.635  1.00  0.00     0.013 C 
ATOM      7  C   UNL     1     478.297  39.326 459.693  1.00  0.00    -0.063 C 
ATOM      8  C   UNL     1     476.730  38.839 461.907  1.00  0.00    -0.003 C 
ATOM      9  C   UNL     1     477.411  39.514 463.137  1.00  0.00    -0.011 C 
ATOM     10  C   UNL     1     478.498  40.107 458.358  1.00  0.00    -0.006 C 
ATOM     11  C   UNL     1     479.058  38.236 459.908  1.00  0.00    -0.027 C 
ATOM     12  C   UNL     1     476.730  37.292 461.931  1.00  0.00     0.008 C 
ATOM     13  C   UNL     1     478.890  39.180 463.312  1.00  0.00     0.008 C 
ATOM     14  C   UNL     1     477.412  39.521 457.386  1.00  0.00     0.017 C 
ATOM     15  C   UNL     1     480.023  40.002 457.684  1.00  0.00    -0.020 C 
ATOM     16  C   UNL     1     480.093  37.770 458.931  1.00  0.00     0.032 C 
ATOM     17  C   UNL     1     480.960  38.929 458.408  1.00  0.00     0.006 C 
ATOM     18  C   UNL     1     480.794  41.378 457.528  1.00  0.00     0.008 C 
ATOM     19  C   UNL     1     479.922  39.526 456.185  1.00  0.00     0.012 C 
ATOM     20  C   UNL     1     482.109  39.394 459.433  1.00  0.00    -0.025 C 
ATOM     21  C   UNL     1     481.672  41.812 458.688  1.00  0.00     0.005 C 
ATOM     22  C   UNL     1     482.754  40.778 459.055  1.00  0.00     0.003 C 
ATOM     23  C   UNL     1     483.222  38.288 459.494  1.00  0.00     0.010 C 
ATOM     24  C   UNL     1     481.552  39.536 460.870  1.00  0.00     0.012 C 
ATOM     25  C   UNL     1     484.097  40.719 458.206  1.00  0.00    -0.006 C 
ATOM     26  C   UNL     1     484.572  38.820 459.974  1.00  0.00     0.033 C 
ATOM     27  C   UNL     1     485.169  39.899 459.039  1.00  0.00     0.120 C 
ATOM     28  C   UNL     1     484.663  42.153 458.016  1.00  0.00     0.014 C 
ATOM     29  C   UNL     1     483.927  40.117 456.780  1.00  0.00     0.014 C 
ENDROOT
BRANCH   1  30
ATOM     30  C   UNL     1     475.088  41.223 460.964  1.00  0.00     0.048 C 
ATOM     31  O   UNL     1     474.656  42.313 461.429  1.00  0.00    -0.550 OA
ATOM     32  O   UNL     1     474.171  40.227 460.639  1.00  0.00    -0.550 OA
ENDBRANCH   1  30
BRANCH  27  33
ATOM     33  O   UNL     1     486.131  39.291 458.210  1.00  0.00    -0.393 OA
ATOM     34  H   UNL     1     485.702  39.144 457.326  1.00  0.00     0.210 HD
ENDBRANCH  27  33
TORSDOF 2
ENDMDL
