MODEL 1
REMARK VINA RESULT:    -4.185      0.000      0.000
REMARK INTER + INTRA:          -5.194
REMARK INTER:                  -4.919
REMARK INTRA:                  -0.274
REMARK UNBOUND:                -0.274
REMARK SMILES O=C([O-])C=Cc1ccc(O)c(O)c1
REMARK SMILES IDX 6 1 13 2 7 3 11 4 8 5 9 6 5 7 4 8 2 9 1 10 3 11 12 12 10 14
REMARK H PARENT 12 13 10 15
REMARK Flexibility Score: inf
ROOT
ATOM      1  C   UNL     1      34.197 -37.601  11.218  1.00  0.00    -0.022 A 
ATOM      2  C   UNL     1      34.515 -37.002  12.448  1.00  0.00     0.058 A 
ATOM      3  C   UNL     1      34.339 -38.988  11.071  1.00  0.00     0.012 A 
ATOM      4  C   UNL     1      35.020 -37.775  13.504  1.00  0.00     0.157 A 
ATOM      5  C   UNL     1      34.842 -39.760  12.123  1.00  0.00     0.051 A 
ATOM      6  C   UNL     1      35.188 -39.156  13.339  1.00  0.00     0.157 A 
ENDROOT
BRANCH   1   7
ATOM      7  C   UNL     1      33.615 -36.813  10.111  1.00  0.00     0.010 C 
ATOM      8  C   UNL     1      32.307 -36.571   9.931  1.00  0.00     0.025 C 
BRANCH   8   9
ATOM      9  C   UNL     1      31.233 -36.888  10.892  1.00  0.00     0.064 C 
ATOM     10  O   UNL     1      30.795 -36.029  11.700  1.00  0.00    -0.545 OA
ATOM     11  O   UNL     1      30.644 -38.146  10.856  1.00  0.00    -0.545 OA
ENDBRANCH   8   9
ENDBRANCH   1   7
BRANCH   4  12
ATOM     12  O   UNL     1      35.351 -37.179  14.719  1.00  0.00    -0.504 OA
ATOM     13  H   UNL     1      36.140 -37.497  15.269  1.00  0.00     0.293 HD
ENDBRANCH   4  12
BRANCH   6  14
ATOM     14  O   UNL     1      35.692 -39.921  14.389  1.00  0.00    -0.504 OA
ATOM     15  H   UNL     1      35.106 -40.211  15.164  1.00  0.00     0.293 HD
ENDBRANCH   6  14
TORSDOF 4
ENDMDL
MODEL 2
REMARK VINA RESULT:    -3.932      2.530      5.463
REMARK INTER + INTRA:          -4.896
REMARK INTER:                  -4.607
REMARK INTRA:                  -0.289
REMARK UNBOUND:                -0.274
REMARK SMILES O=C([O-])C=Cc1ccc(O)c(O)c1
REMARK SMILES IDX 6 1 13 2 7 3 11 4 8 5 9 6 5 7 4 8 2 9 1 10 3 11 12 12 10 14
REMARK H PARENT 12 13 10 15
REMARK Flexibility Score: inf
ROOT
ATOM      1  C   UNL     1      34.235 -40.434  13.864  1.00  0.00    -0.022 A 
ATOM      2  C   UNL     1      34.788 -39.327  14.530  1.00  0.00     0.058 A 
ATOM      3  C   UNL     1      33.871 -40.313  12.516  1.00  0.00     0.012 A 
ATOM      4  C   UNL     1      34.927 -38.097  13.868  1.00  0.00     0.157 A 
ATOM      5  C   UNL     1      34.008 -39.089  11.855  1.00  0.00     0.051 A 
ATOM      6  C   UNL     1      34.532 -37.978  12.530  1.00  0.00     0.157 A 
ENDROOT
BRANCH   1   7
ATOM      7  C   UNL     1      34.129 -41.750  14.527  1.00  0.00     0.010 C 
ATOM      8  C   UNL     1      35.057 -42.720  14.485  1.00  0.00     0.025 C 
BRANCH   8   9
ATOM      9  C   UNL     1      36.417 -42.587  13.928  1.00  0.00     0.064 C 
ATOM     10  O   UNL     1      36.684 -42.938  12.749  1.00  0.00    -0.545 OA
ATOM     11  O   UNL     1      37.409 -41.998  14.700  1.00  0.00    -0.545 OA
ENDBRANCH   8   9
ENDBRANCH   1   7
BRANCH   4  12
ATOM     12  O   UNL     1      35.461 -36.995  14.532  1.00  0.00    -0.504 OA
ATOM     13  H   UNL     1      35.301 -36.050  14.205  1.00  0.00     0.293 HD
ENDBRANCH   4  12
BRANCH   6  14
ATOM     14  O   UNL     1      34.668 -36.754  11.875  1.00  0.00    -0.504 OA
ATOM     15  H   UNL     1      34.222 -35.914  12.224  1.00  0.00     0.293 HD
ENDBRANCH   6  14
TORSDOF 4
ENDMDL
MODEL 3
REMARK VINA RESULT:    -3.884      2.078      2.305
REMARK INTER + INTRA:          -4.839
REMARK INTER:                  -4.633
REMARK INTRA:                  -0.206
REMARK UNBOUND:                -0.274
REMARK SMILES O=C([O-])C=Cc1ccc(O)c(O)c1
REMARK SMILES IDX 6 1 13 2 7 3 11 4 8 5 9 6 5 7 4 8 2 9 1 10 3 11 12 12 10 14
REMARK H PARENT 12 13 10 15
REMARK Flexibility Score: inf
ROOT
ATOM      1  C   UNL     1      33.500 -38.808  11.739  1.00  0.00    -0.022 A 
ATOM      2  C   UNL     1      33.951 -37.748  12.542  1.00  0.00     0.058 A 
ATOM      3  C   UNL     1      33.988 -40.102  11.970  1.00  0.00     0.012 A 
ATOM      4  C   UNL     1      34.920 -37.970  13.532  1.00  0.00     0.157 A 
ATOM      5  C   UNL     1      34.955 -40.325  12.955  1.00  0.00     0.051 A 
ATOM      6  C   UNL     1      35.426 -39.260  13.735  1.00  0.00     0.157 A 
ENDROOT
BRANCH   1   7
ATOM      7  C   UNL     1      32.442 -38.605  10.727  1.00  0.00     0.010 C 
ATOM      8  C   UNL     1      32.606 -38.002   9.539  1.00  0.00     0.025 C 
BRANCH   8   9
ATOM      9  C   UNL     1      33.897 -37.594   8.951  1.00  0.00     0.064 C 
ATOM     10  O   UNL     1      34.187 -36.383   8.771  1.00  0.00    -0.545 OA
ATOM     11  O   UNL     1      34.841 -38.568   8.653  1.00  0.00    -0.545 OA
ENDBRANCH   8   9
ENDBRANCH   1   7
BRANCH   4  12
ATOM     12  O   UNL     1      35.380 -36.916  14.318  1.00  0.00    -0.504 OA
ATOM     13  H   UNL     1      36.258 -36.449  14.120  1.00  0.00     0.293 HD
ENDBRANCH   4  12
BRANCH   6  14
ATOM     14  O   UNL     1      36.392 -39.477  14.717  1.00  0.00    -0.504 OA
ATOM     15  H   UNL     1      37.361 -39.214  14.576  1.00  0.00     0.293 HD
ENDBRANCH   6  14
TORSDOF 4
ENDMDL
MODEL 4
REMARK VINA RESULT:    -3.746      2.627      4.779
REMARK INTER + INTRA:          -4.677
REMARK INTER:                  -4.497
REMARK INTRA:                  -0.180
REMARK UNBOUND:                -0.274
REMARK SMILES O=C([O-])C=Cc1ccc(O)c(O)c1
REMARK SMILES IDX 6 1 13 2 7 3 11 4 8 5 9 6 5 7 4 8 2 9 1 10 3 11 12 12 10 14
REMARK H PARENT 12 13 10 15
REMARK Flexibility Score: inf
ROOT
ATOM      1  C   UNL     1      35.142 -40.535  13.354  1.00  0.00    -0.022 A 
ATOM      2  C   UNL     1      35.344 -39.367  14.108  1.00  0.00     0.058 A 
ATOM      3  C   UNL     1      34.745 -40.427  12.013  1.00  0.00     0.012 A 
ATOM      4  C   UNL     1      35.100 -38.106  13.544  1.00  0.00     0.157 A 
ATOM      5  C   UNL     1      34.501 -39.171  11.450  1.00  0.00     0.051 A 
ATOM      6  C   UNL     1      34.673 -38.009  12.214  1.00  0.00     0.157 A 
ENDROOT
BRANCH   1   7
ATOM      7  C   UNL     1      35.444 -41.869  13.913  1.00  0.00     0.010 C 
ATOM      8  C   UNL     1      34.544 -42.711  14.446  1.00  0.00     0.025 C 
BRANCH   8   9
ATOM      9  C   UNL     1      33.079 -42.541  14.411  1.00  0.00     0.064 C 
ATOM     10  O   UNL     1      32.334 -43.355  13.806  1.00  0.00    -0.545 OA
ATOM     11  O   UNL     1      32.503 -41.494  15.121  1.00  0.00    -0.545 OA
ENDBRANCH   8   9
ENDBRANCH   1   7
BRANCH   4  12
ATOM     12  O   UNL     1      35.284 -36.948  14.297  1.00  0.00    -0.504 OA
ATOM     13  H   UNL     1      34.912 -36.055  13.997  1.00  0.00     0.293 HD
ENDBRANCH   4  12
BRANCH   6  14
ATOM     14  O   UNL     1      34.428 -36.755  11.656  1.00  0.00    -0.504 OA
ATOM     15  H   UNL     1      34.023 -36.655  10.732  1.00  0.00     0.293 HD
ENDBRANCH   6  14
TORSDOF 4
ENDMDL
MODEL 5
REMARK VINA RESULT:    -3.688     14.269     15.818
REMARK INTER + INTRA:          -4.609
REMARK INTER:                  -4.344
REMARK INTRA:                  -0.265
REMARK UNBOUND:                -0.274
REMARK SMILES O=C([O-])C=Cc1ccc(O)c(O)c1
REMARK SMILES IDX 6 1 13 2 7 3 11 4 8 5 9 6 5 7 4 8 2 9 1 10 3 11 12 12 10 14
REMARK H PARENT 12 13 10 15
REMARK Flexibility Score: inf
ROOT
ATOM      1  C   UNL     1      36.284 -40.831  -2.511  1.00  0.00    -0.022 A 
ATOM      2  C   UNL     1      35.249 -40.161  -1.838  1.00  0.00     0.058 A 
ATOM      3  C   UNL     1      36.043 -41.368  -3.783  1.00  0.00     0.012 A 
ATOM      4  C   UNL     1      33.971 -40.074  -2.411  1.00  0.00     0.157 A 
ATOM      5  C   UNL     1      34.771 -41.283  -4.355  1.00  0.00     0.051 A 
ATOM      6  C   UNL     1      33.731 -40.640  -3.669  1.00  0.00     0.157 A 
ENDROOT
BRANCH   1   7
ATOM      7  C   UNL     1      37.650 -40.889  -1.949  1.00  0.00     0.010 C 
ATOM      8  C   UNL     1      38.594 -39.946  -2.101  1.00  0.00     0.025 C 
BRANCH   8   9
ATOM      9  C   UNL     1      38.391 -38.611  -2.696  1.00  0.00     0.064 C 
ATOM     10  O   UNL     1      38.404 -38.435  -3.942  1.00  0.00    -0.545 OA
ATOM     11  O   UNL     1      38.111 -37.535  -1.863  1.00  0.00    -0.545 OA
ENDBRANCH   8   9
ENDBRANCH   1   7
BRANCH   4  12
ATOM     12  O   UNL     1      32.939 -39.423  -1.738  1.00  0.00    -0.504 OA
ATOM     13  H   UNL     1      32.933 -38.417  -1.622  1.00  0.00     0.293 HD
ENDBRANCH   4  12
BRANCH   6  14
ATOM     14  O   UNL     1      32.459 -40.555  -4.234  1.00  0.00    -0.504 OA
ATOM     15  H   UNL     1      31.762 -39.910  -3.879  1.00  0.00     0.293 HD
ENDBRANCH   6  14
TORSDOF 4
ENDMDL
MODEL 6
REMARK VINA RESULT:    -3.684     15.129     16.784
REMARK INTER + INTRA:          -4.604
REMARK INTER:                  -4.315
REMARK INTRA:                  -0.289
REMARK UNBOUND:                -0.274
REMARK SMILES O=C([O-])C=Cc1ccc(O)c(O)c1
REMARK SMILES IDX 6 1 13 2 7 3 11 4 8 5 9 6 5 7 4 8 2 9 1 10 3 11 12 12 10 14
REMARK H PARENT 12 13 10 15
REMARK Flexibility Score: inf
ROOT
ATOM      1  C   UNL     1      35.029 -43.107  -4.027  1.00  0.00    -0.022 A 
ATOM      2  C   UNL     1      34.531 -41.799  -4.141  1.00  0.00     0.058 A 
ATOM      3  C   UNL     1      34.132 -44.185  -4.004  1.00  0.00     0.012 A 
ATOM      4  C   UNL     1      33.147 -41.567  -4.180  1.00  0.00     0.157 A 
ATOM      5  C   UNL     1      32.754 -43.955  -4.041  1.00  0.00     0.051 A 
ATOM      6  C   UNL     1      32.258 -42.647  -4.124  1.00  0.00     0.157 A 
ENDROOT
BRANCH   1   7
ATOM      7  C   UNL     1      36.482 -43.377  -4.038  1.00  0.00     0.010 C 
ATOM      8  C   UNL     1      37.296 -43.298  -2.973  1.00  0.00     0.025 C 
BRANCH   8   9
ATOM      9  C   UNL     1      36.869 -43.108  -1.574  1.00  0.00     0.064 C 
ATOM     10  O   UNL     1      36.770 -41.961  -1.064  1.00  0.00    -0.545 OA
ATOM     11  O   UNL     1      36.502 -44.217  -0.822  1.00  0.00    -0.545 OA
ENDBRANCH   8   9
ENDBRANCH   1   7
BRANCH   4  12
ATOM     12  O   UNL     1      32.652 -40.268  -4.277  1.00  0.00    -0.504 OA
ATOM     13  H   UNL     1      32.945 -39.539  -3.637  1.00  0.00     0.293 HD
ENDBRANCH   4  12
BRANCH   6  14
ATOM     14  O   UNL     1      30.884 -42.414  -4.159  1.00  0.00    -0.504 OA
ATOM     15  H   UNL     1      30.384 -42.068  -3.348  1.00  0.00     0.293 HD
ENDBRANCH   6  14
TORSDOF 4
ENDMDL
MODEL 7
REMARK VINA RESULT:    -3.654     15.262     16.950
REMARK INTER + INTRA:          -4.570
REMARK INTER:                  -4.281
REMARK INTRA:                  -0.289
REMARK UNBOUND:                -0.274
REMARK SMILES O=C([O-])C=Cc1ccc(O)c(O)c1
REMARK SMILES IDX 6 1 13 2 7 3 11 4 8 5 9 6 5 7 4 8 2 9 1 10 3 11 12 12 10 14
REMARK H PARENT 12 13 10 15
REMARK Flexibility Score: inf
ROOT
ATOM      1  C   UNL     1      35.792 -41.159  -4.343  1.00  0.00    -0.022 A 
ATOM      2  C   UNL     1      34.494 -41.492  -4.765  1.00  0.00     0.058 A 
ATOM      3  C   UNL     1      35.966 -40.464  -3.138  1.00  0.00     0.012 A 
ATOM      4  C   UNL     1      33.379 -41.089  -4.015  1.00  0.00     0.157 A 
ATOM      5  C   UNL     1      34.856 -40.061  -2.390  1.00  0.00     0.051 A 
ATOM      6  C   UNL     1      33.560 -40.368  -2.828  1.00  0.00     0.157 A 
ENDROOT
BRANCH   1   7
ATOM      7  C   UNL     1      36.981 -41.619  -5.090  1.00  0.00     0.010 C 
ATOM      8  C   UNL     1      37.659 -42.754  -4.852  1.00  0.00     0.025 C 
BRANCH   8   9
ATOM      9  C   UNL     1      37.242 -43.829  -3.931  1.00  0.00     0.064 C 
ATOM     10  O   UNL     1      37.589 -43.834  -2.722  1.00  0.00    -0.545 OA
ATOM     11  O   UNL     1      36.391 -44.824  -4.396  1.00  0.00    -0.545 OA
ENDBRANCH   8   9
ENDBRANCH   1   7
BRANCH   4  12
ATOM     12  O   UNL     1      32.091 -41.405  -4.441  1.00  0.00    -0.504 OA
ATOM     13  H   UNL     1      31.318 -41.475  -3.790  1.00  0.00     0.293 HD
ENDBRANCH   4  12
BRANCH   6  14
ATOM     14  O   UNL     1      32.451 -39.966  -2.087  1.00  0.00    -0.504 OA
ATOM     15  H   UNL     1      31.575 -40.475  -2.124  1.00  0.00     0.293 HD
ENDBRANCH   6  14
TORSDOF 4
ENDMDL
MODEL 8
REMARK VINA RESULT:    -3.629      8.642     10.860
REMARK INTER + INTRA:          -4.540
REMARK INTER:                  -4.336
REMARK INTRA:                  -0.204
REMARK UNBOUND:                -0.274
REMARK SMILES O=C([O-])C=Cc1ccc(O)c(O)c1
REMARK SMILES IDX 6 1 13 2 7 3 11 4 8 5 9 6 5 7 4 8 2 9 1 10 3 11 12 12 10 14
REMARK H PARENT 12 13 10 15
REMARK Flexibility Score: inf
ROOT
ATOM      1  C   UNL     1      44.260 -39.885  13.659  1.00  0.00    -0.022 A 
ATOM      2  C   UNL     1      43.527 -38.698  13.501  1.00  0.00     0.058 A 
ATOM      3  C   UNL     1      43.653 -40.992  14.270  1.00  0.00     0.012 A 
ATOM      4  C   UNL     1      42.217 -38.601  13.995  1.00  0.00     0.157 A 
ATOM      5  C   UNL     1      42.349 -40.897  14.763  1.00  0.00     0.051 A 
ATOM      6  C   UNL     1      41.630 -39.701  14.632  1.00  0.00     0.157 A 
ENDROOT
BRANCH   1   7
ATOM      7  C   UNL     1      45.621 -40.025  13.099  1.00  0.00     0.010 C 
ATOM      8  C   UNL     1      45.948 -40.756  12.022  1.00  0.00     0.025 C 
BRANCH   8   9
ATOM      9  C   UNL     1      44.996 -41.404  11.099  1.00  0.00     0.064 C 
ATOM     10  O   UNL     1      44.435 -40.762  10.173  1.00  0.00    -0.545 OA
ATOM     11  O   UNL     1      44.766 -42.769  11.213  1.00  0.00    -0.545 OA
ENDBRANCH   8   9
ENDBRANCH   1   7
BRANCH   4  12
ATOM     12  O   UNL     1      41.495 -37.418  13.853  1.00  0.00    -0.504 OA
ATOM     13  H   UNL     1      41.212 -36.870  14.656  1.00  0.00     0.293 HD
ENDBRANCH   4  12
BRANCH   6  14
ATOM     14  O   UNL     1      40.330 -39.602  15.125  1.00  0.00    -0.504 OA
ATOM     15  H   UNL     1      39.539 -39.986  14.620  1.00  0.00     0.293 HD
ENDBRANCH   6  14
TORSDOF 4
ENDMDL
MODEL 9
REMARK VINA RESULT:    -3.597     13.905     15.593
REMARK INTER + INTRA:          -4.503
REMARK INTER:                  -4.309
REMARK INTRA:                  -0.193
REMARK UNBOUND:                -0.274
REMARK SMILES O=C([O-])C=Cc1ccc(O)c(O)c1
REMARK SMILES IDX 6 1 13 2 7 3 11 4 8 5 9 6 5 7 4 8 2 9 1 10 3 11 12 12 10 14
REMARK H PARENT 12 13 10 15
REMARK Flexibility Score: inf
ROOT
ATOM      1  C   UNL     1      36.087 -40.639  -2.608  1.00  0.00    -0.022 A 
ATOM      2  C   UNL     1      35.113 -40.593  -3.619  1.00  0.00     0.058 A 
ATOM      3  C   UNL     1      35.695 -40.499  -1.269  1.00  0.00     0.012 A 
ATOM      4  C   UNL     1      33.767 -40.359  -3.298  1.00  0.00     0.157 A 
ATOM      5  C   UNL     1      34.355 -40.265  -0.948  1.00  0.00     0.051 A 
ATOM      6  C   UNL     1      33.389 -40.189  -1.961  1.00  0.00     0.157 A 
ENDROOT
BRANCH   1   7
ATOM      7  C   UNL     1      37.501 -40.937  -2.919  1.00  0.00     0.010 C 
ATOM      8  C   UNL     1      38.468 -40.023  -3.095  1.00  0.00     0.025 C 
BRANCH   8   9
ATOM      9  C   UNL     1      38.344 -38.576  -2.836  1.00  0.00     0.064 C 
ATOM     10  O   UNL     1      38.189 -38.125  -1.671  1.00  0.00    -0.545 OA
ATOM     11  O   UNL     1      38.470 -37.685  -3.895  1.00  0.00    -0.545 OA
ENDBRANCH   8   9
ENDBRANCH   1   7
BRANCH   4  12
ATOM     12  O   UNL     1      32.803 -40.297  -4.302  1.00  0.00    -0.504 OA
ATOM     13  H   UNL     1      31.872 -40.674  -4.168  1.00  0.00     0.293 HD
ENDBRANCH   4  12
BRANCH   6  14
ATOM     14  O   UNL     1      32.052 -39.953  -1.645  1.00  0.00    -0.504 OA
ATOM     15  H   UNL     1      31.532 -39.195  -2.073  1.00  0.00     0.293 HD
ENDBRANCH   6  14
TORSDOF 4
ENDMDL
