MODEL 1
REMARK VINA RESULT:    -7.075      0.000      0.000
REMARK INTER + INTRA:          -8.629
REMARK INTER:                  -8.316
REMARK INTRA:                  -0.312
REMARK UNBOUND:                -0.312
REMARK SMILES O=c1cc(-c2ccc(O)c(O)c2)oc2cc(O)cc(O)c12
REMARK SMILES IDX 4 1 3 2 2 3 1 4 21 5 19 6 18 7 16 8 15 9 14 10 13 11 5 12
REMARK SMILES IDX 6 13 7 14 8 15 12 16 10 17 9 18 11 20 20 22 17 24
REMARK H PARENT 9 19 11 21 20 23 17 25
REMARK Flexibility Score: inf
ROOT
ATOM      1  C   UNL     1      -7.318  -6.085   9.021  1.00  0.00     0.138 A 
ATOM      2  C   UNL     1      -7.403  -7.484   8.990  1.00  0.00     0.100 A 
ATOM      3  C   UNL     1      -7.279  -8.208  10.176  1.00  0.00     0.197 A 
ATOM      4  O   UNL     1      -7.297  -9.465  10.110  1.00  0.00    -0.289 OA
ATOM      5  C   UNL     1      -7.100  -7.525  11.403  1.00  0.00     0.107 A 
ATOM      6  C   UNL     1      -7.003  -8.157  12.679  1.00  0.00     0.134 A 
ATOM      7  C   UNL     1      -6.710  -7.386  13.810  1.00  0.00     0.093 A 
ATOM      8  C   UNL     1      -6.571  -6.001  13.722  1.00  0.00     0.123 A 
ATOM      9  C   UNL     1      -6.718  -5.366  12.488  1.00  0.00     0.094 A 
ATOM     10  C   UNL     1      -6.976  -6.111  11.335  1.00  0.00     0.146 A 
ATOM     11  O   UNL     1      -7.095  -5.470  10.178  1.00  0.00    -0.456 OA
ENDROOT
BRANCH   1  12
ATOM     12  C   UNL     1      -7.444  -5.265   7.789  1.00  0.00     0.021 A 
ATOM     13  C   UNL     1      -8.052  -5.819   6.649  1.00  0.00     0.016 A 
ATOM     14  C   UNL     1      -8.176  -5.072   5.475  1.00  0.00     0.051 A 
ATOM     15  C   UNL     1      -7.686  -3.765   5.414  1.00  0.00     0.157 A 
ATOM     16  C   UNL     1      -6.939  -3.951   7.718  1.00  0.00     0.062 A 
ATOM     17  C   UNL     1      -7.062  -3.202   6.539  1.00  0.00     0.158 A 
BRANCH  15  18
ATOM     18  O   UNL     1      -7.826  -3.043   4.229  1.00  0.00    -0.504 OA
ATOM     19  H   UNL     1      -7.381  -3.333   3.366  1.00  0.00     0.293 HD
ENDBRANCH  15  18
BRANCH  17  20
ATOM     20  O   UNL     1      -6.561  -1.901   6.480  1.00  0.00    -0.504 OA
ATOM     21  H   UNL     1      -7.172  -1.104   6.346  1.00  0.00     0.293 HD
ENDBRANCH  17  20
ENDBRANCH   1  12
BRANCH   6  22
ATOM     22  O   UNL     1      -7.208  -9.523  12.891  1.00  0.00    -0.507 OA
ATOM     23  H   UNL     1      -6.536 -10.151  13.306  1.00  0.00     0.293 HD
ENDBRANCH   6  22
BRANCH   8  24
ATOM     24  O   UNL     1      -6.295  -5.264  14.872  1.00  0.00    -0.508 OA
ATOM     25  H   UNL     1      -5.370  -4.892  15.054  1.00  0.00     0.293 HD
ENDBRANCH   8  24
TORSDOF 5
ENDMDL
MODEL 2
REMARK VINA RESULT:    -6.674      4.370      6.974
REMARK INTER + INTRA:          -8.157
REMARK INTER:                  -7.862
REMARK INTRA:                  -0.296
REMARK UNBOUND:                -0.312
REMARK SMILES O=c1cc(-c2ccc(O)c(O)c2)oc2cc(O)cc(O)c12
REMARK SMILES IDX 4 1 3 2 2 3 1 4 21 5 19 6 18 7 16 8 15 9 14 10 13 11 5 12
REMARK SMILES IDX 6 13 7 14 8 15 12 16 10 17 9 18 11 20 20 22 17 24
REMARK H PARENT 9 19 11 21 20 23 17 25
REMARK Flexibility Score: inf
ROOT
ATOM      1  C   UNL     1     -10.706  -6.231   8.795  1.00  0.00     0.138 A 
ATOM      2  C   UNL     1     -10.540  -5.262   7.795  1.00  0.00     0.100 A 
ATOM      3  C   UNL     1      -9.542  -5.426   6.834  1.00  0.00     0.197 A 
ATOM      4  O   UNL     1      -9.376  -4.510   5.987  1.00  0.00    -0.289 OA
ATOM      5  C   UNL     1      -8.728  -6.583   6.856  1.00  0.00     0.107 A 
ATOM      6  C   UNL     1      -7.706  -6.877   5.903  1.00  0.00     0.134 A 
ATOM      7  C   UNL     1      -6.886  -7.995   6.093  1.00  0.00     0.093 A 
ATOM      8  C   UNL     1      -7.087  -8.862   7.166  1.00  0.00     0.123 A 
ATOM      9  C   UNL     1      -8.117  -8.615   8.075  1.00  0.00     0.094 A 
ATOM     10  C   UNL     1      -8.931  -7.489   7.932  1.00  0.00     0.146 A 
ATOM     11  O   UNL     1      -9.892  -7.281   8.825  1.00  0.00    -0.456 OA
ENDROOT
BRANCH   1  12
ATOM     12  C   UNL     1     -11.752  -6.106   9.841  1.00  0.00     0.021 A 
ATOM     13  C   UNL     1     -12.003  -7.190  10.701  1.00  0.00     0.016 A 
ATOM     14  C   UNL     1     -12.987  -7.101  11.688  1.00  0.00     0.051 A 
ATOM     15  C   UNL     1     -13.744  -5.935  11.829  1.00  0.00     0.157 A 
ATOM     16  C   UNL     1     -12.527  -4.937   9.978  1.00  0.00     0.062 A 
ATOM     17  C   UNL     1     -13.516  -4.848  10.968  1.00  0.00     0.158 A 
BRANCH  15  18
ATOM     18  O   UNL     1     -14.718  -5.874  12.825  1.00  0.00    -0.504 OA
ATOM     19  H   UNL     1     -14.735  -5.135  13.517  1.00  0.00     0.293 HD
ENDBRANCH  15  18
BRANCH  17  20
ATOM     20  O   UNL     1     -14.275  -3.686  11.098  1.00  0.00    -0.504 OA
ATOM     21  H   UNL     1     -14.688  -3.418  11.984  1.00  0.00     0.293 HD
ENDBRANCH  17  20
ENDBRANCH   1  12
BRANCH   6  22
ATOM     22  O   UNL     1      -7.475  -6.122   4.749  1.00  0.00    -0.507 OA
ATOM     23  H   UNL     1      -7.743  -6.396   3.816  1.00  0.00     0.293 HD
ENDBRANCH   6  22
BRANCH   8  24
ATOM     24  O   UNL     1      -6.261  -9.974   7.315  1.00  0.00    -0.508 OA
ATOM     25  H   UNL     1      -5.676 -10.094   8.134  1.00  0.00     0.293 HD
ENDBRANCH   8  24
TORSDOF 5
ENDMDL
MODEL 3
REMARK VINA RESULT:    -6.664     12.973     14.874
REMARK INTER + INTRA:          -8.145
REMARK INTER:                  -7.882
REMARK INTRA:                  -0.264
REMARK UNBOUND:                -0.312
REMARK SMILES O=c1cc(-c2ccc(O)c(O)c2)oc2cc(O)cc(O)c12
REMARK SMILES IDX 4 1 3 2 2 3 1 4 21 5 19 6 18 7 16 8 15 9 14 10 13 11 5 12
REMARK SMILES IDX 6 13 7 14 8 15 12 16 10 17 9 18 11 20 20 22 17 24
REMARK H PARENT 9 19 11 21 20 23 17 25
REMARK Flexibility Score: inf
ROOT
ATOM      1  C   UNL     1     -18.721  -3.956  16.913  1.00  0.00     0.138 A 
ATOM      2  C   UNL     1     -17.908  -3.157  16.097  1.00  0.00     0.100 A 
ATOM      3  C   UNL     1     -17.154  -3.750  15.084  1.00  0.00     0.197 A 
ATOM      4  O   UNL     1     -16.386  -3.016  14.408  1.00  0.00    -0.289 OA
ATOM      5  C   UNL     1     -17.239  -5.146  14.868  1.00  0.00     0.107 A 
ATOM      6  C   UNL     1     -16.547  -5.853  13.839  1.00  0.00     0.134 A 
ATOM      7  C   UNL     1     -16.618  -7.250  13.795  1.00  0.00     0.093 A 
ATOM      8  C   UNL     1     -17.402  -7.961  14.703  1.00  0.00     0.123 A 
ATOM      9  C   UNL     1     -18.125  -7.277  15.680  1.00  0.00     0.094 A 
ATOM     10  C   UNL     1     -18.049  -5.885  15.772  1.00  0.00     0.146 A 
ATOM     11  O   UNL     1     -18.742  -5.271  16.724  1.00  0.00    -0.456 OA
ENDROOT
BRANCH   1  12
ATOM     12  C   UNL     1     -19.545  -3.378  18.005  1.00  0.00     0.021 A 
ATOM     13  C   UNL     1     -19.136  -3.540  19.340  1.00  0.00     0.016 A 
ATOM     14  C   UNL     1     -19.898  -3.012  20.385  1.00  0.00     0.051 A 
ATOM     15  C   UNL     1     -21.083  -2.323  20.119  1.00  0.00     0.157 A 
ATOM     16  C   UNL     1     -20.749  -2.693  17.742  1.00  0.00     0.062 A 
ATOM     17  C   UNL     1     -21.514  -2.165  18.791  1.00  0.00     0.158 A 
BRANCH  15  18
ATOM     18  O   UNL     1     -21.821  -1.805  21.183  1.00  0.00    -0.504 OA
ATOM     19  H   UNL     1     -22.231  -0.880  21.155  1.00  0.00     0.293 HD
ENDBRANCH  15  18
BRANCH  17  20
ATOM     20  O   UNL     1     -22.702  -1.487  18.520  1.00  0.00    -0.504 OA
ATOM     21  H   UNL     1     -23.408  -1.878  17.907  1.00  0.00     0.293 HD
ENDBRANCH  17  20
ENDBRANCH   1  12
BRANCH   6  22
ATOM     22  O   UNL     1     -15.804  -5.234  12.830  1.00  0.00    -0.507 OA
ATOM     23  H   UNL     1     -14.797  -5.233  12.773  1.00  0.00     0.293 HD
ENDBRANCH   6  22
BRANCH   8  24
ATOM     24  O   UNL     1     -17.461  -9.351  14.619  1.00  0.00    -0.508 OA
ATOM     25  H   UNL     1     -18.333  -9.835  14.443  1.00  0.00     0.293 HD
ENDBRANCH   8  24
TORSDOF 5
ENDMDL
MODEL 4
REMARK VINA RESULT:    -6.591      2.327      3.169
REMARK INTER + INTRA:          -8.059
REMARK INTER:                  -7.793
REMARK INTRA:                  -0.266
REMARK UNBOUND:                -0.312
REMARK SMILES O=c1cc(-c2ccc(O)c(O)c2)oc2cc(O)cc(O)c12
REMARK SMILES IDX 4 1 3 2 2 3 1 4 21 5 19 6 18 7 16 8 15 9 14 10 13 11 5 12
REMARK SMILES IDX 6 13 7 14 8 15 12 16 10 17 9 18 11 20 20 22 17 24
REMARK H PARENT 9 19 11 21 20 23 17 25
REMARK Flexibility Score: inf
ROOT
ATOM      1  C   UNL     1      -8.133  -5.808   8.989  1.00  0.00     0.138 A 
ATOM      2  C   UNL     1      -9.409  -5.499   9.480  1.00  0.00     0.100 A 
ATOM      3  C   UNL     1      -9.558  -5.094  10.807  1.00  0.00     0.197 A 
ATOM      4  O   UNL     1     -10.722  -4.884  11.237  1.00  0.00    -0.289 OA
ATOM      5  C   UNL     1      -8.418  -4.969  11.636  1.00  0.00     0.107 A 
ATOM      6  C   UNL     1      -8.445  -4.526  12.993  1.00  0.00     0.134 A 
ATOM      7  C   UNL     1      -7.269  -4.553  13.751  1.00  0.00     0.093 A 
ATOM      8  C   UNL     1      -6.057  -4.948  13.186  1.00  0.00     0.123 A 
ATOM      9  C   UNL     1      -6.008  -5.332  11.846  1.00  0.00     0.094 A 
ATOM     10  C   UNL     1      -7.171  -5.349  11.072  1.00  0.00     0.146 A 
ATOM     11  O   UNL     1      -7.086  -5.734   9.804  1.00  0.00    -0.456 OA
ENDROOT
BRANCH   1  12
ATOM     12  C   UNL     1      -7.918  -6.242   7.585  1.00  0.00     0.021 A 
ATOM     13  C   UNL     1      -7.507  -7.561   7.325  1.00  0.00     0.016 A 
ATOM     14  C   UNL     1      -7.290  -7.992   6.014  1.00  0.00     0.051 A 
ATOM     15  C   UNL     1      -7.469  -7.114   4.942  1.00  0.00     0.157 A 
ATOM     16  C   UNL     1      -8.084  -5.356   6.502  1.00  0.00     0.062 A 
ATOM     17  C   UNL     1      -7.864  -5.788   5.186  1.00  0.00     0.158 A 
BRANCH  15  18
ATOM     18  O   UNL     1      -7.247  -7.574   3.644  1.00  0.00    -0.504 OA
ATOM     19  H   UNL     1      -6.359  -7.448   3.173  1.00  0.00     0.293 HD
ENDBRANCH  15  18
BRANCH  17  20
ATOM     20  O   UNL     1      -8.034  -4.905   4.120  1.00  0.00    -0.504 OA
ATOM     21  H   UNL     1      -7.971  -3.901   4.248  1.00  0.00     0.293 HD
ENDBRANCH  17  20
ENDBRANCH   1  12
BRANCH   6  22
ATOM     22  O   UNL     1      -9.587  -4.030  13.630  1.00  0.00    -0.507 OA
ATOM     23  H   UNL     1     -10.015  -4.438  14.447  1.00  0.00     0.293 HD
ENDBRANCH   6  22
BRANCH   8  24
ATOM     24  O   UNL     1      -4.902  -4.948  13.967  1.00  0.00    -0.508 OA
ATOM     25  H   UNL     1      -4.196  -4.229  13.868  1.00  0.00     0.293 HD
ENDBRANCH   8  24
TORSDOF 5
ENDMDL
MODEL 5
REMARK VINA RESULT:    -6.430     14.279     16.334
REMARK INTER + INTRA:          -7.870
REMARK INTER:                  -7.552
REMARK INTRA:                  -0.318
REMARK UNBOUND:                -0.312
REMARK SMILES O=c1cc(-c2ccc(O)c(O)c2)oc2cc(O)cc(O)c12
REMARK SMILES IDX 4 1 3 2 2 3 1 4 21 5 19 6 18 7 16 8 15 9 14 10 13 11 5 12
REMARK SMILES IDX 6 13 7 14 8 15 12 16 10 17 9 18 11 20 20 22 17 24
REMARK H PARENT 9 19 11 21 20 23 17 25
REMARK Flexibility Score: inf
ROOT
ATOM      1  C   UNL     1     -19.718  -3.864  18.638  1.00  0.00     0.138 A 
ATOM      2  C   UNL     1     -19.378  -5.224  18.614  1.00  0.00     0.100 A 
ATOM      3  C   UNL     1     -18.718  -5.751  17.504  1.00  0.00     0.197 A 
ATOM      4  O   UNL     1     -18.481  -6.987  17.484  1.00  0.00    -0.289 OA
ATOM      5  C   UNL     1     -18.368  -4.903  16.426  1.00  0.00     0.107 A 
ATOM      6  C   UNL     1     -17.657  -5.322  15.260  1.00  0.00     0.134 A 
ATOM      7  C   UNL     1     -17.470  -4.420  14.206  1.00  0.00     0.093 A 
ATOM      8  C   UNL     1     -17.913  -3.101  14.299  1.00  0.00     0.123 A 
ATOM      9  C   UNL     1     -18.561  -2.666  15.455  1.00  0.00     0.094 A 
ATOM     10  C   UNL     1     -18.794  -3.551  16.511  1.00  0.00     0.146 A 
ATOM     11  O   UNL     1     -19.427  -3.102  17.589  1.00  0.00    -0.456 OA
ENDROOT
BRANCH   1  12
ATOM     12  C   UNL     1     -20.421  -3.252  19.794  1.00  0.00     0.021 A 
ATOM     13  C   UNL     1     -20.716  -4.040  20.920  1.00  0.00     0.016 A 
ATOM     14  C   UNL     1     -21.383  -3.491  22.017  1.00  0.00     0.051 A 
ATOM     15  C   UNL     1     -21.776  -2.150  22.007  1.00  0.00     0.157 A 
ATOM     16  C   UNL     1     -20.832  -1.904  19.782  1.00  0.00     0.062 A 
ATOM     17  C   UNL     1     -21.503  -1.353  20.883  1.00  0.00     0.158 A 
BRANCH  15  18
ATOM     18  O   UNL     1     -22.439  -1.629  23.118  1.00  0.00    -0.504 OA
ATOM     19  H   UNL     1     -22.174  -1.870  24.065  1.00  0.00     0.293 HD
ENDBRANCH  15  18
BRANCH  17  20
ATOM     20  O   UNL     1     -21.903  -0.017  20.863  1.00  0.00    -0.504 OA
ATOM     21  H   UNL     1     -21.277   0.720  20.558  1.00  0.00     0.293 HD
ENDBRANCH  17  20
ENDBRANCH   1  12
BRANCH   6  22
ATOM     22  O   UNL     1     -17.099  -6.593  15.101  1.00  0.00    -0.507 OA
ATOM     23  H   UNL     1     -16.792  -7.188  15.856  1.00  0.00     0.293 HD
ENDBRANCH   6  22
BRANCH   8  24
ATOM     24  O   UNL     1     -17.695  -2.226  13.236  1.00  0.00    -0.508 OA
ATOM     25  H   UNL     1     -17.354  -1.285  13.386  1.00  0.00     0.293 HD
ENDBRANCH   8  24
TORSDOF 5
ENDMDL
MODEL 6
REMARK VINA RESULT:    -6.370     12.833     14.652
REMARK INTER + INTRA:          -7.800
REMARK INTER:                  -7.530
REMARK INTRA:                  -0.270
REMARK UNBOUND:                -0.312
REMARK SMILES O=c1cc(-c2ccc(O)c(O)c2)oc2cc(O)cc(O)c12
REMARK SMILES IDX 4 1 3 2 2 3 1 4 21 5 19 6 18 7 16 8 15 9 14 10 13 11 5 12
REMARK SMILES IDX 6 13 7 14 8 15 12 16 10 17 9 18 11 20 20 22 17 24
REMARK H PARENT 9 19 11 21 20 23 17 25
REMARK Flexibility Score: inf
ROOT
ATOM      1  C   UNL     1     -18.711  -3.901  16.938  1.00  0.00     0.138 A 
ATOM      2  C   UNL     1     -18.693  -5.274  16.657  1.00  0.00     0.100 A 
ATOM      3  C   UNL     1     -17.900  -5.755  15.614  1.00  0.00     0.197 A 
ATOM      4  O   UNL     1     -17.952  -6.983  15.345  1.00  0.00    -0.289 OA
ATOM      5  C   UNL     1     -17.098  -4.857  14.870  1.00  0.00     0.107 A 
ATOM      6  C   UNL     1     -16.219  -5.239  13.811  1.00  0.00     0.134 A 
ATOM      7  C   UNL     1     -15.563  -4.250  13.069  1.00  0.00     0.093 A 
ATOM      8  C   UNL     1     -15.706  -2.899  13.384  1.00  0.00     0.123 A 
ATOM      9  C   UNL     1     -16.519  -2.517  14.451  1.00  0.00     0.094 A 
ATOM     10  C   UNL     1     -17.215  -3.478  15.189  1.00  0.00     0.146 A 
ATOM     11  O   UNL     1     -17.991  -3.073  16.189  1.00  0.00    -0.456 OA
ENDROOT
BRANCH   1  12
ATOM     12  C   UNL     1     -19.536  -3.337  18.036  1.00  0.00     0.021 A 
ATOM     13  C   UNL     1     -19.136  -3.529  19.370  1.00  0.00     0.016 A 
ATOM     14  C   UNL     1     -19.898  -3.016  20.422  1.00  0.00     0.051 A 
ATOM     15  C   UNL     1     -21.077  -2.311  20.163  1.00  0.00     0.157 A 
ATOM     16  C   UNL     1     -20.732  -2.638  17.781  1.00  0.00     0.062 A 
ATOM     17  C   UNL     1     -21.499  -2.124  18.836  1.00  0.00     0.158 A 
BRANCH  15  18
ATOM     18  O   UNL     1     -21.816  -1.809  21.234  1.00  0.00    -0.504 OA
ATOM     19  H   UNL     1     -21.837  -2.268  22.136  1.00  0.00     0.293 HD
ENDBRANCH  15  18
BRANCH  17  20
ATOM     20  O   UNL     1     -22.680  -1.431  18.573  1.00  0.00    -0.504 OA
ATOM     21  H   UNL     1     -23.554  -1.917  18.404  1.00  0.00     0.293 HD
ENDBRANCH  17  20
ENDBRANCH   1  12
BRANCH   6  22
ATOM     22  O   UNL     1     -15.941  -6.565  13.468  1.00  0.00    -0.507 OA
ATOM     23  H   UNL     1     -15.402  -7.206  14.030  1.00  0.00     0.293 HD
ENDBRANCH   6  22
BRANCH   8  24
ATOM     24  O   UNL     1     -15.025  -1.942  12.633  1.00  0.00    -0.508 OA
ATOM     25  H   UNL     1     -14.782  -2.104  11.663  1.00  0.00     0.293 HD
ENDBRANCH   8  24
TORSDOF 5
ENDMDL
MODEL 7
REMARK VINA RESULT:    -6.355      4.150      4.790
REMARK INTER + INTRA:          -7.782
REMARK INTER:                  -7.497
REMARK INTRA:                  -0.285
REMARK UNBOUND:                -0.312
REMARK SMILES O=c1cc(-c2ccc(O)c(O)c2)oc2cc(O)cc(O)c12
REMARK SMILES IDX 4 1 3 2 2 3 1 4 21 5 19 6 18 7 16 8 15 9 14 10 13 11 5 12
REMARK SMILES IDX 6 13 7 14 8 15 12 16 10 17 9 18 11 20 20 22 17 24
REMARK H PARENT 9 19 11 21 20 23 17 25
REMARK Flexibility Score: inf
ROOT
ATOM      1  C   UNL     1      -9.847  -7.110   9.186  1.00  0.00     0.138 A 
ATOM      2  C   UNL     1     -10.785  -8.032   9.670  1.00  0.00     0.100 A 
ATOM      3  C   UNL     1     -11.708  -7.634  10.638  1.00  0.00     0.197 A 
ATOM      4  O   UNL     1     -12.497  -8.500  11.099  1.00  0.00    -0.289 OA
ATOM      5  C   UNL     1     -11.709  -6.296  11.100  1.00  0.00     0.107 A 
ATOM      6  C   UNL     1     -12.629  -5.767  12.055  1.00  0.00     0.134 A 
ATOM      7  C   UNL     1     -12.461  -4.459  12.523  1.00  0.00     0.093 A 
ATOM      8  C   UNL     1     -11.446  -3.642  12.029  1.00  0.00     0.123 A 
ATOM      9  C   UNL     1     -10.573  -4.130  11.056  1.00  0.00     0.094 A 
ATOM     10  C   UNL     1     -10.693  -5.443  10.593  1.00  0.00     0.146 A 
ATOM     11  O   UNL     1      -9.835  -5.875   9.676  1.00  0.00    -0.456 OA
ENDROOT
BRANCH   1  12
ATOM     12  C   UNL     1      -8.844  -7.480   8.155  1.00  0.00     0.021 A 
ATOM     13  C   UNL     1      -8.024  -8.604   8.361  1.00  0.00     0.016 A 
ATOM     14  C   UNL     1      -7.067  -8.968   7.410  1.00  0.00     0.051 A 
ATOM     15  C   UNL     1      -6.905  -8.215   6.245  1.00  0.00     0.157 A 
ATOM     16  C   UNL     1      -8.666  -6.715   6.985  1.00  0.00     0.062 A 
ATOM     17  C   UNL     1      -7.705  -7.080   6.032  1.00  0.00     0.158 A 
BRANCH  15  18
ATOM     18  O   UNL     1      -5.943  -8.605   5.314  1.00  0.00    -0.504 OA
ATOM     19  H   UNL     1      -5.035  -8.159   5.258  1.00  0.00     0.293 HD
ENDBRANCH  15  18
BRANCH  17  20
ATOM     20  O   UNL     1      -7.539  -6.318   4.876  1.00  0.00    -0.504 OA
ATOM     21  H   UNL     1      -6.626  -5.993   4.582  1.00  0.00     0.293 HD
ENDBRANCH  17  20
ENDBRANCH   1  12
BRANCH   6  22
ATOM     22  O   UNL     1     -13.730  -6.472  12.552  1.00  0.00    -0.507 OA
ATOM     23  H   UNL     1     -14.037  -6.460  13.512  1.00  0.00     0.293 HD
ENDBRANCH   6  22
BRANCH   8  24
ATOM     24  O   UNL     1     -11.318  -2.339  12.507  1.00  0.00    -0.508 OA
ATOM     25  H   UNL     1     -10.641  -1.695  12.116  1.00  0.00     0.293 HD
ENDBRANCH   8  24
TORSDOF 5
ENDMDL
MODEL 8
REMARK VINA RESULT:    -6.334      4.199      4.982
REMARK INTER + INTRA:          -7.757
REMARK INTER:                  -7.492
REMARK INTRA:                  -0.265
REMARK UNBOUND:                -0.312
REMARK SMILES O=c1cc(-c2ccc(O)c(O)c2)oc2cc(O)cc(O)c12
REMARK SMILES IDX 4 1 3 2 2 3 1 4 21 5 19 6 18 7 16 8 15 9 14 10 13 11 5 12
REMARK SMILES IDX 6 13 7 14 8 15 12 16 10 17 9 18 11 20 20 22 17 24
REMARK H PARENT 9 19 11 21 20 23 17 25
REMARK Flexibility Score: inf
ROOT
ATOM      1  C   UNL     1      -9.721  -5.384   9.289  1.00  0.00     0.138 A 
ATOM      2  C   UNL     1      -8.974  -5.168  10.455  1.00  0.00     0.100 A 
ATOM      3  C   UNL     1      -9.627  -4.829  11.640  1.00  0.00     0.197 A 
ATOM      4  O   UNL     1      -8.926  -4.579  12.655  1.00  0.00    -0.289 OA
ATOM      5  C   UNL     1     -11.040  -4.737  11.663  1.00  0.00     0.107 A 
ATOM      6  C   UNL     1     -11.816  -4.439  12.823  1.00  0.00     0.134 A 
ATOM      7  C   UNL     1     -13.199  -4.260  12.701  1.00  0.00     0.093 A 
ATOM      8  C   UNL     1     -13.841  -4.428  11.475  1.00  0.00     0.123 A 
ATOM      9  C   UNL     1     -13.100  -4.772  10.344  1.00  0.00     0.094 A 
ATOM     10  C   UNL     1     -11.713  -4.924  10.426  1.00  0.00     0.146 A 
ATOM     11  O   UNL     1     -11.041  -5.239   9.325  1.00  0.00    -0.456 OA
ENDROOT
BRANCH   1  12
ATOM     12  C   UNL     1      -9.076  -5.748   8.001  1.00  0.00     0.021 A 
ATOM     13  C   UNL     1      -8.780  -7.096   7.733  1.00  0.00     0.016 A 
ATOM     14  C   UNL     1      -8.166  -7.463   6.533  1.00  0.00     0.051 A 
ATOM     15  C   UNL     1      -7.829  -6.493   5.585  1.00  0.00     0.157 A 
ATOM     16  C   UNL     1      -8.721  -4.772   7.049  1.00  0.00     0.062 A 
ATOM     17  C   UNL     1      -8.104  -5.140   5.845  1.00  0.00     0.158 A 
BRANCH  15  18
ATOM     18  O   UNL     1      -7.219  -6.890   4.396  1.00  0.00    -0.504 OA
ATOM     19  H   UNL     1      -7.500  -6.519   3.496  1.00  0.00     0.293 HD
ENDBRANCH  15  18
BRANCH  17  20
ATOM     20  O   UNL     1      -7.759  -4.167   4.908  1.00  0.00    -0.504 OA
ATOM     21  H   UNL     1      -7.340  -3.287   5.186  1.00  0.00     0.293 HD
ENDBRANCH  17  20
ENDBRANCH   1  12
BRANCH   6  22
ATOM     22  O   UNL     1     -11.285  -4.334  14.112  1.00  0.00    -0.507 OA
ATOM     23  H   UNL     1     -10.594  -4.955  14.505  1.00  0.00     0.293 HD
ENDBRANCH   6  22
BRANCH   8  24
ATOM     24  O   UNL     1     -15.222  -4.257  11.393  1.00  0.00    -0.508 OA
ATOM     25  H   UNL     1     -15.791  -4.829  10.780  1.00  0.00     0.293 HD
ENDBRANCH   8  24
TORSDOF 5
ENDMDL
MODEL 9
REMARK VINA RESULT:    -6.266      3.973      6.750
REMARK INTER + INTRA:          -7.678
REMARK INTER:                  -7.414
REMARK INTRA:                  -0.264
REMARK UNBOUND:                -0.312
REMARK SMILES O=c1cc(-c2ccc(O)c(O)c2)oc2cc(O)cc(O)c12
REMARK SMILES IDX 4 1 3 2 2 3 1 4 21 5 19 6 18 7 16 8 15 9 14 10 13 11 5 12
REMARK SMILES IDX 6 13 7 14 8 15 12 16 10 17 9 18 11 20 20 22 17 24
REMARK H PARENT 9 19 11 21 20 23 17 25
REMARK Flexibility Score: inf
ROOT
ATOM      1  C   UNL     1     -10.378  -5.547   9.322  1.00  0.00     0.138 A 
ATOM      2  C   UNL     1      -9.918  -6.865   9.453  1.00  0.00     0.100 A 
ATOM      3  C   UNL     1      -9.131  -7.425   8.446  1.00  0.00     0.197 A 
ATOM      4  O   UNL     1      -8.785  -8.630   8.562  1.00  0.00    -0.289 OA
ATOM      5  C   UNL     1      -8.777  -6.649   7.317  1.00  0.00     0.107 A 
ATOM      6  C   UNL     1      -7.946  -7.101   6.248  1.00  0.00     0.134 A 
ATOM      7  C   UNL     1      -7.760  -6.284   5.126  1.00  0.00     0.093 A 
ATOM      8  C   UNL     1      -8.324  -5.011   5.060  1.00  0.00     0.123 A 
ATOM      9  C   UNL     1      -9.094  -4.537   6.123  1.00  0.00     0.094 A 
ATOM     10  C   UNL     1      -9.326  -5.341   7.241  1.00  0.00     0.146 A 
ATOM     11  O   UNL     1     -10.077  -4.859   8.226  1.00  0.00    -0.456 OA
ENDROOT
BRANCH   1  12
ATOM     12  C   UNL     1     -11.217  -4.903  10.364  1.00  0.00     0.021 A 
ATOM     13  C   UNL     1     -12.614  -5.051  10.315  1.00  0.00     0.016 A 
ATOM     14  C   UNL     1     -13.427  -4.448  11.278  1.00  0.00     0.051 A 
ATOM     15  C   UNL     1     -12.862  -3.681  12.300  1.00  0.00     0.157 A 
ATOM     16  C   UNL     1     -10.653  -4.116  11.387  1.00  0.00     0.062 A 
ATOM     17  C   UNL     1     -11.468  -3.510  12.354  1.00  0.00     0.158 A 
BRANCH  15  18
ATOM     18  O   UNL     1     -13.698  -3.093  13.249  1.00  0.00    -0.504 OA
ATOM     19  H   UNL     1     -14.581  -2.665  12.997  1.00  0.00     0.293 HD
ENDBRANCH  15  18
BRANCH  17  20
ATOM     20  O   UNL     1     -10.900  -2.735  13.365  1.00  0.00    -0.504 OA
ATOM     21  H   UNL     1     -11.425  -2.006  13.833  1.00  0.00     0.293 HD
ENDBRANCH  17  20
ENDBRANCH   1  12
BRANCH   6  22
ATOM     22  O   UNL     1      -7.267  -8.323   6.250  1.00  0.00    -0.507 OA
ATOM     23  H   UNL     1      -6.286  -8.439   6.045  1.00  0.00     0.293 HD
ENDBRANCH   6  22
BRANCH   8  24
ATOM     24  O   UNL     1      -8.104  -4.219   3.934  1.00  0.00    -0.508 OA
ATOM     25  H   UNL     1      -8.444  -4.492   3.020  1.00  0.00     0.293 HD
ENDBRANCH   8  24
TORSDOF 5
ENDMDL
