MODEL 1
REMARK VINA RESULT:    -7.606      0.000      0.000
REMARK INTER + INTRA:         -14.698
REMARK INTER:                 -12.497
REMARK INTRA:                  -2.200
REMARK UNBOUND:                -2.200
REMARK SMILES C[C@@H]1O[C@H](OC[C@@H]2O[C@H](Oc3c(-c4ccc(O)c(O)c4)oc4cc(O)cc(O)c4c3=O)[C@@H](O)[C@H](O)[C@@H]2O)[C@@H](O)[C@H](O)[C@H]1O
REMARK SMILES IDX 7 1 36 2 34 3 32 4 9 5 8 6 6 7 5 8 4 9 1 10 2 11 42 12 3 13
REMARK SMILES IDX 40 14 38 15 43 16 41 18 39 20 37 22 35 24 10 26 11 27 12 28
REMARK SMILES IDX 30 29 21 30 29 31 31 32 22 33 27 34 23 35 26 36 24 37 13 38
REMARK SMILES IDX 20 39 14 40 18 41 15 42 16 43 19 44 17 46 28 48 25 50 33 52
REMARK H PARENT 43 17 41 19 39 21 37 23 35 25 19 45 17 47 28 49 25 51 33 53
REMARK Flexibility Score: inf
ROOT
ATOM      1  C   UNL     1      -1.926   4.617  15.962  1.00  0.00     0.180 C 
ATOM      2  C   UNL     1      -2.454   3.159  15.838  1.00  0.00     0.177 C 
ATOM      3  C   UNL     1      -3.775   2.957  16.604  1.00  0.00     0.180 C 
ATOM      4  C   UNL     1      -4.582   4.275  16.692  1.00  0.00     0.214 C 
ATOM      5  C   UNL     1      -4.226   5.215  15.495  1.00  0.00     0.339 C 
ATOM      6  O   UNL     1      -2.853   5.604  15.452  1.00  0.00    -0.332 OA
ENDROOT
BRANCH   1   7
ATOM      7  C   UNL     1      -1.488   5.014  17.386  1.00  0.00     0.198 C 
BRANCH   7   8
ATOM      8  O   UNL     1      -0.183   5.577  17.340  1.00  0.00    -0.347 OA
BRANCH   8   9
ATOM      9  C   UNL     1      -0.100   6.791  18.066  1.00  0.00     0.281 C 
ATOM     10  C   UNL     1       0.661   7.277  21.606  1.00  0.00     0.041 C 
ATOM     11  C   UNL     1       0.480   7.687  20.139  1.00  0.00     0.150 C 
ATOM     12  C   UNL     1       1.686   8.475  19.615  1.00  0.00     0.174 C 
ATOM     13  O   UNL     1       0.317   6.508  19.386  1.00  0.00    -0.344 OA
ATOM     14  C   UNL     1       1.416   8.884  18.170  1.00  0.00     0.179 C 
ATOM     15  C   UNL     1       0.919   7.675  17.326  1.00  0.00     0.202 C 
BRANCH  12  16
ATOM     16  O   UNL     1       1.883   9.617  20.418  1.00  0.00    -0.388 OA
ATOM     17  H   UNL     1       1.312  10.359  20.075  1.00  0.00     0.211 HD
ENDBRANCH  12  16
BRANCH  14  18
ATOM     18  O   UNL     1       2.596   9.396  17.588  1.00  0.00    -0.387 OA
ATOM     19  H   UNL     1       3.373   9.128  18.145  1.00  0.00     0.211 HD
ENDBRANCH  14  18
BRANCH  15  20
ATOM     20  O   UNL     1       0.362   8.143  16.131  1.00  0.00    -0.385 OA
ATOM     21  H   UNL     1       0.581   9.103  16.058  1.00  0.00     0.211 HD
ENDBRANCH  15  20
ENDBRANCH   8   9
ENDBRANCH   7   8
ENDBRANCH   1   7
BRANCH   2  22
ATOM     22  O   UNL     1      -1.541   2.117  16.112  1.00  0.00    -0.387 OA
ATOM     23  H   UNL     1      -1.030   1.908  15.298  1.00  0.00     0.211 HD
ENDBRANCH   2  22
BRANCH   3  24
ATOM     24  O   UNL     1      -3.532   2.491  17.905  1.00  0.00    -0.387 OA
ATOM     25  H   UNL     1      -2.648   2.018  17.921  1.00  0.00     0.211 HD
ENDBRANCH   3  24
BRANCH   5  26
ATOM     26  O   UNL     1      -5.119   6.336  15.547  1.00  0.00    -0.454 OA
BRANCH  26  27
ATOM     27  C   UNL     1      -6.019   6.832  14.582  1.00  0.00     0.214 A 
ATOM     28  C   UNL     1      -5.591   7.894  13.757  1.00  0.00     0.180 A 
ATOM     29  C   UNL     1      -7.270   6.212  14.303  1.00  0.00     0.239 A 
ATOM     30  O   UNL     1      -6.309   8.246  12.709  1.00  0.00    -0.452 OA
ATOM     31  C   UNL     1      -8.059   6.715  13.270  1.00  0.00     0.111 A 
ATOM     32  O   UNL     1      -7.623   5.172  14.924  1.00  0.00    -0.285 OA
ATOM     33  C   UNL     1      -7.507   7.727  12.439  1.00  0.00     0.146 A 
ATOM     34  C   UNL     1      -9.379   6.287  13.039  1.00  0.00     0.134 A 
ATOM     35  C   UNL     1      -8.202   8.154  11.320  1.00  0.00     0.094 A 
ATOM     36  C   UNL     1     -10.080   6.785  11.940  1.00  0.00     0.093 A 
ATOM     37  C   UNL     1      -9.474   7.675  11.054  1.00  0.00     0.123 A 
BRANCH  28  38
ATOM     38  C   UNL     1      -4.340   8.628  14.012  1.00  0.00     0.025 A 
ATOM     39  C   UNL     1      -3.178   8.253  13.339  1.00  0.00     0.062 A 
ATOM     40  C   UNL     1      -4.326   9.809  14.787  1.00  0.00     0.016 A 
ATOM     41  C   UNL     1      -2.037   9.049  13.402  1.00  0.00     0.158 A 
ATOM     42  C   UNL     1      -3.184  10.600  14.876  1.00  0.00     0.051 A 
ATOM     43  C   UNL     1      -2.057  10.249  14.128  1.00  0.00     0.157 A 
BRANCH  41  44
ATOM     44  O   UNL     1      -0.856   8.676  12.758  1.00  0.00    -0.504 OA
ATOM     45  H   UNL     1      -0.870   7.983  12.033  1.00  0.00     0.293 HD
ENDBRANCH  41  44
BRANCH  43  46
ATOM     46  O   UNL     1      -0.987  11.125  14.060  1.00  0.00    -0.504 OA
ATOM     47  H   UNL     1      -0.382  11.284  14.840  1.00  0.00     0.293 HD
ENDBRANCH  43  46
ENDBRANCH  28  38
BRANCH  34  48
ATOM     48  O   UNL     1      -9.999   5.385  13.890  1.00  0.00    -0.507 OA
ATOM     49  H   UNL     1      -9.665   4.435  13.988  1.00  0.00     0.293 HD
ENDBRANCH  34  48
BRANCH  37  50
ATOM     50  O   UNL     1     -10.125   8.046   9.875  1.00  0.00    -0.508 OA
ATOM     51  H   UNL     1     -10.533   7.325   9.287  1.00  0.00     0.293 HD
ENDBRANCH  37  50
ENDBRANCH  26  27
ENDBRANCH   5  26
BRANCH   4  52
ATOM     52  O   UNL     1      -5.960   4.025  16.685  1.00  0.00    -0.384 OA
ATOM     53  H   UNL     1      -6.393   4.909  16.580  1.00  0.00     0.211 HD
ENDBRANCH   4  52
TORSDOF 16
ENDMDL
MODEL 2
REMARK VINA RESULT:    -6.252     12.036     15.996
REMARK INTER + INTRA:         -12.473
REMARK INTER:                 -10.200
REMARK INTRA:                  -2.274
REMARK UNBOUND:                -2.200
REMARK SMILES C[C@@H]1O[C@H](OC[C@@H]2O[C@H](Oc3c(-c4ccc(O)c(O)c4)oc4cc(O)cc(O)c4c3=O)[C@@H](O)[C@H](O)[C@@H]2O)[C@@H](O)[C@H](O)[C@H]1O
REMARK SMILES IDX 7 1 36 2 34 3 32 4 9 5 8 6 6 7 5 8 4 9 1 10 2 11 42 12 3 13
REMARK SMILES IDX 40 14 38 15 43 16 41 18 39 20 37 22 35 24 10 26 11 27 12 28
REMARK SMILES IDX 30 29 21 30 29 31 31 32 22 33 27 34 23 35 26 36 24 37 13 38
REMARK SMILES IDX 20 39 14 40 18 41 15 42 16 43 19 44 17 46 28 48 25 50 33 52
REMARK H PARENT 43 17 41 19 39 21 37 23 35 25 19 45 17 47 28 49 25 51 33 53
REMARK Flexibility Score: inf
ROOT
ATOM      1  C   UNL     1      -3.820  -6.470  23.035  1.00  0.00     0.180 C 
ATOM      2  C   UNL     1      -3.480  -7.984  23.140  1.00  0.00     0.177 C 
ATOM      3  C   UNL     1      -4.717  -8.831  23.495  1.00  0.00     0.180 C 
ATOM      4  C   UNL     1      -6.019  -8.164  22.990  1.00  0.00     0.214 C 
ATOM      5  C   UNL     1      -5.723  -7.251  21.756  1.00  0.00     0.339 C 
ATOM      6  O   UNL     1      -4.820  -6.180  22.030  1.00  0.00    -0.332 OA
ENDROOT
BRANCH   1   7
ATOM      7  C   UNL     1      -4.232  -5.819  24.370  1.00  0.00     0.198 C 
BRANCH   7   8
ATOM      8  O   UNL     1      -3.065  -5.466  25.104  1.00  0.00    -0.347 OA
BRANCH   8   9
ATOM      9  C   UNL     1      -2.951  -6.201  26.310  1.00  0.00     0.281 C 
ATOM     10  C   UNL     1      -0.863  -9.117  27.008  1.00  0.00     0.041 C 
ATOM     11  C   UNL     1      -1.749  -7.910  27.345  1.00  0.00     0.150 C 
ATOM     12  C   UNL     1      -1.100  -7.004  28.397  1.00  0.00     0.174 C 
ATOM     13  O   UNL     1      -1.952  -7.187  26.152  1.00  0.00    -0.344 OA
ATOM     14  C   UNL     1      -2.054  -5.854  28.711  1.00  0.00     0.179 C 
ATOM     15  C   UNL     1      -2.581  -5.188  27.407  1.00  0.00     0.202 C 
BRANCH  12  16
ATOM     16  O   UNL     1      -0.837  -7.753  29.562  1.00  0.00    -0.388 OA
ATOM     17  H   UNL     1       0.018  -8.252  29.442  1.00  0.00     0.211 HD
ENDBRANCH  12  16
BRANCH  14  18
ATOM     18  O   UNL     1      -1.390  -4.880  29.488  1.00  0.00    -0.387 OA
ATOM     19  H   UNL     1      -1.577  -5.050  30.447  1.00  0.00     0.211 HD
ENDBRANCH  14  18
BRANCH  15  20
ATOM     20  O   UNL     1      -3.690  -4.391  27.711  1.00  0.00    -0.385 OA
ATOM     21  H   UNL     1      -3.698  -4.255  28.689  1.00  0.00     0.211 HD
ENDBRANCH  15  20
ENDBRANCH   8   9
ENDBRANCH   7   8
ENDBRANCH   1   7
BRANCH   2  22
ATOM     22  O   UNL     1      -2.370  -8.342  23.938  1.00  0.00    -0.387 OA
ATOM     23  H   UNL     1      -2.469  -9.274  24.235  1.00  0.00     0.211 HD
ENDBRANCH   2  22
BRANCH   3  24
ATOM     24  O   UNL     1      -4.815  -9.014  24.883  1.00  0.00    -0.387 OA
ATOM     25  H   UNL     1      -4.935  -9.991  25.074  1.00  0.00     0.211 HD
ENDBRANCH   3  24
BRANCH   5  26
ATOM     26  O   UNL     1      -6.983  -6.799  21.243  1.00  0.00    -0.454 OA
BRANCH  26  27
ATOM     27  C   UNL     1      -7.526  -5.500  21.169  1.00  0.00     0.214 A 
ATOM     28  C   UNL     1      -8.228  -5.007  22.290  1.00  0.00     0.180 A 
ATOM     29  C   UNL     1      -7.267  -4.615  20.083  1.00  0.00     0.239 A 
ATOM     30  O   UNL     1      -8.566  -3.734  22.350  1.00  0.00    -0.452 OA
ATOM     31  C   UNL     1      -7.770  -3.317  20.133  1.00  0.00     0.111 A 
ATOM     32  O   UNL     1      -6.523  -4.974  19.129  1.00  0.00    -0.285 OA
ATOM     33  C   UNL     1      -8.387  -2.885  21.338  1.00  0.00     0.146 A 
ATOM     34  C   UNL     1      -7.720  -2.436  19.038  1.00  0.00     0.134 A 
ATOM     35  C   UNL     1      -8.774  -1.562  21.478  1.00  0.00     0.094 A 
ATOM     36  C   UNL     1      -8.179  -1.127  19.189  1.00  0.00     0.093 A 
ATOM     37  C   UNL     1      -8.655  -0.677  20.420  1.00  0.00     0.123 A 
BRANCH  28  38
ATOM     38  C   UNL     1      -8.589  -5.870  23.428  1.00  0.00     0.025 A 
ATOM     39  C   UNL     1      -7.991  -5.650  24.669  1.00  0.00     0.062 A 
ATOM     40  C   UNL     1      -9.650  -6.798  23.339  1.00  0.00     0.016 A 
ATOM     41  C   UNL     1      -8.458  -6.308  25.803  1.00  0.00     0.158 A 
ATOM     42  C   UNL     1     -10.109  -7.479  24.463  1.00  0.00     0.051 A 
ATOM     43  C   UNL     1      -9.551  -7.183  25.710  1.00  0.00     0.157 A 
BRANCH  41  44
ATOM     44  O   UNL     1      -7.855  -6.123  27.050  1.00  0.00    -0.504 OA
ATOM     45  H   UNL     1      -8.296  -5.551  27.746  1.00  0.00     0.293 HD
ENDBRANCH  41  44
BRANCH  43  46
ATOM     46  O   UNL     1     -10.125  -7.710  26.853  1.00  0.00    -0.504 OA
ATOM     47  H   UNL     1     -10.240  -7.170  27.686  1.00  0.00     0.293 HD
ENDBRANCH  43  46
ENDBRANCH  28  38
BRANCH  34  48
ATOM     48  O   UNL     1      -7.231  -2.848  17.808  1.00  0.00    -0.507 OA
ATOM     49  H   UNL     1      -7.415  -2.323  16.964  1.00  0.00     0.293 HD
ENDBRANCH  34  48
BRANCH  37  50
ATOM     50  O   UNL     1      -8.965   0.672  20.604  1.00  0.00    -0.508 OA
ATOM     51  H   UNL     1      -8.216   1.358  20.593  1.00  0.00     0.293 HD
ENDBRANCH  37  50
ENDBRANCH  26  27
ENDBRANCH   5  26
BRANCH   4  52
ATOM     52  O   UNL     1      -6.972  -9.125  22.632  1.00  0.00    -0.384 OA
ATOM     53  H   UNL     1      -7.717  -9.017  23.275  1.00  0.00     0.211 HD
ENDBRANCH   4  52
TORSDOF 16
ENDMDL
MODEL 3
REMARK VINA RESULT:    -6.174      3.301      8.999
REMARK INTER + INTRA:         -12.344
REMARK INTER:                 -10.787
REMARK INTRA:                  -1.556
REMARK UNBOUND:                -2.200
REMARK SMILES C[C@@H]1O[C@H](OC[C@@H]2O[C@H](Oc3c(-c4ccc(O)c(O)c4)oc4cc(O)cc(O)c4c3=O)[C@@H](O)[C@H](O)[C@@H]2O)[C@@H](O)[C@H](O)[C@H]1O
REMARK SMILES IDX 7 1 36 2 34 3 32 4 9 5 8 6 6 7 5 8 4 9 1 10 2 11 42 12 3 13
REMARK SMILES IDX 40 14 38 15 43 16 41 18 39 20 37 22 35 24 10 26 11 27 12 28
REMARK SMILES IDX 30 29 21 30 29 31 31 32 22 33 27 34 23 35 26 36 24 37 13 38
REMARK SMILES IDX 20 39 14 40 18 41 15 42 16 43 19 44 17 46 28 48 25 50 33 52
REMARK H PARENT 43 17 41 19 39 21 37 23 35 25 19 45 17 47 28 49 25 51 33 53
REMARK Flexibility Score: inf
ROOT
ATOM      1  C   UNL     1      -3.632   8.935  12.319  1.00  0.00     0.180 C 
ATOM      2  C   UNL     1      -3.126   9.724  13.561  1.00  0.00     0.177 C 
ATOM      3  C   UNL     1      -4.019   9.491  14.795  1.00  0.00     0.180 C 
ATOM      4  C   UNL     1      -4.701   8.104  14.743  1.00  0.00     0.214 C 
ATOM      5  C   UNL     1      -3.849   7.106  13.892  1.00  0.00     0.339 C 
ATOM      6  O   UNL     1      -3.675   7.504  12.532  1.00  0.00    -0.332 OA
ENDROOT
BRANCH   1   7
ATOM      7  C   UNL     1      -4.994   9.413  11.776  1.00  0.00     0.198 C 
BRANCH   7   8
ATOM      8  O   UNL     1      -5.005   9.296  10.358  1.00  0.00    -0.347 OA
BRANCH   8   9
ATOM      9  C   UNL     1      -6.211   8.728   9.879  1.00  0.00     0.281 C 
ATOM     10  C   UNL     1      -7.333   5.258  10.092  1.00  0.00     0.041 C 
ATOM     11  C   UNL     1      -7.476   6.769   9.875  1.00  0.00     0.150 C 
ATOM     12  C   UNL     1      -8.636   7.354  10.689  1.00  0.00     0.174 C 
ATOM     13  O   UNL     1      -6.265   7.372  10.270  1.00  0.00    -0.344 OA
ATOM     14  C   UNL     1      -8.744   8.847  10.390  1.00  0.00     0.179 C 
ATOM     15  C   UNL     1      -7.357   9.545  10.500  1.00  0.00     0.202 C 
BRANCH  12  16
ATOM     16  O   UNL     1      -9.833   6.697  10.337  1.00  0.00    -0.388 OA
ATOM     17  H   UNL     1     -10.374   7.297   9.752  1.00  0.00     0.211 HD
ENDBRANCH  12  16
BRANCH  14  18
ATOM     18  O   UNL     1      -9.637   9.454  11.299  1.00  0.00    -0.387 OA
ATOM     19  H   UNL     1      -9.921   8.782  11.970  1.00  0.00     0.211 HD
ENDBRANCH  14  18
BRANCH  15  20
ATOM     20  O   UNL     1      -7.425  10.805   9.896  1.00  0.00    -0.385 OA
ATOM     21  H   UNL     1      -7.490  10.663   8.922  1.00  0.00     0.211 HD
ENDBRANCH  15  20
ENDBRANCH   8   9
ENDBRANCH   7   8
ENDBRANCH   1   7
BRANCH   2  22
ATOM     22  O   UNL     1      -2.850  11.098  13.382  1.00  0.00    -0.387 OA
ATOM     23  H   UNL     1      -3.255  11.610  14.117  1.00  0.00     0.211 HD
ENDBRANCH   2  22
BRANCH   3  24
ATOM     24  O   UNL     1      -5.012  10.478  14.886  1.00  0.00    -0.387 OA
ATOM     25  H   UNL     1      -5.912  10.036  14.868  1.00  0.00     0.211 HD
ENDBRANCH   3  24
BRANCH   5  26
ATOM     26  O   UNL     1      -4.449   5.811  14.020  1.00  0.00    -0.454 OA
BRANCH  26  27
ATOM     27  C   UNL     1      -4.461   4.912  15.107  1.00  0.00     0.214 A 
ATOM     28  C   UNL     1      -5.711   4.461  15.583  1.00  0.00     0.180 A 
ATOM     29  C   UNL     1      -3.276   4.327  15.638  1.00  0.00     0.239 A 
ATOM     30  O   UNL     1      -5.768   3.467  16.447  1.00  0.00    -0.452 OA
ATOM     31  C   UNL     1      -3.386   3.380  16.654  1.00  0.00     0.111 A 
ATOM     32  O   UNL     1      -2.149   4.599  15.141  1.00  0.00    -0.285 OA
ATOM     33  C   UNL     1      -4.686   2.925  17.006  1.00  0.00     0.146 A 
ATOM     34  C   UNL     1      -2.275   2.884  17.360  1.00  0.00     0.134 A 
ATOM     35  C   UNL     1      -4.830   1.885  17.910  1.00  0.00     0.094 A 
ATOM     36  C   UNL     1      -2.459   1.883  18.314  1.00  0.00     0.093 A 
ATOM     37  C   UNL     1      -3.725   1.348  18.550  1.00  0.00     0.123 A 
BRANCH  28  38
ATOM     38  C   UNL     1      -6.981   5.054  15.130  1.00  0.00     0.025 A 
ATOM     39  C   UNL     1      -7.593   6.034  15.910  1.00  0.00     0.062 A 
ATOM     40  C   UNL     1      -7.502   4.781  13.846  1.00  0.00     0.016 A 
ATOM     41  C   UNL     1      -8.677   6.754  15.416  1.00  0.00     0.158 A 
ATOM     42  C   UNL     1      -8.601   5.480  13.350  1.00  0.00     0.051 A 
ATOM     43  C   UNL     1      -9.147   6.514  14.116  1.00  0.00     0.157 A 
BRANCH  41  44
ATOM     44  O   UNL     1      -9.322   7.720  16.191  1.00  0.00    -0.504 OA
ATOM     45  H   UNL     1      -9.835   8.462  15.753  1.00  0.00     0.293 HD
ENDBRANCH  41  44
BRANCH  43  46
ATOM     46  O   UNL     1     -10.111   7.335  13.557  1.00  0.00    -0.504 OA
ATOM     47  H   UNL     1     -10.361   8.213  13.966  1.00  0.00     0.293 HD
ENDBRANCH  43  46
ENDBRANCH  28  38
BRANCH  34  48
ATOM     48  O   UNL     1      -1.001   3.381  17.131  1.00  0.00    -0.507 OA
ATOM     49  H   UNL     1      -0.829   4.091  16.431  1.00  0.00     0.293 HD
ENDBRANCH  34  48
BRANCH  37  50
ATOM     50  O   UNL     1      -3.876   0.243  19.390  1.00  0.00    -0.508 OA
ATOM     51  H   UNL     1      -4.696   0.183  19.987  1.00  0.00     0.293 HD
ENDBRANCH  37  50
ENDBRANCH  26  27
ENDBRANCH   5  26
BRANCH   4  52
ATOM     52  O   UNL     1      -4.876   7.578  16.028  1.00  0.00    -0.384 OA
ATOM     53  H   UNL     1      -4.476   6.673  16.006  1.00  0.00     0.211 HD
ENDBRANCH   4  52
TORSDOF 16
ENDMDL
MODEL 4
REMARK VINA RESULT:    -5.273     12.342     16.106
REMARK INTER + INTRA:         -10.864
REMARK INTER:                  -9.430
REMARK INTRA:                  -1.434
REMARK UNBOUND:                -2.200
REMARK SMILES C[C@@H]1O[C@H](OC[C@@H]2O[C@H](Oc3c(-c4ccc(O)c(O)c4)oc4cc(O)cc(O)c4c3=O)[C@@H](O)[C@H](O)[C@@H]2O)[C@@H](O)[C@H](O)[C@H]1O
REMARK SMILES IDX 7 1 36 2 34 3 32 4 9 5 8 6 6 7 5 8 4 9 1 10 2 11 42 12 3 13
REMARK SMILES IDX 40 14 38 15 43 16 41 18 39 20 37 22 35 24 10 26 11 27 12 28
REMARK SMILES IDX 30 29 21 30 29 31 31 32 22 33 27 34 23 35 26 36 24 37 13 38
REMARK SMILES IDX 20 39 14 40 18 41 15 42 16 43 19 44 17 46 28 48 25 50 33 52
REMARK H PARENT 43 17 41 19 39 21 37 23 35 25 19 45 17 47 28 49 25 51 33 53
REMARK Flexibility Score: inf
ROOT
ATOM      1  C   UNL     1      -4.635  -7.520  25.075  1.00  0.00     0.180 C 
ATOM      2  C   UNL     1      -5.149  -8.668  25.989  1.00  0.00     0.177 C 
ATOM      3  C   UNL     1      -6.637  -8.495  26.352  1.00  0.00     0.180 C 
ATOM      4  C   UNL     1      -7.398  -7.721  25.249  1.00  0.00     0.214 C 
ATOM      5  C   UNL     1      -6.697  -7.909  23.865  1.00  0.00     0.339 C 
ATOM      6  O   UNL     1      -5.355  -7.422  23.823  1.00  0.00    -0.332 OA
ENDROOT
BRANCH   1   7
ATOM      7  C   UNL     1      -4.600  -6.136  25.754  1.00  0.00     0.198 C 
BRANCH   7   8
ATOM      8  O   UNL     1      -3.248  -5.725  25.920  1.00  0.00    -0.347 OA
BRANCH   8   9
ATOM      9  C   UNL     1      -2.619  -6.387  27.004  1.00  0.00     0.281 C 
ATOM     10  C   UNL     1      -0.134  -9.063  26.903  1.00  0.00     0.041 C 
ATOM     11  C   UNL     1      -0.950  -7.927  27.533  1.00  0.00     0.150 C 
ATOM     12  C   UNL     1      -0.054  -6.915  28.255  1.00  0.00     0.174 C 
ATOM     13  O   UNL     1      -1.655  -7.285  26.495  1.00  0.00    -0.344 OA
ATOM     14  C   UNL     1      -0.934  -5.842  28.890  1.00  0.00     0.179 C 
ATOM     15  C   UNL     1      -1.974  -5.292  27.871  1.00  0.00     0.202 C 
BRANCH  12  16
ATOM     16  O   UNL     1       0.699  -7.579  29.245  1.00  0.00    -0.388 OA
ATOM     17  H   UNL     1       0.093  -8.169  29.774  1.00  0.00     0.211 HD
ENDBRANCH  12  16
BRANCH  14  18
ATOM     18  O   UNL     1      -0.133  -4.775  29.350  1.00  0.00    -0.387 OA
ATOM     19  H   UNL     1       0.804  -5.089  29.437  1.00  0.00     0.211 HD
ENDBRANCH  14  18
BRANCH  15  20
ATOM     20  O   UNL     1      -2.966  -4.584  28.560  1.00  0.00    -0.385 OA
ATOM     21  H   UNL     1      -3.302  -5.170  29.280  1.00  0.00     0.211 HD
ENDBRANCH  15  20
ENDBRANCH   8   9
ENDBRANCH   7   8
ENDBRANCH   1   7
BRANCH   2  22
ATOM     22  O   UNL     1      -4.378  -8.976  27.132  1.00  0.00    -0.387 OA
ATOM     23  H   UNL     1      -3.580  -8.402  27.152  1.00  0.00     0.211 HD
ENDBRANCH   2  22
BRANCH   3  24
ATOM     24  O   UNL     1      -6.778  -7.804  27.565  1.00  0.00    -0.387 OA
ATOM     25  H   UNL     1      -7.314  -6.971  27.405  1.00  0.00     0.211 HD
ENDBRANCH   3  24
BRANCH   5  26
ATOM     26  O   UNL     1      -7.537  -7.307  22.871  1.00  0.00    -0.454 OA
BRANCH  26  27
ATOM     27  C   UNL     1      -7.614  -5.971  22.426  1.00  0.00     0.214 A 
ATOM     28  C   UNL     1      -6.807  -5.586  21.334  1.00  0.00     0.180 A 
ATOM     29  C   UNL     1      -8.575  -5.046  22.925  1.00  0.00     0.239 A 
ATOM     30  O   UNL     1      -6.999  -4.419  20.751  1.00  0.00    -0.452 OA
ATOM     31  C   UNL     1      -8.641  -3.771  22.366  1.00  0.00     0.111 A 
ATOM     32  O   UNL     1      -9.410  -5.400  23.803  1.00  0.00    -0.285 OA
ATOM     33  C   UNL     1      -7.850  -3.504  21.215  1.00  0.00     0.146 A 
ATOM     34  C   UNL     1      -9.426  -2.738  22.908  1.00  0.00     0.134 A 
ATOM     35  C   UNL     1      -7.992  -2.299  20.547  1.00  0.00     0.094 A 
ATOM     36  C   UNL     1      -9.497  -1.511  22.250  1.00  0.00     0.093 A 
ATOM     37  C   UNL     1      -8.823  -1.310  21.044  1.00  0.00     0.123 A 
BRANCH  28  38
ATOM     38  C   UNL     1      -5.750  -6.460  20.796  1.00  0.00     0.025 A 
ATOM     39  C   UNL     1      -4.433  -6.002  20.771  1.00  0.00     0.062 A 
ATOM     40  C   UNL     1      -6.009  -7.808  20.468  1.00  0.00     0.016 A 
ATOM     41  C   UNL     1      -3.390  -6.871  20.462  1.00  0.00     0.158 A 
ATOM     42  C   UNL     1      -4.975  -8.681  20.135  1.00  0.00     0.051 A 
ATOM     43  C   UNL     1      -3.656  -8.223  20.196  1.00  0.00     0.157 A 
BRANCH  41  44
ATOM     44  O   UNL     1      -2.068  -6.426  20.404  1.00  0.00    -0.504 OA
ATOM     45  H   UNL     1      -1.619  -6.061  21.224  1.00  0.00     0.293 HD
ENDBRANCH  41  44
BRANCH  43  46
ATOM     46  O   UNL     1      -2.617  -9.125  20.053  1.00  0.00    -0.504 OA
ATOM     47  H   UNL     1      -1.818  -9.114  20.654  1.00  0.00     0.293 HD
ENDBRANCH  43  46
ENDBRANCH  28  38
BRANCH  34  48
ATOM     48  O   UNL     1     -10.125  -2.916  24.093  1.00  0.00    -0.507 OA
ATOM     49  H   UNL     1     -10.718  -3.722  24.240  1.00  0.00     0.293 HD
ENDBRANCH  34  48
BRANCH  37  50
ATOM     50  O   UNL     1      -9.024  -0.137  20.314  1.00  0.00    -0.508 OA
ATOM     51  H   UNL     1      -9.141  -0.195  19.306  1.00  0.00     0.293 HD
ENDBRANCH  37  50
ENDBRANCH  26  27
ENDBRANCH   5  26
BRANCH   4  52
ATOM     52  O   UNL     1      -8.726  -8.154  25.154  1.00  0.00    -0.384 OA
ATOM     53  H   UNL     1      -9.283  -7.346  25.287  1.00  0.00     0.211 HD
ENDBRANCH   4  52
TORSDOF 16
ENDMDL
MODEL 5
REMARK VINA RESULT:    -4.666      2.909      6.354
REMARK INTER + INTRA:          -9.866
REMARK INTER:                  -9.329
REMARK INTRA:                  -0.537
REMARK UNBOUND:                -2.200
REMARK SMILES C[C@@H]1O[C@H](OC[C@@H]2O[C@H](Oc3c(-c4ccc(O)c(O)c4)oc4cc(O)cc(O)c4c3=O)[C@@H](O)[C@H](O)[C@@H]2O)[C@@H](O)[C@H](O)[C@H]1O
REMARK SMILES IDX 7 1 36 2 34 3 32 4 9 5 8 6 6 7 5 8 4 9 1 10 2 11 42 12 3 13
REMARK SMILES IDX 40 14 38 15 43 16 41 18 39 20 37 22 35 24 10 26 11 27 12 28
REMARK SMILES IDX 30 29 21 30 29 31 31 32 22 33 27 34 23 35 26 36 24 37 13 38
REMARK SMILES IDX 20 39 14 40 18 41 15 42 16 43 19 44 17 46 28 48 25 50 33 52
REMARK H PARENT 43 17 41 19 39 21 37 23 35 25 19 45 17 47 28 49 25 51 33 53
REMARK Flexibility Score: inf
ROOT
ATOM      1  C   UNL     1      -5.248   4.334  15.320  1.00  0.00     0.180 C 
ATOM      2  C   UNL     1      -4.072   3.798  16.186  1.00  0.00     0.177 C 
ATOM      3  C   UNL     1      -2.719   4.396  15.754  1.00  0.00     0.180 C 
ATOM      4  C   UNL     1      -2.898   5.799  15.126  1.00  0.00     0.214 C 
ATOM      5  C   UNL     1      -4.191   6.484  15.676  1.00  0.00     0.339 C 
ATOM      6  O   UNL     1      -5.394   5.772  15.384  1.00  0.00    -0.332 OA
ENDROOT
BRANCH   1   7
ATOM      7  C   UNL     1      -5.203   3.890  13.845  1.00  0.00     0.198 C 
BRANCH   7   8
ATOM      8  O   UNL     1      -6.507   3.980  13.283  1.00  0.00    -0.347 OA
BRANCH   8   9
ATOM      9  C   UNL     1      -6.795   5.283  12.808  1.00  0.00     0.281 C 
ATOM     10  C   UNL     1      -5.197   7.115  10.081  1.00  0.00     0.041 C 
ATOM     11  C   UNL     1      -6.284   6.806  11.118  1.00  0.00     0.150 C 
ATOM     12  C   UNL     1      -7.682   6.787  10.489  1.00  0.00     0.174 C 
ATOM     13  O   UNL     1      -5.994   5.544  11.674  1.00  0.00    -0.344 OA
ATOM     14  C   UNL     1      -8.710   6.518  11.584  1.00  0.00     0.179 C 
ATOM     15  C   UNL     1      -8.294   5.302  12.461  1.00  0.00     0.202 C 
BRANCH  12  16
ATOM     16  O   UNL     1      -7.936   8.030   9.875  1.00  0.00    -0.388 OA
ATOM     17  H   UNL     1      -7.409   8.738  10.341  1.00  0.00     0.211 HD
ENDBRANCH  12  16
BRANCH  14  18
ATOM     18  O   UNL     1      -9.970   6.255  11.004  1.00  0.00    -0.387 OA
ATOM     19  H   UNL     1     -10.616   6.945  11.307  1.00  0.00     0.211 HD
ENDBRANCH  14  18
BRANCH  15  20
ATOM     20  O   UNL     1      -9.054   5.297  13.636  1.00  0.00    -0.385 OA
ATOM     21  H   UNL     1      -9.940   4.923  13.413  1.00  0.00     0.211 HD
ENDBRANCH  15  20
ENDBRANCH   8   9
ENDBRANCH   7   8
ENDBRANCH   1   7
BRANCH   2  22
ATOM     22  O   UNL     1      -3.982   2.399  16.355  1.00  0.00    -0.387 OA
ATOM     23  H   UNL     1      -3.042   2.120  16.275  1.00  0.00     0.211 HD
ENDBRANCH   2  22
BRANCH   3  24
ATOM     24  O   UNL     1      -2.081   3.564  14.822  1.00  0.00    -0.387 OA
ATOM     25  H   UNL     1      -1.092   3.726  14.866  1.00  0.00     0.211 HD
ENDBRANCH   3  24
BRANCH   5  26
ATOM     26  O   UNL     1      -4.208   7.830  15.184  1.00  0.00    -0.454 OA
BRANCH  26  27
ATOM     27  C   UNL     1      -5.208   8.534  14.482  1.00  0.00     0.214 A 
ATOM     28  C   UNL     1      -4.805   9.433  13.472  1.00  0.00     0.180 A 
ATOM     29  C   UNL     1      -6.598   8.263  14.641  1.00  0.00     0.239 A 
ATOM     30  O   UNL     1      -5.699   9.949  12.652  1.00  0.00    -0.452 OA
ATOM     31  C   UNL     1      -7.515   8.944  13.842  1.00  0.00     0.111 A 
ATOM     32  O   UNL     1      -6.988   7.362  15.433  1.00  0.00    -0.285 OA
ATOM     33  C   UNL     1      -7.011   9.762  12.795  1.00  0.00     0.146 A 
ATOM     34  C   UNL     1      -8.904   8.877  14.049  1.00  0.00     0.134 A 
ATOM     35  C   UNL     1      -7.888  10.342  11.893  1.00  0.00     0.094 A 
ATOM     36  C   UNL     1      -9.762   9.528  13.162  1.00  0.00     0.093 A 
ATOM     37  C   UNL     1      -9.257  10.214  12.057  1.00  0.00     0.123 A 
BRANCH  28  38
ATOM     38  C   UNL     1      -3.394   9.813  13.280  1.00  0.00     0.025 A 
ATOM     39  C   UNL     1      -2.679  10.347  14.351  1.00  0.00     0.062 A 
ATOM     40  C   UNL     1      -2.702   9.489  12.092  1.00  0.00     0.016 A 
ATOM     41  C   UNL     1      -1.301  10.524  14.261  1.00  0.00     0.158 A 
ATOM     42  C   UNL     1      -1.327   9.683  11.983  1.00  0.00     0.051 A 
ATOM     43  C   UNL     1      -0.617  10.142  13.096  1.00  0.00     0.157 A 
BRANCH  41  44
ATOM     44  O   UNL     1      -0.570  11.083  15.311  1.00  0.00    -0.504 OA
ATOM     45  H   UNL     1       0.062  10.517  15.846  1.00  0.00     0.293 HD
ENDBRANCH  41  44
BRANCH  43  46
ATOM     46  O   UNL     1       0.766  10.158  13.060  1.00  0.00    -0.504 OA
ATOM     47  H   UNL     1       1.314  10.418  13.855  1.00  0.00     0.293 HD
ENDBRANCH  43  46
ENDBRANCH  28  38
BRANCH  34  48
ATOM     48  O   UNL     1      -9.436   8.184  15.125  1.00  0.00    -0.507 OA
ATOM     49  H   UNL     1      -9.110   8.344  16.069  1.00  0.00     0.293 HD
ENDBRANCH  34  48
BRANCH  37  50
ATOM     50  O   UNL     1     -10.125  10.728  11.091  1.00  0.00    -0.508 OA
ATOM     51  H   UNL     1      -9.940  11.646  10.698  1.00  0.00     0.293 HD
ENDBRANCH  37  50
ENDBRANCH  26  27
ENDBRANCH   5  26
BRANCH   4  52
ATOM     52  O   UNL     1      -1.795   6.617  15.395  1.00  0.00    -0.384 OA
ATOM     53  H   UNL     1      -1.065   6.005  15.666  1.00  0.00     0.211 HD
ENDBRANCH   4  52
TORSDOF 16
ENDMDL
