MODEL 1
REMARK VINA RESULT:    -3.983      0.000      0.000
REMARK INTER + INTRA:          -6.898
REMARK INTER:                  -6.312
REMARK INTRA:                  -0.586
REMARK UNBOUND:                -0.586
REMARK SMILES CCCCCCCCCCCC(=O)[O-]
REMARK SMILES IDX 7 1 8 2 9 3 10 4 11 5 12 6 13 7 14 8 6 9 5 10 4 11 3 12 2 13
REMARK SMILES IDX 1 14
REMARK H PARENT
REMARK Flexibility Score: inf
ROOT
ATOM      1  C   UNL     1       4.553  -8.500   3.900  1.00  0.00     0.000 C 
ENDROOT
BRANCH   1   2
ATOM      2  C   UNL     1       3.069  -8.413   4.293  1.00  0.00     0.000 C 
BRANCH   2   3
ATOM      3  C   UNL     1       2.702  -7.063   4.932  1.00  0.00     0.000 C 
BRANCH   3   4
ATOM      4  C   UNL     1       1.184  -6.881   5.096  1.00  0.00     0.006 C 
BRANCH   4   5
ATOM      5  C   UNL     1       0.380  -7.992   4.411  1.00  0.00     0.053 C 
BRANCH   5   6
ATOM      6  C   UNL     1      -1.083  -7.687   4.466  1.00  0.00     0.041 C 
ATOM      7  O   UNL     1      -1.813  -7.890   3.460  1.00  0.00    -0.550 OA
ATOM      8  O   UNL     1      -1.652  -7.223   5.646  1.00  0.00    -0.550 OA
ENDBRANCH   5   6
ENDBRANCH   4   5
ENDBRANCH   3   4
ENDBRANCH   2   3
ENDBRANCH   1   2
BRANCH   1   9
ATOM      9  C   UNL     1       5.401  -7.394   4.551  1.00  0.00     0.000 C 
BRANCH   9  10
ATOM     10  C   UNL     1       6.591  -6.970   3.674  1.00  0.00    -0.000 C 
BRANCH  10  11
ATOM     11  C   UNL     1       7.048  -5.529   3.948  1.00  0.00    -0.000 C 
BRANCH  11  12
ATOM     12  C   UNL     1       6.033  -4.792   4.834  1.00  0.00    -0.000 C 
BRANCH  12  13
ATOM     13  C   UNL     1       6.344  -3.293   4.969  1.00  0.00    -0.003 C 
ATOM     14  C   UNL     1       5.171  -2.406   4.552  1.00  0.00     0.004 C 
ENDBRANCH  12  13
ENDBRANCH  11  12
ENDBRANCH  10  11
ENDBRANCH   9  10
ENDBRANCH   1   9
TORSDOF 10
ENDMDL
MODEL 2
REMARK VINA RESULT:    -3.931      3.899      6.245
REMARK INTER + INTRA:          -6.815
REMARK INTER:                  -6.184
REMARK INTRA:                  -0.631
REMARK UNBOUND:                -0.586
REMARK SMILES CCCCCCCCCCCC(=O)[O-]
REMARK SMILES IDX 7 1 8 2 9 3 10 4 11 5 12 6 13 7 14 8 6 9 5 10 4 11 3 12 2 13
REMARK SMILES IDX 1 14
REMARK H PARENT
REMARK Flexibility Score: inf
ROOT
ATOM      1  C   UNL     1       0.806  -5.617   5.832  1.00  0.00     0.000 C 
ENDROOT
BRANCH   1   2
ATOM      2  C   UNL     1       1.089  -4.110   5.721  1.00  0.00     0.000 C 
BRANCH   2   3
ATOM      3  C   UNL     1       2.411  -3.703   6.393  1.00  0.00     0.000 C 
BRANCH   3   4
ATOM      4  C   UNL     1       3.341  -2.927   5.446  1.00  0.00     0.006 C 
BRANCH   4   5
ATOM      5  C   UNL     1       4.777  -3.467   5.457  1.00  0.00     0.053 C 
BRANCH   5   6
ATOM      6  C   UNL     1       5.664  -2.606   4.615  1.00  0.00     0.041 C 
ATOM      7  O   UNL     1       5.191  -1.605   4.014  1.00  0.00    -0.550 OA
ATOM      8  O   UNL     1       7.023  -2.881   4.532  1.00  0.00    -0.550 OA
ENDBRANCH   5   6
ENDBRANCH   4   5
ENDBRANCH   3   4
ENDBRANCH   2   3
ENDBRANCH   1   2
BRANCH   1   9
ATOM      9  C   UNL     1       2.037  -6.474   5.493  1.00  0.00     0.000 C 
BRANCH   9  10
ATOM     10  C   UNL     1       1.698  -7.655   4.569  1.00  0.00    -0.000 C 
BRANCH  10  11
ATOM     11  C   UNL     1       2.885  -8.609   4.361  1.00  0.00    -0.000 C 
BRANCH  11  12
ATOM     12  C   UNL     1       4.214  -7.838   4.373  1.00  0.00    -0.000 C 
BRANCH  12  13
ATOM     13  C   UNL     1       5.354  -8.616   3.698  1.00  0.00    -0.003 C 
ATOM     14  C   UNL     1       4.850  -9.648   2.689  1.00  0.00     0.004 C 
ENDBRANCH  12  13
ENDBRANCH  11  12
ENDBRANCH  10  11
ENDBRANCH   9  10
ENDBRANCH   1   9
TORSDOF 10
ENDMDL
MODEL 3
REMARK VINA RESULT:    -3.896     18.242     20.192
REMARK INTER + INTRA:          -6.760
REMARK INTER:                  -5.477
REMARK INTRA:                  -1.283
REMARK UNBOUND:                -0.586
REMARK SMILES CCCCCCCCCCCC(=O)[O-]
REMARK SMILES IDX 7 1 8 2 9 3 10 4 11 5 12 6 13 7 14 8 6 9 5 10 4 11 3 12 2 13
REMARK SMILES IDX 1 14
REMARK H PARENT
REMARK Flexibility Score: inf
ROOT
ATOM      1  C   UNL     1      -6.220   5.557  -3.473  1.00  0.00     0.000 C 
ENDROOT
BRANCH   1   2
ATOM      2  C   UNL     1      -4.867   6.272  -3.317  1.00  0.00     0.000 C 
BRANCH   2   3
ATOM      3  C   UNL     1      -5.002   7.667  -2.683  1.00  0.00     0.000 C 
BRANCH   3   4
ATOM      4  C   UNL     1      -4.877   8.799  -3.716  1.00  0.00     0.006 C 
BRANCH   4   5
ATOM      5  C   UNL     1      -4.419   8.294  -5.090  1.00  0.00     0.053 C 
BRANCH   5   6
ATOM      6  C   UNL     1      -4.602   9.361  -6.124  1.00  0.00     0.041 C 
ATOM      7  O   UNL     1      -3.608  10.001  -6.556  1.00  0.00    -0.550 OA
ATOM      8  O   UNL     1      -5.865   9.613  -6.645  1.00  0.00    -0.550 OA
ENDBRANCH   5   6
ENDBRANCH   4   5
ENDBRANCH   3   4
ENDBRANCH   2   3
ENDBRANCH   1   2
BRANCH   1   9
ATOM      9  C   UNL     1      -7.413   6.486  -3.190  1.00  0.00     0.000 C 
BRANCH   9  10
ATOM     10  C   UNL     1      -7.996   7.105  -4.471  1.00  0.00    -0.000 C 
BRANCH  10  11
ATOM     11  C   UNL     1      -8.414   8.572  -4.287  1.00  0.00    -0.000 C 
BRANCH  11  12
ATOM     12  C   UNL     1      -8.911   8.823  -2.855  1.00  0.00    -0.000 C 
BRANCH  12  13
ATOM     13  C   UNL     1      -8.178   9.988  -2.171  1.00  0.00    -0.003 C 
ATOM     14  C   UNL     1      -7.491   9.571  -0.870  1.00  0.00     0.004 C 
ENDBRANCH  12  13
ENDBRANCH  11  12
ENDBRANCH  10  11
ENDBRANCH   9  10
ENDBRANCH   1   9
TORSDOF 10
ENDMDL
MODEL 4
REMARK VINA RESULT:    -3.856      1.137      2.291
REMARK INTER + INTRA:          -6.696
REMARK INTER:                  -6.021
REMARK INTRA:                  -0.676
REMARK UNBOUND:                -0.586
REMARK SMILES CCCCCCCCCCCC(=O)[O-]
REMARK SMILES IDX 7 1 8 2 9 3 10 4 11 5 12 6 13 7 14 8 6 9 5 10 4 11 3 12 2 13
REMARK SMILES IDX 1 14
REMARK H PARENT
REMARK Flexibility Score: inf
ROOT
ATOM      1  C   UNL     1       3.370  -6.054   5.569  1.00  0.00     0.000 C 
ENDROOT
BRANCH   1   2
ATOM      2  C   UNL     1       3.857  -7.310   4.828  1.00  0.00     0.000 C 
BRANCH   2   3
ATOM      3  C   UNL     1       2.699  -8.190   4.326  1.00  0.00     0.000 C 
BRANCH   3   4
ATOM      4  C   UNL     1       1.321  -7.638   4.728  1.00  0.00     0.006 C 
BRANCH   4   5
ATOM      5  C   UNL     1       0.171  -8.561   4.304  1.00  0.00     0.053 C 
BRANCH   5   6
ATOM      6  C   UNL     1      -1.134  -7.835   4.380  1.00  0.00     0.041 C 
ATOM      7  O   UNL     1      -1.903  -7.807   3.383  1.00  0.00    -0.550 OA
ATOM      8  O   UNL     1      -1.525  -7.230   5.568  1.00  0.00    -0.550 OA
ENDBRANCH   5   6
ENDBRANCH   4   5
ENDBRANCH   3   4
ENDBRANCH   2   3
ENDBRANCH   1   2
BRANCH   1   9
ATOM      9  C   UNL     1       4.531  -5.215   6.130  1.00  0.00     0.000 C 
BRANCH   9  10
ATOM     10  C   UNL     1       5.488  -4.722   5.032  1.00  0.00    -0.000 C 
BRANCH  10  11
ATOM     11  C   UNL     1       6.949  -4.653   5.502  1.00  0.00    -0.000 C 
BRANCH  11  12
ATOM     12  C   UNL     1       7.752  -5.849   4.969  1.00  0.00    -0.000 C 
BRANCH  12  13
ATOM     13  C   UNL     1       7.197  -6.389   3.641  1.00  0.00    -0.003 C 
ATOM     14  C   UNL     1       7.855  -5.745   2.421  1.00  0.00     0.004 C 
ENDBRANCH  12  13
ENDBRANCH  11  12
ENDBRANCH  10  11
ENDBRANCH   9  10
ENDBRANCH   1   9
TORSDOF 10
ENDMDL
MODEL 5
REMARK VINA RESULT:    -3.847      3.708      6.227
REMARK INTER + INTRA:          -6.682
REMARK INTER:                  -5.999
REMARK INTRA:                  -0.683
REMARK UNBOUND:                -0.586
REMARK SMILES CCCCCCCCCCCC(=O)[O-]
REMARK SMILES IDX 7 1 8 2 9 3 10 4 11 5 12 6 13 7 14 8 6 9 5 10 4 11 3 12 2 13
REMARK SMILES IDX 1 14
REMARK H PARENT
REMARK Flexibility Score: inf
ROOT
ATOM      1  C   UNL     1       6.777  -6.701   3.885  1.00  0.00     0.000 C 
ENDROOT
BRANCH   1   2
ATOM      2  C   UNL     1       6.734  -5.452   4.781  1.00  0.00     0.000 C 
BRANCH   2   3
ATOM      3  C   UNL     1       5.384  -5.281   5.497  1.00  0.00     0.000 C 
BRANCH   3   4
ATOM      4  C   UNL     1       4.947  -3.810   5.590  1.00  0.00     0.006 C 
BRANCH   4   5
ATOM      5  C   UNL     1       5.634  -2.924   4.542  1.00  0.00     0.053 C 
BRANCH   5   6
ATOM      6  C   UNL     1       5.315  -1.484   4.787  1.00  0.00     0.041 C 
ATOM      7  O   UNL     1       4.148  -1.140   5.114  1.00  0.00    -0.550 OA
ATOM      8  O   UNL     1       6.317  -0.526   4.701  1.00  0.00    -0.550 OA
ENDBRANCH   5   6
ENDBRANCH   4   5
ENDBRANCH   3   4
ENDBRANCH   2   3
ENDBRANCH   1   2
BRANCH   1   9
ATOM      9  C   UNL     1       6.014  -7.890   4.495  1.00  0.00     0.000 C 
BRANCH   9  10
ATOM     10  C   UNL     1       5.260  -8.712   3.437  1.00  0.00    -0.000 C 
BRANCH  10  11
ATOM     11  C   UNL     1       3.802  -8.995   3.831  1.00  0.00    -0.000 C 
BRANCH  11  12
ATOM     12  C   UNL     1       3.149  -7.747   4.442  1.00  0.00    -0.000 C 
BRANCH  12  13
ATOM     13  C   UNL     1       1.631  -7.904   4.626  1.00  0.00    -0.003 C 
ATOM     14  C   UNL     1       1.086  -9.175   3.974  1.00  0.00     0.004 C 
ENDBRANCH  12  13
ENDBRANCH  11  12
ENDBRANCH  10  11
ENDBRANCH   9  10
ENDBRANCH   1   9
TORSDOF 10
ENDMDL
MODEL 6
REMARK VINA RESULT:    -3.814     10.651     13.752
REMARK INTER + INTRA:          -6.630
REMARK INTER:                  -5.947
REMARK INTRA:                  -0.683
REMARK UNBOUND:                -0.586
REMARK SMILES CCCCCCCCCCCC(=O)[O-]
REMARK SMILES IDX 7 1 8 2 9 3 10 4 11 5 12 6 13 7 14 8 6 9 5 10 4 11 3 12 2 13
REMARK SMILES IDX 1 14
REMARK H PARENT
REMARK Flexibility Score: inf
ROOT
ATOM      1  C   UNL     1       3.526   6.826   7.621  1.00  0.00     0.000 C 
ENDROOT
BRANCH   1   2
ATOM      2  C   UNL     1       2.253   7.343   6.933  1.00  0.00     0.000 C 
BRANCH   2   3
ATOM      3  C   UNL     1       1.901   8.784   7.340  1.00  0.00     0.000 C 
BRANCH   3   4
ATOM      4  C   UNL     1       0.456   8.917   7.850  1.00  0.00     0.006 C 
BRANCH   4   5
ATOM      5  C   UNL     1      -0.416   7.715   7.469  1.00  0.00     0.053 C 
BRANCH   5   6
ATOM      6  C   UNL     1      -1.695   8.176   6.845  1.00  0.00     0.041 C 
ATOM      7  O   UNL     1      -2.433   7.360   6.234  1.00  0.00    -0.550 OA
ATOM      8  O   UNL     1      -2.096   9.500   6.979  1.00  0.00    -0.550 OA
ENDBRANCH   5   6
ENDBRANCH   4   5
ENDBRANCH   3   4
ENDBRANCH   2   3
ENDBRANCH   1   2
BRANCH   1   9
ATOM      9  C   UNL     1       4.070   5.543   6.968  1.00  0.00     0.000 C 
BRANCH   9  10
ATOM     10  C   UNL     1       3.844   5.514   5.447  1.00  0.00    -0.000 C 
BRANCH  10  11
ATOM     11  C   UNL     1       4.080   4.124   4.837  1.00  0.00    -0.000 C 
BRANCH  11  12
ATOM     12  C   UNL     1       2.881   3.201   5.099  1.00  0.00    -0.000 C 
BRANCH  12  13
ATOM     13  C   UNL     1       3.257   1.964   5.931  1.00  0.00    -0.003 C 
ATOM     14  C   UNL     1       2.837   2.088   7.396  1.00  0.00     0.004 C 
ENDBRANCH  12  13
ENDBRANCH  11  12
ENDBRANCH  10  11
ENDBRANCH   9  10
ENDBRANCH   1   9
TORSDOF 10
ENDMDL
MODEL 7
REMARK VINA RESULT:    -3.794     17.997     19.729
REMARK INTER + INTRA:          -6.598
REMARK INTER:                  -6.003
REMARK INTRA:                  -0.595
REMARK UNBOUND:                -0.586
REMARK SMILES CCCCCCCCCCCC(=O)[O-]
REMARK SMILES IDX 7 1 8 2 9 3 10 4 11 5 12 6 13 7 14 8 6 9 5 10 4 11 3 12 2 13
REMARK SMILES IDX 1 14
REMARK H PARENT
REMARK Flexibility Score: inf
ROOT
ATOM      1  C   UNL     1      -8.183   6.983  -2.869  1.00  0.00     0.000 C 
ENDROOT
BRANCH   1   2
ATOM      2  C   UNL     1      -7.439   5.680  -3.201  1.00  0.00     0.000 C 
BRANCH   2   3
ATOM      3  C   UNL     1      -5.948   5.908  -3.505  1.00  0.00     0.000 C 
BRANCH   3   4
ATOM      4  C   UNL     1      -5.515   7.365  -3.276  1.00  0.00     0.006 C 
BRANCH   4   5
ATOM      5  C   UNL     1      -4.472   7.837  -4.298  1.00  0.00     0.053 C 
BRANCH   5   6
ATOM      6  C   UNL     1      -5.044   8.912  -5.167  1.00  0.00     0.041 C 
ATOM      7  O   UNL     1      -6.288   8.980  -5.357  1.00  0.00    -0.550 OA
ATOM      8  O   UNL     1      -4.209   9.868  -5.729  1.00  0.00    -0.550 OA
ENDBRANCH   5   6
ENDBRANCH   4   5
ENDBRANCH   3   4
ENDBRANCH   2   3
ENDBRANCH   1   2
BRANCH   1   9
ATOM      9  C   UNL     1      -9.076   6.852  -1.623  1.00  0.00     0.000 C 
BRANCH   9  10
ATOM     10  C   UNL     1      -9.284   8.193  -0.902  1.00  0.00    -0.000 C 
BRANCH  10  11
ATOM     11  C   UNL     1      -9.722   8.021   0.561  1.00  0.00    -0.000 C 
BRANCH  11  12
ATOM     12  C   UNL     1     -10.074   6.555   0.857  1.00  0.00    -0.000 C 
BRANCH  12  13
ATOM     13  C   UNL     1      -9.649   6.118   2.268  1.00  0.00    -0.003 C 
ATOM     14  C   UNL     1      -9.685   4.601   2.453  1.00  0.00     0.004 C 
ENDBRANCH  12  13
ENDBRANCH  11  12
ENDBRANCH  10  11
ENDBRANCH   9  10
ENDBRANCH   1   9
TORSDOF 10
ENDMDL
MODEL 8
REMARK VINA RESULT:    -3.731      1.608      2.085
REMARK INTER + INTRA:          -6.499
REMARK INTER:                  -6.025
REMARK INTRA:                  -0.474
REMARK UNBOUND:                -0.586
REMARK SMILES CCCCCCCCCCCC(=O)[O-]
REMARK SMILES IDX 7 1 8 2 9 3 10 4 11 5 12 6 13 7 14 8 6 9 5 10 4 11 3 12 2 13
REMARK SMILES IDX 1 14
REMARK H PARENT
REMARK Flexibility Score: inf
ROOT
ATOM      1  C   UNL     1       4.087  -9.664   3.323  1.00  0.00     0.000 C 
ENDROOT
BRANCH   1   2
ATOM      2  C   UNL     1       2.809  -9.322   4.106  1.00  0.00     0.000 C 
BRANCH   2   3
ATOM      3  C   UNL     1       2.698  -7.824   4.437  1.00  0.00     0.000 C 
BRANCH   3   4
ATOM      4  C   UNL     1       1.262  -7.402   4.790  1.00  0.00     0.006 C 
BRANCH   4   5
ATOM      5  C   UNL     1       0.226  -8.470   4.417  1.00  0.00     0.053 C 
BRANCH   5   6
ATOM      6  C   UNL     1      -1.154  -7.893   4.455  1.00  0.00     0.041 C 
ATOM      7  O   UNL     1      -1.617  -7.428   5.530  1.00  0.00    -0.550 OA
ATOM      8  O   UNL     1      -1.911  -7.825   3.292  1.00  0.00    -0.550 OA
ENDBRANCH   5   6
ENDBRANCH   4   5
ENDBRANCH   3   4
ENDBRANCH   2   3
ENDBRANCH   1   2
BRANCH   1   9
ATOM      9  C   UNL     1       5.118  -8.522   3.352  1.00  0.00     0.000 C 
BRANCH   9  10
ATOM     10  C   UNL     1       6.040  -8.591   4.580  1.00  0.00    -0.000 C 
BRANCH  10  11
ATOM     11  C   UNL     1       6.646  -7.228   4.947  1.00  0.00    -0.000 C 
BRANCH  11  12
ATOM     12  C   UNL     1       6.901  -6.386   3.688  1.00  0.00    -0.000 C 
BRANCH  12  13
ATOM     13  C   UNL     1       8.382  -6.007   3.521  1.00  0.00    -0.003 C 
ATOM     14  C   UNL     1       8.609  -4.496   3.531  1.00  0.00     0.004 C 
ENDBRANCH  12  13
ENDBRANCH  11  12
ENDBRANCH  10  11
ENDBRANCH   9  10
ENDBRANCH   1   9
TORSDOF 10
ENDMDL
MODEL 9
REMARK VINA RESULT:    -3.687     18.497     20.430
REMARK INTER + INTRA:          -6.429
REMARK INTER:                  -5.158
REMARK INTRA:                  -1.272
REMARK UNBOUND:                -0.586
REMARK SMILES CCCCCCCCCCCC(=O)[O-]
REMARK SMILES IDX 7 1 8 2 9 3 10 4 11 5 12 6 13 7 14 8 6 9 5 10 4 11 3 12 2 13
REMARK SMILES IDX 1 14
REMARK H PARENT
REMARK Flexibility Score: inf
ROOT
ATOM      1  C   UNL     1      -5.005   6.117  -3.672  1.00  0.00     0.000 C 
ENDROOT
BRANCH   1   2
ATOM      2  C   UNL     1      -4.851   7.646  -3.687  1.00  0.00     0.000 C 
BRANCH   2   3
ATOM      3  C   UNL     1      -4.441   8.189  -5.067  1.00  0.00     0.000 C 
BRANCH   3   4
ATOM      4  C   UNL     1      -4.763   9.683  -5.234  1.00  0.00     0.006 C 
BRANCH   4   5
ATOM      5  C   UNL     1      -6.222  10.012  -4.893  1.00  0.00     0.053 C 
BRANCH   5   6
ATOM      6  C   UNL     1      -7.088   9.855  -6.103  1.00  0.00     0.041 C 
ATOM      7  O   UNL     1      -8.339   9.768  -5.981  1.00  0.00    -0.550 OA
ATOM      8  O   UNL     1      -6.518   9.853  -7.370  1.00  0.00    -0.550 OA
ENDBRANCH   5   6
ENDBRANCH   4   5
ENDBRANCH   3   4
ENDBRANCH   2   3
ENDBRANCH   1   2
BRANCH   1   9
ATOM      9  C   UNL     1      -6.443   5.672  -3.354  1.00  0.00     0.000 C 
BRANCH   9  10
ATOM     10  C   UNL     1      -7.485   6.744  -3.714  1.00  0.00    -0.000 C 
BRANCH  10  11
ATOM     11  C   UNL     1      -8.317   7.196  -2.504  1.00  0.00    -0.000 C 
BRANCH  11  12
ATOM     12  C   UNL     1      -8.832   8.630  -2.699  1.00  0.00    -0.000 C 
BRANCH  12  13
ATOM     13  C   UNL     1      -8.420   9.567  -1.552  1.00  0.00    -0.003 C 
ATOM     14  C   UNL     1      -6.933   9.468  -1.213  1.00  0.00     0.004 C 
ENDBRANCH  12  13
ENDBRANCH  11  12
ENDBRANCH  10  11
ENDBRANCH   9  10
ENDBRANCH   1   9
TORSDOF 10
ENDMDL
