MODEL 1
REMARK VINA RESULT:    -3.396      0.000      0.000
REMARK INTER + INTRA:          -6.114
REMARK INTER:                  -5.381
REMARK INTRA:                  -0.733
REMARK UNBOUND:                -0.733
REMARK SMILES CCCCCCCCCCCC(=O)[O-]
REMARK SMILES IDX 7 1 8 2 9 3 10 4 11 5 12 6 13 7 14 8 6 9 5 10 4 11 3 12 2 13
REMARK SMILES IDX 1 14
REMARK H PARENT
REMARK Flexibility Score: inf
ROOT
ATOM      1  C   UNL     1      23.617   6.967  30.145  1.00  0.00     0.000 C 
ENDROOT
BRANCH   1   2
ATOM      2  C   UNL     1      24.832   7.869  30.424  1.00  0.00     0.000 C 
BRANCH   2   3
ATOM      3  C   UNL     1      24.549   9.349  30.120  1.00  0.00     0.000 C 
BRANCH   3   4
ATOM      4  C   UNL     1      25.252   9.836  28.839  1.00  0.00     0.006 C 
BRANCH   4   5
ATOM      5  C   UNL     1      24.257  10.125  27.708  1.00  0.00     0.053 C 
BRANCH   5   6
ATOM      6  C   UNL     1      24.532   9.287  26.497  1.00  0.00     0.041 C 
ATOM      7  O   UNL     1      23.969   8.170  26.357  1.00  0.00    -0.550 OA
ATOM      8  O   UNL     1      25.389   9.754  25.508  1.00  0.00    -0.550 OA
ENDBRANCH   5   6
ENDBRANCH   4   5
ENDBRANCH   3   4
ENDBRANCH   2   3
ENDBRANCH   1   2
BRANCH   1   9
ATOM      9  C   UNL     1      23.898   5.893  29.077  1.00  0.00     0.000 C 
BRANCH   9  10
ATOM     10  C   UNL     1      22.668   5.098  28.601  1.00  0.00    -0.000 C 
BRANCH  10  11
ATOM     11  C   UNL     1      21.454   5.254  29.535  1.00  0.00    -0.000 C 
BRANCH  11  12
ATOM     12  C   UNL     1      21.272   4.058  30.486  1.00  0.00    -0.000 C 
BRANCH  12  13
ATOM     13  C   UNL     1      21.764   4.289  31.927  1.00  0.00    -0.003 C 
ATOM     14  C   UNL     1      21.639   3.047  32.810  1.00  0.00     0.004 C 
ENDBRANCH  12  13
ENDBRANCH  11  12
ENDBRANCH  10  11
ENDBRANCH   9  10
ENDBRANCH   1   9
TORSDOF 10
ENDMDL
MODEL 2
REMARK VINA RESULT:    -3.380      8.831     10.488
REMARK INTER + INTRA:          -6.089
REMARK INTER:                  -4.534
REMARK INTRA:                  -1.555
REMARK UNBOUND:                -0.733
REMARK SMILES CCCCCCCCCCCC(=O)[O-]
REMARK SMILES IDX 7 1 8 2 9 3 10 4 11 5 12 6 13 7 14 8 6 9 5 10 4 11 3 12 2 13
REMARK SMILES IDX 1 14
REMARK H PARENT
REMARK Flexibility Score: inf
ROOT
ATOM      1  C   UNL     1      22.173   9.368  38.573  1.00  0.00     0.000 C 
ENDROOT
BRANCH   1   2
ATOM      2  C   UNL     1      21.800  10.081  37.262  1.00  0.00     0.000 C 
BRANCH   2   3
ATOM      3  C   UNL     1      20.288  10.056  36.985  1.00  0.00     0.000 C 
BRANCH   3   4
ATOM      4  C   UNL     1      19.468   9.644  38.221  1.00  0.00     0.006 C 
BRANCH   4   5
ATOM      5  C   UNL     1      18.154   8.949  37.839  1.00  0.00     0.053 C 
BRANCH   5   6
ATOM      6  C   UNL     1      17.069   9.223  38.835  1.00  0.00     0.041 C 
ATOM      7  O   UNL     1      16.071   9.918  38.511  1.00  0.00    -0.550 OA
ATOM      8  O   UNL     1      17.148   8.685  40.113  1.00  0.00    -0.550 OA
ENDBRANCH   5   6
ENDBRANCH   4   5
ENDBRANCH   3   4
ENDBRANCH   2   3
ENDBRANCH   1   2
BRANCH   1   9
ATOM      9  C   UNL     1      22.948   8.057  38.345  1.00  0.00     0.000 C 
BRANCH   9  10
ATOM     10  C   UNL     1      22.323   6.802  38.981  1.00  0.00    -0.000 C 
BRANCH  10  11
ATOM     11  C   UNL     1      21.035   6.347  38.273  1.00  0.00    -0.000 C 
BRANCH  11  12
ATOM     12  C   UNL     1      21.261   5.983  36.794  1.00  0.00    -0.000 C 
BRANCH  12  13
ATOM     13  C   UNL     1      20.265   6.619  35.806  1.00  0.00    -0.003 C 
ATOM     14  C   UNL     1      20.949   7.315  34.629  1.00  0.00     0.004 C 
ENDBRANCH  12  13
ENDBRANCH  11  12
ENDBRANCH  10  11
ENDBRANCH   9  10
ENDBRANCH   1   9
TORSDOF 10
ENDMDL
MODEL 3
REMARK VINA RESULT:    -3.377      8.505     10.225
REMARK INTER + INTRA:          -6.085
REMARK INTER:                  -4.404
REMARK INTRA:                  -1.681
REMARK UNBOUND:                -0.733
REMARK SMILES CCCCCCCCCCCC(=O)[O-]
REMARK SMILES IDX 7 1 8 2 9 3 10 4 11 5 12 6 13 7 14 8 6 9 5 10 4 11 3 12 2 13
REMARK SMILES IDX 1 14
REMARK H PARENT
REMARK Flexibility Score: inf
ROOT
ATOM      1  C   UNL     1      22.543  10.100  37.835  1.00  0.00     0.000 C 
ENDROOT
BRANCH   1   2
ATOM      2  C   UNL     1      22.541   9.132  39.031  1.00  0.00     0.000 C 
BRANCH   2   3
ATOM      3  C   UNL     1      22.506   7.658  38.597  1.00  0.00     0.000 C 
BRANCH   3   4
ATOM      4  C   UNL     1      21.536   6.814  39.444  1.00  0.00     0.006 C 
BRANCH   4   5
ATOM      5  C   UNL     1      20.833   5.733  38.613  1.00  0.00     0.053 C 
BRANCH   5   6
ATOM      6  C   UNL     1      21.814   4.864  37.886  1.00  0.00     0.041 C 
ATOM      7  O   UNL     1      21.812   4.821  36.628  1.00  0.00    -0.550 OA
ATOM      8  O   UNL     1      22.749   4.124  38.599  1.00  0.00    -0.550 OA
ENDBRANCH   5   6
ENDBRANCH   4   5
ENDBRANCH   3   4
ENDBRANCH   2   3
ENDBRANCH   1   2
BRANCH   1   9
ATOM      9  C   UNL     1      22.047   9.446  36.532  1.00  0.00     0.000 C 
BRANCH   9  10
ATOM     10  C   UNL     1      20.611   9.811  36.114  1.00  0.00    -0.000 C 
BRANCH  10  11
ATOM     11  C   UNL     1      19.663   8.599  36.104  1.00  0.00    -0.000 C 
BRANCH  11  12
ATOM     12  C   UNL     1      18.810   8.494  37.381  1.00  0.00    -0.000 C 
BRANCH  12  13
ATOM     13  C   UNL     1      18.868   9.723  38.308  1.00  0.00    -0.003 C 
ATOM     14  C   UNL     1      18.862   9.357  39.791  1.00  0.00     0.004 C 
ENDBRANCH  12  13
ENDBRANCH  11  12
ENDBRANCH  10  11
ENDBRANCH   9  10
ENDBRANCH   1   9
TORSDOF 10
ENDMDL
MODEL 4
REMARK VINA RESULT:    -3.367     13.327     15.137
REMARK INTER + INTRA:          -6.067
REMARK INTER:                  -4.682
REMARK INTRA:                  -1.386
REMARK UNBOUND:                -0.733
REMARK SMILES CCCCCCCCCCCC(=O)[O-]
REMARK SMILES IDX 7 1 8 2 9 3 10 4 11 5 12 6 13 7 14 8 6 9 5 10 4 11 3 12 2 13
REMARK SMILES IDX 1 14
REMARK H PARENT
REMARK Flexibility Score: inf
ROOT
ATOM      1  C   UNL     1       9.665   6.752  30.267  1.00  0.00     0.000 C 
ENDROOT
BRANCH   1   2
ATOM      2  C   UNL     1       8.325   6.474  30.970  1.00  0.00     0.000 C 
BRANCH   2   3
ATOM      3  C   UNL     1       8.313   5.124  31.704  1.00  0.00     0.000 C 
BRANCH   3   4
ATOM      4  C   UNL     1       9.370   4.145  31.161  1.00  0.00     0.006 C 
BRANCH   4   5
ATOM      5  C   UNL     1       9.399   2.829  31.948  1.00  0.00     0.053 C 
BRANCH   5   6
ATOM      6  C   UNL     1       8.716   1.720  31.206  1.00  0.00     0.041 C 
ATOM      7  O   UNL     1       8.154   0.787  31.835  1.00  0.00    -0.550 OA
ATOM      8  O   UNL     1       8.677   1.736  29.817  1.00  0.00    -0.550 OA
ENDBRANCH   5   6
ENDBRANCH   4   5
ENDBRANCH   3   4
ENDBRANCH   2   3
ENDBRANCH   1   2
BRANCH   1   9
ATOM      9  C   UNL     1      10.476   7.875  30.941  1.00  0.00     0.000 C 
BRANCH   9  10
ATOM     10  C   UNL     1      10.096   8.177  32.402  1.00  0.00    -0.000 C 
BRANCH  10  11
ATOM     11  C   UNL     1      11.196   7.779  33.403  1.00  0.00    -0.000 C 
BRANCH  11  12
ATOM     12  C   UNL     1      11.857   6.431  33.061  1.00  0.00    -0.000 C 
BRANCH  12  13
ATOM     13  C   UNL     1      11.575   5.293  34.059  1.00  0.00    -0.003 C 
ATOM     14  C   UNL     1      10.240   5.451  34.787  1.00  0.00     0.004 C 
ENDBRANCH  12  13
ENDBRANCH  11  12
ENDBRANCH  10  11
ENDBRANCH   9  10
ENDBRANCH   1   9
TORSDOF 10
ENDMDL
MODEL 5
REMARK VINA RESULT:    -3.320     11.925     13.938
REMARK INTER + INTRA:          -5.993
REMARK INTER:                  -4.601
REMARK INTRA:                  -1.392
REMARK UNBOUND:                -0.733
REMARK SMILES CCCCCCCCCCCC(=O)[O-]
REMARK SMILES IDX 7 1 8 2 9 3 10 4 11 5 12 6 13 7 14 8 6 9 5 10 4 11 3 12 2 13
REMARK SMILES IDX 1 14
REMARK H PARENT
REMARK Flexibility Score: inf
ROOT
ATOM      1  C   UNL     1      10.430   8.238  31.672  1.00  0.00     0.000 C 
ENDROOT
BRANCH   1   2
ATOM      2  C   UNL     1      11.142   8.161  33.034  1.00  0.00     0.000 C 
BRANCH   2   3
ATOM      3  C   UNL     1      10.502   7.129  33.977  1.00  0.00     0.000 C 
BRANCH   3   4
ATOM      4  C   UNL     1      10.991   5.695  33.702  1.00  0.00     0.006 C 
BRANCH   4   5
ATOM      5  C   UNL     1      12.469   5.655  33.293  1.00  0.00     0.053 C 
BRANCH   5   6
ATOM      6  C   UNL     1      13.290   4.848  34.252  1.00  0.00     0.041 C 
ATOM      7  O   UNL     1      12.735   4.033  35.033  1.00  0.00    -0.550 OA
ATOM      8  O   UNL     1      14.673   4.977  34.261  1.00  0.00    -0.550 OA
ENDBRANCH   5   6
ENDBRANCH   4   5
ENDBRANCH   3   4
ENDBRANCH   2   3
ENDBRANCH   1   2
BRANCH   1   9
ATOM      9  C   UNL     1       8.898   8.332  31.799  1.00  0.00     0.000 C 
BRANCH   9  10
ATOM     10  C   UNL     1       8.100   7.434  30.836  1.00  0.00    -0.000 C 
BRANCH  10  11
ATOM     11  C   UNL     1       8.271   5.933  31.132  1.00  0.00    -0.000 C 
BRANCH  11  12
ATOM     12  C   UNL     1       8.759   5.134  29.910  1.00  0.00    -0.000 C 
BRANCH  12  13
ATOM     13  C   UNL     1      10.134   4.459  30.078  1.00  0.00    -0.003 C 
ATOM     14  C   UNL     1      11.297   5.354  29.650  1.00  0.00     0.004 C 
ENDBRANCH  12  13
ENDBRANCH  11  12
ENDBRANCH  10  11
ENDBRANCH   9  10
ENDBRANCH   1   9
TORSDOF 10
ENDMDL
MODEL 6
REMARK VINA RESULT:    -3.316      2.363      3.870
REMARK INTER + INTRA:          -5.987
REMARK INTER:                  -4.581
REMARK INTRA:                  -1.406
REMARK UNBOUND:                -0.733
REMARK SMILES CCCCCCCCCCCC(=O)[O-]
REMARK SMILES IDX 7 1 8 2 9 3 10 4 11 5 12 6 13 7 14 8 6 9 5 10 4 11 3 12 2 13
REMARK SMILES IDX 1 14
REMARK H PARENT
REMARK Flexibility Score: inf
ROOT
ATOM      1  C   UNL     1      21.292   5.311  27.007  1.00  0.00     0.000 C 
ENDROOT
BRANCH   1   2
ATOM      2  C   UNL     1      22.219   4.154  27.417  1.00  0.00     0.000 C 
BRANCH   2   3
ATOM      3  C   UNL     1      23.266   4.578  28.460  1.00  0.00     0.000 C 
BRANCH   3   4
ATOM      4  C   UNL     1      23.416   6.107  28.559  1.00  0.00     0.006 C 
BRANCH   4   5
ATOM      5  C   UNL     1      23.511   6.586  30.013  1.00  0.00     0.053 C 
BRANCH   5   6
ATOM      6  C   UNL     1      24.388   7.793  30.146  1.00  0.00     0.041 C 
ATOM      7  O   UNL     1      25.551   7.789  29.663  1.00  0.00    -0.550 OA
ATOM      8  O   UNL     1      23.910   8.934  30.779  1.00  0.00    -0.550 OA
ENDBRANCH   5   6
ENDBRANCH   4   5
ENDBRANCH   3   4
ENDBRANCH   2   3
ENDBRANCH   1   2
BRANCH   1   9
ATOM      9  C   UNL     1      19.808   5.027  27.303  1.00  0.00     0.000 C 
BRANCH   9  10
ATOM     10  C   UNL     1      19.501   4.546  28.733  1.00  0.00    -0.000 C 
BRANCH  10  11
ATOM     11  C   UNL     1      19.818   5.605  29.804  1.00  0.00    -0.000 C 
BRANCH  11  12
ATOM     12  C   UNL     1      19.986   5.002  31.211  1.00  0.00    -0.000 C 
BRANCH  12  13
ATOM     13  C   UNL     1      21.135   3.987  31.354  1.00  0.00    -0.003 C 
ATOM     14  C   UNL     1      22.000   4.230  32.591  1.00  0.00     0.004 C 
ENDBRANCH  12  13
ENDBRANCH  11  12
ENDBRANCH  10  11
ENDBRANCH   9  10
ENDBRANCH   1   9
TORSDOF 10
ENDMDL
MODEL 7
REMARK VINA RESULT:    -3.270      8.661     10.144
REMARK INTER + INTRA:          -5.915
REMARK INTER:                  -4.277
REMARK INTRA:                  -1.638
REMARK UNBOUND:                -0.733
REMARK SMILES CCCCCCCCCCCC(=O)[O-]
REMARK SMILES IDX 7 1 8 2 9 3 10 4 11 5 12 6 13 7 14 8 6 9 5 10 4 11 3 12 2 13
REMARK SMILES IDX 1 14
REMARK H PARENT
REMARK Flexibility Score: inf
ROOT
ATOM      1  C   UNL     1      21.305   6.532  39.135  1.00  0.00     0.000 C 
ENDROOT
BRANCH   1   2
ATOM      2  C   UNL     1      22.514   7.334  38.623  1.00  0.00     0.000 C 
BRANCH   2   3
ATOM      3  C   UNL     1      22.433   8.824  38.992  1.00  0.00     0.000 C 
BRANCH   3   4
ATOM      4  C   UNL     1      22.635   9.747  37.777  1.00  0.00     0.006 C 
BRANCH   4   5
ATOM      5  C   UNL     1      21.310  10.092  37.085  1.00  0.00     0.053 C 
BRANCH   5   6
ATOM      6  C   UNL     1      21.130   9.324  35.812  1.00  0.00     0.041 C 
ATOM      7  O   UNL     1      19.977   9.001  35.422  1.00  0.00    -0.550 OA
ATOM      8  O   UNL     1      22.235   8.990  35.039  1.00  0.00    -0.550 OA
ENDBRANCH   5   6
ENDBRANCH   4   5
ENDBRANCH   3   4
ENDBRANCH   2   3
ENDBRANCH   1   2
BRANCH   1   9
ATOM      9  C   UNL     1      20.110   6.562  38.165  1.00  0.00     0.000 C 
BRANCH   9  10
ATOM     10  C   UNL     1      18.978   7.537  38.541  1.00  0.00    -0.000 C 
BRANCH  10  11
ATOM     11  C   UNL     1      18.908   7.820  40.052  1.00  0.00    -0.000 C 
BRANCH  11  12
ATOM     12  C   UNL     1      19.076   9.313  40.389  1.00  0.00    -0.000 C 
BRANCH  12  13
ATOM     13  C   UNL     1      19.835   9.605  41.698  1.00  0.00    -0.003 C 
ATOM     14  C   UNL     1      20.582   8.388  42.242  1.00  0.00     0.004 C 
ENDBRANCH  12  13
ENDBRANCH  11  12
ENDBRANCH  10  11
ENDBRANCH   9  10
ENDBRANCH   1   9
TORSDOF 10
ENDMDL
MODEL 8
REMARK VINA RESULT:    -3.261     13.536     15.229
REMARK INTER + INTRA:          -5.900
REMARK INTER:                  -4.308
REMARK INTRA:                  -1.592
REMARK UNBOUND:                -0.733
REMARK SMILES CCCCCCCCCCCC(=O)[O-]
REMARK SMILES IDX 7 1 8 2 9 3 10 4 11 5 12 6 13 7 14 8 6 9 5 10 4 11 3 12 2 13
REMARK SMILES IDX 1 14
REMARK H PARENT
REMARK Flexibility Score: inf
ROOT
ATOM      1  C   UNL     1      11.119   7.907  33.143  1.00  0.00     0.000 C 
ENDROOT
BRANCH   1   2
ATOM      2  C   UNL     1      11.489   6.423  33.308  1.00  0.00     0.000 C 
BRANCH   2   3
ATOM      3  C   UNL     1      10.337   5.589  33.892  1.00  0.00     0.000 C 
BRANCH   3   4
ATOM      4  C   UNL     1      10.173   4.230  33.187  1.00  0.00     0.006 C 
BRANCH   4   5
ATOM      5  C   UNL     1       8.699   3.868  32.965  1.00  0.00     0.053 C 
BRANCH   5   6
ATOM      6  C   UNL     1       8.543   2.482  32.417  1.00  0.00     0.041 C 
ATOM      7  O   UNL     1       9.039   2.182  31.300  1.00  0.00    -0.550 OA
ATOM      8  O   UNL     1       7.875   1.514  33.156  1.00  0.00    -0.550 OA
ENDBRANCH   5   6
ENDBRANCH   4   5
ENDBRANCH   3   4
ENDBRANCH   2   3
ENDBRANCH   1   2
BRANCH   1   9
ATOM      9  C   UNL     1      10.475   8.219  31.780  1.00  0.00     0.000 C 
BRANCH   9  10
ATOM     10  C   UNL     1       8.936   8.264  31.771  1.00  0.00    -0.000 C 
BRANCH  10  11
ATOM     11  C   UNL     1       8.305   7.084  31.010  1.00  0.00    -0.000 C 
BRANCH  11  12
ATOM     12  C   UNL     1       9.063   6.732  29.717  1.00  0.00    -0.000 C 
BRANCH  12  13
ATOM     13  C   UNL     1       9.465   5.252  29.578  1.00  0.00    -0.003 C 
ATOM     14  C   UNL     1      10.976   5.033  29.628  1.00  0.00     0.004 C 
ENDBRANCH  12  13
ENDBRANCH  11  12
ENDBRANCH  10  11
ENDBRANCH   9  10
ENDBRANCH   1   9
TORSDOF 10
ENDMDL
