MODEL 1
REMARK VINA RESULT:    -8.324      0.000      0.000
REMARK INTER + INTRA:          -8.568
REMARK INTER:                  -8.568
REMARK INTRA:                   0.000
REMARK UNBOUND:                 0.000
REMARK SMILES CC1(C)CC[C@]2(C)CC[C@]3(C)C(=CC[C@H]4[C@]5(C)CC[C@H](O)C(C)(C)[C@@H]5CC[C@]43C)[C@H]2C1
REMARK SMILES IDX 1 1 2 2 4 3 5 4 6 5 8 6 9 7 10 8 12 9 13 10 14 11 15 12
REMARK SMILES IDX 28 13 27 14 26 15 25 16 16 17 18 18 19 19 20 20 22 21 23 22
REMARK SMILES IDX 24 23 17 24 29 25 30 26 31 27 11 28 7 29 3 30 21 31
REMARK H PARENT 21 32
REMARK Flexibility Score: inf
ROOT
ATOM      1  C   UNL     1       1.352  15.877  46.445  1.00  0.00     0.011 C 
ATOM      2  C   UNL     1       0.118  16.798  46.560  1.00  0.00    -0.035 C 
ATOM      3  C   UNL     1      -1.006  16.024  47.300  1.00  0.00     0.007 C 
ATOM      4  C   UNL     1      -2.194  16.911  47.717  1.00  0.00     0.008 C 
ATOM      5  C   UNL     1      -1.773  18.162  48.540  1.00  0.00    -0.026 C 
ATOM      6  C   UNL     1      -3.023  19.071  48.721  1.00  0.00     0.008 C 
ATOM      7  C   UNL     1      -2.713  20.462  49.327  1.00  0.00     0.012 C 
ATOM      8  C   UNL     1      -1.553  21.264  48.630  1.00  0.00    -0.006 C 
ATOM      9  C   UNL     1      -0.386  20.271  48.476  1.00  0.00    -0.064 C 
ATOM     10  C   UNL     1       0.747  20.393  49.191  1.00  0.00    -0.027 C 
ATOM     11  C   UNL     1       1.029  21.491  50.154  1.00  0.00     0.032 C 
ATOM     12  C   UNL     1      -0.232  22.222  50.700  1.00  0.00     0.006 C 
ATOM     13  C   UNL     1      -1.157  22.592  49.479  1.00  0.00    -0.020 C 
ATOM     14  C   UNL     1      -0.380  23.610  48.595  1.00  0.00     0.008 C 
ATOM     15  C   UNL     1       0.423  24.722  49.313  1.00  0.00     0.005 C 
ATOM     16  C   UNL     1       0.535  24.761  50.882  1.00  0.00     0.003 C 
ATOM     17  C   UNL     1       0.179  23.430  51.675  1.00  0.00    -0.025 C 
ATOM     18  C   UNL     1      -0.940  23.688  52.737  1.00  0.00     0.010 C 
ATOM     19  C   UNL     1      -0.672  24.865  53.698  1.00  0.00     0.033 C 
ATOM     20  C   UNL     1       0.159  26.022  53.098  1.00  0.00     0.120 C 
ATOM     21  C   UNL     1       0.058  26.132  51.546  1.00  0.00    -0.006 C 
ATOM     22  C   UNL     1       1.022  27.271  51.098  1.00  0.00     0.014 C 
ATOM     23  C   UNL     1      -1.379  26.579  51.154  1.00  0.00     0.014 C 
ATOM     24  C   UNL     1       1.419  22.984  52.538  1.00  0.00     0.012 C 
ATOM     25  C   UNL     1      -2.471  23.286  49.930  1.00  0.00     0.012 C 
ATOM     26  C   UNL     1      -0.695  18.954  47.745  1.00  0.00     0.022 C 
ATOM     27  C   UNL     1       0.522  18.066  47.366  1.00  0.00     0.015 C 
ATOM     28  C   UNL     1      -2.031  21.671  47.193  1.00  0.00     0.017 C 
ATOM     29  C   UNL     1      -1.266  17.720  49.941  1.00  0.00     0.012 C 
ATOM     30  C   UNL     1      -0.326  17.168  45.124  1.00  0.00     0.011 C 
ENDROOT
BRANCH  20  31
ATOM     31  O   UNL     1      -0.248  27.229  53.707  1.00  0.00    -0.393 OA
ATOM     32  H   UNL     1      -1.209  27.142  53.943  1.00  0.00     0.210 HD
ENDBRANCH  20  31
TORSDOF 1
ENDMDL
MODEL 2
REMARK VINA RESULT:    -8.006      5.454      8.486
REMARK INTER + INTRA:          -8.240
REMARK INTER:                  -8.240
REMARK INTRA:                   0.000
REMARK UNBOUND:                 0.000
REMARK SMILES CC1(C)CC[C@]2(C)CC[C@]3(C)C(=CC[C@H]4[C@]5(C)CC[C@H](O)C(C)(C)[C@@H]5CC[C@]43C)[C@H]2C1
REMARK SMILES IDX 1 1 2 2 4 3 5 4 6 5 8 6 9 7 10 8 12 9 13 10 14 11 15 12
REMARK SMILES IDX 28 13 27 14 26 15 25 16 16 17 18 18 19 19 20 20 22 21 23 22
REMARK SMILES IDX 24 23 17 24 29 25 30 26 31 27 11 28 7 29 3 30 21 31
REMARK H PARENT 21 32
REMARK Flexibility Score: inf
ROOT
ATOM      1  C   UNL     1      -2.601  19.237  49.252  1.00  0.00     0.011 C 
ATOM      2  C   UNL     1      -1.550  18.155  48.918  1.00  0.00    -0.035 C 
ATOM      3  C   UNL     1      -2.152  17.199  47.853  1.00  0.00     0.007 C 
ATOM      4  C   UNL     1      -1.119  16.237  47.236  1.00  0.00     0.008 C 
ATOM      5  C   UNL     1       0.135  16.958  46.664  1.00  0.00    -0.026 C 
ATOM      6  C   UNL     1       1.179  15.876  46.261  1.00  0.00     0.008 C 
ATOM      7  C   UNL     1       2.569  16.446  45.884  1.00  0.00     0.012 C 
ATOM      8  C   UNL     1       3.196  17.450  46.920  1.00  0.00    -0.006 C 
ATOM      9  C   UNL     1       2.078  18.452  47.267  1.00  0.00    -0.064 C 
ATOM     10  C   UNL     1       2.131  19.737  46.872  1.00  0.00    -0.027 C 
ATOM     11  C   UNL     1       3.257  20.347  46.116  1.00  0.00     0.032 C 
ATOM     12  C   UNL     1       4.151  19.334  45.343  1.00  0.00     0.006 C 
ATOM     13  C   UNL     1       4.530  18.160  46.323  1.00  0.00    -0.020 C 
ATOM     14  C   UNL     1       5.399  18.765  47.463  1.00  0.00     0.008 C 
ATOM     15  C   UNL     1       6.468  19.816  47.075  1.00  0.00     0.005 C 
ATOM     16  C   UNL     1       6.602  20.331  45.594  1.00  0.00     0.003 C 
ATOM     17  C   UNL     1       5.373  20.082  44.617  1.00  0.00    -0.025 C 
ATOM     18  C   UNL     1       5.818  19.299  43.338  1.00  0.00     0.010 C 
ATOM     19  C   UNL     1       7.024  19.902  42.588  1.00  0.00     0.033 C 
ATOM     20  C   UNL     1       8.045  20.644  43.481  1.00  0.00     0.120 C 
ATOM     21  C   UNL     1       8.058  20.156  44.962  1.00  0.00    -0.006 C 
ATOM     22  C   UNL     1       9.057  21.063  45.740  1.00  0.00     0.014 C 
ATOM     23  C   UNL     1       8.624  18.709  45.022  1.00  0.00     0.014 C 
ATOM     24  C   UNL     1       4.861  21.460  44.054  1.00  0.00     0.012 C 
ATOM     25  C   UNL     1       5.386  17.069  45.624  1.00  0.00     0.012 C 
ATOM     26  C   UNL     1       0.754  17.857  47.773  1.00  0.00     0.022 C 
ATOM     27  C   UNL     1      -0.280  18.856  48.360  1.00  0.00     0.015 C 
ATOM     28  C   UNL     1       3.551  16.654  48.223  1.00  0.00     0.017 C 
ATOM     29  C   UNL     1      -0.261  17.769  45.399  1.00  0.00     0.012 C 
ATOM     30  C   UNL     1      -1.236  17.388  50.226  1.00  0.00     0.011 C 
ENDROOT
BRANCH  20  31
ATOM     31  O   UNL     1       9.326  20.509  42.904  1.00  0.00    -0.393 OA
ATOM     32  H   UNL     1       9.706  19.642  43.205  1.00  0.00     0.210 HD
ENDBRANCH  20  31
TORSDOF 1
ENDMDL
MODEL 3
REMARK VINA RESULT:    -7.801      4.455      8.155
REMARK INTER + INTRA:          -8.029
REMARK INTER:                  -8.029
REMARK INTRA:                   0.000
REMARK UNBOUND:                 0.000
REMARK SMILES CC1(C)CC[C@]2(C)CC[C@]3(C)C(=CC[C@H]4[C@]5(C)CC[C@H](O)C(C)(C)[C@@H]5CC[C@]43C)[C@H]2C1
REMARK SMILES IDX 1 1 2 2 4 3 5 4 6 5 8 6 9 7 10 8 12 9 13 10 14 11 15 12
REMARK SMILES IDX 28 13 27 14 26 15 25 16 16 17 18 18 19 19 20 20 22 21 23 22
REMARK SMILES IDX 24 23 17 24 29 25 30 26 31 27 11 28 7 29 3 30 21 31
REMARK H PARENT 21 32
REMARK Flexibility Score: inf
ROOT
ATOM      1  C   UNL     1      -9.045  27.995  46.993  1.00  0.00     0.011 C 
ATOM      2  C   UNL     1      -7.557  28.016  46.581  1.00  0.00    -0.035 C 
ATOM      3  C   UNL     1      -7.110  29.496  46.430  1.00  0.00     0.007 C 
ATOM      4  C   UNL     1      -5.587  29.668  46.284  1.00  0.00     0.008 C 
ATOM      5  C   UNL     1      -4.775  28.974  47.414  1.00  0.00    -0.026 C 
ATOM      6  C   UNL     1      -3.265  29.046  47.046  1.00  0.00     0.008 C 
ATOM      7  C   UNL     1      -2.346  28.201  47.964  1.00  0.00     0.012 C 
ATOM      8  C   UNL     1      -2.786  26.705  48.173  1.00  0.00    -0.006 C 
ATOM      9  C   UNL     1      -4.290  26.749  48.505  1.00  0.00    -0.064 C 
ATOM     10  C   UNL     1      -4.755  26.447  49.731  1.00  0.00    -0.027 C 
ATOM     11  C   UNL     1      -3.911  26.002  50.872  1.00  0.00     0.032 C 
ATOM     12  C   UNL     1      -2.406  26.384  50.762  1.00  0.00     0.006 C 
ATOM     13  C   UNL     1      -1.897  25.982  49.326  1.00  0.00    -0.020 C 
ATOM     14  C   UNL     1      -1.988  24.433  49.214  1.00  0.00     0.008 C 
ATOM     15  C   UNL     1      -1.557  23.595  50.442  1.00  0.00     0.005 C 
ATOM     16  C   UNL     1      -1.141  24.286  51.793  1.00  0.00     0.003 C 
ATOM     17  C   UNL     1      -1.572  25.802  52.004  1.00  0.00    -0.025 C 
ATOM     18  C   UNL     1      -0.331  26.704  52.308  1.00  0.00     0.010 C 
ATOM     19  C   UNL     1       0.575  26.208  53.454  1.00  0.00     0.033 C 
ATOM     20  C   UNL     1       0.626  24.673  53.630  1.00  0.00     0.120 C 
ATOM     21  C   UNL     1       0.308  23.879  52.326  1.00  0.00    -0.006 C 
ATOM     22  C   UNL     1       0.303  22.366  52.693  1.00  0.00     0.014 C 
ATOM     23  C   UNL     1       1.460  24.089  51.301  1.00  0.00     0.014 C 
ATOM     24  C   UNL     1      -2.451  25.922  53.306  1.00  0.00     0.012 C 
ATOM     25  C   UNL     1      -0.410  26.372  49.104  1.00  0.00     0.012 C 
ATOM     26  C   UNL     1      -5.195  27.479  47.498  1.00  0.00     0.022 C 
ATOM     27  C   UNL     1      -6.727  27.312  47.691  1.00  0.00     0.015 C 
ATOM     28  C   UNL     1      -2.615  25.946  46.813  1.00  0.00     0.017 C 
ATOM     29  C   UNL     1      -5.000  29.726  48.756  1.00  0.00     0.012 C 
ATOM     30  C   UNL     1      -7.434  27.268  45.231  1.00  0.00     0.011 C 
ENDROOT
BRANCH  20  31
ATOM     31  O   UNL     1       1.900  24.320  54.124  1.00  0.00    -0.393 OA
ATOM     32  H   UNL     1       2.055  23.362  53.913  1.00  0.00     0.210 HD
ENDBRANCH  20  31
TORSDOF 1
ENDMDL
MODEL 4
REMARK VINA RESULT:    -7.727      1.725      2.467
REMARK INTER + INTRA:          -7.952
REMARK INTER:                  -7.952
REMARK INTRA:                   0.000
REMARK UNBOUND:                 0.000
REMARK SMILES CC1(C)CC[C@]2(C)CC[C@]3(C)C(=CC[C@H]4[C@]5(C)CC[C@H](O)C(C)(C)[C@@H]5CC[C@]43C)[C@H]2C1
REMARK SMILES IDX 1 1 2 2 4 3 5 4 6 5 8 6 9 7 10 8 12 9 13 10 14 11 15 12
REMARK SMILES IDX 28 13 27 14 26 15 25 16 16 17 18 18 19 19 20 20 22 21 23 22
REMARK SMILES IDX 24 23 17 24 29 25 30 26 31 27 11 28 7 29 3 30 21 31
REMARK H PARENT 21 32
REMARK Flexibility Score: inf
ROOT
ATOM      1  C   UNL     1       4.380  16.336  47.622  1.00  0.00     0.011 C 
ATOM      2  C   UNL     1       3.310  17.152  46.866  1.00  0.00    -0.035 C 
ATOM      3  C   UNL     1       2.101  16.223  46.573  1.00  0.00     0.007 C 
ATOM      4  C   UNL     1       0.856  16.974  46.062  1.00  0.00     0.008 C 
ATOM      5  C   UNL     1       0.420  18.148  46.983  1.00  0.00    -0.026 C 
ATOM      6  C   UNL     1      -0.707  18.943  46.261  1.00  0.00     0.008 C 
ATOM      7  C   UNL     1      -1.088  20.274  46.955  1.00  0.00     0.012 C 
ATOM      8  C   UNL     1       0.113  21.228  47.304  1.00  0.00    -0.006 C 
ATOM      9  C   UNL     1       1.173  20.340  47.984  1.00  0.00    -0.064 C 
ATOM     10  C   UNL     1       1.460  20.457  49.294  1.00  0.00    -0.027 C 
ATOM     11  C   UNL     1       0.847  21.454  50.211  1.00  0.00     0.032 C 
ATOM     12  C   UNL     1      -0.517  22.031  49.734  1.00  0.00     0.006 C 
ATOM     13  C   UNL     1      -0.369  22.474  48.229  1.00  0.00    -0.020 C 
ATOM     14  C   UNL     1       0.664  23.636  48.184  1.00  0.00     0.008 C 
ATOM     15  C   UNL     1       0.588  24.712  49.296  1.00  0.00     0.005 C 
ATOM     16  C   UNL     1      -0.429  24.578  50.488  1.00  0.00     0.003 C 
ATOM     17  C   UNL     1      -1.061  23.144  50.756  1.00  0.00    -0.025 C 
ATOM     18  C   UNL     1      -2.624  23.202  50.729  1.00  0.00     0.010 C 
ATOM     19  C   UNL     1      -3.255  24.277  51.638  1.00  0.00     0.033 C 
ATOM     20  C   UNL     1      -2.400  25.550  51.837  1.00  0.00     0.120 C 
ATOM     21  C   UNL     1      -1.405  25.829  50.669  1.00  0.00    -0.006 C 
ATOM     22  C   UNL     1      -0.559  27.075  51.067  1.00  0.00     0.014 C 
ATOM     23  C   UNL     1      -2.205  26.219  49.393  1.00  0.00     0.014 C 
ATOM     24  C   UNL     1      -0.728  22.689  52.226  1.00  0.00     0.012 C 
ATOM     25  C   UNL     1      -1.701  23.020  47.647  1.00  0.00     0.012 C 
ATOM     26  C   UNL     1       1.633  19.097  47.205  1.00  0.00     0.022 C 
ATOM     27  C   UNL     1       2.871  18.344  47.763  1.00  0.00     0.015 C 
ATOM     28  C   UNL     1       0.723  21.763  45.963  1.00  0.00     0.017 C 
ATOM     29  C   UNL     1      -0.140  17.584  48.319  1.00  0.00     0.012 C 
ATOM     30  C   UNL     1       3.947  17.652  45.546  1.00  0.00     0.011 C 
ENDROOT
BRANCH  20  31
ATOM     31  O   UNL     1      -3.266  26.648  52.022  1.00  0.00    -0.393 OA
ATOM     32  H   UNL     1      -3.884  26.428  52.768  1.00  0.00     0.210 HD
ENDBRANCH  20  31
TORSDOF 1
ENDMDL
MODEL 5
REMARK VINA RESULT:    -7.305      1.590      3.804
REMARK INTER + INTRA:          -7.518
REMARK INTER:                  -7.518
REMARK INTRA:                   0.000
REMARK UNBOUND:                 0.000
REMARK SMILES CC1(C)CC[C@]2(C)CC[C@]3(C)C(=CC[C@H]4[C@]5(C)CC[C@H](O)C(C)(C)[C@@H]5CC[C@]43C)[C@H]2C1
REMARK SMILES IDX 1 1 2 2 4 3 5 4 6 5 8 6 9 7 10 8 12 9 13 10 14 11 15 12
REMARK SMILES IDX 28 13 27 14 26 15 25 16 16 17 18 18 19 19 20 20 22 21 23 22
REMARK SMILES IDX 24 23 17 24 29 25 30 26 31 27 11 28 7 29 3 30 21 31
REMARK H PARENT 21 32
REMARK Flexibility Score: inf
ROOT
ATOM      1  C   UNL     1      -3.261  17.327  48.875  1.00  0.00     0.011 C 
ATOM      2  C   UNL     1      -1.901  18.052  48.790  1.00  0.00    -0.035 C 
ATOM      3  C   UNL     1      -1.456  18.090  47.303  1.00  0.00     0.007 C 
ATOM      4  C   UNL     1      -0.252  19.015  47.043  1.00  0.00     0.008 C 
ATOM      5  C   UNL     1      -0.454  20.460  47.579  1.00  0.00    -0.026 C 
ATOM      6  C   UNL     1       0.893  21.226  47.440  1.00  0.00     0.008 C 
ATOM      7  C   UNL     1       0.912  22.608  48.138  1.00  0.00     0.012 C 
ATOM      8  C   UNL     1       0.432  22.620  49.636  1.00  0.00    -0.006 C 
ATOM      9  C   UNL     1      -0.883  21.818  49.664  1.00  0.00    -0.064 C 
ATOM     10  C   UNL     1      -2.070  22.411  49.889  1.00  0.00    -0.027 C 
ATOM     11  C   UNL     1      -2.254  23.859  50.176  1.00  0.00     0.032 C 
ATOM     12  C   UNL     1      -1.086  24.774  49.705  1.00  0.00     0.006 C 
ATOM     13  C   UNL     1       0.269  24.137  50.195  1.00  0.00    -0.020 C 
ATOM     14  C   UNL     1       0.263  24.163  51.750  1.00  0.00     0.008 C 
ATOM     15  C   UNL     1      -0.285  25.432  52.448  1.00  0.00     0.005 C 
ATOM     16  C   UNL     1      -0.909  26.612  51.616  1.00  0.00     0.003 C 
ATOM     17  C   UNL     1      -1.348  26.302  50.120  1.00  0.00    -0.025 C 
ATOM     18  C   UNL     1      -0.651  27.276  49.114  1.00  0.00     0.010 C 
ATOM     19  C   UNL     1      -0.793  28.775  49.447  1.00  0.00     0.033 C 
ATOM     20  C   UNL     1      -0.895  29.104  50.954  1.00  0.00     0.120 C 
ATOM     21  C   UNL     1      -0.234  28.036  51.878  1.00  0.00    -0.006 C 
ATOM     22  C   UNL     1      -0.509  28.461  53.351  1.00  0.00     0.014 C 
ATOM     23  C   UNL     1       1.309  28.070  51.681  1.00  0.00     0.014 C 
ATOM     24  C   UNL     1      -2.881  26.619  49.946  1.00  0.00     0.012 C 
ATOM     25  C   UNL     1       1.503  24.958  49.728  1.00  0.00     0.012 C 
ATOM     26  C   UNL     1      -0.834  20.394  49.087  1.00  0.00     0.022 C 
ATOM     27  C   UNL     1      -2.076  19.496  49.338  1.00  0.00     0.015 C 
ATOM     28  C   UNL     1       1.487  21.843  50.497  1.00  0.00     0.017 C 
ATOM     29  C   UNL     1      -1.535  21.186  46.731  1.00  0.00     0.012 C 
ATOM     30  C   UNL     1      -0.888  17.250  49.643  1.00  0.00     0.011 C 
ENDROOT
BRANCH  20  31
ATOM     31  O   UNL     1      -0.321  30.374  51.176  1.00  0.00    -0.393 OA
ATOM     32  H   UNL     1       0.458  30.254  51.781  1.00  0.00     0.210 HD
ENDBRANCH  20  31
TORSDOF 1
ENDMDL
MODEL 6
REMARK VINA RESULT:    -6.833      4.307      7.168
REMARK INTER + INTRA:          -7.033
REMARK INTER:                  -7.033
REMARK INTRA:                   0.000
REMARK UNBOUND:                 0.000
REMARK SMILES CC1(C)CC[C@]2(C)CC[C@]3(C)C(=CC[C@H]4[C@]5(C)CC[C@H](O)C(C)(C)[C@@H]5CC[C@]43C)[C@H]2C1
REMARK SMILES IDX 1 1 2 2 4 3 5 4 6 5 8 6 9 7 10 8 12 9 13 10 14 11 15 12
REMARK SMILES IDX 28 13 27 14 26 15 25 16 16 17 18 18 19 19 20 20 22 21 23 22
REMARK SMILES IDX 24 23 17 24 29 25 30 26 31 27 11 28 7 29 3 30 21 31
REMARK H PARENT 21 32
REMARK Flexibility Score: inf
ROOT
ATOM      1  C   UNL     1       0.267  22.199  53.778  1.00  0.00     0.011 C 
ATOM      2  C   UNL     1       0.560  22.710  52.351  1.00  0.00    -0.035 C 
ATOM      3  C   UNL     1       0.504  21.503  51.376  1.00  0.00     0.007 C 
ATOM      4  C   UNL     1       0.513  21.909  49.890  1.00  0.00     0.008 C 
ATOM      5  C   UNL     1      -0.588  22.945  49.525  1.00  0.00    -0.026 C 
ATOM      6  C   UNL     1      -0.345  23.421  48.064  1.00  0.00     0.008 C 
ATOM      7  C   UNL     1      -1.227  24.620  47.633  1.00  0.00     0.012 C 
ATOM      8  C   UNL     1      -1.228  25.850  48.613  1.00  0.00    -0.006 C 
ATOM      9  C   UNL     1      -1.447  25.266  50.022  1.00  0.00    -0.064 C 
ATOM     10  C   UNL     1      -2.591  25.466  50.702  1.00  0.00    -0.027 C 
ATOM     11  C   UNL     1      -3.734  26.285  50.218  1.00  0.00     0.032 C 
ATOM     12  C   UNL     1      -3.784  26.493  48.676  1.00  0.00     0.006 C 
ATOM     13  C   UNL     1      -2.354  26.943  48.191  1.00  0.00    -0.020 C 
ATOM     14  C   UNL     1      -2.057  28.329  48.833  1.00  0.00     0.008 C 
ATOM     15  C   UNL     1      -3.209  29.361  48.884  1.00  0.00     0.005 C 
ATOM     16  C   UNL     1      -4.658  28.988  48.399  1.00  0.00     0.003 C 
ATOM     17  C   UNL     1      -5.010  27.444  48.262  1.00  0.00    -0.025 C 
ATOM     18  C   UNL     1      -5.510  27.104  46.819  1.00  0.00     0.010 C 
ATOM     19  C   UNL     1      -6.655  27.995  46.297  1.00  0.00     0.033 C 
ATOM     20  C   UNL     1      -6.656  29.444  46.835  1.00  0.00     0.120 C 
ATOM     21  C   UNL     1      -5.248  29.954  47.273  1.00  0.00    -0.006 C 
ATOM     22  C   UNL     1      -5.437  31.376  47.877  1.00  0.00     0.014 C 
ATOM     23  C   UNL     1      -4.346  30.115  46.017  1.00  0.00     0.014 C 
ATOM     24  C   UNL     1      -6.246  27.103  49.176  1.00  0.00     0.012 C 
ATOM     25  C   UNL     1      -2.291  27.129  46.650  1.00  0.00     0.012 C 
ATOM     26  C   UNL     1      -0.466  24.172  50.474  1.00  0.00     0.022 C 
ATOM     27  C   UNL     1      -0.521  23.761  51.971  1.00  0.00     0.015 C 
ATOM     28  C   UNL     1       0.194  26.507  48.580  1.00  0.00     0.017 C 
ATOM     29  C   UNL     1      -1.987  22.272  49.608  1.00  0.00     0.012 C 
ATOM     30  C   UNL     1       1.974  23.341  52.359  1.00  0.00     0.011 C 
ENDROOT
BRANCH  20  31
ATOM     31  O   UNL     1      -7.202  30.290  45.846  1.00  0.00    -0.393 OA
ATOM     32  H   UNL     1      -7.261  31.206  46.226  1.00  0.00     0.210 HD
ENDBRANCH  20  31
TORSDOF 1
ENDMDL
MODEL 7
REMARK VINA RESULT:    -6.827      2.995      3.937
REMARK INTER + INTRA:          -7.027
REMARK INTER:                  -7.027
REMARK INTRA:                   0.000
REMARK UNBOUND:                 0.000
REMARK SMILES CC1(C)CC[C@]2(C)CC[C@]3(C)C(=CC[C@H]4[C@]5(C)CC[C@H](O)C(C)(C)[C@@H]5CC[C@]43C)[C@H]2C1
REMARK SMILES IDX 1 1 2 2 4 3 5 4 6 5 8 6 9 7 10 8 12 9 13 10 14 11 15 12
REMARK SMILES IDX 28 13 27 14 26 15 25 16 16 17 18 18 19 19 20 20 22 21 23 22
REMARK SMILES IDX 24 23 17 24 29 25 30 26 31 27 11 28 7 29 3 30 21 31
REMARK H PARENT 21 32
REMARK Flexibility Score: inf
ROOT
ATOM      1  C   UNL     1       7.407  18.961  45.228  1.00  0.00     0.011 C 
ATOM      2  C   UNL     1       5.863  18.930  45.241  1.00  0.00    -0.035 C 
ATOM      3  C   UNL     1       5.403  17.487  45.582  1.00  0.00     0.007 C 
ATOM      4  C   UNL     1       3.898  17.376  45.889  1.00  0.00     0.008 C 
ATOM      5  C   UNL     1       3.416  18.366  46.987  1.00  0.00    -0.026 C 
ATOM      6  C   UNL     1       1.863  18.299  47.058  1.00  0.00     0.008 C 
ATOM      7  C   UNL     1       1.220  19.391  47.949  1.00  0.00     0.012 C 
ATOM      8  C   UNL     1       1.689  20.865  47.661  1.00  0.00    -0.006 C 
ATOM      9  C   UNL     1       3.227  20.812  47.585  1.00  0.00    -0.064 C 
ATOM     10  C   UNL     1       4.003  21.370  48.532  1.00  0.00    -0.027 C 
ATOM     11  C   UNL     1       3.496  22.124  49.709  1.00  0.00     0.032 C 
ATOM     12  C   UNL     1       2.020  21.817  50.097  1.00  0.00     0.006 C 
ATOM     13  C   UNL     1       1.139  21.893  48.793  1.00  0.00    -0.020 C 
ATOM     14  C   UNL     1       1.185  23.363  48.283  1.00  0.00     0.008 C 
ATOM     15  C   UNL     1       1.096  24.494  49.337  1.00  0.00     0.005 C 
ATOM     16  C   UNL     1       1.065  24.171  50.876  1.00  0.00     0.003 C 
ATOM     17  C   UNL     1       1.548  22.727  51.332  1.00  0.00    -0.025 C 
ATOM     18  C   UNL     1       0.441  21.998  52.165  1.00  0.00     0.010 C 
ATOM     19  C   UNL     1      -0.125  22.807  53.350  1.00  0.00     0.033 C 
ATOM     20  C   UNL     1      -0.139  24.340  53.150  1.00  0.00     0.120 C 
ATOM     21  C   UNL     1      -0.190  24.779  51.655  1.00  0.00    -0.006 C 
ATOM     22  C   UNL     1      -0.097  26.333  51.624  1.00  0.00     0.014 C 
ATOM     23  C   UNL     1      -1.574  24.400  51.054  1.00  0.00     0.014 C 
ATOM     24  C   UNL     1       2.746  22.869  52.345  1.00  0.00     0.012 C 
ATOM     25  C   UNL     1      -0.350  21.551  49.073  1.00  0.00     0.012 C 
ATOM     26  C   UNL     1       3.832  19.811  46.587  1.00  0.00     0.022 C 
ATOM     27  C   UNL     1       5.358  19.927  46.322  1.00  0.00     0.015 C 
ATOM     28  C   UNL     1       1.152  21.286  46.250  1.00  0.00     0.017 C 
ATOM     29  C   UNL     1       4.000  17.944  48.364  1.00  0.00     0.012 C 
ATOM     30  C   UNL     1       5.374  19.341  43.830  1.00  0.00     0.011 C 
ENDROOT
BRANCH  20  31
ATOM     31  O   UNL     1      -1.234  24.875  53.861  1.00  0.00    -0.393 OA
ATOM     32  H   UNL     1      -1.282  24.414  54.739  1.00  0.00     0.210 HD
ENDBRANCH  20  31
TORSDOF 1
ENDMDL
MODEL 8
REMARK VINA RESULT:    -6.742      4.152      8.074
REMARK INTER + INTRA:          -6.939
REMARK INTER:                  -6.939
REMARK INTRA:                   0.000
REMARK UNBOUND:                 0.000
REMARK SMILES CC1(C)CC[C@]2(C)CC[C@]3(C)C(=CC[C@H]4[C@]5(C)CC[C@H](O)C(C)(C)[C@@H]5CC[C@]43C)[C@H]2C1
REMARK SMILES IDX 1 1 2 2 4 3 5 4 6 5 8 6 9 7 10 8 12 9 13 10 14 11 15 12
REMARK SMILES IDX 28 13 27 14 26 15 25 16 16 17 18 18 19 19 20 20 22 21 23 22
REMARK SMILES IDX 24 23 17 24 29 25 30 26 31 27 11 28 7 29 3 30 21 31
REMARK H PARENT 21 32
REMARK Flexibility Score: inf
ROOT
ATOM      1  C   UNL     1      -3.593  23.444  51.162  1.00  0.00     0.011 C 
ATOM      2  C   UNL     1      -2.120  23.903  51.137  1.00  0.00    -0.035 C 
ATOM      3  C   UNL     1      -1.565  23.853  52.587  1.00  0.00     0.007 C 
ATOM      4  C   UNL     1      -0.037  24.028  52.669  1.00  0.00     0.008 C 
ATOM      5  C   UNL     1       0.749  23.043  51.759  1.00  0.00    -0.026 C 
ATOM      6  C   UNL     1       2.250  23.453  51.775  1.00  0.00     0.008 C 
ATOM      7  C   UNL     1       3.124  22.703  50.740  1.00  0.00     0.012 C 
ATOM      8  C   UNL     1       2.577  22.698  49.265  1.00  0.00    -0.006 C 
ATOM      9  C   UNL     1       1.091  22.308  49.367  1.00  0.00    -0.064 C 
ATOM     10  C   UNL     1       0.636  21.123  48.920  1.00  0.00    -0.027 C 
ATOM     11  C   UNL     1       1.472  20.092  48.251  1.00  0.00     0.032 C 
ATOM     12  C   UNL     1       2.999  20.200  48.536  1.00  0.00     0.006 C 
ATOM     13  C   UNL     1       3.438  21.697  48.317  1.00  0.00    -0.020 C 
ATOM     14  C   UNL     1       3.226  22.031  46.813  1.00  0.00     0.008 C 
ATOM     15  C   UNL     1       3.623  20.956  45.772  1.00  0.00     0.005 C 
ATOM     16  C   UNL     1       4.126  19.535  46.223  1.00  0.00     0.003 C 
ATOM     17  C   UNL     1       3.818  19.088  47.717  1.00  0.00    -0.025 C 
ATOM     18  C   UNL     1       5.132  18.702  48.473  1.00  0.00     0.010 C 
ATOM     19  C   UNL     1       6.027  17.676  47.748  1.00  0.00     0.033 C 
ATOM     20  C   UNL     1       5.966  17.728  46.205  1.00  0.00     0.120 C 
ATOM     21  C   UNL     1       5.554  19.122  45.638  1.00  0.00    -0.006 C 
ATOM     22  C   UNL     1       5.443  18.980  44.092  1.00  0.00     0.014 C 
ATOM     23  C   UNL     1       6.691  20.146  45.915  1.00  0.00     0.014 C 
ATOM     24  C   UNL     1       2.986  17.751  47.706  1.00  0.00     0.012 C 
ATOM     25  C   UNL     1       4.945  21.915  48.628  1.00  0.00     0.012 C 
ATOM     26  C   UNL     1       0.218  23.163  50.301  1.00  0.00     0.022 C 
ATOM     27  C   UNL     1      -1.317  22.940  50.218  1.00  0.00     0.015 C 
ATOM     28  C   UNL     1       2.654  24.161  48.706  1.00  0.00     0.017 C 
ATOM     29  C   UNL     1       0.617  21.598  52.317  1.00  0.00     0.012 C 
ATOM     30  C   UNL     1      -2.089  25.352  50.591  1.00  0.00     0.011 C 
ENDROOT
BRANCH  20  31
ATOM     31  O   UNL     1       7.221  17.338  45.692  1.00  0.00    -0.393 OA
ATOM     32  H   UNL     1       7.338  16.369  45.876  1.00  0.00     0.210 HD
ENDBRANCH  20  31
TORSDOF 1
ENDMDL
MODEL 9
REMARK VINA RESULT:    -6.649      6.056      8.917
REMARK INTER + INTRA:          -6.843
REMARK INTER:                  -6.843
REMARK INTRA:                   0.000
REMARK UNBOUND:                 0.000
REMARK SMILES CC1(C)CC[C@]2(C)CC[C@]3(C)C(=CC[C@H]4[C@]5(C)CC[C@H](O)C(C)(C)[C@@H]5CC[C@]43C)[C@H]2C1
REMARK SMILES IDX 1 1 2 2 4 3 5 4 6 5 8 6 9 7 10 8 12 9 13 10 14 11 15 12
REMARK SMILES IDX 28 13 27 14 26 15 25 16 16 17 18 18 19 19 20 20 22 21 23 22
REMARK SMILES IDX 24 23 17 24 29 25 30 26 31 27 11 28 7 29 3 30 21 31
REMARK H PARENT 21 32
REMARK Flexibility Score: inf
ROOT
ATOM      1  C   UNL     1      -1.255  23.073  49.818  1.00  0.00     0.011 C 
ATOM      2  C   UNL     1      -0.409  21.784  49.736  1.00  0.00    -0.035 C 
ATOM      3  C   UNL     1      -1.323  20.628  49.248  1.00  0.00     0.007 C 
ATOM      4  C   UNL     1      -0.550  19.350  48.867  1.00  0.00     0.008 C 
ATOM      5  C   UNL     1       0.593  19.601  47.843  1.00  0.00    -0.026 C 
ATOM      6  C   UNL     1       1.416  18.288  47.700  1.00  0.00     0.008 C 
ATOM      7  C   UNL     1       2.724  18.445  46.884  1.00  0.00     0.012 C 
ATOM      8  C   UNL     1       3.660  19.630  47.323  1.00  0.00    -0.006 C 
ATOM      9  C   UNL     1       2.746  20.863  47.460  1.00  0.00    -0.064 C 
ATOM     10  C   UNL     1       2.816  21.896  46.601  1.00  0.00    -0.027 C 
ATOM     11  C   UNL     1       3.783  22.001  45.476  1.00  0.00     0.032 C 
ATOM     12  C   UNL     1       4.381  20.645  44.999  1.00  0.00     0.006 C 
ATOM     13  C   UNL     1       4.875  19.849  46.266  1.00  0.00    -0.020 C 
ATOM     14  C   UNL     1       6.035  20.664  46.907  1.00  0.00     0.008 C 
ATOM     15  C   UNL     1       7.071  21.313  45.957  1.00  0.00     0.005 C 
ATOM     16  C   UNL     1       6.900  21.240  44.395  1.00  0.00     0.003 C 
ATOM     17  C   UNL     1       5.460  20.870  43.832  1.00  0.00    -0.025 C 
ATOM     18  C   UNL     1       5.524  19.623  42.890  1.00  0.00     0.010 C 
ATOM     19  C   UNL     1       6.570  19.709  41.760  1.00  0.00     0.033 C 
ATOM     20  C   UNL     1       7.831  20.537  42.096  1.00  0.00     0.120 C 
ATOM     21  C   UNL     1       8.148  20.611  43.621  1.00  0.00    -0.006 C 
ATOM     22  C   UNL     1       9.375  21.553  43.796  1.00  0.00     0.014 C 
ATOM     23  C   UNL     1       8.584  19.206  44.125  1.00  0.00     0.014 C 
ATOM     24  C   UNL     1       4.952  22.025  42.889  1.00  0.00     0.012 C 
ATOM     25  C   UNL     1       5.446  18.453  45.893  1.00  0.00     0.012 C 
ATOM     26  C   UNL     1       1.529  20.717  48.389  1.00  0.00     0.022 C 
ATOM     27  C   UNL     1       0.752  22.018  48.729  1.00  0.00     0.015 C 
ATOM     28  C   UNL     1       4.240  19.301  48.742  1.00  0.00     0.017 C 
ATOM     29  C   UNL     1      -0.015  19.965  46.460  1.00  0.00     0.012 C 
ATOM     30  C   UNL     1       0.134  21.489  51.156  1.00  0.00     0.011 C 
ENDROOT
BRANCH  20  31
ATOM     31  O   UNL     1       8.926  19.993  41.390  1.00  0.00    -0.393 OA
ATOM     32  H   UNL     1       8.615  19.764  40.475  1.00  0.00     0.210 HD
ENDBRANCH  20  31
TORSDOF 1
ENDMDL
