MODEL 1
REMARK VINA RESULT:    -4.012      0.000      0.000
REMARK INTER + INTRA:          -9.384
REMARK INTER:                  -7.296
REMARK INTRA:                  -2.088
REMARK UNBOUND:                -2.088
REMARK SMILES CCCCCCCCCCCCCCCC(=O)[O-]
REMARK SMILES IDX 9 1 10 2 11 3 12 4 13 5 14 6 15 7 16 8 17 9 18 10 8 11 7 12
REMARK SMILES IDX 6 13 5 14 4 15 3 16 2 17 1 18
REMARK H PARENT
REMARK Flexibility Score: inf
ROOT
ATOM      1  C   UNL     1     -33.784  13.139  13.023  1.00  0.00     0.000 C 
ENDROOT
BRANCH   1   2
ATOM      2  C   UNL     1     -33.666  11.900  13.925  1.00  0.00     0.000 C 
BRANCH   2   3
ATOM      3  C   UNL     1     -33.602  12.256  15.418  1.00  0.00     0.000 C 
BRANCH   3   4
ATOM      4  C   UNL     1     -32.513  11.439  16.129  1.00  0.00     0.000 C 
BRANCH   4   5
ATOM      5  C   UNL     1     -31.474  10.848  15.159  1.00  0.00     0.000 C 
BRANCH   5   6
ATOM      6  C   UNL     1     -30.002  11.059  15.570  1.00  0.00     0.006 C 
BRANCH   6   7
ATOM      7  C   UNL     1     -28.992  10.205  14.789  1.00  0.00     0.053 C 
BRANCH   7   8
ATOM      8  C   UNL     1     -28.881  10.636  13.359  1.00  0.00     0.041 C 
ATOM      9  O   UNL     1     -28.366  11.749  13.070  1.00  0.00    -0.550 OA
ATOM     10  O   UNL     1     -29.315   9.795  12.343  1.00  0.00    -0.550 OA
ENDBRANCH   7   8
ENDBRANCH   6   7
ENDBRANCH   5   6
ENDBRANCH   4   5
ENDBRANCH   3   4
ENDBRANCH   2   3
ENDBRANCH   1   2
BRANCH   1  11
ATOM     11  C   UNL     1     -32.864  14.287  13.473  1.00  0.00     0.000 C 
BRANCH  11  12
ATOM     12  C   UNL     1     -31.418  14.106  12.984  1.00  0.00    -0.000 C 
BRANCH  12  13
ATOM     13  C   UNL     1     -30.378  14.472  14.057  1.00  0.00    -0.000 C 
BRANCH  13  14
ATOM     14  C   UNL     1     -31.012  14.758  15.431  1.00  0.00    -0.000 C 
BRANCH  14  15
ATOM     15  C   UNL     1     -30.064  14.584  16.632  1.00  0.00    -0.000 C 
BRANCH  15  16
ATOM     16  C   UNL     1     -28.752  15.368  16.477  1.00  0.00    -0.000 C 
BRANCH  16  17
ATOM     17  C   UNL     1     -28.154  15.711  17.846  1.00  0.00    -0.003 C 
ATOM     18  C   UNL     1     -28.841  16.928  18.459  1.00  0.00     0.004 C 
ENDBRANCH  16  17
ENDBRANCH  15  16
ENDBRANCH  14  15
ENDBRANCH  13  14
ENDBRANCH  12  13
ENDBRANCH  11  12
ENDBRANCH   1  11
TORSDOF 14
ENDMDL
MODEL 2
REMARK VINA RESULT:    -3.936      1.566      3.756
REMARK INTER + INTRA:          -9.245
REMARK INTER:                  -8.031
REMARK INTRA:                  -1.215
REMARK UNBOUND:                -2.088
REMARK SMILES CCCCCCCCCCCCCCCC(=O)[O-]
REMARK SMILES IDX 9 1 10 2 11 3 12 4 13 5 14 6 15 7 16 8 17 9 18 10 8 11 7 12
REMARK SMILES IDX 6 13 5 14 4 15 3 16 2 17 1 18
REMARK H PARENT
REMARK Flexibility Score: inf
ROOT
ATOM      1  C   UNL     1     -30.732  14.832  16.251  1.00  0.00     0.000 C 
ENDROOT
BRANCH   1   2
ATOM      2  C   UNL     1     -30.212  14.854  14.805  1.00  0.00     0.000 C 
BRANCH   2   3
ATOM      3  C   UNL     1     -31.337  15.020  13.772  1.00  0.00     0.000 C 
BRANCH   3   4
ATOM      4  C   UNL     1     -32.445  13.981  13.998  1.00  0.00     0.000 C 
BRANCH   4   5
ATOM      5  C   UNL     1     -32.281  12.726  13.121  1.00  0.00     0.000 C 
BRANCH   5   6
ATOM      6  C   UNL     1     -31.308  11.665  13.675  1.00  0.00     0.006 C 
BRANCH   6   7
ATOM      7  C   UNL     1     -30.370  11.050  12.625  1.00  0.00     0.053 C 
BRANCH   7   8
ATOM      8  C   UNL     1     -28.929  11.219  12.995  1.00  0.00     0.041 C 
ATOM      9  O   UNL     1     -28.495  12.343  13.361  1.00  0.00    -0.550 OA
ATOM     10  O   UNL     1     -28.072  10.126  12.969  1.00  0.00    -0.550 OA
ENDBRANCH   7   8
ENDBRANCH   6   7
ENDBRANCH   5   6
ENDBRANCH   4   5
ENDBRANCH   3   4
ENDBRANCH   2   3
ENDBRANCH   1   2
BRANCH   1  11
ATOM     11  C   UNL     1     -29.713  15.402  17.254  1.00  0.00     0.000 C 
BRANCH  11  12
ATOM     12  C   UNL     1     -28.267  15.312  16.738  1.00  0.00    -0.000 C 
BRANCH  12  13
ATOM     13  C   UNL     1     -27.228  15.374  17.871  1.00  0.00    -0.000 C 
BRANCH  13  14
ATOM     14  C   UNL     1     -27.717  14.705  19.168  1.00  0.00    -0.000 C 
BRANCH  14  15
ATOM     15  C   UNL     1     -27.644  15.594  20.424  1.00  0.00    -0.000 C 
BRANCH  15  16
ATOM     16  C   UNL     1     -27.525  17.089  20.093  1.00  0.00    -0.000 C 
BRANCH  16  17
ATOM     17  C   UNL     1     -28.905  17.757  20.069  1.00  0.00    -0.003 C 
ATOM     18  C   UNL     1     -29.633  17.564  21.396  1.00  0.00     0.004 C 
ENDBRANCH  16  17
ENDBRANCH  15  16
ENDBRANCH  14  15
ENDBRANCH  13  14
ENDBRANCH  12  13
ENDBRANCH  11  12
ENDBRANCH   1  11
TORSDOF 14
ENDMDL
MODEL 3
REMARK VINA RESULT:    -3.834      1.517      2.116
REMARK INTER + INTRA:          -9.059
REMARK INTER:                  -7.496
REMARK INTRA:                  -1.563
REMARK UNBOUND:                -2.088
REMARK SMILES CCCCCCCCCCCCCCCC(=O)[O-]
REMARK SMILES IDX 9 1 10 2 11 3 12 4 13 5 14 6 15 7 16 8 17 9 18 10 8 11 7 12
REMARK SMILES IDX 6 13 5 14 4 15 3 16 2 17 1 18
REMARK H PARENT
REMARK Flexibility Score: inf
ROOT
ATOM      1  C   UNL     1     -33.543  12.283  13.415  1.00  0.00     0.000 C 
ENDROOT
BRANCH   1   2
ATOM      2  C   UNL     1     -33.226  11.211  14.470  1.00  0.00     0.000 C 
BRANCH   2   3
ATOM      3  C   UNL     1     -33.437   9.783  13.946  1.00  0.00     0.000 C 
BRANCH   3   4
ATOM      4  C   UNL     1     -32.919   9.644  12.507  1.00  0.00     0.000 C 
BRANCH   4   5
ATOM      5  C   UNL     1     -31.506   9.038  12.433  1.00  0.00     0.000 C 
BRANCH   5   6
ATOM      6  C   UNL     1     -30.462   9.903  11.697  1.00  0.00     0.006 C 
BRANCH   6   7
ATOM      7  C   UNL     1     -30.160  11.250  12.372  1.00  0.00     0.053 C 
BRANCH   7   8
ATOM      8  C   UNL     1     -28.815  11.259  13.029  1.00  0.00     0.041 C 
ATOM      9  O   UNL     1     -28.143  10.197  13.114  1.00  0.00    -0.550 OA
ATOM     10  O   UNL     1     -28.287  12.447  13.517  1.00  0.00    -0.550 OA
ENDBRANCH   7   8
ENDBRANCH   6   7
ENDBRANCH   5   6
ENDBRANCH   4   5
ENDBRANCH   3   4
ENDBRANCH   2   3
ENDBRANCH   1   2
BRANCH   1  11
ATOM     11  C   UNL     1     -33.224  13.707  13.904  1.00  0.00     0.000 C 
BRANCH  11  12
ATOM     12  C   UNL     1     -32.106  14.373  13.085  1.00  0.00    -0.000 C 
BRANCH  12  13
ATOM     13  C   UNL     1     -30.890  14.760  13.945  1.00  0.00    -0.000 C 
BRANCH  13  14
ATOM     14  C   UNL     1     -31.155  14.614  15.455  1.00  0.00    -0.000 C 
BRANCH  14  15
ATOM     15  C   UNL     1     -29.934  14.185  16.290  1.00  0.00    -0.000 C 
BRANCH  15  16
ATOM     16  C   UNL     1     -28.838  15.260  16.343  1.00  0.00    -0.000 C 
BRANCH  16  17
ATOM     17  C   UNL     1     -28.991  16.137  17.590  1.00  0.00    -0.003 C 
ATOM     18  C   UNL     1     -29.368  15.301  18.810  1.00  0.00     0.004 C 
ENDBRANCH  16  17
ENDBRANCH  15  16
ENDBRANCH  14  15
ENDBRANCH  13  14
ENDBRANCH  12  13
ENDBRANCH  11  12
ENDBRANCH   1  11
TORSDOF 14
ENDMDL
MODEL 4
REMARK VINA RESULT:    -3.784      2.276      4.857
REMARK INTER + INTRA:          -8.970
REMARK INTER:                  -6.400
REMARK INTRA:                  -2.570
REMARK UNBOUND:                -2.088
REMARK SMILES CCCCCCCCCCCCCCCC(=O)[O-]
REMARK SMILES IDX 9 1 10 2 11 3 12 4 13 5 14 6 15 7 16 8 17 9 18 10 8 11 7 12
REMARK SMILES IDX 6 13 5 14 4 15 3 16 2 17 1 18
REMARK H PARENT
REMARK Flexibility Score: inf
ROOT
ATOM      1  C   UNL     1     -32.909  14.339  13.291  1.00  0.00     0.000 C 
ENDROOT
BRANCH   1   2
ATOM      2  C   UNL     1     -33.440  12.903  13.154  1.00  0.00     0.000 C 
BRANCH   2   3
ATOM      3  C   UNL     1     -34.039  12.365  14.462  1.00  0.00     0.000 C 
BRANCH   3   4
ATOM      4  C   UNL     1     -33.424  13.073  15.679  1.00  0.00     0.000 C 
BRANCH   4   5
ATOM      5  C   UNL     1     -32.317  12.248  16.359  1.00  0.00     0.000 C 
BRANCH   5   6
ATOM      6  C   UNL     1     -31.375  13.052  17.278  1.00  0.00     0.006 C 
BRANCH   6   7
ATOM      7  C   UNL     1     -31.009  14.448  16.752  1.00  0.00     0.053 C 
BRANCH   7   8
ATOM      8  C   UNL     1     -29.527  14.653  16.690  1.00  0.00     0.041 C 
ATOM      9  O   UNL     1     -29.014  15.287  15.730  1.00  0.00    -0.550 OA
ATOM     10  O   UNL     1     -28.716  14.174  17.710  1.00  0.00    -0.550 OA
ENDBRANCH   7   8
ENDBRANCH   6   7
ENDBRANCH   5   6
ENDBRANCH   4   5
ENDBRANCH   3   4
ENDBRANCH   2   3
ENDBRANCH   1   2
BRANCH   1  11
ATOM     11  C   UNL     1     -31.376  14.414  13.188  1.00  0.00     0.000 C 
BRANCH  11  12
ATOM     12  C   UNL     1     -30.755  13.098  12.693  1.00  0.00    -0.000 C 
BRANCH  12  13
ATOM     13  C   UNL     1     -29.699  12.538  13.662  1.00  0.00    -0.000 C 
BRANCH  13  14
ATOM     14  C   UNL     1     -28.923  11.344  13.076  1.00  0.00    -0.000 C 
BRANCH  14  15
ATOM     15  C   UNL     1     -29.741  10.048  12.927  1.00  0.00    -0.000 C 
BRANCH  15  16
ATOM     16  C   UNL     1     -30.580   9.723  14.172  1.00  0.00    -0.000 C 
BRANCH  16  17
ATOM     17  C   UNL     1     -32.025   9.390  13.788  1.00  0.00    -0.003 C 
ATOM     18  C   UNL     1     -32.233   9.493  12.280  1.00  0.00     0.004 C 
ENDBRANCH  16  17
ENDBRANCH  15  16
ENDBRANCH  14  15
ENDBRANCH  13  14
ENDBRANCH  12  13
ENDBRANCH  11  12
ENDBRANCH   1  11
TORSDOF 14
ENDMDL
MODEL 5
REMARK VINA RESULT:    -3.771      1.810      4.036
REMARK INTER + INTRA:          -8.945
REMARK INTER:                  -7.808
REMARK INTRA:                  -1.137
REMARK UNBOUND:                -2.088
REMARK SMILES CCCCCCCCCCCCCCCC(=O)[O-]
REMARK SMILES IDX 9 1 10 2 11 3 12 4 13 5 14 6 15 7 16 8 17 9 18 10 8 11 7 12
REMARK SMILES IDX 6 13 5 14 4 15 3 16 2 17 1 18
REMARK H PARENT
REMARK Flexibility Score: inf
ROOT
ATOM      1  C   UNL     1     -31.141  14.602  16.528  1.00  0.00     0.000 C 
ENDROOT
BRANCH   1   2
ATOM      2  C   UNL     1     -30.190  14.846  15.345  1.00  0.00     0.000 C 
BRANCH   2   3
ATOM      3  C   UNL     1     -30.935  15.053  14.018  1.00  0.00     0.000 C 
BRANCH   3   4
ATOM      4  C   UNL     1     -32.264  14.283  14.010  1.00  0.00     0.000 C 
BRANCH   4   5
ATOM      5  C   UNL     1     -32.257  13.083  13.045  1.00  0.00     0.000 C 
BRANCH   5   6
ATOM      6  C   UNL     1     -30.858  12.531  12.700  1.00  0.00     0.006 C 
BRANCH   6   7
ATOM      7  C   UNL     1     -30.469  11.256  13.464  1.00  0.00     0.053 C 
BRANCH   7   8
ATOM      8  C   UNL     1     -29.504  10.412  12.690  1.00  0.00     0.041 C 
ATOM      9  O   UNL     1     -29.867   9.300  12.223  1.00  0.00    -0.550 OA
ATOM     10  O   UNL     1     -28.214  10.869  12.455  1.00  0.00    -0.550 OA
ENDBRANCH   7   8
ENDBRANCH   6   7
ENDBRANCH   5   6
ENDBRANCH   4   5
ENDBRANCH   3   4
ENDBRANCH   2   3
ENDBRANCH   1   2
BRANCH   1  11
ATOM     11  C   UNL     1     -30.443  14.766  17.890  1.00  0.00     0.000 C 
BRANCH  11  12
ATOM     12  C   UNL     1     -28.926  14.534  17.804  1.00  0.00    -0.000 C 
BRANCH  12  13
ATOM     13  C   UNL     1     -28.112  15.792  18.154  1.00  0.00    -0.000 C 
BRANCH  13  14
ATOM     14  C   UNL     1     -28.978  17.063  18.222  1.00  0.00    -0.000 C 
BRANCH  14  15
ATOM     15  C   UNL     1     -28.834  17.877  19.522  1.00  0.00    -0.000 C 
BRANCH  15  16
ATOM     16  C   UNL     1     -28.814  16.996  20.780  1.00  0.00    -0.000 C 
BRANCH  16  17
ATOM     17  C   UNL     1     -30.052  17.250  21.647  1.00  0.00    -0.003 C 
ATOM     18  C   UNL     1     -29.778  16.918  23.111  1.00  0.00     0.004 C 
ENDBRANCH  16  17
ENDBRANCH  15  16
ENDBRANCH  14  15
ENDBRANCH  13  14
ENDBRANCH  12  13
ENDBRANCH  11  12
ENDBRANCH   1  11
TORSDOF 14
ENDMDL
MODEL 6
REMARK VINA RESULT:    -3.712      2.680      5.162
REMARK INTER + INTRA:          -8.839
REMARK INTER:                  -6.731
REMARK INTRA:                  -2.108
REMARK UNBOUND:                -2.088
REMARK SMILES CCCCCCCCCCCCCCCC(=O)[O-]
REMARK SMILES IDX 9 1 10 2 11 3 12 4 13 5 14 6 15 7 16 8 17 9 18 10 8 11 7 12
REMARK SMILES IDX 6 13 5 14 4 15 3 16 2 17 1 18
REMARK H PARENT
REMARK Flexibility Score: inf
ROOT
ATOM      1  C   UNL     1     -32.353  13.098  13.030  1.00  0.00     0.000 C 
ENDROOT
BRANCH   1   2
ATOM      2  C   UNL     1     -31.133  14.028  12.933  1.00  0.00     0.000 C 
BRANCH   2   3
ATOM      3  C   UNL     1     -31.145  15.136  13.997  1.00  0.00     0.000 C 
BRANCH   3   4
ATOM      4  C   UNL     1     -30.162  14.815  15.133  1.00  0.00     0.000 C 
BRANCH   4   5
ATOM      5  C   UNL     1     -30.808  14.898  16.528  1.00  0.00     0.000 C 
BRANCH   5   6
ATOM      6  C   UNL     1     -29.859  15.341  17.660  1.00  0.00     0.006 C 
BRANCH   6   7
ATOM      7  C   UNL     1     -28.424  15.652  17.206  1.00  0.00     0.053 C 
BRANCH   7   8
ATOM      8  C   UNL     1     -27.405  15.117  18.164  1.00  0.00     0.041 C 
ATOM      9  O   UNL     1     -26.186  15.393  18.013  1.00  0.00    -0.550 OA
ATOM     10  O   UNL     1     -27.806  14.342  19.245  1.00  0.00    -0.550 OA
ENDBRANCH   7   8
ENDBRANCH   6   7
ENDBRANCH   5   6
ENDBRANCH   4   5
ENDBRANCH   3   4
ENDBRANCH   2   3
ENDBRANCH   1   2
BRANCH   1  11
ATOM     11  C   UNL     1     -33.449  13.656  13.955  1.00  0.00     0.000 C 
BRANCH  11  12
ATOM     12  C   UNL     1     -33.555  12.876  15.276  1.00  0.00    -0.000 C 
BRANCH  12  13
ATOM     13  C   UNL     1     -33.007  11.442  15.165  1.00  0.00    -0.000 C 
BRANCH  13  14
ATOM     14  C   UNL     1     -31.924  11.134  16.214  1.00  0.00    -0.000 C 
BRANCH  14  15
ATOM     15  C   UNL     1     -30.475  11.250  15.704  1.00  0.00    -0.000 C 
BRANCH  15  16
ATOM     16  C   UNL     1     -30.248  10.514  14.375  1.00  0.00    -0.000 C 
BRANCH  16  17
ATOM     17  C   UNL     1     -28.993  11.038  13.666  1.00  0.00    -0.003 C 
ATOM     18  C   UNL     1     -27.816  10.085  13.853  1.00  0.00     0.004 C 
ENDBRANCH  16  17
ENDBRANCH  15  16
ENDBRANCH  14  15
ENDBRANCH  13  14
ENDBRANCH  12  13
ENDBRANCH  11  12
ENDBRANCH   1  11
TORSDOF 14
ENDMDL
MODEL 7
REMARK VINA RESULT:    -3.674      1.012      1.739
REMARK INTER + INTRA:          -8.769
REMARK INTER:                  -7.488
REMARK INTRA:                  -1.282
REMARK UNBOUND:                -2.088
REMARK SMILES CCCCCCCCCCCCCCCC(=O)[O-]
REMARK SMILES IDX 9 1 10 2 11 3 12 4 13 5 14 6 15 7 16 8 17 9 18 10 8 11 7 12
REMARK SMILES IDX 6 13 5 14 4 15 3 16 2 17 1 18
REMARK H PARENT
REMARK Flexibility Score: inf
ROOT
ATOM      1  C   UNL     1     -32.301  14.339  13.351  1.00  0.00     0.000 C 
ENDROOT
BRANCH   1   2
ATOM      2  C   UNL     1     -32.557  12.913  13.864  1.00  0.00     0.000 C 
BRANCH   2   3
ATOM      3  C   UNL     1     -33.019  12.883  15.329  1.00  0.00     0.000 C 
BRANCH   3   4
ATOM      4  C   UNL     1     -32.288  11.781  16.111  1.00  0.00     0.000 C 
BRANCH   4   5
ATOM      5  C   UNL     1     -30.893  11.465  15.543  1.00  0.00     0.000 C 
BRANCH   5   6
ATOM      6  C   UNL     1     -30.715  10.028  15.011  1.00  0.00     0.006 C 
BRANCH   6   7
ATOM      7  C   UNL     1     -29.319   9.726  14.445  1.00  0.00     0.053 C 
BRANCH   7   8
ATOM      8  C   UNL     1     -29.117  10.343  13.095  1.00  0.00     0.041 C 
ATOM      9  O   UNL     1     -29.579   9.784  12.066  1.00  0.00    -0.550 OA
ATOM     10  O   UNL     1     -28.447  11.554  12.978  1.00  0.00    -0.550 OA
ENDBRANCH   7   8
ENDBRANCH   6   7
ENDBRANCH   5   6
ENDBRANCH   4   5
ENDBRANCH   3   4
ENDBRANCH   2   3
ENDBRANCH   1   2
BRANCH   1  11
ATOM     11  C   UNL     1     -31.259  15.093  14.196  1.00  0.00     0.000 C 
BRANCH  11  12
ATOM     12  C   UNL     1     -29.876  14.423  14.159  1.00  0.00    -0.000 C 
BRANCH  12  13
ATOM     13  C   UNL     1     -28.897  15.025  15.182  1.00  0.00    -0.000 C 
BRANCH  13  14
ATOM     14  C   UNL     1     -29.203  14.592  16.627  1.00  0.00    -0.000 C 
BRANCH  14  15
ATOM     15  C   UNL     1     -29.698  15.721  17.551  1.00  0.00    -0.000 C 
BRANCH  15  16
ATOM     16  C   UNL     1     -28.571  16.351  18.384  1.00  0.00    -0.000 C 
BRANCH  16  17
ATOM     17  C   UNL     1     -28.981  17.734  18.902  1.00  0.00    -0.003 C 
ATOM     18  C   UNL     1     -28.976  17.774  20.428  1.00  0.00     0.004 C 
ENDBRANCH  16  17
ENDBRANCH  15  16
ENDBRANCH  14  15
ENDBRANCH  13  14
ENDBRANCH  12  13
ENDBRANCH  11  12
ENDBRANCH   1  11
TORSDOF 14
ENDMDL
MODEL 8
REMARK VINA RESULT:    -3.662      1.562      2.942
REMARK INTER + INTRA:          -8.747
REMARK INTER:                  -6.698
REMARK INTRA:                  -2.050
REMARK UNBOUND:                -2.088
REMARK SMILES CCCCCCCCCCCCCCCC(=O)[O-]
REMARK SMILES IDX 9 1 10 2 11 3 12 4 13 5 14 6 15 7 16 8 17 9 18 10 8 11 7 12
REMARK SMILES IDX 6 13 5 14 4 15 3 16 2 17 1 18
REMARK H PARENT
REMARK Flexibility Score: inf
ROOT
ATOM      1  C   UNL     1     -31.082  14.786  15.295  1.00  0.00     0.000 C 
ENDROOT
BRANCH   1   2
ATOM      2  C   UNL     1     -31.225  14.886  13.768  1.00  0.00     0.000 C 
BRANCH   2   3
ATOM      3  C   UNL     1     -32.458  14.141  13.237  1.00  0.00     0.000 C 
BRANCH   3   4
ATOM      4  C   UNL     1     -32.939  13.088  14.247  1.00  0.00     0.000 C 
BRANCH   4   5
ATOM      5  C   UNL     1     -32.758  11.645  13.742  1.00  0.00     0.000 C 
BRANCH   5   6
ATOM      6  C   UNL     1     -31.459  11.388  12.951  1.00  0.00     0.006 C 
BRANCH   6   7
ATOM      7  C   UNL     1     -30.396  10.583  13.715  1.00  0.00     0.053 C 
BRANCH   7   8
ATOM      8  C   UNL     1     -29.006  11.015  13.363  1.00  0.00     0.041 C 
ATOM      9  O   UNL     1     -28.760  12.227  13.125  1.00  0.00    -0.550 OA
ATOM     10  O   UNL     1     -27.975  10.085  13.332  1.00  0.00    -0.550 OA
ENDBRANCH   7   8
ENDBRANCH   6   7
ENDBRANCH   5   6
ENDBRANCH   4   5
ENDBRANCH   3   4
ENDBRANCH   2   3
ENDBRANCH   1   2
BRANCH   1  11
ATOM     11  C   UNL     1     -29.719  14.216  15.725  1.00  0.00     0.000 C 
BRANCH  11  12
ATOM     12  C   UNL     1     -29.856  12.935  16.565  1.00  0.00    -0.000 C 
BRANCH  12  13
ATOM     13  C   UNL     1     -30.746  13.131  17.805  1.00  0.00    -0.000 C 
BRANCH  13  14
ATOM     14  C   UNL     1     -30.250  14.262  18.723  1.00  0.00    -0.000 C 
BRANCH  14  15
ATOM     15  C   UNL     1     -29.220  13.832  19.785  1.00  0.00    -0.000 C 
BRANCH  15  16
ATOM     16  C   UNL     1     -27.781  14.217  19.413  1.00  0.00    -0.000 C 
BRANCH  16  17
ATOM     17  C   UNL     1     -27.748  15.550  18.657  1.00  0.00    -0.003 C 
ATOM     18  C   UNL     1     -26.662  15.549  17.584  1.00  0.00     0.004 C 
ENDBRANCH  16  17
ENDBRANCH  15  16
ENDBRANCH  14  15
ENDBRANCH  13  14
ENDBRANCH  12  13
ENDBRANCH  11  12
ENDBRANCH   1  11
TORSDOF 14
ENDMDL
MODEL 9
REMARK VINA RESULT:    -3.661      2.154      3.057
REMARK INTER + INTRA:          -8.745
REMARK INTER:                  -6.632
REMARK INTRA:                  -2.113
REMARK UNBOUND:                -2.088
REMARK SMILES CCCCCCCCCCCCCCCC(=O)[O-]
REMARK SMILES IDX 9 1 10 2 11 3 12 4 13 5 14 6 15 7 16 8 17 9 18 10 8 11 7 12
REMARK SMILES IDX 6 13 5 14 4 15 3 16 2 17 1 18
REMARK H PARENT
REMARK Flexibility Score: inf
ROOT
ATOM      1  C   UNL     1     -32.735  11.572  13.712  1.00  0.00     0.000 C 
ENDROOT
BRANCH   1   2
ATOM      2  C   UNL     1     -32.645  10.433  12.684  1.00  0.00     0.000 C 
BRANCH   2   3
ATOM      3  C   UNL     1     -31.205   9.946  12.461  1.00  0.00     0.000 C 
BRANCH   3   4
ATOM      4  C   UNL     1     -30.262  11.130  12.200  1.00  0.00     0.000 C 
BRANCH   4   5
ATOM      5  C   UNL     1     -28.941  11.030  12.984  1.00  0.00     0.000 C 
BRANCH   5   6
ATOM      6  C   UNL     1     -29.097  10.765  14.496  1.00  0.00     0.006 C 
BRANCH   6   7
ATOM      7  C   UNL     1     -28.370   9.511  15.003  1.00  0.00     0.053 C 
BRANCH   7   8
ATOM      8  C   UNL     1     -29.301   8.565  15.697  1.00  0.00     0.041 C 
ATOM      9  O   UNL     1     -30.545   8.763  15.667  1.00  0.00    -0.550 OA
ATOM     10  O   UNL     1     -28.798   7.447  16.349  1.00  0.00    -0.550 OA
ENDBRANCH   7   8
ENDBRANCH   6   7
ENDBRANCH   5   6
ENDBRANCH   4   5
ENDBRANCH   3   4
ENDBRANCH   2   3
ENDBRANCH   1   2
BRANCH   1  11
ATOM     11  C   UNL     1     -33.892  12.542  13.419  1.00  0.00     0.000 C 
BRANCH  11  12
ATOM     12  C   UNL     1     -33.430  14.008  13.363  1.00  0.00    -0.000 C 
BRANCH  12  13
ATOM     13  C   UNL     1     -31.935  14.146  13.028  1.00  0.00    -0.000 C 
BRANCH  13  14
ATOM     14  C   UNL     1     -31.174  15.021  14.041  1.00  0.00    -0.000 C 
BRANCH  14  15
ATOM     15  C   UNL     1     -29.801  14.472  14.471  1.00  0.00    -0.000 C 
BRANCH  15  16
ATOM     16  C   UNL     1     -29.755  14.064  15.951  1.00  0.00    -0.000 C 
BRANCH  16  17
ATOM     17  C   UNL     1     -31.112  13.520  16.412  1.00  0.00    -0.003 C 
ATOM     18  C   UNL     1     -31.663  14.332  17.580  1.00  0.00     0.004 C 
ENDBRANCH  16  17
ENDBRANCH  15  16
ENDBRANCH  14  15
ENDBRANCH  13  14
ENDBRANCH  12  13
ENDBRANCH  11  12
ENDBRANCH   1  11
TORSDOF 14
ENDMDL
