MODEL 1
REMARK VINA RESULT:    -4.616      0.000      0.000
REMARK INTER + INTRA:         -12.364
REMARK INTER:                 -10.013
REMARK INTRA:                  -2.350
REMARK UNBOUND:                -2.350
REMARK SMILES CCCCCCCCCCCCCCCCCCCCCC(=O)[O-]
REMARK SMILES IDX 12 1 11 2 10 3 9 4 8 5 7 6 6 7 5 8 4 9 3 10 2 11 1 12 13 13
REMARK SMILES IDX 14 14 15 15 16 16 17 17 18 18 19 19 20 20 21 21 22 22 23 23
REMARK SMILES IDX 24 24
REMARK H PARENT
REMARK Flexibility Score: inf
ROOT
ATOM      1  C   UNL     1     -12.897   5.016   6.358  1.00  0.00     0.000 C 
ENDROOT
BRANCH   1   2
ATOM      2  C   UNL     1     -12.533   5.649   5.005  1.00  0.00     0.000 C 
BRANCH   2   3
ATOM      3  C   UNL     1     -13.726   5.700   4.035  1.00  0.00     0.000 C 
BRANCH   3   4
ATOM      4  C   UNL     1     -14.669   6.882   4.316  1.00  0.00    -0.000 C 
BRANCH   4   5
ATOM      5  C   UNL     1     -14.072   8.271   4.017  1.00  0.00    -0.000 C 
BRANCH   5   6
ATOM      6  C   UNL     1     -14.177   9.290   5.169  1.00  0.00    -0.000 C 
BRANCH   6   7
ATOM      7  C   UNL     1     -12.910   9.430   6.032  1.00  0.00    -0.000 C 
BRANCH   7   8
ATOM      8  C   UNL     1     -11.848  10.338   5.389  1.00  0.00    -0.000 C 
BRANCH   8   9
ATOM      9  C   UNL     1     -12.458  11.603   4.761  1.00  0.00    -0.000 C 
BRANCH   9  10
ATOM     10  C   UNL     1     -11.859  11.918   3.378  1.00  0.00    -0.000 C 
BRANCH  10  11
ATOM     11  C   UNL     1     -12.677  11.308   2.229  1.00  0.00    -0.003 C 
ATOM     12  C   UNL     1     -11.919  11.295   0.902  1.00  0.00     0.004 C 
ENDBRANCH  10  11
ENDBRANCH   9  10
ENDBRANCH   8   9
ENDBRANCH   7   8
ENDBRANCH   6   7
ENDBRANCH   5   6
ENDBRANCH   4   5
ENDBRANCH   3   4
ENDBRANCH   2   3
ENDBRANCH   1   2
BRANCH   1  13
ATOM     13  C   UNL     1     -11.746   4.187   6.956  1.00  0.00     0.000 C 
BRANCH  13  14
ATOM     14  C   UNL     1     -11.091   4.880   8.172  1.00  0.00     0.000 C 
BRANCH  14  15
ATOM     15  C   UNL     1      -9.963   5.862   7.798  1.00  0.00     0.000 C 
BRANCH  15  16
ATOM     16  C   UNL     1      -9.166   5.489   6.536  1.00  0.00     0.000 C 
BRANCH  16  17
ATOM     17  C   UNL     1      -9.166   6.558   5.425  1.00  0.00     0.000 C 
BRANCH  17  18
ATOM     18  C   UNL     1      -9.060   8.014   5.916  1.00  0.00     0.000 C 
BRANCH  18  19
ATOM     19  C   UNL     1      -7.898   8.820   5.309  1.00  0.00     0.000 C 
BRANCH  19  20
ATOM     20  C   UNL     1      -8.104  10.338   5.420  1.00  0.00     0.006 C 
BRANCH  20  21
ATOM     21  C   UNL     1      -6.766  11.081   5.353  1.00  0.00     0.053 C 
BRANCH  21  22
ATOM     22  C   UNL     1      -5.945  10.798   6.573  1.00  0.00     0.041 C 
ATOM     23  O   UNL     1      -4.734  10.468   6.460  1.00  0.00    -0.550 OA
ATOM     24  O   UNL     1      -6.524  10.870   7.834  1.00  0.00    -0.550 OA
ENDBRANCH  21  22
ENDBRANCH  20  21
ENDBRANCH  19  20
ENDBRANCH  18  19
ENDBRANCH  17  18
ENDBRANCH  16  17
ENDBRANCH  15  16
ENDBRANCH  14  15
ENDBRANCH  13  14
ENDBRANCH   1  13
TORSDOF 20
ENDMDL
MODEL 2
REMARK VINA RESULT:    -4.563      2.759      5.922
REMARK INTER + INTRA:         -12.249
REMARK INTER:                 -10.116
REMARK INTRA:                  -2.133
REMARK UNBOUND:                -2.350
REMARK SMILES CCCCCCCCCCCCCCCCCCCCCC(=O)[O-]
REMARK SMILES IDX 12 1 11 2 10 3 9 4 8 5 7 6 6 7 5 8 4 9 3 10 2 11 1 12 13 13
REMARK SMILES IDX 14 14 15 15 16 16 17 17 18 18 19 19 20 20 21 21 22 22 23 23
REMARK SMILES IDX 24 24
REMARK H PARENT
REMARK Flexibility Score: inf
ROOT
ATOM      1  C   UNL     1     -11.554   3.933   6.917  1.00  0.00     0.000 C 
ENDROOT
BRANCH   1   2
ATOM      2  C   UNL     1     -10.828   4.466   8.163  1.00  0.00     0.000 C 
BRANCH   2   3
ATOM      3  C   UNL     1     -10.052   5.765   7.886  1.00  0.00     0.000 C 
BRANCH   3   4
ATOM      4  C   UNL     1      -9.238   5.704   6.582  1.00  0.00    -0.000 C 
BRANCH   4   5
ATOM      5  C   UNL     1      -9.327   6.968   5.704  1.00  0.00    -0.000 C 
BRANCH   5   6
ATOM      6  C   UNL     1      -8.357   8.102   6.091  1.00  0.00    -0.000 C 
BRANCH   6   7
ATOM      7  C   UNL     1      -8.213   9.222   5.045  1.00  0.00    -0.000 C 
BRANCH   7   8
ATOM      8  C   UNL     1      -8.780  10.567   5.529  1.00  0.00    -0.000 C 
BRANCH   8   9
ATOM      9  C   UNL     1      -7.706  11.666   5.601  1.00  0.00    -0.000 C 
BRANCH   9  10
ATOM     10  C   UNL     1      -6.303  11.139   5.250  1.00  0.00    -0.000 C 
BRANCH  10  11
ATOM     11  C   UNL     1      -5.367  11.098   6.469  1.00  0.00    -0.003 C 
ATOM     12  C   UNL     1      -3.889  11.092   6.082  1.00  0.00     0.004 C 
ENDBRANCH  10  11
ENDBRANCH   9  10
ENDBRANCH   8   9
ENDBRANCH   7   8
ENDBRANCH   6   7
ENDBRANCH   5   6
ENDBRANCH   4   5
ENDBRANCH   3   4
ENDBRANCH   2   3
ENDBRANCH   1   2
BRANCH   1  13
ATOM     13  C   UNL     1     -12.859   4.693   6.618  1.00  0.00     0.000 C 
BRANCH  13  14
ATOM     14  C   UNL     1     -12.800   5.460   5.278  1.00  0.00     0.000 C 
BRANCH  14  15
ATOM     15  C   UNL     1     -12.858   6.992   5.432  1.00  0.00     0.000 C 
BRANCH  15  16
ATOM     16  C   UNL     1     -14.013   7.679   4.683  1.00  0.00     0.000 C 
BRANCH  16  17
ATOM     17  C   UNL     1     -14.076   9.211   4.846  1.00  0.00     0.000 C 
BRANCH  17  18
ATOM     18  C   UNL     1     -12.987   9.820   5.749  1.00  0.00     0.000 C 
BRANCH  18  19
ATOM     19  C   UNL     1     -12.499  11.216   5.326  1.00  0.00     0.000 C 
BRANCH  19  20
ATOM     20  C   UNL     1     -13.010  11.632   3.939  1.00  0.00     0.006 C 
BRANCH  20  21
ATOM     21  C   UNL     1     -11.869  11.659   2.917  1.00  0.00     0.053 C 
BRANCH  21  22
ATOM     22  C   UNL     1     -12.338  11.149   1.590  1.00  0.00     0.041 C 
ATOM     23  O   UNL     1     -13.219  10.249   1.532  1.00  0.00    -0.550 OA
ATOM     24  O   UNL     1     -11.783  11.646   0.417  1.00  0.00    -0.550 OA
ENDBRANCH  21  22
ENDBRANCH  20  21
ENDBRANCH  19  20
ENDBRANCH  18  19
ENDBRANCH  17  18
ENDBRANCH  16  17
ENDBRANCH  15  16
ENDBRANCH  14  15
ENDBRANCH  13  14
ENDBRANCH   1  13
TORSDOF 20
ENDMDL
MODEL 3
REMARK VINA RESULT:    -4.458      2.719      6.340
REMARK INTER + INTRA:         -12.020
REMARK INTER:                 -10.455
REMARK INTRA:                  -1.565
REMARK UNBOUND:                -2.350
REMARK SMILES CCCCCCCCCCCCCCCCCCCCCC(=O)[O-]
REMARK SMILES IDX 12 1 11 2 10 3 9 4 8 5 7 6 6 7 5 8 4 9 3 10 2 11 1 12 13 13
REMARK SMILES IDX 14 14 15 15 16 16 17 17 18 18 19 19 20 20 21 21 22 22 23 23
REMARK SMILES IDX 24 24
REMARK H PARENT
REMARK Flexibility Score: inf
ROOT
ATOM      1  C   UNL     1     -10.252   4.679   8.509  1.00  0.00     0.000 C 
ENDROOT
BRANCH   1   2
ATOM      2  C   UNL     1      -9.912   5.985   7.773  1.00  0.00     0.000 C 
BRANCH   2   3
ATOM      3  C   UNL     1      -9.111   5.747   6.482  1.00  0.00     0.000 C 
BRANCH   3   4
ATOM      4  C   UNL     1      -9.150   6.953   5.528  1.00  0.00    -0.000 C 
BRANCH   4   5
ATOM      5  C   UNL     1      -8.351   8.182   6.006  1.00  0.00    -0.000 C 
BRANCH   5   6
ATOM      6  C   UNL     1      -8.369   9.387   5.045  1.00  0.00    -0.000 C 
BRANCH   6   7
ATOM      7  C   UNL     1      -7.091  10.245   5.053  1.00  0.00    -0.000 C 
BRANCH   7   8
ATOM      8  C   UNL     1      -7.125  11.356   6.116  1.00  0.00    -0.000 C 
BRANCH   8   9
ATOM      9  C   UNL     1      -6.155  11.086   7.279  1.00  0.00    -0.000 C 
BRANCH   9  10
ATOM     10  C   UNL     1      -4.743  10.716   6.791  1.00  0.00    -0.000 C 
BRANCH  10  11
ATOM     11  C   UNL     1      -3.909  11.950   6.412  1.00  0.00    -0.003 C 
ATOM     12  C   UNL     1      -2.934  11.680   5.267  1.00  0.00     0.004 C 
ENDBRANCH  10  11
ENDBRANCH   9  10
ENDBRANCH   8   9
ENDBRANCH   7   8
ENDBRANCH   6   7
ENDBRANCH   5   6
ENDBRANCH   4   5
ENDBRANCH   3   4
ENDBRANCH   2   3
ENDBRANCH   1   2
BRANCH   1  13
ATOM     13  C   UNL     1     -11.726   4.268   8.340  1.00  0.00     0.000 C 
BRANCH  13  14
ATOM     14  C   UNL     1     -12.098   4.003   6.864  1.00  0.00     0.000 C 
BRANCH  14  15
ATOM     15  C   UNL     1     -13.022   5.074   6.251  1.00  0.00     0.000 C 
BRANCH  15  16
ATOM     16  C   UNL     1     -12.535   5.669   4.918  1.00  0.00     0.000 C 
BRANCH  16  17
ATOM     17  C   UNL     1     -13.623   5.822   3.836  1.00  0.00     0.000 C 
BRANCH  17  18
ATOM     18  C   UNL     1     -14.004   7.274   3.491  1.00  0.00     0.000 C 
BRANCH  18  19
ATOM     19  C   UNL     1     -14.332   8.165   4.702  1.00  0.00     0.000 C 
BRANCH  19  20
ATOM     20  C   UNL     1     -13.604   9.515   4.664  1.00  0.00     0.006 C 
BRANCH  20  21
ATOM     21  C   UNL     1     -14.183  10.423   3.575  1.00  0.00     0.053 C 
BRANCH  21  22
ATOM     22  C   UNL     1     -13.144  10.739   2.545  1.00  0.00     0.041 C 
ATOM     23  O   UNL     1     -12.188  11.511   2.824  1.00  0.00    -0.550 OA
ATOM     24  O   UNL     1     -13.245  10.204   1.267  1.00  0.00    -0.550 OA
ENDBRANCH  21  22
ENDBRANCH  20  21
ENDBRANCH  19  20
ENDBRANCH  18  19
ENDBRANCH  17  18
ENDBRANCH  16  17
ENDBRANCH  15  16
ENDBRANCH  14  15
ENDBRANCH  13  14
ENDBRANCH   1  13
TORSDOF 20
ENDMDL
MODEL 4
REMARK VINA RESULT:    -4.434      2.201      5.861
REMARK INTER + INTRA:         -11.968
REMARK INTER:                  -9.939
REMARK INTRA:                  -2.029
REMARK UNBOUND:                -2.350
REMARK SMILES CCCCCCCCCCCCCCCCCCCCCC(=O)[O-]
REMARK SMILES IDX 12 1 11 2 10 3 9 4 8 5 7 6 6 7 5 8 4 9 3 10 2 11 1 12 13 13
REMARK SMILES IDX 14 14 15 15 16 16 17 17 18 18 19 19 20 20 21 21 22 22 23 23
REMARK SMILES IDX 24 24
REMARK H PARENT
REMARK Flexibility Score: inf
ROOT
ATOM      1  C   UNL     1     -11.067   3.887   7.129  1.00  0.00     0.000 C 
ENDROOT
BRANCH   1   2
ATOM      2  C   UNL     1     -10.483   4.597   8.360  1.00  0.00     0.000 C 
BRANCH   2   3
ATOM      3  C   UNL     1      -9.608   5.807   7.987  1.00  0.00     0.000 C 
BRANCH   3   4
ATOM      4  C   UNL     1      -9.144   5.774   6.521  1.00  0.00    -0.000 C 
BRANCH   4   5
ATOM      5  C   UNL     1      -9.333   7.097   5.753  1.00  0.00    -0.000 C 
BRANCH   5   6
ATOM      6  C   UNL     1      -8.325   8.209   6.108  1.00  0.00    -0.000 C 
BRANCH   6   7
ATOM      7  C   UNL     1      -8.220   9.346   5.077  1.00  0.00    -0.000 C 
BRANCH   7   8
ATOM      8  C   UNL     1      -7.319  10.499   5.550  1.00  0.00    -0.000 C 
BRANCH   8   9
ATOM      9  C   UNL     1      -6.711  10.238   6.939  1.00  0.00    -0.000 C 
BRANCH   9  10
ATOM     10  C   UNL     1      -5.972  11.468   7.496  1.00  0.00    -0.000 C 
BRANCH  10  11
ATOM     11  C   UNL     1      -4.893  11.992   6.534  1.00  0.00    -0.003 C 
ATOM     12  C   UNL     1      -3.858  10.929   6.167  1.00  0.00     0.004 C 
ENDBRANCH  10  11
ENDBRANCH   9  10
ENDBRANCH   8   9
ENDBRANCH   7   8
ENDBRANCH   6   7
ENDBRANCH   5   6
ENDBRANCH   4   5
ENDBRANCH   3   4
ENDBRANCH   2   3
ENDBRANCH   1   2
BRANCH   1  13
ATOM     13  C   UNL     1     -12.574   4.143   6.953  1.00  0.00     0.000 C 
BRANCH  13  14
ATOM     14  C   UNL     1     -12.868   5.527   6.332  1.00  0.00     0.000 C 
BRANCH  14  15
ATOM     15  C   UNL     1     -12.564   5.613   4.824  1.00  0.00     0.000 C 
BRANCH  15  16
ATOM     16  C   UNL     1     -13.792   5.494   3.904  1.00  0.00     0.000 C 
BRANCH  16  17
ATOM     17  C   UNL     1     -13.887   6.566   2.800  1.00  0.00     0.000 C 
BRANCH  17  18
ATOM     18  C   UNL     1     -13.950   8.021   3.303  1.00  0.00     0.000 C 
BRANCH  18  19
ATOM     19  C   UNL     1     -14.764   8.228   4.592  1.00  0.00     0.000 C 
BRANCH  19  20
ATOM     20  C   UNL     1     -14.497   9.587   5.254  1.00  0.00     0.006 C 
BRANCH  20  21
ATOM     21  C   UNL     1     -13.115  10.125   4.870  1.00  0.00     0.053 C 
BRANCH  21  22
ATOM     22  C   UNL     1     -12.160   9.986   6.015  1.00  0.00     0.041 C 
ATOM     23  O   UNL     1     -11.353  10.916   6.284  1.00  0.00    -0.550 OA
ATOM     24  O   UNL     1     -12.139   8.818   6.767  1.00  0.00    -0.550 OA
ENDBRANCH  21  22
ENDBRANCH  20  21
ENDBRANCH  19  20
ENDBRANCH  18  19
ENDBRANCH  17  18
ENDBRANCH  16  17
ENDBRANCH  15  16
ENDBRANCH  14  15
ENDBRANCH  13  14
ENDBRANCH   1  13
TORSDOF 20
ENDMDL
MODEL 5
REMARK VINA RESULT:    -4.397      1.945      5.753
REMARK INTER + INTRA:         -11.888
REMARK INTER:                 -10.003
REMARK INTRA:                  -1.885
REMARK UNBOUND:                -2.350
REMARK SMILES CCCCCCCCCCCCCCCCCCCCCC(=O)[O-]
REMARK SMILES IDX 12 1 11 2 10 3 9 4 8 5 7 6 6 7 5 8 4 9 3 10 2 11 1 12 13 13
REMARK SMILES IDX 14 14 15 15 16 16 17 17 18 18 19 19 20 20 21 21 22 22 23 23
REMARK SMILES IDX 24 24
REMARK H PARENT
REMARK Flexibility Score: inf
ROOT
ATOM      1  C   UNL     1     -12.271   4.198   6.327  1.00  0.00     0.000 C 
ENDROOT
BRANCH   1   2
ATOM      2  C   UNL     1     -11.589   4.198   7.705  1.00  0.00     0.000 C 
BRANCH   2   3
ATOM      3  C   UNL     1     -11.172   5.608   8.159  1.00  0.00     0.000 C 
BRANCH   3   4
ATOM      4  C   UNL     1      -9.662   5.859   8.003  1.00  0.00    -0.000 C 
BRANCH   4   5
ATOM      5  C   UNL     1      -9.139   5.776   6.555  1.00  0.00    -0.000 C 
BRANCH   5   6
ATOM      6  C   UNL     1      -9.293   7.070   5.730  1.00  0.00    -0.000 C 
BRANCH   6   7
ATOM      7  C   UNL     1      -8.209   8.134   5.979  1.00  0.00    -0.000 C 
BRANCH   7   8
ATOM      8  C   UNL     1      -8.278   9.301   4.979  1.00  0.00    -0.000 C 
BRANCH   8   9
ATOM      9  C   UNL     1      -7.213  10.375   5.255  1.00  0.00    -0.000 C 
BRANCH   9  10
ATOM     10  C   UNL     1      -7.319  10.955   6.677  1.00  0.00    -0.000 C 
BRANCH  10  11
ATOM     11  C   UNL     1      -5.947  11.117   7.351  1.00  0.00    -0.003 C 
ATOM     12  C   UNL     1      -4.795  10.619   6.480  1.00  0.00     0.004 C 
ENDBRANCH  10  11
ENDBRANCH   9  10
ENDBRANCH   8   9
ENDBRANCH   7   8
ENDBRANCH   6   7
ENDBRANCH   5   6
ENDBRANCH   4   5
ENDBRANCH   3   4
ENDBRANCH   2   3
ENDBRANCH   1   2
BRANCH   1  13
ATOM     13  C   UNL     1     -13.101   5.469   6.074  1.00  0.00     0.000 C 
BRANCH  13  14
ATOM     14  C   UNL     1     -12.857   6.061   4.668  1.00  0.00     0.000 C 
BRANCH  14  15
ATOM     15  C   UNL     1     -13.966   5.733   3.649  1.00  0.00     0.000 C 
BRANCH  15  16
ATOM     16  C   UNL     1     -14.020   6.660   2.423  1.00  0.00     0.000 C 
BRANCH  16  17
ATOM     17  C   UNL     1     -13.657   8.133   2.702  1.00  0.00     0.000 C 
BRANCH  17  18
ATOM     18  C   UNL     1     -13.923   9.105   1.538  1.00  0.00     0.000 C 
BRANCH  18  19
ATOM     19  C   UNL     1     -13.291  10.499   1.698  1.00  0.00     0.000 C 
BRANCH  19  20
ATOM     20  C   UNL     1     -13.446  11.065   3.117  1.00  0.00     0.006 C 
BRANCH  20  21
ATOM     21  C   UNL     1     -12.134  11.682   3.610  1.00  0.00     0.053 C 
BRANCH  21  22
ATOM     22  C   UNL     1     -11.742  11.098   4.932  1.00  0.00     0.041 C 
ATOM     23  O   UNL     1     -12.340  10.083   5.379  1.00  0.00    -0.550 OA
ATOM     24  O   UNL     1     -10.737  11.692   5.685  1.00  0.00    -0.550 OA
ENDBRANCH  21  22
ENDBRANCH  20  21
ENDBRANCH  19  20
ENDBRANCH  18  19
ENDBRANCH  17  18
ENDBRANCH  16  17
ENDBRANCH  15  16
ENDBRANCH  14  15
ENDBRANCH  13  14
ENDBRANCH   1  13
TORSDOF 20
ENDMDL
MODEL 6
REMARK VINA RESULT:    -4.365      2.649      5.499
REMARK INTER + INTRA:         -11.819
REMARK INTER:                  -9.629
REMARK INTRA:                  -2.191
REMARK UNBOUND:                -2.350
REMARK SMILES CCCCCCCCCCCCCCCCCCCCCC(=O)[O-]
REMARK SMILES IDX 12 1 11 2 10 3 9 4 8 5 7 6 6 7 5 8 4 9 3 10 2 11 1 12 13 13
REMARK SMILES IDX 14 14 15 15 16 16 17 17 18 18 19 19 20 20 21 21 22 22 23 23
REMARK SMILES IDX 24 24
REMARK H PARENT
REMARK Flexibility Score: inf
ROOT
ATOM      1  C   UNL     1     -10.478   4.337   8.300  1.00  0.00     0.000 C 
ENDROOT
BRANCH   1   2
ATOM      2  C   UNL     1      -9.931   5.759   8.093  1.00  0.00     0.000 C 
BRANCH   2   3
ATOM      3  C   UNL     1      -9.176   5.915   6.762  1.00  0.00     0.000 C 
BRANCH   3   4
ATOM      4  C   UNL     1      -9.613   7.161   5.973  1.00  0.00    -0.000 C 
BRANCH   4   5
ATOM      5  C   UNL     1      -8.465   7.929   5.289  1.00  0.00    -0.000 C 
BRANCH   5   6
ATOM      6  C   UNL     1      -7.838   9.057   6.132  1.00  0.00    -0.000 C 
BRANCH   6   7
ATOM      7  C   UNL     1      -7.141  10.164   5.323  1.00  0.00    -0.000 C 
BRANCH   7   8
ATOM      8  C   UNL     1      -7.520  11.578   5.796  1.00  0.00    -0.000 C 
BRANCH   8   9
ATOM      9  C   UNL     1      -8.960  11.960   5.412  1.00  0.00    -0.000 C 
BRANCH   9  10
ATOM     10  C   UNL     1      -9.912  11.947   6.621  1.00  0.00    -0.000 C 
BRANCH  10  11
ATOM     11  C   UNL     1     -11.380  11.743   6.212  1.00  0.00    -0.003 C 
ATOM     12  C   UNL     1     -11.785  10.270   6.167  1.00  0.00     0.004 C 
ENDBRANCH  10  11
ENDBRANCH   9  10
ENDBRANCH   8   9
ENDBRANCH   7   8
ENDBRANCH   6   7
ENDBRANCH   5   6
ENDBRANCH   4   5
ENDBRANCH   3   4
ENDBRANCH   2   3
ENDBRANCH   1   2
BRANCH   1  13
ATOM     13  C   UNL     1     -11.981   4.225   7.986  1.00  0.00     0.000 C 
BRANCH  13  14
ATOM     14  C   UNL     1     -12.266   4.205   6.468  1.00  0.00     0.000 C 
BRANCH  14  15
ATOM     15  C   UNL     1     -13.219   5.320   5.996  1.00  0.00     0.000 C 
BRANCH  15  16
ATOM     16  C   UNL     1     -12.777   6.060   4.722  1.00  0.00     0.000 C 
BRANCH  16  17
ATOM     17  C   UNL     1     -13.754   5.954   3.533  1.00  0.00     0.000 C 
BRANCH  17  18
ATOM     18  C   UNL     1     -14.040   7.277   2.799  1.00  0.00     0.000 C 
BRANCH  18  19
ATOM     19  C   UNL     1     -13.556   8.542   3.529  1.00  0.00     0.000 C 
BRANCH  19  20
ATOM     20  C   UNL     1     -14.059   9.837   2.875  1.00  0.00     0.006 C 
BRANCH  20  21
ATOM     21  C   UNL     1     -13.420  10.043   1.498  1.00  0.00     0.053 C 
BRANCH  21  22
ATOM     22  C   UNL     1     -12.326  11.062   1.573  1.00  0.00     0.041 C 
ATOM     23  O   UNL     1     -11.547  11.229   0.596  1.00  0.00    -0.550 OA
ATOM     24  O   UNL     1     -12.146  11.807   2.732  1.00  0.00    -0.550 OA
ENDBRANCH  21  22
ENDBRANCH  20  21
ENDBRANCH  19  20
ENDBRANCH  18  19
ENDBRANCH  17  18
ENDBRANCH  16  17
ENDBRANCH  15  16
ENDBRANCH  14  15
ENDBRANCH  13  14
ENDBRANCH   1  13
TORSDOF 20
ENDMDL
MODEL 7
REMARK VINA RESULT:    -4.263      0.959      2.161
REMARK INTER + INTRA:         -11.597
REMARK INTER:                  -9.157
REMARK INTRA:                  -2.440
REMARK UNBOUND:                -2.350
REMARK SMILES CCCCCCCCCCCCCCCCCCCCCC(=O)[O-]
REMARK SMILES IDX 12 1 11 2 10 3 9 4 8 5 7 6 6 7 5 8 4 9 3 10 2 11 1 12 13 13
REMARK SMILES IDX 14 14 15 15 16 16 17 17 18 18 19 19 20 20 21 21 22 22 23 23
REMARK SMILES IDX 24 24
REMARK H PARENT
REMARK Flexibility Score: inf
ROOT
ATOM      1  C   UNL     1     -13.276   5.390   5.924  1.00  0.00     0.000 C 
ENDROOT
BRANCH   1   2
ATOM      2  C   UNL     1     -12.611   5.735   4.582  1.00  0.00     0.000 C 
BRANCH   2   3
ATOM      3  C   UNL     1     -13.635   6.056   3.479  1.00  0.00     0.000 C 
BRANCH   3   4
ATOM      4  C   UNL     1     -14.114   7.518   3.522  1.00  0.00    -0.000 C 
BRANCH   4   5
ATOM      5  C   UNL     1     -13.784   8.343   2.262  1.00  0.00    -0.000 C 
BRANCH   5   6
ATOM      6  C   UNL     1     -13.816   9.872   2.456  1.00  0.00    -0.000 C 
BRANCH   6   7
ATOM      7  C   UNL     1     -12.858  10.664   1.548  1.00  0.00    -0.000 C 
BRANCH   7   8
ATOM      8  C   UNL     1     -12.143  11.807   2.288  1.00  0.00    -0.000 C 
BRANCH   8   9
ATOM      9  C   UNL     1     -12.438  11.806   3.798  1.00  0.00    -0.000 C 
BRANCH   9  10
ATOM     10  C   UNL     1     -11.177  11.545   4.641  1.00  0.00    -0.000 C 
BRANCH  10  11
ATOM     11  C   UNL     1     -11.377  10.418   5.667  1.00  0.00    -0.003 C 
ATOM     12  C   UNL     1     -12.851  10.132   5.956  1.00  0.00     0.004 C 
ENDBRANCH  10  11
ENDBRANCH   9  10
ENDBRANCH   8   9
ENDBRANCH   7   8
ENDBRANCH   6   7
ENDBRANCH   5   6
ENDBRANCH   4   5
ENDBRANCH   3   4
ENDBRANCH   2   3
ENDBRANCH   1   2
BRANCH   1  13
ATOM     13  C   UNL     1     -12.283   4.812   6.948  1.00  0.00     0.000 C 
BRANCH  13  14
ATOM     14  C   UNL     1     -11.347   5.892   7.535  1.00  0.00     0.000 C 
BRANCH  14  15
ATOM     15  C   UNL     1      -9.859   5.491   7.546  1.00  0.00     0.000 C 
BRANCH  15  16
ATOM     16  C   UNL     1      -9.042   5.987   6.340  1.00  0.00     0.000 C 
BRANCH  16  17
ATOM     17  C   UNL     1      -9.486   7.347   5.765  1.00  0.00     0.000 C 
BRANCH  17  18
ATOM     18  C   UNL     1      -8.351   8.226   5.209  1.00  0.00     0.000 C 
BRANCH  18  19
ATOM     19  C   UNL     1      -7.629   9.094   6.255  1.00  0.00     0.000 C 
BRANCH  19  20
ATOM     20  C   UNL     1      -7.608  10.583   5.882  1.00  0.00     0.006 C 
BRANCH  20  21
ATOM     21  C   UNL     1      -6.257  10.981   5.282  1.00  0.00     0.053 C 
BRANCH  21  22
ATOM     22  C   UNL     1      -5.238  11.177   6.361  1.00  0.00     0.041 C 
ATOM     23  O   UNL     1      -5.555  11.757   7.434  1.00  0.00    -0.550 OA
ATOM     24  O   UNL     1      -3.931  10.746   6.172  1.00  0.00    -0.550 OA
ENDBRANCH  21  22
ENDBRANCH  20  21
ENDBRANCH  19  20
ENDBRANCH  18  19
ENDBRANCH  17  18
ENDBRANCH  16  17
ENDBRANCH  15  16
ENDBRANCH  14  15
ENDBRANCH  13  14
ENDBRANCH   1  13
TORSDOF 20
ENDMDL
MODEL 8
REMARK VINA RESULT:    -4.094      2.837      5.825
REMARK INTER + INTRA:         -11.231
REMARK INTER:                  -9.567
REMARK INTRA:                  -1.663
REMARK UNBOUND:                -2.350
REMARK SMILES CCCCCCCCCCCCCCCCCCCCCC(=O)[O-]
REMARK SMILES IDX 12 1 11 2 10 3 9 4 8 5 7 6 6 7 5 8 4 9 3 10 2 11 1 12 13 13
REMARK SMILES IDX 14 14 15 15 16 16 17 17 18 18 19 19 20 20 21 21 22 22 23 23
REMARK SMILES IDX 24 24
REMARK H PARENT
REMARK Flexibility Score: inf
ROOT
ATOM      1  C   UNL     1     -14.130   8.409   2.768  1.00  0.00     0.000 C 
ENDROOT
BRANCH   1   2
ATOM      2  C   UNL     1     -13.624   9.430   1.737  1.00  0.00     0.000 C 
BRANCH   2   3
ATOM      3  C   UNL     1     -13.837  10.885   2.191  1.00  0.00     0.000 C 
BRANCH   3   4
ATOM      4  C   UNL     1     -12.597  11.479   2.881  1.00  0.00    -0.000 C 
BRANCH   4   5
ATOM      5  C   UNL     1     -12.403  11.045   4.347  1.00  0.00    -0.000 C 
BRANCH   5   6
ATOM      6  C   UNL     1     -11.184  11.667   5.057  1.00  0.00    -0.000 C 
BRANCH   6   7
ATOM      7  C   UNL     1     -10.040  10.686   5.366  1.00  0.00    -0.000 C 
BRANCH   7   8
ATOM      8  C   UNL     1      -8.920  11.321   6.209  1.00  0.00    -0.000 C 
BRANCH   8   9
ATOM      9  C   UNL     1      -7.618  10.503   6.168  1.00  0.00    -0.000 C 
BRANCH   9  10
ATOM     10  C   UNL     1      -6.666  10.971   5.053  1.00  0.00    -0.000 C 
BRANCH  10  11
ATOM     11  C   UNL     1      -5.279  11.361   5.588  1.00  0.00    -0.003 C 
ATOM     12  C   UNL     1      -4.916  10.635   6.883  1.00  0.00     0.004 C 
ENDBRANCH  10  11
ENDBRANCH   9  10
ENDBRANCH   8   9
ENDBRANCH   7   8
ENDBRANCH   6   7
ENDBRANCH   5   6
ENDBRANCH   4   5
ENDBRANCH   3   4
ENDBRANCH   2   3
ENDBRANCH   1   2
BRANCH   1  13
ATOM     13  C   UNL     1     -13.952   6.953   2.301  1.00  0.00     0.000 C 
BRANCH  13  14
ATOM     14  C   UNL     1     -14.576   5.938   3.284  1.00  0.00     0.000 C 
BRANCH  14  15
ATOM     15  C   UNL     1     -14.656   6.444   4.738  1.00  0.00     0.000 C 
BRANCH  15  16
ATOM     16  C   UNL     1     -13.368   6.269   5.560  1.00  0.00     0.000 C 
BRANCH  16  17
ATOM     17  C   UNL     1     -12.547   7.558   5.768  1.00  0.00     0.000 C 
BRANCH  17  18
ATOM     18  C   UNL     1     -11.228   7.378   6.544  1.00  0.00     0.000 C 
BRANCH  18  19
ATOM     19  C   UNL     1     -10.097   6.699   5.752  1.00  0.00     0.000 C 
BRANCH  19  20
ATOM     20  C   UNL     1      -9.242   5.762   6.618  1.00  0.00     0.006 C 
BRANCH  20  21
ATOM     21  C   UNL     1      -9.843   5.607   8.018  1.00  0.00     0.053 C 
BRANCH  21  22
ATOM     22  C   UNL     1     -10.714   4.391   8.085  1.00  0.00     0.041 C 
ATOM     23  O   UNL     1     -11.420   4.172   9.106  1.00  0.00    -0.550 OA
ATOM     24  O   UNL     1     -10.725   3.483   7.034  1.00  0.00    -0.550 OA
ENDBRANCH  21  22
ENDBRANCH  20  21
ENDBRANCH  19  20
ENDBRANCH  18  19
ENDBRANCH  17  18
ENDBRANCH  16  17
ENDBRANCH  15  16
ENDBRANCH  14  15
ENDBRANCH  13  14
ENDBRANCH   1  13
TORSDOF 20
ENDMDL
MODEL 9
REMARK VINA RESULT:    -3.981      1.113      2.476
REMARK INTER + INTRA:         -10.986
REMARK INTER:                  -9.092
REMARK INTRA:                  -1.894
REMARK UNBOUND:                -2.350
REMARK SMILES CCCCCCCCCCCCCCCCCCCCCC(=O)[O-]
REMARK SMILES IDX 12 1 11 2 10 3 9 4 8 5 7 6 6 7 5 8 4 9 3 10 2 11 1 12 13 13
REMARK SMILES IDX 14 14 15 15 16 16 17 17 18 18 19 19 20 20 21 21 22 22 23 23
REMARK SMILES IDX 24 24
REMARK H PARENT
REMARK Flexibility Score: inf
ROOT
ATOM      1  C   UNL     1     -11.057   5.599   8.223  1.00  0.00     0.000 C 
ENDROOT
BRANCH   1   2
ATOM      2  C   UNL     1     -11.548   4.210   7.785  1.00  0.00     0.000 C 
BRANCH   2   3
ATOM      3  C   UNL     1     -12.582   4.278   6.648  1.00  0.00     0.000 C 
BRANCH   3   4
ATOM      4  C   UNL     1     -12.912   5.722   6.232  1.00  0.00    -0.000 C 
BRANCH   4   5
ATOM      5  C   UNL     1     -13.168   5.917   4.724  1.00  0.00    -0.000 C 
BRANCH   5   6
ATOM      6  C   UNL     1     -14.538   6.526   4.367  1.00  0.00    -0.000 C 
BRANCH   6   7
ATOM      7  C   UNL     1     -14.688   8.025   4.683  1.00  0.00    -0.000 C 
BRANCH   7   8
ATOM      8  C   UNL     1     -13.363   8.679   5.112  1.00  0.00    -0.000 C 
BRANCH   8   9
ATOM      9  C   UNL     1     -13.324  10.185   4.803  1.00  0.00    -0.000 C 
BRANCH   9  10
ATOM     10  C   UNL     1     -13.533  10.482   3.307  1.00  0.00    -0.000 C 
BRANCH  10  11
ATOM     11  C   UNL     1     -12.497  11.473   2.752  1.00  0.00    -0.003 C 
ATOM     12  C   UNL     1     -12.126  11.192   1.296  1.00  0.00     0.004 C 
ENDBRANCH  10  11
ENDBRANCH   9  10
ENDBRANCH   8   9
ENDBRANCH   7   8
ENDBRANCH   6   7
ENDBRANCH   5   6
ENDBRANCH   4   5
ENDBRANCH   3   4
ENDBRANCH   2   3
ENDBRANCH   1   2
BRANCH   1  13
ATOM     13  C   UNL     1      -9.541   5.783   8.029  1.00  0.00     0.000 C 
BRANCH  13  14
ATOM     14  C   UNL     1      -9.148   5.909   6.540  1.00  0.00     0.000 C 
BRANCH  14  15
ATOM     15  C   UNL     1      -9.465   7.286   5.924  1.00  0.00     0.000 C 
BRANCH  15  16
ATOM     16  C   UNL     1      -8.255   8.222   5.765  1.00  0.00     0.000 C 
BRANCH  16  17
ATOM     17  C   UNL     1      -8.505   9.468   4.891  1.00  0.00     0.000 C 
BRANCH  17  18
ATOM     18  C   UNL     1      -9.651  10.382   5.365  1.00  0.00     0.000 C 
BRANCH  18  19
ATOM     19  C   UNL     1      -9.231  11.818   5.725  1.00  0.00     0.000 C 
BRANCH  19  20
ATOM     20  C   UNL     1      -7.709  11.981   5.847  1.00  0.00     0.006 C 
BRANCH  20  21
ATOM     21  C   UNL     1      -7.271  11.985   7.314  1.00  0.00     0.053 C 
BRANCH  21  22
ATOM     22  C   UNL     1      -5.851  11.529   7.441  1.00  0.00     0.041 C 
ATOM     23  O   UNL     1      -5.081  12.076   8.277  1.00  0.00    -0.550 OA
ATOM     24  O   UNL     1      -5.366  10.521   6.617  1.00  0.00    -0.550 OA
ENDBRANCH  21  22
ENDBRANCH  20  21
ENDBRANCH  19  20
ENDBRANCH  18  19
ENDBRANCH  17  18
ENDBRANCH  16  17
ENDBRANCH  15  16
ENDBRANCH  14  15
ENDBRANCH  13  14
ENDBRANCH   1  13
TORSDOF 20
ENDMDL
