MODEL 1
REMARK VINA RESULT:    -5.249      0.000      0.000
REMARK INTER + INTRA:          -6.009
REMARK INTER:                  -6.170
REMARK INTRA:                   0.161
REMARK UNBOUND:                 0.161
REMARK SMILES O=c1c(O)c(-c2ccc(O)cc2)oc2cc(O)cc(O)c12
REMARK SMILES IDX 5 1 3 2 2 3 1 4 21 5 19 6 18 7 16 8 15 9 14 10 13 11 6 12
REMARK SMILES IDX 7 13 8 14 9 15 12 16 11 17 10 18 4 20 20 22 17 24
REMARK H PARENT 10 19 4 21 20 23 17 25
REMARK Flexibility Score: inf
ROOT
ATOM      1  C   UNL     1      -1.374  -1.168  -9.511  1.00  0.00     0.180 A 
ATOM      2  C   UNL     1      -1.385  -2.560  -9.707  1.00  0.00     0.208 A 
ATOM      3  C   UNL     1      -0.163  -3.248  -9.776  1.00  0.00     0.238 A 
ATOM      4  O   UNL     1      -0.180  -4.500  -9.897  1.00  0.00    -0.285 OA
ATOM      5  C   UNL     1       1.054  -2.534  -9.664  1.00  0.00     0.111 A 
ATOM      6  C   UNL     1       2.351  -3.123  -9.759  1.00  0.00     0.134 A 
ATOM      7  C   UNL     1       3.485  -2.342  -9.501  1.00  0.00     0.093 A 
ATOM      8  C   UNL     1       3.371  -0.979  -9.218  1.00  0.00     0.123 A 
ATOM      9  C   UNL     1       2.113  -0.382  -9.181  1.00  0.00     0.094 A 
ATOM     10  C   UNL     1       0.962  -1.142  -9.398  1.00  0.00     0.146 A 
ATOM     11  O   UNL     1      -0.218  -0.537  -9.344  1.00  0.00    -0.452 OA
ENDROOT
BRANCH   1  12
ATOM     12  C   UNL     1      -2.621  -0.371  -9.454  1.00  0.00     0.021 A 
ATOM     13  C   UNL     1      -3.705  -0.834  -8.690  1.00  0.00     0.016 A 
ATOM     14  C   UNL     1      -4.883  -0.086  -8.604  1.00  0.00     0.047 A 
ATOM     15  C   UNL     1      -4.988   1.141  -9.266  1.00  0.00     0.115 A 
ATOM     16  C   UNL     1      -2.725   0.874 -10.102  1.00  0.00     0.016 A 
ATOM     17  C   UNL     1      -3.904   1.620 -10.013  1.00  0.00     0.047 A 
BRANCH  15  18
ATOM     18  O   UNL     1      -6.167   1.875  -9.173  1.00  0.00    -0.508 OA
ATOM     19  H   UNL     1      -6.297   2.737  -9.689  1.00  0.00     0.293 HD
ENDBRANCH  15  18
ENDBRANCH   1  12
BRANCH   2  20
ATOM     20  O   UNL     1      -2.599  -3.248  -9.794  1.00  0.00    -0.502 OA
ATOM     21  H   UNL     1      -2.788  -4.088  -9.260  1.00  0.00     0.293 HD
ENDBRANCH   2  20
BRANCH   6  22
ATOM     22  O   UNL     1       2.579  -4.452 -10.125  1.00  0.00    -0.507 OA
ATOM     23  H   UNL     1       2.296  -5.254  -9.582  1.00  0.00     0.293 HD
ENDBRANCH   6  22
BRANCH   8  24
ATOM     24  O   UNL     1       4.505  -0.205  -8.979  1.00  0.00    -0.508 OA
ATOM     25  H   UNL     1       5.257  -0.535  -8.384  1.00  0.00     0.293 HD
ENDBRANCH   8  24
TORSDOF 5
ENDMDL
MODEL 2
REMARK VINA RESULT:    -4.838      1.326      2.948
REMARK INTER + INTRA:          -5.526
REMARK INTER:                  -6.012
REMARK INTRA:                   0.486
REMARK UNBOUND:                 0.161
REMARK SMILES O=c1c(O)c(-c2ccc(O)cc2)oc2cc(O)cc(O)c12
REMARK SMILES IDX 5 1 3 2 2 3 1 4 21 5 19 6 18 7 16 8 15 9 14 10 13 11 6 12
REMARK SMILES IDX 7 13 8 14 9 15 12 16 11 17 10 18 4 20 20 22 17 24
REMARK H PARENT 10 19 4 21 20 23 17 25
REMARK Flexibility Score: inf
ROOT
ATOM      1  C   UNL     1      -0.691  -0.895  -9.590  1.00  0.00     0.180 A 
ATOM      2  C   UNL     1       0.425  -0.053  -9.726  1.00  0.00     0.208 A 
ATOM      3  C   UNL     1       1.698  -0.628  -9.872  1.00  0.00     0.238 A 
ATOM      4  O   UNL     1       2.688   0.129 -10.046  1.00  0.00    -0.285 OA
ATOM      5  C   UNL     1       1.840  -2.036  -9.863  1.00  0.00     0.111 A 
ATOM      6  C   UNL     1       3.085  -2.727  -9.963  1.00  0.00     0.134 A 
ATOM      7  C   UNL     1       3.094  -4.122 -10.077  1.00  0.00     0.093 A 
ATOM      8  C   UNL     1       1.907  -4.857 -10.028  1.00  0.00     0.123 A 
ATOM      9  C   UNL     1       0.691  -4.196  -9.871  1.00  0.00     0.094 A 
ATOM     10  C   UNL     1       0.646  -2.802  -9.791  1.00  0.00     0.146 A 
ATOM     11  O   UNL     1      -0.534  -2.211  -9.652  1.00  0.00    -0.452 OA
ENDROOT
BRANCH   1  12
ATOM     12  C   UNL     1      -2.062  -0.363  -9.407  1.00  0.00     0.021 A 
ATOM     13  C   UNL     1      -3.092  -1.229  -9.006  1.00  0.00     0.016 A 
ATOM     14  C   UNL     1      -4.388  -0.744  -8.805  1.00  0.00     0.047 A 
ATOM     15  C   UNL     1      -4.668   0.614  -8.988  1.00  0.00     0.115 A 
ATOM     16  C   UNL     1      -2.345   1.006  -9.570  1.00  0.00     0.016 A 
ATOM     17  C   UNL     1      -3.641   1.488  -9.367  1.00  0.00     0.047 A 
BRANCH  15  18
ATOM     18  O   UNL     1      -5.963   1.083  -8.785  1.00  0.00    -0.508 OA
ATOM     19  H   UNL     1      -6.555   0.708  -8.053  1.00  0.00     0.293 HD
ENDBRANCH  15  18
ENDBRANCH   1  12
BRANCH   2  20
ATOM     20  O   UNL     1       0.261   1.335  -9.753  1.00  0.00    -0.502 OA
ATOM     21  H   UNL     1      -0.527   1.798  -9.315  1.00  0.00     0.293 HD
ENDBRANCH   2  20
BRANCH   6  22
ATOM     22  O   UNL     1       4.332  -2.095  -9.929  1.00  0.00    -0.507 OA
ATOM     23  H   UNL     1       5.204  -2.531 -10.188  1.00  0.00     0.293 HD
ENDBRANCH   6  22
BRANCH   8  24
ATOM     24  O   UNL     1       1.925  -6.247 -10.125  1.00  0.00    -0.508 OA
ATOM     25  H   UNL     1       1.845  -6.717 -11.020  1.00  0.00     0.293 HD
ENDBRANCH   8  24
TORSDOF 5
ENDMDL
MODEL 3
REMARK VINA RESULT:    -3.906      1.865      7.098
REMARK INTER + INTRA:          -4.430
REMARK INTER:                  -4.832
REMARK INTRA:                   0.402
REMARK UNBOUND:                 0.161
REMARK SMILES O=c1c(O)c(-c2ccc(O)cc2)oc2cc(O)cc(O)c12
REMARK SMILES IDX 5 1 3 2 2 3 1 4 21 5 19 6 18 7 16 8 15 9 14 10 13 11 6 12
REMARK SMILES IDX 7 13 8 14 9 15 12 16 11 17 10 18 4 20 20 22 17 24
REMARK H PARENT 10 19 4 21 20 23 17 25
REMARK Flexibility Score: inf
ROOT
ATOM      1  C   UNL     1       0.955  -2.128  -9.716  1.00  0.00     0.180 A 
ATOM      2  C   UNL     1       1.395  -0.813  -9.941  1.00  0.00     0.208 A 
ATOM      3  C   UNL     1       0.454   0.229  -9.940  1.00  0.00     0.238 A 
ATOM      4  O   UNL     1       0.859   1.411 -10.088  1.00  0.00    -0.285 OA
ATOM      5  C   UNL     1      -0.917  -0.059  -9.730  1.00  0.00     0.111 A 
ATOM      6  C   UNL     1      -1.962   0.913  -9.748  1.00  0.00     0.134 A 
ATOM      7  C   UNL     1      -3.264   0.534  -9.397  1.00  0.00     0.093 A 
ATOM      8  C   UNL     1      -3.570  -0.795  -9.094  1.00  0.00     0.123 A 
ATOM      9  C   UNL     1      -2.569  -1.762  -9.132  1.00  0.00     0.094 A 
ATOM     10  C   UNL     1      -1.253  -1.409  -9.443  1.00  0.00     0.146 A 
ATOM     11  O   UNL     1      -0.327  -2.359  -9.457  1.00  0.00    -0.452 OA
ENDROOT
BRANCH   1  12
ATOM     12  C   UNL     1       1.883  -3.283  -9.728  1.00  0.00     0.021 A 
ATOM     13  C   UNL     1       3.232  -3.089  -9.384  1.00  0.00     0.016 A 
ATOM     14  C   UNL     1       4.120  -4.169  -9.367  1.00  0.00     0.047 A 
ATOM     15  C   UNL     1       3.671  -5.456  -9.678  1.00  0.00     0.115 A 
ATOM     16  C   UNL     1       1.433  -4.583 -10.021  1.00  0.00     0.016 A 
ATOM     17  C   UNL     1       2.323  -5.660 -10.002  1.00  0.00     0.047 A 
BRANCH  15  18
ATOM     18  O   UNL     1       4.567  -6.521  -9.658  1.00  0.00    -0.508 OA
ATOM     19  H   UNL     1       5.250  -6.653 -10.395  1.00  0.00     0.293 HD
ENDBRANCH  15  18
ENDBRANCH   1  12
BRANCH   2  20
ATOM     20  O   UNL     1       2.754  -0.548 -10.125  1.00  0.00    -0.502 OA
ATOM     21  H   UNL     1       3.215   0.251  -9.705  1.00  0.00     0.293 HD
ENDBRANCH   2  20
BRANCH   6  22
ATOM     22  O   UNL     1      -1.780   2.247 -10.125  1.00  0.00    -0.507 OA
ATOM     23  H   UNL     1      -2.257   2.697 -10.891  1.00  0.00     0.293 HD
ENDBRANCH   6  22
BRANCH   8  24
ATOM     24  O   UNL     1      -4.871  -1.167  -8.763  1.00  0.00    -0.508 OA
ATOM     25  H   UNL     1      -5.111  -2.130  -8.557  1.00  0.00     0.293 HD
ENDBRANCH   8  24
TORSDOF 5
ENDMDL
MODEL 4
REMARK VINA RESULT:    -3.855      2.316      4.556
REMARK INTER + INTRA:          -4.370
REMARK INTER:                  -4.864
REMARK INTRA:                   0.494
REMARK UNBOUND:                 0.161
REMARK SMILES O=c1c(O)c(-c2ccc(O)cc2)oc2cc(O)cc(O)c12
REMARK SMILES IDX 5 1 3 2 2 3 1 4 21 5 19 6 18 7 16 8 15 9 14 10 13 11 6 12
REMARK SMILES IDX 7 13 8 14 9 15 12 16 11 17 10 18 4 20 20 22 17 24
REMARK H PARENT 10 19 4 21 20 23 17 25
REMARK Flexibility Score: inf
ROOT
ATOM      1  C   UNL     1       1.861  -2.286  -9.681  1.00  0.00     0.180 A 
ATOM      2  C   UNL     1       3.167  -1.789  -9.822  1.00  0.00     0.208 A 
ATOM      3  C   UNL     1       4.232  -2.696  -9.944  1.00  0.00     0.238 A 
ATOM      4  O   UNL     1       5.393  -2.247 -10.124  1.00  0.00    -0.285 OA
ATOM      5  C   UNL     1       3.978  -4.089  -9.907  1.00  0.00     0.111 A 
ATOM      6  C   UNL     1       4.985  -5.099  -9.981  1.00  0.00     0.134 A 
ATOM      7  C   UNL     1       4.607  -6.444 -10.068  1.00  0.00     0.093 A 
ATOM      8  C   UNL     1       3.262  -6.821 -10.017  1.00  0.00     0.123 A 
ATOM      9  C   UNL     1       2.276  -5.846  -9.885  1.00  0.00     0.094 A 
ATOM     10  C   UNL     1       2.619  -4.493  -9.832  1.00  0.00     0.146 A 
ATOM     11  O   UNL     1       1.648  -3.596  -9.717  1.00  0.00    -0.452 OA
ENDROOT
BRANCH   1  12
ATOM     12  C   UNL     1       0.690  -1.392  -9.522  1.00  0.00     0.021 A 
ATOM     13  C   UNL     1      -0.595  -1.948  -9.410  1.00  0.00     0.016 A 
ATOM     14  C   UNL     1      -1.711  -1.124  -9.237  1.00  0.00     0.047 A 
ATOM     15  C   UNL     1      -1.556   0.263  -9.157  1.00  0.00     0.115 A 
ATOM     16  C   UNL     1       0.842   0.003  -9.422  1.00  0.00     0.016 A 
ATOM     17  C   UNL     1      -0.276   0.824  -9.247  1.00  0.00     0.047 A 
BRANCH  15  18
ATOM     18  O   UNL     1      -2.677   1.072  -8.986  1.00  0.00    -0.508 OA
ATOM     19  H   UNL     1      -3.393   1.144  -9.699  1.00  0.00     0.293 HD
ENDBRANCH  15  18
ENDBRANCH   1  12
BRANCH   2  20
ATOM     20  O   UNL     1       3.393  -0.411  -9.877  1.00  0.00    -0.502 OA
ATOM     21  H   UNL     1       2.810   0.257  -9.387  1.00  0.00     0.293 HD
ENDBRANCH   2  20
BRANCH   6  22
ATOM     22  O   UNL     1       6.357  -4.836  -9.947  1.00  0.00    -0.507 OA
ATOM     23  H   UNL     1       7.037  -5.250 -10.567  1.00  0.00     0.293 HD
ENDBRANCH   6  22
BRANCH   8  24
ATOM     24  O   UNL     1       2.896  -8.163 -10.087  1.00  0.00    -0.508 OA
ATOM     25  H   UNL     1       3.053  -8.797  -9.311  1.00  0.00     0.293 HD
ENDBRANCH   8  24
TORSDOF 5
ENDMDL
MODEL 5
REMARK VINA RESULT:    -3.497      1.556      3.359
REMARK INTER + INTRA:          -3.950
REMARK INTER:                  -4.195
REMARK INTRA:                   0.245
REMARK UNBOUND:                 0.161
REMARK SMILES O=c1c(O)c(-c2ccc(O)cc2)oc2cc(O)cc(O)c12
REMARK SMILES IDX 5 1 3 2 2 3 1 4 21 5 19 6 18 7 16 8 15 9 14 10 13 11 6 12
REMARK SMILES IDX 7 13 8 14 9 15 12 16 11 17 10 18 4 20 20 22 17 24
REMARK H PARENT 10 19 4 21 20 23 17 25
REMARK Flexibility Score: inf
ROOT
ATOM      1  C   UNL     1      -2.774  -0.096  -9.338  1.00  0.00     0.180 A 
ATOM      2  C   UNL     1      -1.802   0.899  -9.537  1.00  0.00     0.208 A 
ATOM      3  C   UNL     1      -0.473   0.514  -9.776  1.00  0.00     0.238 A 
ATOM      4  O   UNL     1       0.383   1.407 -10.007  1.00  0.00    -0.285 OA
ATOM      5  C   UNL     1      -0.130  -0.859  -9.797  1.00  0.00     0.111 A 
ATOM      6  C   UNL     1       1.192  -1.362  -9.991  1.00  0.00     0.134 A 
ATOM      7  C   UNL     1       1.394  -2.741 -10.125  1.00  0.00     0.093 A 
ATOM      8  C   UNL     1       0.331  -3.640 -10.006  1.00  0.00     0.123 A 
ATOM      9  C   UNL     1      -0.954  -3.162  -9.757  1.00  0.00     0.094 A 
ATOM     10  C   UNL     1      -1.193  -1.790  -9.655  1.00  0.00     0.146 A 
ATOM     11  O   UNL     1      -2.434  -1.376  -9.429  1.00  0.00    -0.452 OA
ENDROOT
BRANCH   1  12
ATOM     12  C   UNL     1      -4.191   0.231  -9.055  1.00  0.00     0.021 A 
ATOM     13  C   UNL     1      -4.911  -0.549  -8.135  1.00  0.00     0.016 A 
ATOM     14  C   UNL     1      -6.242  -0.244  -7.836  1.00  0.00     0.047 A 
ATOM     15  C   UNL     1      -6.866   0.852  -8.439  1.00  0.00     0.115 A 
ATOM     16  C   UNL     1      -4.817   1.344  -9.644  1.00  0.00     0.016 A 
ATOM     17  C   UNL     1      -6.148   1.647  -9.342  1.00  0.00     0.047 A 
BRANCH  15  18
ATOM     18  O   UNL     1      -8.193   1.143  -8.134  1.00  0.00    -0.508 OA
ATOM     19  H   UNL     1      -8.543   1.086  -7.184  1.00  0.00     0.293 HD
ENDBRANCH  15  18
ENDBRANCH   1  12
BRANCH   2  20
ATOM     20  O   UNL     1      -2.166   2.248  -9.533  1.00  0.00    -0.502 OA
ATOM     21  H   UNL     1      -1.542   2.981  -9.850  1.00  0.00     0.293 HD
ENDBRANCH   2  20
BRANCH   6  22
ATOM     22  O   UNL     1       2.334  -0.557 -10.032  1.00  0.00    -0.507 OA
ATOM     23  H   UNL     1       3.226  -0.844 -10.407  1.00  0.00     0.293 HD
ENDBRANCH   6  22
BRANCH   8  24
ATOM     24  O   UNL     1       0.543  -5.012 -10.123  1.00  0.00    -0.508 OA
ATOM     25  H   UNL     1       1.183  -5.504  -9.511  1.00  0.00     0.293 HD
ENDBRANCH   8  24
TORSDOF 5
ENDMDL
MODEL 6
REMARK VINA RESULT:    -3.025      2.774      4.928
REMARK INTER + INTRA:          -3.394
REMARK INTER:                  -3.968
REMARK INTRA:                   0.573
REMARK UNBOUND:                 0.161
REMARK SMILES O=c1c(O)c(-c2ccc(O)cc2)oc2cc(O)cc(O)c12
REMARK SMILES IDX 5 1 3 2 2 3 1 4 21 5 19 6 18 7 16 8 15 9 14 10 13 11 6 12
REMARK SMILES IDX 7 13 8 14 9 15 12 16 11 17 10 18 4 20 20 22 17 24
REMARK H PARENT 10 19 4 21 20 23 17 25
REMARK Flexibility Score: inf
ROOT
ATOM      1  C   UNL     1       1.017  -3.903  -9.900  1.00  0.00     0.180 A 
ATOM      2  C   UNL     1       2.172  -3.106  -9.970  1.00  0.00     0.208 A 
ATOM      3  C   UNL     1       3.429  -3.732 -10.007  1.00  0.00     0.238 A 
ATOM      4  O   UNL     1       4.458  -3.016 -10.124  1.00  0.00    -0.285 OA
ATOM      5  C   UNL     1       3.515  -5.144  -9.957  1.00  0.00     0.111 A 
ATOM      6  C   UNL     1       4.737  -5.882  -9.948  1.00  0.00     0.134 A 
ATOM      7  C   UNL     1       4.700  -7.280 -10.030  1.00  0.00     0.093 A 
ATOM      8  C   UNL     1       3.484  -7.968 -10.054  1.00  0.00     0.123 A 
ATOM      9  C   UNL     1       2.287  -7.259 -10.003  1.00  0.00     0.094 A 
ATOM     10  C   UNL     1       2.290  -5.863  -9.957  1.00  0.00     0.146 A 
ATOM     11  O   UNL     1       1.127  -5.226  -9.921  1.00  0.00    -0.452 OA
ENDROOT
BRANCH   1  12
ATOM     12  C   UNL     1      -0.342  -3.316  -9.832  1.00  0.00     0.021 A 
ATOM     13  C   UNL     1      -0.490  -1.921  -9.760  1.00  0.00     0.016 A 
ATOM     14  C   UNL     1      -1.764  -1.345  -9.718  1.00  0.00     0.047 A 
ATOM     15  C   UNL     1      -2.903  -2.153  -9.761  1.00  0.00     0.115 A 
ATOM     16  C   UNL     1      -1.492  -4.123  -9.895  1.00  0.00     0.016 A 
ATOM     17  C   UNL     1      -2.764  -3.544  -9.853  1.00  0.00     0.047 A 
BRANCH  15  18
ATOM     18  O   UNL     1      -4.165  -1.566  -9.717  1.00  0.00    -0.508 OA
ATOM     19  H   UNL     1      -4.661  -1.439  -8.842  1.00  0.00     0.293 HD
ENDBRANCH  15  18
ENDBRANCH   1  12
BRANCH   2  20
ATOM     20  O   UNL     1       2.064  -1.715 -10.040  1.00  0.00    -0.502 OA
ATOM     21  H   UNL     1       2.425  -1.103  -9.317  1.00  0.00     0.293 HD
ENDBRANCH   2  20
BRANCH   6  22
ATOM     22  O   UNL     1       6.001  -5.297  -9.834  1.00  0.00    -0.507 OA
ATOM     23  H   UNL     1       6.755  -5.663  -9.274  1.00  0.00     0.293 HD
ENDBRANCH   6  22
BRANCH   8  24
ATOM     24  O   UNL     1       3.456  -9.360 -10.118  1.00  0.00    -0.508 OA
ATOM     25  H   UNL     1       2.588  -9.877 -10.037  1.00  0.00     0.293 HD
ENDBRANCH   8  24
TORSDOF 5
ENDMDL
MODEL 7
REMARK VINA RESULT:    -2.690     11.093     11.749
REMARK INTER + INTRA:          -3.001
REMARK INTER:                  -2.797
REMARK INTRA:                  -0.204
REMARK UNBOUND:                 0.161
REMARK SMILES O=c1c(O)c(-c2ccc(O)cc2)oc2cc(O)cc(O)c12
REMARK SMILES IDX 5 1 3 2 2 3 1 4 21 5 19 6 18 7 16 8 15 9 14 10 13 11 6 12
REMARK SMILES IDX 7 13 8 14 9 15 12 16 11 17 10 18 4 20 20 22 17 24
REMARK H PARENT 10 19 4 21 20 23 17 25
REMARK Flexibility Score: inf
ROOT
ATOM      1  C   UNL     1       0.379   3.212   1.071  1.00  0.00     0.180 A 
ATOM      2  C   UNL     1      -0.226   2.512   2.128  1.00  0.00     0.208 A 
ATOM      3  C   UNL     1      -0.249   1.109   2.092  1.00  0.00     0.238 A 
ATOM      4  O   UNL     1      -0.744   0.486   3.066  1.00  0.00    -0.285 OA
ATOM      5  C   UNL     1       0.320   0.424   0.991  1.00  0.00     0.111 A 
ATOM      6  C   UNL     1       0.319  -0.995   0.829  1.00  0.00     0.134 A 
ATOM      7  C   UNL     1       1.026  -1.569  -0.233  1.00  0.00     0.093 A 
ATOM      8  C   UNL     1       1.679  -0.774  -1.178  1.00  0.00     0.123 A 
ATOM      9  C   UNL     1       1.637   0.613  -1.063  1.00  0.00     0.094 A 
ATOM     10  C   UNL     1       0.970   1.215   0.007  1.00  0.00     0.146 A 
ATOM     11  O   UNL     1       0.962   2.540   0.086  1.00  0.00    -0.452 OA
ENDROOT
BRANCH   1  12
ATOM     12  C   UNL     1       0.419   4.692   1.027  1.00  0.00     0.021 A 
ATOM     13  C   UNL     1       1.654   5.354   1.130  1.00  0.00     0.016 A 
ATOM     14  C   UNL     1       1.717   6.750   1.068  1.00  0.00     0.047 A 
ATOM     15  C   UNL     1       0.552   7.500   0.887  1.00  0.00     0.115 A 
ATOM     16  C   UNL     1      -0.748   5.451   0.824  1.00  0.00     0.016 A 
ATOM     17  C   UNL     1      -0.681   6.846   0.762  1.00  0.00     0.047 A 
BRANCH  15  18
ATOM     18  O   UNL     1       0.629   8.889   0.828  1.00  0.00    -0.508 OA
ATOM     19  H   UNL     1       0.224   9.474   1.549  1.00  0.00     0.293 HD
ENDBRANCH  15  18
ENDBRANCH   1  12
BRANCH   2  20
ATOM     20  O   UNL     1      -0.763   3.207   3.216  1.00  0.00    -0.502 OA
ATOM     21  H   UNL     1      -0.189   3.746   3.854  1.00  0.00     0.293 HD
ENDBRANCH   2  20
BRANCH   6  22
ATOM     22  O   UNL     1      -0.378  -1.874   1.664  1.00  0.00    -0.507 OA
ATOM     23  H   UNL     1       0.001  -2.728   2.043  1.00  0.00     0.293 HD
ENDBRANCH   6  22
BRANCH   8  24
ATOM     24  O   UNL     1       2.367  -1.354  -2.242  1.00  0.00    -0.508 OA
ATOM     25  H   UNL     1       1.892  -1.925  -2.932  1.00  0.00     0.293 HD
ENDBRANCH   8  24
TORSDOF 5
ENDMDL
