MODEL 1
REMARK VINA RESULT:    -5.861      0.000      0.000
REMARK INTER + INTRA:          -7.153
REMARK INTER:                  -6.889
REMARK INTRA:                  -0.264
REMARK UNBOUND:                -0.264
REMARK SMILES O=c1cc(-c2ccc(O)c(O)c2)oc2cc(O)cc(O)c12
REMARK SMILES IDX 4 1 3 2 2 3 1 4 21 5 19 6 18 7 16 8 15 9 14 10 13 11 5 12
REMARK SMILES IDX 6 13 7 14 8 15 12 16 10 17 9 18 11 20 20 22 17 24
REMARK H PARENT 9 19 11 21 20 23 17 25
REMARK Flexibility Score: inf
ROOT
ATOM      1  C   UNL     1      -5.338   0.005   6.553  1.00  0.00     0.138 A 
ATOM      2  C   UNL     1      -5.924   0.415   5.347  1.00  0.00     0.100 A 
ATOM      3  C   UNL     1      -6.612  -0.513   4.564  1.00  0.00     0.197 A 
ATOM      4  O   UNL     1      -7.179  -0.102   3.519  1.00  0.00    -0.289 OA
ATOM      5  C   UNL     1      -6.687  -1.865   4.977  1.00  0.00     0.107 A 
ATOM      6  C   UNL     1      -7.327  -2.905   4.240  1.00  0.00     0.134 A 
ATOM      7  C   UNL     1      -7.439  -4.182   4.804  1.00  0.00     0.093 A 
ATOM      8  C   UNL     1      -6.883  -4.471   6.049  1.00  0.00     0.123 A 
ATOM      9  C   UNL     1      -6.208  -3.475   6.755  1.00  0.00     0.094 A 
ATOM     10  C   UNL     1      -6.109  -2.182   6.235  1.00  0.00     0.146 A 
ATOM     11  O   UNL     1      -5.470  -1.258   6.945  1.00  0.00    -0.456 OA
ENDROOT
BRANCH   1  12
ATOM     12  C   UNL     1      -4.594   0.949   7.424  1.00  0.00     0.021 A 
ATOM     13  C   UNL     1      -3.203   0.841   7.613  1.00  0.00     0.016 A 
ATOM     14  C   UNL     1      -2.529   1.737   8.447  1.00  0.00     0.051 A 
ATOM     15  C   UNL     1      -3.231   2.751   9.111  1.00  0.00     0.157 A 
ATOM     16  C   UNL     1      -5.294   1.962   8.105  1.00  0.00     0.062 A 
ATOM     17  C   UNL     1      -4.621   2.862   8.940  1.00  0.00     0.158 A 
BRANCH  15  18
ATOM     18  O   UNL     1      -2.555   3.644   9.941  1.00  0.00    -0.504 OA
ATOM     19  H   UNL     1      -3.050   4.326  10.503  1.00  0.00     0.293 HD
ENDBRANCH  15  18
BRANCH  17  20
ATOM     20  O   UNL     1      -5.349   3.857   9.590  1.00  0.00    -0.504 OA
ATOM     21  H   UNL     1      -5.993   4.463   9.096  1.00  0.00     0.293 HD
ENDBRANCH  17  20
ENDBRANCH   1  12
BRANCH   6  22
ATOM     22  O   UNL     1      -7.843  -2.746   2.950  1.00  0.00    -0.507 OA
ATOM     23  H   UNL     1      -7.427  -2.176   2.230  1.00  0.00     0.293 HD
ENDBRANCH   6  22
BRANCH   8  24
ATOM     24  O   UNL     1      -7.002  -5.757   6.572  1.00  0.00    -0.508 OA
ATOM     25  H   UNL     1      -7.111  -5.916   7.567  1.00  0.00     0.293 HD
ENDBRANCH   8  24
TORSDOF 5
ENDMDL
MODEL 2
REMARK VINA RESULT:    -5.689      1.153      2.660
REMARK INTER + INTRA:          -6.951
REMARK INTER:                  -6.683
REMARK INTRA:                  -0.268
REMARK UNBOUND:                -0.264
REMARK SMILES O=c1cc(-c2ccc(O)c(O)c2)oc2cc(O)cc(O)c12
REMARK SMILES IDX 4 1 3 2 2 3 1 4 21 5 19 6 18 7 16 8 15 9 14 10 13 11 5 12
REMARK SMILES IDX 6 13 7 14 8 15 12 16 10 17 9 18 11 20 20 22 17 24
REMARK H PARENT 9 19 11 21 20 23 17 25
REMARK Flexibility Score: inf
ROOT
ATOM      1  C   UNL     1      -5.353  -0.539   6.785  1.00  0.00     0.138 A 
ATOM      2  C   UNL     1      -5.486  -1.813   7.353  1.00  0.00     0.100 A 
ATOM      3  C   UNL     1      -6.168  -2.811   6.655  1.00  0.00     0.197 A 
ATOM      4  O   UNL     1      -6.216  -3.962   7.162  1.00  0.00    -0.289 OA
ATOM      5  C   UNL     1      -6.745  -2.521   5.396  1.00  0.00     0.107 A 
ATOM      6  C   UNL     1      -7.497  -3.449   4.614  1.00  0.00     0.134 A 
ATOM      7  C   UNL     1      -7.922  -3.083   3.330  1.00  0.00     0.093 A 
ATOM      8  C   UNL     1      -7.674  -1.807   2.826  1.00  0.00     0.123 A 
ATOM      9  C   UNL     1      -6.987  -0.875   3.603  1.00  0.00     0.094 A 
ATOM     10  C   UNL     1      -6.521  -1.220   4.874  1.00  0.00     0.146 A 
ATOM     11  O   UNL     1      -5.858  -0.308   5.578  1.00  0.00    -0.456 OA
ENDROOT
BRANCH   1  12
ATOM     12  C   UNL     1      -4.640   0.561   7.484  1.00  0.00     0.021 A 
ATOM     13  C   UNL     1      -3.235   0.606   7.548  1.00  0.00     0.016 A 
ATOM     14  C   UNL     1      -2.589   1.647   8.221  1.00  0.00     0.051 A 
ATOM     15  C   UNL     1      -3.334   2.655   8.846  1.00  0.00     0.157 A 
ATOM     16  C   UNL     1      -5.381   1.569   8.126  1.00  0.00     0.062 A 
ATOM     17  C   UNL     1      -4.737   2.613   8.800  1.00  0.00     0.158 A 
BRANCH  15  18
ATOM     18  O   UNL     1      -2.686   3.692   9.515  1.00  0.00    -0.504 OA
ATOM     19  H   UNL     1      -1.956   3.512  10.193  1.00  0.00     0.293 HD
ENDBRANCH  15  18
BRANCH  17  20
ATOM     20  O   UNL     1      -5.507   3.599   9.416  1.00  0.00    -0.504 OA
ATOM     21  H   UNL     1      -5.976   3.442  10.300  1.00  0.00     0.293 HD
ENDBRANCH  17  20
ENDBRANCH   1  12
BRANCH   6  22
ATOM     22  O   UNL     1      -7.872  -4.721   5.056  1.00  0.00    -0.507 OA
ATOM     23  H   UNL     1      -8.281  -5.435   4.475  1.00  0.00     0.293 HD
ENDBRANCH   6  22
BRANCH   8  24
ATOM     24  O   UNL     1      -8.125  -1.475   1.550  1.00  0.00    -0.508 OA
ATOM     25  H   UNL     1      -8.619  -0.608   1.372  1.00  0.00     0.293 HD
ENDBRANCH   8  24
TORSDOF 5
ENDMDL
MODEL 3
REMARK VINA RESULT:    -4.983      1.381      7.186
REMARK INTER + INTRA:          -6.120
REMARK INTER:                  -5.852
REMARK INTRA:                  -0.269
REMARK UNBOUND:                -0.264
REMARK SMILES O=c1cc(-c2ccc(O)c(O)c2)oc2cc(O)cc(O)c12
REMARK SMILES IDX 4 1 3 2 2 3 1 4 21 5 19 6 18 7 16 8 15 9 14 10 13 11 5 12
REMARK SMILES IDX 6 13 7 14 8 15 12 16 10 17 9 18 11 20 20 22 17 24
REMARK H PARENT 9 19 11 21 20 23 17 25
REMARK Flexibility Score: inf
ROOT
ATOM      1  C   UNL     1      -5.163  -0.372   7.245  1.00  0.00     0.138 A 
ATOM      2  C   UNL     1      -3.785  -0.165   7.395  1.00  0.00     0.100 A 
ATOM      3  C   UNL     1      -3.327   0.978   8.052  1.00  0.00     0.197 A 
ATOM      4  O   UNL     1      -2.087   1.104   8.226  1.00  0.00    -0.289 OA
ATOM      5  C   UNL     1      -4.254   1.933   8.534  1.00  0.00     0.107 A 
ATOM      6  C   UNL     1      -3.899   3.153   9.183  1.00  0.00     0.134 A 
ATOM      7  C   UNL     1      -4.905   3.965   9.721  1.00  0.00     0.093 A 
ATOM      8  C   UNL     1      -6.252   3.632   9.581  1.00  0.00     0.123 A 
ATOM      9  C   UNL     1      -6.612   2.469   8.901  1.00  0.00     0.094 A 
ATOM     10  C   UNL     1      -5.631   1.620   8.383  1.00  0.00     0.146 A 
ATOM     11  O   UNL     1      -6.014   0.513   7.754  1.00  0.00    -0.456 OA
ENDROOT
BRANCH   1  12
ATOM     12  C   UNL     1      -5.706  -1.568   6.553  1.00  0.00     0.021 A 
ATOM     13  C   UNL     1      -5.693  -2.840   7.156  1.00  0.00     0.016 A 
ATOM     14  C   UNL     1      -6.201  -3.951   6.478  1.00  0.00     0.051 A 
ATOM     15  C   UNL     1      -6.725  -3.814   5.186  1.00  0.00     0.157 A 
ATOM     16  C   UNL     1      -6.221  -1.441   5.250  1.00  0.00     0.062 A 
ATOM     17  C   UNL     1      -6.732  -2.552   4.569  1.00  0.00     0.158 A 
BRANCH  15  18
ATOM     18  O   UNL     1      -7.232  -4.924   4.514  1.00  0.00    -0.504 OA
ATOM     19  H   UNL     1      -6.977  -5.868   4.780  1.00  0.00     0.293 HD
ENDBRANCH  15  18
BRANCH  17  20
ATOM     20  O   UNL     1      -7.242  -2.382   3.283  1.00  0.00    -0.504 OA
ATOM     21  H   UNL     1      -7.565  -3.163   2.724  1.00  0.00     0.293 HD
ENDBRANCH  17  20
ENDBRANCH   1  12
BRANCH   6  22
ATOM     22  O   UNL     1      -2.588   3.623   9.303  1.00  0.00    -0.507 OA
ATOM     23  H   UNL     1      -1.786   3.213   8.851  1.00  0.00     0.293 HD
ENDBRANCH   6  22
BRANCH   8  24
ATOM     24  O   UNL     1      -7.226   4.472  10.117  1.00  0.00    -0.508 OA
ATOM     25  H   UNL     1      -8.135   4.574   9.681  1.00  0.00     0.293 HD
ENDBRANCH   8  24
TORSDOF 5
ENDMDL
MODEL 4
REMARK VINA RESULT:    -4.887      1.269      7.034
REMARK INTER + INTRA:          -6.008
REMARK INTER:                  -5.744
REMARK INTRA:                  -0.264
REMARK UNBOUND:                -0.264
REMARK SMILES O=c1cc(-c2ccc(O)c(O)c2)oc2cc(O)cc(O)c12
REMARK SMILES IDX 4 1 3 2 2 3 1 4 21 5 19 6 18 7 16 8 15 9 14 10 13 11 5 12
REMARK SMILES IDX 6 13 7 14 8 15 12 16 10 17 9 18 11 20 20 22 17 24
REMARK H PARENT 9 19 11 21 20 23 17 25
REMARK Flexibility Score: inf
ROOT
ATOM      1  C   UNL     1      -5.980  -0.453   7.259  1.00  0.00     0.138 A 
ATOM      2  C   UNL     1      -6.846   0.635   7.433  1.00  0.00     0.100 A 
ATOM      3  C   UNL     1      -6.398   1.773   8.104  1.00  0.00     0.197 A 
ATOM      4  O   UNL     1      -7.178   2.757   8.190  1.00  0.00    -0.289 OA
ATOM      5  C   UNL     1      -5.085   1.809   8.630  1.00  0.00     0.107 A 
ATOM      6  C   UNL     1      -4.534   2.899   9.367  1.00  0.00     0.134 A 
ATOM      7  C   UNL     1      -3.184   2.869   9.739  1.00  0.00     0.093 A 
ATOM      8  C   UNL     1      -2.383   1.764   9.453  1.00  0.00     0.123 A 
ATOM      9  C   UNL     1      -2.925   0.670   8.780  1.00  0.00     0.094 A 
ATOM     10  C   UNL     1      -4.259   0.684   8.366  1.00  0.00     0.146 A 
ATOM     11  O   UNL     1      -4.735  -0.373   7.715  1.00  0.00    -0.456 OA
ENDROOT
BRANCH   1  12
ATOM     12  C   UNL     1      -6.405  -1.689   6.554  1.00  0.00     0.021 A 
ATOM     13  C   UNL     1      -6.540  -2.916   7.230  1.00  0.00     0.016 A 
ATOM     14  C   UNL     1      -6.931  -4.066   6.540  1.00  0.00     0.051 A 
ATOM     15  C   UNL     1      -7.188  -4.013   5.164  1.00  0.00     0.157 A 
ATOM     16  C   UNL     1      -6.651  -1.647   5.170  1.00  0.00     0.062 A 
ATOM     17  C   UNL     1      -7.045  -2.797   4.476  1.00  0.00     0.158 A 
BRANCH  15  18
ATOM     18  O   UNL     1      -7.579  -5.163   4.479  1.00  0.00    -0.504 OA
ATOM     19  H   UNL     1      -8.121  -5.891   4.930  1.00  0.00     0.293 HD
ENDBRANCH  15  18
BRANCH  17  20
ATOM     20  O   UNL     1      -7.289  -2.712   3.106  1.00  0.00    -0.504 OA
ATOM     21  H   UNL     1      -7.398  -1.824   2.633  1.00  0.00     0.293 HD
ENDBRANCH  17  20
ENDBRANCH   1  12
BRANCH   6  22
ATOM     22  O   UNL     1      -5.269   4.015   9.779  1.00  0.00    -0.507 OA
ATOM     23  H   UNL     1      -5.450   4.264  10.739  1.00  0.00     0.293 HD
ENDBRANCH   6  22
BRANCH   8  24
ATOM     24  O   UNL     1      -1.047   1.764   9.851  1.00  0.00    -0.508 OA
ATOM     25  H   UNL     1      -0.302   1.991   9.203  1.00  0.00     0.293 HD
ENDBRANCH   8  24
TORSDOF 5
ENDMDL
MODEL 5
REMARK VINA RESULT:    -4.871     18.902     20.602
REMARK INTER + INTRA:          -5.989
REMARK INTER:                  -5.701
REMARK INTRA:                  -0.287
REMARK UNBOUND:                -0.264
REMARK SMILES O=c1cc(-c2ccc(O)c(O)c2)oc2cc(O)cc(O)c12
REMARK SMILES IDX 4 1 3 2 2 3 1 4 21 5 19 6 18 7 16 8 15 9 14 10 13 11 5 12
REMARK SMILES IDX 6 13 7 14 8 15 12 16 10 17 9 18 11 20 20 22 17 24
REMARK H PARENT 9 19 11 21 20 23 17 25
REMARK Flexibility Score: inf
ROOT
ATOM      1  C   UNL     1       2.558 -10.716  -7.579  1.00  0.00     0.138 A 
ATOM      2  C   UNL     1       2.662 -11.213  -6.273  1.00  0.00     0.100 A 
ATOM      3  C   UNL     1       3.919 -11.332  -5.678  1.00  0.00     0.197 A 
ATOM      4  O   UNL     1       3.975 -11.723  -4.483  1.00  0.00    -0.289 OA
ATOM      5  C   UNL     1       5.079 -10.979  -6.408  1.00  0.00     0.107 A 
ATOM      6  C   UNL     1       6.414 -11.098  -5.917  1.00  0.00     0.134 A 
ATOM      7  C   UNL     1       7.477 -10.609  -6.687  1.00  0.00     0.093 A 
ATOM      8  C   UNL     1       7.260 -10.062  -7.952  1.00  0.00     0.123 A 
ATOM      9  C   UNL     1       5.964  -9.991  -8.463  1.00  0.00     0.094 A 
ATOM     10  C   UNL     1       4.879 -10.439  -7.706  1.00  0.00     0.146 A 
ATOM     11  O   UNL     1       3.658 -10.341  -8.223  1.00  0.00    -0.456 OA
ENDROOT
BRANCH   1  12
ATOM     12  C   UNL     1       1.247 -10.570  -8.260  1.00  0.00     0.021 A 
ATOM     13  C   UNL     1       1.036  -9.599  -9.258  1.00  0.00     0.016 A 
ATOM     14  C   UNL     1      -0.212  -9.477  -9.875  1.00  0.00     0.051 A 
ATOM     15  C   UNL     1      -1.270 -10.315  -9.505  1.00  0.00     0.157 A 
ATOM     16  C   UNL     1       0.174 -11.398  -7.883  1.00  0.00     0.062 A 
ATOM     17  C   UNL     1      -1.076 -11.278  -8.501  1.00  0.00     0.158 A 
BRANCH  15  18
ATOM     18  O   UNL     1      -2.513 -10.190 -10.124  1.00  0.00    -0.504 OA
ATOM     19  H   UNL     1      -3.276  -9.688  -9.686  1.00  0.00     0.293 HD
ENDBRANCH  15  18
BRANCH  17  20
ATOM     20  O   UNL     1      -2.111 -12.125  -8.106  1.00  0.00    -0.504 OA
ATOM     21  H   UNL     1      -2.016 -12.763  -7.326  1.00  0.00     0.293 HD
ENDBRANCH  17  20
ENDBRANCH   1  12
BRANCH   6  22
ATOM     22  O   UNL     1       6.750 -11.704  -4.704  1.00  0.00    -0.507 OA
ATOM     23  H   UNL     1       6.951 -12.685  -4.586  1.00  0.00     0.293 HD
ENDBRANCH   6  22
BRANCH   8  24
ATOM     24  O   UNL     1       8.344  -9.599  -8.694  1.00  0.00    -0.508 OA
ATOM     25  H   UNL     1       8.252  -8.817  -9.332  1.00  0.00     0.293 HD
ENDBRANCH   8  24
TORSDOF 5
ENDMDL
MODEL 6
REMARK VINA RESULT:    -4.848     13.942     16.083
REMARK INTER + INTRA:          -5.962
REMARK INTER:                  -5.644
REMARK INTRA:                  -0.318
REMARK UNBOUND:                -0.264
REMARK SMILES O=c1cc(-c2ccc(O)c(O)c2)oc2cc(O)cc(O)c12
REMARK SMILES IDX 4 1 3 2 2 3 1 4 21 5 19 6 18 7 16 8 15 9 14 10 13 11 5 12
REMARK SMILES IDX 6 13 7 14 8 15 12 16 10 17 9 18 11 20 20 22 17 24
REMARK H PARENT 9 19 11 21 20 23 17 25
REMARK Flexibility Score: inf
ROOT
ATOM      1  C   UNL     1      -6.308  -4.275  -7.499  1.00  0.00     0.138 A 
ATOM      2  C   UNL     1      -7.381  -3.396  -7.299  1.00  0.00     0.100 A 
ATOM      3  C   UNL     1      -7.137  -2.029  -7.160  1.00  0.00     0.197 A 
ATOM      4  O   UNL     1      -8.125  -1.259  -7.044  1.00  0.00    -0.289 OA
ATOM      5  C   UNL     1      -5.807  -1.545  -7.190  1.00  0.00     0.107 A 
ATOM      6  C   UNL     1      -5.437  -0.178  -7.018  1.00  0.00     0.134 A 
ATOM      7  C   UNL     1      -4.098   0.200  -7.183  1.00  0.00     0.093 A 
ATOM      8  C   UNL     1      -3.110  -0.746  -7.454  1.00  0.00     0.123 A 
ATOM      9  C   UNL     1      -3.454  -2.093  -7.571  1.00  0.00     0.094 A 
ATOM     10  C   UNL     1      -4.785  -2.497  -7.446  1.00  0.00     0.146 A 
ATOM     11  O   UNL     1      -5.074  -3.788  -7.578  1.00  0.00    -0.456 OA
ENDROOT
BRANCH   1  12
ATOM     12  C   UNL     1      -6.510  -5.738  -7.653  1.00  0.00     0.021 A 
ATOM     13  C   UNL     1      -7.783  -6.325  -7.524  1.00  0.00     0.016 A 
ATOM     14  C   UNL     1      -7.943  -7.707  -7.663  1.00  0.00     0.051 A 
ATOM     15  C   UNL     1      -6.836  -8.525  -7.926  1.00  0.00     0.157 A 
ATOM     16  C   UNL     1      -5.402  -6.567  -7.902  1.00  0.00     0.062 A 
ATOM     17  C   UNL     1      -5.560  -7.951  -8.043  1.00  0.00     0.158 A 
BRANCH  15  18
ATOM     18  O   UNL     1      -7.001  -9.902  -8.065  1.00  0.00    -0.504 OA
ATOM     19  H   UNL     1      -7.844 -10.298  -8.462  1.00  0.00     0.293 HD
ENDBRANCH  15  18
BRANCH  17  20
ATOM     20  O   UNL     1      -4.438  -8.738  -8.300  1.00  0.00    -0.504 OA
ATOM     21  H   UNL     1      -4.501  -9.741  -8.424  1.00  0.00     0.293 HD
ENDBRANCH  17  20
ENDBRANCH   1  12
BRANCH   6  22
ATOM     22  O   UNL     1      -6.331   0.836  -6.662  1.00  0.00    -0.507 OA
ATOM     23  H   UNL     1      -7.246   0.685  -6.267  1.00  0.00     0.293 HD
ENDBRANCH   6  22
BRANCH   8  24
ATOM     24  O   UNL     1      -1.787  -0.335  -7.598  1.00  0.00    -0.508 OA
ATOM     25  H   UNL     1      -1.521   0.364  -8.282  1.00  0.00     0.293 HD
ENDBRANCH   8  24
TORSDOF 5
ENDMDL
MODEL 7
REMARK VINA RESULT:    -4.789      1.563      7.041
REMARK INTER + INTRA:          -5.893
REMARK INTER:                  -5.621
REMARK INTRA:                  -0.272
REMARK UNBOUND:                -0.264
REMARK SMILES O=c1cc(-c2ccc(O)c(O)c2)oc2cc(O)cc(O)c12
REMARK SMILES IDX 4 1 3 2 2 3 1 4 21 5 19 6 18 7 16 8 15 9 14 10 13 11 5 12
REMARK SMILES IDX 6 13 7 14 8 15 12 16 10 17 9 18 11 20 20 22 17 24
REMARK H PARENT 9 19 11 21 20 23 17 25
REMARK Flexibility Score: inf
ROOT
ATOM      1  C   UNL     1      -6.040  -0.488   7.157  1.00  0.00     0.138 A 
ATOM      2  C   UNL     1      -6.909   0.594   7.356  1.00  0.00     0.100 A 
ATOM      3  C   UNL     1      -6.453   1.730   8.025  1.00  0.00     0.197 A 
ATOM      4  O   UNL     1      -7.237   2.709   8.133  1.00  0.00    -0.289 OA
ATOM      5  C   UNL     1      -5.130   1.770   8.525  1.00  0.00     0.107 A 
ATOM      6  C   UNL     1      -4.571   2.859   9.258  1.00  0.00     0.134 A 
ATOM      7  C   UNL     1      -3.213   2.835   9.602  1.00  0.00     0.093 A 
ATOM      8  C   UNL     1      -2.411   1.736   9.292  1.00  0.00     0.123 A 
ATOM      9  C   UNL     1      -2.961   0.643   8.623  1.00  0.00     0.094 A 
ATOM     10  C   UNL     1      -4.303   0.652   8.237  1.00  0.00     0.146 A 
ATOM     11  O   UNL     1      -4.786  -0.404   7.589  1.00  0.00    -0.456 OA
ENDROOT
BRANCH   1  12
ATOM     12  C   UNL     1      -6.472  -1.722   6.453  1.00  0.00     0.021 A 
ATOM     13  C   UNL     1      -6.834  -1.708   5.093  1.00  0.00     0.016 A 
ATOM     14  C   UNL     1      -7.246  -2.883   4.458  1.00  0.00     0.051 A 
ATOM     15  C   UNL     1      -7.311  -4.087   5.169  1.00  0.00     0.157 A 
ATOM     16  C   UNL     1      -6.554  -2.932   7.164  1.00  0.00     0.062 A 
ATOM     17  C   UNL     1      -6.966  -4.110   6.530  1.00  0.00     0.158 A 
BRANCH  15  18
ATOM     18  O   UNL     1      -7.723  -5.257   4.531  1.00  0.00    -0.504 OA
ATOM     19  H   UNL     1      -8.669  -5.607   4.623  1.00  0.00     0.293 HD
ENDBRANCH  15  18
BRANCH  17  20
ATOM     20  O   UNL     1      -7.024  -5.292   7.268  1.00  0.00    -0.504 OA
ATOM     21  H   UNL     1      -7.852  -5.565   7.782  1.00  0.00     0.293 HD
ENDBRANCH  17  20
ENDBRANCH   1  12
BRANCH   6  22
ATOM     22  O   UNL     1      -5.303   3.968   9.692  1.00  0.00    -0.507 OA
ATOM     23  H   UNL     1      -5.004   4.927   9.602  1.00  0.00     0.293 HD
ENDBRANCH   6  22
BRANCH   8  24
ATOM     24  O   UNL     1      -1.068   1.741   9.663  1.00  0.00    -0.508 OA
ATOM     25  H   UNL     1      -0.386   1.163   9.187  1.00  0.00     0.293 HD
ENDBRANCH   8  24
TORSDOF 5
ENDMDL
MODEL 8
REMARK VINA RESULT:    -4.710      1.484      2.981
REMARK INTER + INTRA:          -5.800
REMARK INTER:                  -5.536
REMARK INTRA:                  -0.264
REMARK UNBOUND:                -0.264
REMARK SMILES O=c1cc(-c2ccc(O)c(O)c2)oc2cc(O)cc(O)c12
REMARK SMILES IDX 4 1 3 2 2 3 1 4 21 5 19 6 18 7 16 8 15 9 14 10 13 11 5 12
REMARK SMILES IDX 6 13 7 14 8 15 12 16 10 17 9 18 11 20 20 22 17 24
REMARK H PARENT 9 19 11 21 20 23 17 25
REMARK Flexibility Score: inf
ROOT
ATOM      1  C   UNL     1      -5.123  -0.789   8.220  1.00  0.00     0.138 A 
ATOM      2  C   UNL     1      -5.130  -1.787   9.205  1.00  0.00     0.100 A 
ATOM      3  C   UNL     1      -5.710  -3.025   8.927  1.00  0.00     0.197 A 
ATOM      4  O   UNL     1      -5.646  -3.921   9.809  1.00  0.00    -0.289 OA
ATOM      5  C   UNL     1      -6.313  -3.255   7.667  1.00  0.00     0.107 A 
ATOM      6  C   UNL     1      -6.969  -4.463   7.289  1.00  0.00     0.134 A 
ATOM      7  C   UNL     1      -7.427  -4.617   5.974  1.00  0.00     0.093 A 
ATOM      8  C   UNL     1      -7.306  -3.585   5.043  1.00  0.00     0.123 A 
ATOM      9  C   UNL     1      -6.714  -2.379   5.419  1.00  0.00     0.094 A 
ATOM     10  C   UNL     1      -6.217  -2.207   6.712  1.00  0.00     0.146 A 
ATOM     11  O   UNL     1      -5.647  -1.048   7.027  1.00  0.00    -0.456 OA
ENDROOT
BRANCH   1  12
ATOM     12  C   UNL     1      -4.521   0.547   8.461  1.00  0.00     0.021 A 
ATOM     13  C   UNL     1      -3.145   0.782   8.277  1.00  0.00     0.016 A 
ATOM     14  C   UNL     1      -2.604   2.047   8.522  1.00  0.00     0.051 A 
ATOM     15  C   UNL     1      -3.423   3.095   8.960  1.00  0.00     0.157 A 
ATOM     16  C   UNL     1      -5.334   1.600   8.915  1.00  0.00     0.062 A 
ATOM     17  C   UNL     1      -4.794   2.869   9.160  1.00  0.00     0.158 A 
BRANCH  15  18
ATOM     18  O   UNL     1      -2.879   4.355   9.202  1.00  0.00    -0.504 OA
ATOM     19  H   UNL     1      -2.616   4.650  10.135  1.00  0.00     0.293 HD
ENDBRANCH  15  18
BRANCH  17  20
ATOM     20  O   UNL     1      -5.636   3.890   9.600  1.00  0.00    -0.504 OA
ATOM     21  H   UNL     1      -6.631   3.752   9.723  1.00  0.00     0.293 HD
ENDBRANCH  17  20
ENDBRANCH   1  12
BRANCH   6  22
ATOM     22  O   UNL     1      -7.218  -5.525   8.163  1.00  0.00    -0.507 OA
ATOM     23  H   UNL     1      -7.993  -5.572   8.806  1.00  0.00     0.293 HD
ENDBRANCH   6  22
BRANCH   8  24
ATOM     24  O   UNL     1      -7.786  -3.769   3.748  1.00  0.00    -0.508 OA
ATOM     25  H   UNL     1      -7.381  -4.460   3.127  1.00  0.00     0.293 HD
ENDBRANCH   8  24
TORSDOF 5
ENDMDL
MODEL 9
REMARK VINA RESULT:    -4.542      3.024      6.741
REMARK INTER + INTRA:          -5.602
REMARK INTER:                  -5.284
REMARK INTRA:                  -0.318
REMARK UNBOUND:                -0.264
REMARK SMILES O=c1cc(-c2ccc(O)c(O)c2)oc2cc(O)cc(O)c12
REMARK SMILES IDX 4 1 3 2 2 3 1 4 21 5 19 6 18 7 16 8 15 9 14 10 13 11 5 12
REMARK SMILES IDX 6 13 7 14 8 15 12 16 10 17 9 18 11 20 20 22 17 24
REMARK H PARENT 9 19 11 21 20 23 17 25
REMARK Flexibility Score: inf
ROOT
ATOM      1  C   UNL     1      -6.968  -3.307   7.233  1.00  0.00     0.138 A 
ATOM      2  C   UNL     1      -6.642  -2.089   7.846  1.00  0.00     0.100 A 
ATOM      3  C   UNL     1      -6.553  -0.930   7.074  1.00  0.00     0.197 A 
ATOM      4  O   UNL     1      -6.320   0.157   7.661  1.00  0.00    -0.289 OA
ATOM      5  C   UNL     1      -6.760  -0.998   5.675  1.00  0.00     0.107 A 
ATOM      6  C   UNL     1      -6.654   0.110   4.784  1.00  0.00     0.134 A 
ATOM      7  C   UNL     1      -6.996  -0.054   3.435  1.00  0.00     0.093 A 
ATOM      8  C   UNL     1      -7.380  -1.298   2.935  1.00  0.00     0.123 A 
ATOM      9  C   UNL     1      -7.435  -2.401   3.788  1.00  0.00     0.094 A 
ATOM     10  C   UNL     1      -7.133  -2.262   5.145  1.00  0.00     0.146 A 
ATOM     11  O   UNL     1      -7.211  -3.334   5.927  1.00  0.00    -0.456 OA
ENDROOT
BRANCH   1  12
ATOM     12  C   UNL     1      -7.075  -4.570   8.006  1.00  0.00     0.021 A 
ATOM     13  C   UNL     1      -6.744  -4.631   9.373  1.00  0.00     0.016 A 
ATOM     14  C   UNL     1      -6.844  -5.836  10.073  1.00  0.00     0.051 A 
ATOM     15  C   UNL     1      -7.270  -7.000   9.422  1.00  0.00     0.157 A 
ATOM     16  C   UNL     1      -7.489  -5.747   7.356  1.00  0.00     0.062 A 
ATOM     17  C   UNL     1      -7.591  -6.955   8.055  1.00  0.00     0.158 A 
BRANCH  15  18
ATOM     18  O   UNL     1      -7.370  -8.200  10.125  1.00  0.00    -0.504 OA
ATOM     19  H   UNL     1      -7.156  -9.089   9.690  1.00  0.00     0.293 HD
ENDBRANCH  15  18
BRANCH  17  20
ATOM     20  O   UNL     1      -8.014  -8.097   7.377  1.00  0.00    -0.504 OA
ATOM     21  H   UNL     1      -7.913  -8.196   6.374  1.00  0.00     0.293 HD
ENDBRANCH  17  20
ENDBRANCH   1  12
BRANCH   6  22
ATOM     22  O   UNL     1      -6.199   1.377   5.161  1.00  0.00    -0.507 OA
ATOM     23  H   UNL     1      -6.511   2.246   4.756  1.00  0.00     0.293 HD
ENDBRANCH   6  22
BRANCH   8  24
ATOM     24  O   UNL     1      -7.698  -1.427   1.585  1.00  0.00    -0.508 OA
ATOM     25  H   UNL     1      -7.081  -1.905   0.939  1.00  0.00     0.293 HD
ENDBRANCH   8  24
TORSDOF 5
ENDMDL
