MODEL 1
REMARK VINA RESULT:    -4.923      0.000      0.000
REMARK INTER + INTRA:          -7.822
REMARK INTER:                  -7.082
REMARK INTRA:                  -0.741
REMARK UNBOUND:                -0.741
REMARK SMILES O=c1c(O[C@H]2O[C@@H](CO)[C@H](O)[C@@H](O)[C@@H]2O)c(-c2ccc(O)cc2)oc2cc(O)cc(O)c12
REMARK SMILES IDX 4 1 3 2 16 3 24 4 2 5 25 6 1 7 32 8 26 9 30 10 27 11 29 12
REMARK SMILES IDX 17 13 18 14 19 15 20 16 23 17 22 18 21 19 31 21 28 23 5 25
REMARK SMILES IDX 14 26 6 27 12 28 7 29 10 30 15 31 13 33 8 35 9 36 11 38
REMARK H PARENT 21 20 31 22 28 24 15 32 13 34 9 37 11 39
REMARK Flexibility Score: inf
ROOT
ATOM      1  O   UNL     1       5.243  -0.074  -8.161  1.00  0.00    -0.454 OA
ENDROOT
BRANCH   1   2
ATOM      2  C   UNL     1       4.582   1.091  -8.600  1.00  0.00     0.214 A 
ATOM      3  C   UNL     1       3.216   1.022  -8.914  1.00  0.00     0.180 A 
ATOM      4  O   UNL     1       2.519   2.133  -9.126  1.00  0.00    -0.452 OA
ATOM      5  C   UNL     1       5.221   2.345  -8.674  1.00  0.00     0.239 A 
ATOM      6  C   UNL     1       3.066   3.343  -9.114  1.00  0.00     0.146 A 
ATOM      7  O   UNL     1       6.473   2.416  -8.534  1.00  0.00    -0.285 OA
ATOM      8  C   UNL     1       4.455   3.505  -8.911  1.00  0.00     0.111 A 
ATOM      9  C   UNL     1       2.247   4.459  -9.305  1.00  0.00     0.094 A 
ATOM     10  C   UNL     1       5.009   4.807  -8.943  1.00  0.00     0.134 A 
ATOM     11  C   UNL     1       2.792   5.747  -9.287  1.00  0.00     0.123 A 
ATOM     12  C   UNL     1       4.171   5.914  -9.123  1.00  0.00     0.093 A 
BRANCH   3  13
ATOM     13  C   UNL     1       2.527  -0.278  -9.005  1.00  0.00     0.021 A 
ATOM     14  C   UNL     1       1.485  -0.595  -8.116  1.00  0.00     0.016 A 
ATOM     15  C   UNL     1       0.822  -1.821  -8.223  1.00  0.00     0.047 A 
ATOM     16  C   UNL     1       1.174  -2.726  -9.230  1.00  0.00     0.115 A 
ATOM     17  C   UNL     1       2.877  -1.194 -10.012  1.00  0.00     0.016 A 
ATOM     18  C   UNL     1       2.211  -2.414 -10.117  1.00  0.00     0.047 A 
BRANCH  16  19
ATOM     19  O   UNL     1       0.473  -3.922  -9.358  1.00  0.00    -0.508 OA
ATOM     20  H   UNL     1      -0.372  -3.981  -9.918  1.00  0.00     0.293 HD
ENDBRANCH  16  19
ENDBRANCH   3  13
BRANCH  10  21
ATOM     21  O   UNL     1       6.380   5.014  -8.794  1.00  0.00    -0.507 OA
ATOM     22  H   UNL     1       7.059   4.328  -9.108  1.00  0.00     0.293 HD
ENDBRANCH  10  21
BRANCH  11  23
ATOM     23  O   UNL     1       1.956   6.855  -9.414  1.00  0.00    -0.508 OA
ATOM     24  H   UNL     1       1.762   7.458  -8.628  1.00  0.00     0.293 HD
ENDBRANCH  11  23
ENDBRANCH   1   2
BRANCH   1  25
ATOM     25  C   UNL     1       4.793  -0.882  -7.071  1.00  0.00     0.339 C 
ATOM     26  C   UNL     1       5.768  -0.734  -5.862  1.00  0.00     0.214 C 
ATOM     27  O   UNL     1       4.684  -2.231  -7.501  1.00  0.00    -0.332 OA
ATOM     28  C   UNL     1       6.447  -2.076  -5.471  1.00  0.00     0.180 C 
ATOM     29  C   UNL     1       4.276  -3.057  -6.434  1.00  0.00     0.179 C 
ATOM     30  C   UNL     1       5.465  -3.288  -5.467  1.00  0.00     0.177 C 
BRANCH  26  31
ATOM     31  O   UNL     1       5.098  -0.178  -4.755  1.00  0.00    -0.384 OA
ATOM     32  H   UNL     1       4.340  -0.779  -4.527  1.00  0.00     0.211 HD
ENDBRANCH  26  31
BRANCH  28  33
ATOM     33  O   UNL     1       7.543  -2.334  -6.317  1.00  0.00    -0.387 OA
ATOM     34  H   UNL     1       8.372  -2.182  -5.800  1.00  0.00     0.211 HD
ENDBRANCH  28  33
BRANCH  29  35
ATOM     35  C   UNL     1       3.747  -4.381  -7.010  1.00  0.00     0.191 C 
BRANCH  35  36
ATOM     36  O   UNL     1       4.431  -5.480  -6.469  1.00  0.00    -0.394 OA
ATOM     37  H   UNL     1       4.015  -6.291  -6.852  1.00  0.00     0.210 HD
ENDBRANCH  35  36
ENDBRANCH  29  35
BRANCH  30  38
ATOM     38  O   UNL     1       4.968  -3.514  -4.173  1.00  0.00    -0.387 OA
ATOM     39  H   UNL     1       4.047  -3.873  -4.274  1.00  0.00     0.211 HD
ENDBRANCH  30  38
ENDBRANCH   1  25
TORSDOF 11
ENDMDL
MODEL 2
REMARK VINA RESULT:    -4.845      1.384      2.321
REMARK INTER + INTRA:          -7.709
REMARK INTER:                  -6.572
REMARK INTRA:                  -1.137
REMARK UNBOUND:                -0.741
REMARK SMILES O=c1c(O[C@H]2O[C@@H](CO)[C@H](O)[C@@H](O)[C@@H]2O)c(-c2ccc(O)cc2)oc2cc(O)cc(O)c12
REMARK SMILES IDX 4 1 3 2 16 3 24 4 2 5 25 6 1 7 32 8 26 9 30 10 27 11 29 12
REMARK SMILES IDX 17 13 18 14 19 15 20 16 23 17 22 18 21 19 31 21 28 23 5 25
REMARK SMILES IDX 14 26 6 27 12 28 7 29 10 30 15 31 13 33 8 35 9 36 11 38
REMARK H PARENT 21 20 31 22 28 24 15 32 13 34 9 37 11 39
REMARK Flexibility Score: inf
ROOT
ATOM      1  O   UNL     1       4.288  -0.890  -8.939  1.00  0.00    -0.454 OA
ENDROOT
BRANCH   1   2
ATOM      2  C   UNL     1       3.941   0.460  -9.145  1.00  0.00     0.214 A 
ATOM      3  C   UNL     1       2.594   0.841  -9.040  1.00  0.00     0.180 A 
ATOM      4  O   UNL     1       2.259   2.127  -9.019  1.00  0.00    -0.452 OA
ATOM      5  C   UNL     1       4.900   1.463  -9.388  1.00  0.00     0.239 A 
ATOM      6  C   UNL     1       3.145   3.106  -9.153  1.00  0.00     0.146 A 
ATOM      7  O   UNL     1       6.096   1.138  -9.625  1.00  0.00    -0.285 OA
ATOM      8  C   UNL     1       4.512   2.819  -9.370  1.00  0.00     0.111 A 
ATOM      9  C   UNL     1       2.707   4.431  -9.076  1.00  0.00     0.094 A 
ATOM     10  C   UNL     1       5.422   3.888  -9.547  1.00  0.00     0.134 A 
ATOM     11  C   UNL     1       3.619   5.485  -9.203  1.00  0.00     0.123 A 
ATOM     12  C   UNL     1       4.967   5.210  -9.453  1.00  0.00     0.093 A 
BRANCH   3  13
ATOM     13  C   UNL     1       1.528  -0.173  -8.940  1.00  0.00     0.021 A 
ATOM     14  C   UNL     1       0.999  -0.527  -7.687  1.00  0.00     0.016 A 
ATOM     15  C   UNL     1      -0.028  -1.473  -7.604  1.00  0.00     0.047 A 
ATOM     16  C   UNL     1      -0.549  -2.052  -8.766  1.00  0.00     0.115 A 
ATOM     17  C   UNL     1       1.002  -0.760 -10.103  1.00  0.00     0.016 A 
ATOM     18  C   UNL     1      -0.022  -1.702 -10.015  1.00  0.00     0.047 A 
BRANCH  16  19
ATOM     19  O   UNL     1      -1.603  -2.955  -8.673  1.00  0.00    -0.508 OA
ATOM     20  H   UNL     1      -2.059  -3.145  -7.785  1.00  0.00     0.293 HD
ENDBRANCH  16  19
ENDBRANCH   3  13
BRANCH  10  21
ATOM     21  O   UNL     1       6.771   3.655  -9.809  1.00  0.00    -0.507 OA
ATOM     22  H   UNL     1       7.425   4.419  -9.953  1.00  0.00     0.293 HD
ENDBRANCH  10  21
BRANCH  11  23
ATOM     23  O   UNL     1       3.181   6.800  -9.059  1.00  0.00    -0.508 OA
ATOM     24  H   UNL     1       2.461   7.182  -9.656  1.00  0.00     0.293 HD
ENDBRANCH  11  23
ENDBRANCH   1   2
BRANCH   1  25
ATOM     25  C   UNL     1       5.266  -1.325  -7.991  1.00  0.00     0.339 C 
ATOM     26  C   UNL     1       5.381  -2.881  -8.022  1.00  0.00     0.214 C 
ATOM     27  O   UNL     1       4.913  -0.847  -6.701  1.00  0.00    -0.332 OA
ATOM     28  C   UNL     1       5.005  -3.538  -6.665  1.00  0.00     0.180 C 
ATOM     29  C   UNL     1       5.843  -1.292  -5.740  1.00  0.00     0.179 C 
ATOM     30  C   UNL     1       5.598  -2.791  -5.431  1.00  0.00     0.177 C 
BRANCH  26  31
ATOM     31  O   UNL     1       6.674  -3.271  -8.418  1.00  0.00    -0.384 OA
ATOM     32  H   UNL     1       7.322  -2.657  -7.981  1.00  0.00     0.211 HD
ENDBRANCH  26  31
BRANCH  28  33
ATOM     33  O   UNL     1       3.606  -3.649  -6.547  1.00  0.00    -0.387 OA
ATOM     34  H   UNL     1       3.201  -3.350  -7.399  1.00  0.00     0.211 HD
ENDBRANCH  28  33
BRANCH  29  35
ATOM     35  C   UNL     1       5.702  -0.423  -4.479  1.00  0.00     0.191 C 
BRANCH  35  36
ATOM     36  O   UNL     1       6.651  -0.777  -3.508  1.00  0.00    -0.394 OA
ATOM     37  H   UNL     1       6.590  -1.756  -3.394  1.00  0.00     0.210 HD
ENDBRANCH  35  36
ENDBRANCH  29  35
BRANCH  30  38
ATOM     38  O   UNL     1       6.809  -3.382  -5.034  1.00  0.00    -0.387 OA
ATOM     39  H   UNL     1       7.043  -4.059  -5.723  1.00  0.00     0.211 HD
ENDBRANCH  30  38
ENDBRANCH   1  25
TORSDOF 11
ENDMDL
MODEL 3
REMARK VINA RESULT:    -4.608      2.072      3.227
REMARK INTER + INTRA:          -7.369
REMARK INTER:                  -5.765
REMARK INTRA:                  -1.604
REMARK UNBOUND:                -0.741
REMARK SMILES O=c1c(O[C@H]2O[C@@H](CO)[C@H](O)[C@@H](O)[C@@H]2O)c(-c2ccc(O)cc2)oc2cc(O)cc(O)c12
REMARK SMILES IDX 4 1 3 2 16 3 24 4 2 5 25 6 1 7 32 8 26 9 30 10 27 11 29 12
REMARK SMILES IDX 17 13 18 14 19 15 20 16 23 17 22 18 21 19 31 21 28 23 5 25
REMARK SMILES IDX 14 26 6 27 12 28 7 29 10 30 15 31 13 33 8 35 9 36 11 38
REMARK H PARENT 21 20 31 22 28 24 15 32 13 34 9 37 11 39
REMARK Flexibility Score: inf
ROOT
ATOM      1  O   UNL     1       4.497  -1.784  -5.931  1.00  0.00    -0.454 OA
ENDROOT
BRANCH   1   2
ATOM      2  C   UNL     1       4.948  -0.716  -6.732  1.00  0.00     0.214 A 
ATOM      3  C   UNL     1       4.295  -0.450  -7.946  1.00  0.00     0.180 A 
ATOM      4  O   UNL     1       4.554   0.666  -8.618  1.00  0.00    -0.452 OA
ATOM      5  C   UNL     1       5.993   0.143  -6.336  1.00  0.00     0.239 A 
ATOM      6  C   UNL     1       5.466   1.548  -8.230  1.00  0.00     0.146 A 
ATOM      7  O   UNL     1       6.689  -0.147  -5.325  1.00  0.00    -0.285 OA
ATOM      8  C   UNL     1       6.250   1.315  -7.077  1.00  0.00     0.111 A 
ATOM      9  C   UNL     1       5.642   2.715  -8.977  1.00  0.00     0.094 A 
ATOM     10  C   UNL     1       7.240   2.260  -6.714  1.00  0.00     0.134 A 
ATOM     11  C   UNL     1       6.588   3.669  -8.587  1.00  0.00     0.123 A 
ATOM     12  C   UNL     1       7.393   3.430  -7.468  1.00  0.00     0.093 A 
BRANCH   3  13
ATOM     13  C   UNL     1       3.302  -1.395  -8.491  1.00  0.00     0.021 A 
ATOM     14  C   UNL     1       3.713  -2.484  -9.277  1.00  0.00     0.016 A 
ATOM     15  C   UNL     1       2.767  -3.388  -9.771  1.00  0.00     0.047 A 
ATOM     16  C   UNL     1       1.411  -3.226  -9.465  1.00  0.00     0.115 A 
ATOM     17  C   UNL     1       1.938  -1.236  -8.190  1.00  0.00     0.016 A 
ATOM     18  C   UNL     1       0.999  -2.140  -8.683  1.00  0.00     0.047 A 
BRANCH  16  19
ATOM     19  O   UNL     1       0.486  -4.159  -9.921  1.00  0.00    -0.508 OA
ATOM     20  H   UNL     1       0.768  -4.944 -10.500  1.00  0.00     0.293 HD
ENDBRANCH  16  19
ENDBRANCH   3  13
BRANCH  10  21
ATOM     21  O   UNL     1       8.069   2.053  -5.612  1.00  0.00    -0.507 OA
ATOM     22  H   UNL     1       9.034   2.369  -5.606  1.00  0.00     0.293 HD
ENDBRANCH  10  21
BRANCH  11  23
ATOM     23  O   UNL     1       6.709   4.858  -9.303  1.00  0.00    -0.508 OA
ATOM     24  H   UNL     1       6.493   4.902 -10.288  1.00  0.00     0.293 HD
ENDBRANCH  11  23
ENDBRANCH   1   2
BRANCH   1  25
ATOM     25  C   UNL     1       5.076  -3.090  -5.946  1.00  0.00     0.339 C 
ATOM     26  C   UNL     1       5.499  -3.500  -4.501  1.00  0.00     0.214 C 
ATOM     27  O   UNL     1       6.177  -3.104  -6.844  1.00  0.00    -0.332 OA
ATOM     28  C   UNL     1       7.028  -3.745  -4.370  1.00  0.00     0.180 C 
ATOM     29  C   UNL     1       6.791  -4.373  -6.850  1.00  0.00     0.179 C 
ATOM     30  C   UNL     1       7.629  -4.555  -5.559  1.00  0.00     0.177 C 
BRANCH  26  31
ATOM     31  O   UNL     1       4.780  -4.635  -4.082  1.00  0.00    -0.384 OA
ATOM     32  H   UNL     1       5.438  -5.346  -3.861  1.00  0.00     0.211 HD
ENDBRANCH  26  31
BRANCH  28  33
ATOM     33  O   UNL     1       7.708  -2.521  -4.216  1.00  0.00    -0.387 OA
ATOM     34  H   UNL     1       7.870  -2.145  -5.117  1.00  0.00     0.211 HD
ENDBRANCH  28  33
BRANCH  29  35
ATOM     35  C   UNL     1       7.660  -4.493  -8.113  1.00  0.00     0.191 C 
BRANCH  35  36
ATOM     36  O   UNL     1       8.125  -5.805  -8.289  1.00  0.00    -0.394 OA
ATOM     37  H   UNL     1       8.743  -5.991  -7.541  1.00  0.00     0.210 HD
ENDBRANCH  35  36
ENDBRANCH  29  35
BRANCH  30  38
ATOM     38  O   UNL     1       7.692  -5.922  -5.242  1.00  0.00    -0.387 OA
ATOM     39  H   UNL     1       6.774  -6.203  -4.984  1.00  0.00     0.211 HD
ENDBRANCH  30  38
ENDBRANCH   1  25
TORSDOF 11
ENDMDL
MODEL 4
REMARK VINA RESULT:    -4.579      2.430      6.347
REMARK INTER + INTRA:          -7.328
REMARK INTER:                  -6.722
REMARK INTRA:                  -0.606
REMARK UNBOUND:                -0.741
REMARK SMILES O=c1c(O[C@H]2O[C@@H](CO)[C@H](O)[C@@H](O)[C@@H]2O)c(-c2ccc(O)cc2)oc2cc(O)cc(O)c12
REMARK SMILES IDX 4 1 3 2 16 3 24 4 2 5 25 6 1 7 32 8 26 9 30 10 27 11 29 12
REMARK SMILES IDX 17 13 18 14 19 15 20 16 23 17 22 18 21 19 31 21 28 23 5 25
REMARK SMILES IDX 14 26 6 27 12 28 7 29 10 30 15 31 13 33 8 35 9 36 11 38
REMARK H PARENT 21 20 31 22 28 24 15 32 13 34 9 37 11 39
REMARK Flexibility Score: inf
ROOT
ATOM      1  O   UNL     1       4.906  -3.316  -8.606  1.00  0.00    -0.454 OA
ENDROOT
BRANCH   1   2
ATOM      2  C   UNL     1       3.513  -3.100  -8.621  1.00  0.00     0.214 A 
ATOM      3  C   UNL     1       3.022  -1.849  -9.025  1.00  0.00     0.180 A 
ATOM      4  O   UNL     1       1.723  -1.679  -9.251  1.00  0.00    -0.452 OA
ATOM      5  C   UNL     1       2.583  -4.112  -8.308  1.00  0.00     0.239 A 
ATOM      6  C   UNL     1       0.824  -2.635  -9.057  1.00  0.00     0.146 A 
ATOM      7  O   UNL     1       2.988  -5.198  -7.810  1.00  0.00    -0.285 OA
ATOM      8  C   UNL     1       1.211  -3.897  -8.550  1.00  0.00     0.111 A 
ATOM      9  C   UNL     1      -0.515  -2.379  -9.362  1.00  0.00     0.094 A 
ATOM     10  C   UNL     1       0.219  -4.880  -8.319  1.00  0.00     0.134 A 
ATOM     11  C   UNL     1      -1.485  -3.371  -9.178  1.00  0.00     0.123 A 
ATOM     12  C   UNL     1      -1.117  -4.609  -8.643  1.00  0.00     0.093 A 
BRANCH   3  13
ATOM     13  C   UNL     1       3.933  -0.706  -9.217  1.00  0.00     0.021 A 
ATOM     14  C   UNL     1       3.653   0.536  -8.624  1.00  0.00     0.016 A 
ATOM     15  C   UNL     1       4.534   1.607  -8.792  1.00  0.00     0.047 A 
ATOM     16  C   UNL     1       5.711   1.442  -9.532  1.00  0.00     0.115 A 
ATOM     17  C   UNL     1       5.116  -0.865  -9.961  1.00  0.00     0.016 A 
ATOM     18  C   UNL     1       5.993   0.206 -10.125  1.00  0.00     0.047 A 
BRANCH  16  19
ATOM     19  O   UNL     1       6.605   2.502  -9.651  1.00  0.00    -0.508 OA
ATOM     20  H   UNL     1       6.473   3.227 -10.349  1.00  0.00     0.293 HD
ENDBRANCH  16  19
ENDBRANCH   3  13
BRANCH  10  21
ATOM     21  O   UNL     1       0.544  -6.123  -7.777  1.00  0.00    -0.507 OA
ATOM     22  H   UNL     1       0.608  -6.955  -8.355  1.00  0.00     0.293 HD
ENDBRANCH  10  21
BRANCH  11  23
ATOM     23  O   UNL     1      -2.805  -3.125  -9.547  1.00  0.00    -0.508 OA
ATOM     24  H   UNL     1      -3.064  -2.990 -10.514  1.00  0.00     0.293 HD
ENDBRANCH  11  23
ENDBRANCH   1   2
BRANCH   1  25
ATOM     25  C   UNL     1       5.743  -3.034  -7.483  1.00  0.00     0.339 C 
ATOM     26  C   UNL     1       5.978  -4.336  -6.655  1.00  0.00     0.214 C 
ATOM     27  O   UNL     1       5.146  -2.010  -6.699  1.00  0.00    -0.332 OA
ATOM     28  C   UNL     1       5.434  -4.232  -5.204  1.00  0.00     0.180 C 
ATOM     29  C   UNL     1       5.935  -1.737  -5.563  1.00  0.00     0.179 C 
ATOM     30  C   UNL     1       5.756  -2.868  -4.518  1.00  0.00     0.177 C 
BRANCH  26  31
ATOM     31  O   UNL     1       7.345  -4.672  -6.646  1.00  0.00    -0.384 OA
ATOM     32  H   UNL     1       7.567  -5.061  -7.533  1.00  0.00     0.211 HD
ENDBRANCH  26  31
BRANCH  28  33
ATOM     33  O   UNL     1       4.046  -4.476  -5.184  1.00  0.00    -0.387 OA
ATOM     34  H   UNL     1       3.896  -5.359  -4.764  1.00  0.00     0.211 HD
ENDBRANCH  28  33
BRANCH  29  35
ATOM     35  C   UNL     1       5.521  -0.369  -4.994  1.00  0.00     0.191 C 
BRANCH  35  36
ATOM     36  O   UNL     1       4.931  -0.501  -3.729  1.00  0.00    -0.394 OA
ATOM     37  H   UNL     1       4.833   0.412  -3.364  1.00  0.00     0.210 HD
ENDBRANCH  35  36
ENDBRANCH  29  35
BRANCH  30  38
ATOM     38  O   UNL     1       6.925  -2.969  -3.747  1.00  0.00    -0.387 OA
ATOM     39  H   UNL     1       7.644  -3.297  -4.349  1.00  0.00     0.211 HD
ENDBRANCH  30  38
ENDBRANCH   1  25
TORSDOF 11
ENDMDL
MODEL 5
REMARK VINA RESULT:    -4.505      1.640      2.921
REMARK INTER + INTRA:          -7.221
REMARK INTER:                  -6.502
REMARK INTRA:                  -0.719
REMARK UNBOUND:                -0.741
REMARK SMILES O=c1c(O[C@H]2O[C@@H](CO)[C@H](O)[C@@H](O)[C@@H]2O)c(-c2ccc(O)cc2)oc2cc(O)cc(O)c12
REMARK SMILES IDX 4 1 3 2 16 3 24 4 2 5 25 6 1 7 32 8 26 9 30 10 27 11 29 12
REMARK SMILES IDX 17 13 18 14 19 15 20 16 23 17 22 18 21 19 31 21 28 23 5 25
REMARK SMILES IDX 14 26 6 27 12 28 7 29 10 30 15 31 13 33 8 35 9 36 11 38
REMARK H PARENT 21 20 31 22 28 24 15 32 13 34 9 37 11 39
REMARK Flexibility Score: inf
ROOT
ATOM      1  O   UNL     1       3.534  -2.113  -6.856  1.00  0.00    -0.454 OA
ENDROOT
BRANCH   1   2
ATOM      2  C   UNL     1       3.581  -0.952  -7.655  1.00  0.00     0.214 A 
ATOM      3  C   UNL     1       2.462  -0.616  -8.433  1.00  0.00     0.180 A 
ATOM      4  O   UNL     1       2.392   0.570  -9.029  1.00  0.00    -0.452 OA
ATOM      5  C   UNL     1       4.684  -0.075  -7.658  1.00  0.00     0.239 A 
ATOM      6  C   UNL     1       3.372   1.463  -8.980  1.00  0.00     0.146 A 
ATOM      7  O   UNL     1       5.753  -0.416  -7.082  1.00  0.00    -0.285 OA
ATOM      8  C   UNL     1       4.581   1.172  -8.308  1.00  0.00     0.111 A 
ATOM      9  C   UNL     1       3.192   2.702  -9.602  1.00  0.00     0.094 A 
ATOM     10  C   UNL     1       5.619   2.134  -8.309  1.00  0.00     0.134 A 
ATOM     11  C   UNL     1       4.203   3.668  -9.557  1.00  0.00     0.123 A 
ATOM     12  C   UNL     1       5.416   3.374  -8.926  1.00  0.00     0.093 A 
BRANCH   3  13
ATOM     13  C   UNL     1       1.342  -1.561  -8.595  1.00  0.00     0.021 A 
ATOM     14  C   UNL     1       0.071  -1.253  -8.081  1.00  0.00     0.016 A 
ATOM     15  C   UNL     1      -0.990  -2.145  -8.260  1.00  0.00     0.047 A 
ATOM     16  C   UNL     1      -0.799  -3.335  -8.970  1.00  0.00     0.115 A 
ATOM     17  C   UNL     1       1.529  -2.759  -9.306  1.00  0.00     0.016 A 
ATOM     18  C   UNL     1       0.467  -3.645  -9.483  1.00  0.00     0.047 A 
BRANCH  16  19
ATOM     19  O   UNL     1      -1.875  -4.191  -9.183  1.00  0.00    -0.508 OA
ATOM     20  H   UNL     1      -2.486  -4.081  -9.987  1.00  0.00     0.293 HD
ENDBRANCH  16  19
ENDBRANCH   3  13
BRANCH  10  21
ATOM     21  O   UNL     1       6.846   1.875  -7.700  1.00  0.00    -0.507 OA
ATOM     22  H   UNL     1       7.603   1.420  -8.201  1.00  0.00     0.293 HD
ENDBRANCH  10  21
BRANCH  11  23
ATOM     23  O   UNL     1       3.988   4.922 -10.125  1.00  0.00    -0.508 OA
ATOM     24  H   UNL     1       4.450   5.746  -9.768  1.00  0.00     0.293 HD
ENDBRANCH  11  23
ENDBRANCH   1   2
BRANCH   1  25
ATOM     25  C   UNL     1       4.676  -2.914  -6.549  1.00  0.00     0.339 C 
ATOM     26  C   UNL     1       5.086  -3.756  -7.798  1.00  0.00     0.214 C 
ATOM     27  O   UNL     1       4.384  -3.738  -5.429  1.00  0.00    -0.332 OA
ATOM     28  C   UNL     1       4.998  -5.286  -7.545  1.00  0.00     0.180 C 
ATOM     29  C   UNL     1       5.484  -4.566  -5.127  1.00  0.00     0.179 C 
ATOM     30  C   UNL     1       5.569  -5.719  -6.160  1.00  0.00     0.177 C 
BRANCH  26  31
ATOM     31  O   UNL     1       6.378  -3.400  -8.228  1.00  0.00    -0.384 OA
ATOM     32  H   UNL     1       6.333  -3.220  -9.204  1.00  0.00     0.211 HD
ENDBRANCH  26  31
BRANCH  28  33
ATOM     33  O   UNL     1       3.669  -5.730  -7.689  1.00  0.00    -0.387 OA
ATOM     34  H   UNL     1       3.292  -5.312  -8.502  1.00  0.00     0.211 HD
ENDBRANCH  28  33
BRANCH  29  35
ATOM     35  C   UNL     1       5.319  -5.100  -3.694  1.00  0.00     0.191 C 
BRANCH  35  36
ATOM     36  O   UNL     1       6.560  -5.411  -3.120  1.00  0.00    -0.394 OA
ATOM     37  H   UNL     1       7.179  -4.681  -3.366  1.00  0.00     0.210 HD
ENDBRANCH  35  36
ENDBRANCH  29  35
BRANCH  30  38
ATOM     38  O   UNL     1       6.908  -6.125  -6.285  1.00  0.00    -0.387 OA
ATOM     39  H   UNL     1       7.378  -5.838  -5.458  1.00  0.00     0.211 HD
ENDBRANCH  30  38
ENDBRANCH   1  25
TORSDOF 11
ENDMDL
MODEL 6
REMARK VINA RESULT:    -4.446      2.894      6.952
REMARK INTER + INTRA:          -7.136
REMARK INTER:                  -5.642
REMARK INTRA:                  -1.494
REMARK UNBOUND:                -0.741
REMARK SMILES O=c1c(O[C@H]2O[C@@H](CO)[C@H](O)[C@@H](O)[C@@H]2O)c(-c2ccc(O)cc2)oc2cc(O)cc(O)c12
REMARK SMILES IDX 4 1 3 2 16 3 24 4 2 5 25 6 1 7 32 8 26 9 30 10 27 11 29 12
REMARK SMILES IDX 17 13 18 14 19 15 20 16 23 17 22 18 21 19 31 21 28 23 5 25
REMARK SMILES IDX 14 26 6 27 12 28 7 29 10 30 15 31 13 33 8 35 9 36 11 38
REMARK H PARENT 21 20 31 22 28 24 15 32 13 34 9 37 11 39
REMARK Flexibility Score: inf
ROOT
ATOM      1  O   UNL     1       4.456  -1.709  -6.381  1.00  0.00    -0.454 OA
ENDROOT
BRANCH   1   2
ATOM      2  C   UNL     1       3.685  -2.625  -7.125  1.00  0.00     0.214 A 
ATOM      3  C   UNL     1       3.827  -3.998  -6.873  1.00  0.00     0.180 A 
ATOM      4  O   UNL     1       2.974  -4.870  -7.400  1.00  0.00    -0.452 OA
ATOM      5  C   UNL     1       2.725  -2.217  -8.072  1.00  0.00     0.239 A 
ATOM      6  C   UNL     1       1.997  -4.515  -8.225  1.00  0.00     0.146 A 
ATOM      7  O   UNL     1       2.670  -1.006  -8.423  1.00  0.00    -0.285 OA
ATOM      8  C   UNL     1       1.840  -3.168  -8.622  1.00  0.00     0.111 A 
ATOM      9  C   UNL     1       1.120  -5.495  -8.699  1.00  0.00     0.094 A 
ATOM     10  C   UNL     1       0.811  -2.832  -9.534  1.00  0.00     0.134 A 
ATOM     11  C   UNL     1       0.074  -5.151  -9.561  1.00  0.00     0.123 A 
ATOM     12  C   UNL     1      -0.066  -3.826  -9.987  1.00  0.00     0.093 A 
BRANCH   3  13
ATOM     13  C   UNL     1       4.914  -4.499  -6.011  1.00  0.00     0.021 A 
ATOM     14  C   UNL     1       6.154  -4.859  -6.567  1.00  0.00     0.016 A 
ATOM     15  C   UNL     1       7.186  -5.311  -5.740  1.00  0.00     0.047 A 
ATOM     16  C   UNL     1       6.999  -5.385  -4.355  1.00  0.00     0.115 A 
ATOM     17  C   UNL     1       4.731  -4.578  -4.620  1.00  0.00     0.016 A 
ATOM     18  C   UNL     1       5.764  -5.028  -3.799  1.00  0.00     0.047 A 
BRANCH  16  19
ATOM     19  O   UNL     1       8.050  -5.790  -3.538  1.00  0.00    -0.508 OA
ATOM     20  H   UNL     1       8.942  -6.076  -3.928  1.00  0.00     0.293 HD
ENDBRANCH  16  19
ENDBRANCH   3  13
BRANCH  10  21
ATOM     21  O   UNL     1       0.645  -1.525  -9.990  1.00  0.00    -0.507 OA
ATOM     22  H   UNL     1      -0.257  -1.060  -9.956  1.00  0.00     0.293 HD
ENDBRANCH  10  21
BRANCH  11  23
ATOM     23  O   UNL     1      -0.833  -6.125  -9.974  1.00  0.00    -0.508 OA
ATOM     24  H   UNL     1      -0.603  -7.107  -9.931  1.00  0.00     0.293 HD
ENDBRANCH  11  23
ENDBRANCH   1   2
BRANCH   1  25
ATOM     25  C   UNL     1       5.691  -1.154  -6.837  1.00  0.00     0.339 C 
ATOM     26  C   UNL     1       5.582   0.401  -6.906  1.00  0.00     0.214 C 
ATOM     27  O   UNL     1       6.021  -1.717  -8.099  1.00  0.00    -0.332 OA
ATOM     28  C   UNL     1       5.777   0.954  -8.345  1.00  0.00     0.180 C 
ATOM     29  C   UNL     1       7.219  -1.159  -8.589  1.00  0.00     0.179 C 
ATOM     30  C   UNL     1       6.951   0.275  -9.115  1.00  0.00     0.177 C 
BRANCH  26  31
ATOM     31  O   UNL     1       6.498   0.999  -6.019  1.00  0.00    -0.384 OA
ATOM     32  H   UNL     1       6.247   1.955  -5.923  1.00  0.00     0.211 HD
ENDBRANCH  26  31
BRANCH  28  33
ATOM     33  O   UNL     1       4.579   0.842  -9.078  1.00  0.00    -0.387 OA
ATOM     34  H   UNL     1       4.719   0.176  -9.795  1.00  0.00     0.211 HD
ENDBRANCH  28  33
BRANCH  29  35
ATOM     35  C   UNL     1       7.772  -2.074  -9.695  1.00  0.00     0.191 C 
BRANCH  35  36
ATOM     36  O   UNL     1       7.068  -3.285  -9.753  1.00  0.00    -0.394 OA
ATOM     37  H   UNL     1       6.913  -3.479 -10.710  1.00  0.00     0.210 HD
ENDBRANCH  35  36
ENDBRANCH  29  35
BRANCH  30  38
ATOM     38  O   UNL     1       8.125   1.036  -8.992  1.00  0.00    -0.387 OA
ATOM     39  H   UNL     1       8.878   0.395  -8.886  1.00  0.00     0.211 HD
ENDBRANCH  30  38
ENDBRANCH   1  25
TORSDOF 11
ENDMDL
MODEL 7
REMARK VINA RESULT:    -4.073      2.900      6.752
REMARK INTER + INTRA:          -6.600
REMARK INTER:                  -5.373
REMARK INTRA:                  -1.227
REMARK UNBOUND:                -0.741
REMARK SMILES O=c1c(O[C@H]2O[C@@H](CO)[C@H](O)[C@@H](O)[C@@H]2O)c(-c2ccc(O)cc2)oc2cc(O)cc(O)c12
REMARK SMILES IDX 4 1 3 2 16 3 24 4 2 5 25 6 1 7 32 8 26 9 30 10 27 11 29 12
REMARK SMILES IDX 17 13 18 14 19 15 20 16 23 17 22 18 21 19 31 21 28 23 5 25
REMARK SMILES IDX 14 26 6 27 12 28 7 29 10 30 15 31 13 33 8 35 9 36 11 38
REMARK H PARENT 21 20 31 22 28 24 15 32 13 34 9 37 11 39
REMARK Flexibility Score: inf
ROOT
ATOM      1  O   UNL     1       3.855  -1.835  -9.279  1.00  0.00    -0.454 OA
ENDROOT
BRANCH   1   2
ATOM      2  C   UNL     1       2.734  -2.690  -9.295  1.00  0.00     0.214 A 
ATOM      3  C   UNL     1       2.898  -4.035  -8.930  1.00  0.00     0.180 A 
ATOM      4  O   UNL     1       1.838  -4.811  -8.732  1.00  0.00    -0.452 OA
ATOM      5  C   UNL     1       1.436  -2.236  -9.602  1.00  0.00     0.239 A 
ATOM      6  C   UNL     1       0.592  -4.395  -8.921  1.00  0.00     0.146 A 
ATOM      7  O   UNL     1       1.275  -1.074 -10.067  1.00  0.00    -0.285 OA
ATOM      8  C   UNL     1       0.332  -3.087  -9.391  1.00  0.00     0.111 A 
ATOM      9  C   UNL     1      -0.464  -5.268  -8.647  1.00  0.00     0.094 A 
ATOM     10  C   UNL     1      -1.008  -2.690  -9.618  1.00  0.00     0.134 A 
ATOM     11  C   UNL     1      -1.788  -4.854  -8.826  1.00  0.00     0.123 A 
ATOM     12  C   UNL     1      -2.054  -3.575  -9.325  1.00  0.00     0.093 A 
BRANCH   3  13
ATOM     13  C   UNL     1       4.244  -4.610  -8.747  1.00  0.00     0.021 A 
ATOM     14  C   UNL     1       5.100  -4.782  -9.848  1.00  0.00     0.016 A 
ATOM     15  C   UNL     1       6.383  -5.305  -9.661  1.00  0.00     0.047 A 
ATOM     16  C   UNL     1       6.829  -5.638  -8.377  1.00  0.00     0.115 A 
ATOM     17  C   UNL     1       4.697  -4.948  -7.460  1.00  0.00     0.016 A 
ATOM     18  C   UNL     1       5.977  -5.468  -7.279  1.00  0.00     0.047 A 
BRANCH  16  19
ATOM     19  O   UNL     1       8.125  -6.112  -8.199  1.00  0.00    -0.508 OA
ATOM     20  H   UNL     1       8.901  -5.744  -8.741  1.00  0.00     0.293 HD
ENDBRANCH  16  19
ENDBRANCH   3  13
BRANCH  10  21
ATOM     21  O   UNL     1      -1.313  -1.427 -10.124  1.00  0.00    -0.507 OA
ATOM     22  H   UNL     1      -1.514  -1.284 -11.109  1.00  0.00     0.293 HD
ENDBRANCH  10  21
BRANCH  11  23
ATOM     23  O   UNL     1      -2.834  -5.711  -8.488  1.00  0.00    -0.508 OA
ATOM     24  H   UNL     1      -2.757  -6.710  -8.619  1.00  0.00     0.293 HD
ENDBRANCH  11  23
ENDBRANCH   1   2
BRANCH   1  25
ATOM     25  C   UNL     1       4.159  -0.944  -8.204  1.00  0.00     0.339 C 
ATOM     26  C   UNL     1       4.892   0.320  -8.754  1.00  0.00     0.214 C 
ATOM     27  O   UNL     1       4.941  -1.627  -7.235  1.00  0.00    -0.332 OA
ATOM     28  C   UNL     1       6.324   0.484  -8.175  1.00  0.00     0.180 C 
ATOM     29  C   UNL     1       5.287  -0.759  -6.180  1.00  0.00     0.179 C 
ATOM     30  C   UNL     1       6.408   0.206  -6.643  1.00  0.00     0.177 C 
BRANCH  26  31
ATOM     31  O   UNL     1       4.126   1.477  -8.511  1.00  0.00    -0.384 OA
ATOM     32  H   UNL     1       4.636   2.050  -7.880  1.00  0.00     0.211 HD
ENDBRANCH  26  31
BRANCH  28  33
ATOM     33  O   UNL     1       7.230  -0.339  -8.874  1.00  0.00    -0.387 OA
ATOM     34  H   UNL     1       7.483  -1.089  -8.281  1.00  0.00     0.211 HD
ENDBRANCH  28  33
BRANCH  29  35
ATOM     35  C   UNL     1       5.728  -1.603  -4.972  1.00  0.00     0.191 C 
BRANCH  35  36
ATOM     36  O   UNL     1       6.154  -0.791  -3.911  1.00  0.00    -0.394 OA
ATOM     37  H   UNL     1       6.106  -1.342  -3.093  1.00  0.00     0.210 HD
ENDBRANCH  35  36
ENDBRANCH  29  35
BRANCH  30  38
ATOM     38  O   UNL     1       6.309   1.406  -5.919  1.00  0.00    -0.387 OA
ATOM     39  H   UNL     1       7.213   1.817  -5.911  1.00  0.00     0.211 HD
ENDBRANCH  30  38
ENDBRANCH   1  25
TORSDOF 11
ENDMDL
MODEL 8
REMARK VINA RESULT:    -4.030      1.822      4.525
REMARK INTER + INTRA:          -6.538
REMARK INTER:                  -5.853
REMARK INTRA:                  -0.685
REMARK UNBOUND:                -0.741
REMARK SMILES O=c1c(O[C@H]2O[C@@H](CO)[C@H](O)[C@@H](O)[C@@H]2O)c(-c2ccc(O)cc2)oc2cc(O)cc(O)c12
REMARK SMILES IDX 4 1 3 2 16 3 24 4 2 5 25 6 1 7 32 8 26 9 30 10 27 11 29 12
REMARK SMILES IDX 17 13 18 14 19 15 20 16 23 17 22 18 21 19 31 21 28 23 5 25
REMARK SMILES IDX 14 26 6 27 12 28 7 29 10 30 15 31 13 33 8 35 9 36 11 38
REMARK H PARENT 21 20 31 22 28 24 15 32 13 34 9 37 11 39
REMARK Flexibility Score: inf
ROOT
ATOM      1  O   UNL     1       4.832  -0.247  -9.631  1.00  0.00    -0.454 OA
ENDROOT
BRANCH   1   2
ATOM      2  C   UNL     1       5.182   0.816  -8.775  1.00  0.00     0.214 A 
ATOM      3  C   UNL     1       5.828   0.530  -7.562  1.00  0.00     0.180 A 
ATOM      4  O   UNL     1       6.357   1.509  -6.836  1.00  0.00    -0.452 OA
ATOM      5  C   UNL     1       4.969   2.167  -9.115  1.00  0.00     0.239 A 
ATOM      6  C   UNL     1       6.258   2.790  -7.169  1.00  0.00     0.146 A 
ATOM      7  O   UNL     1       4.270   2.454 -10.125  1.00  0.00    -0.285 OA
ATOM      8  C   UNL     1       5.534   3.183  -8.317  1.00  0.00     0.111 A 
ATOM      9  C   UNL     1       6.882   3.749  -6.366  1.00  0.00     0.094 A 
ATOM     10  C   UNL     1       5.418   4.561  -8.620  1.00  0.00     0.134 A 
ATOM     11  C   UNL     1       6.805   5.106  -6.697  1.00  0.00     0.123 A 
ATOM     12  C   UNL     1       6.061   5.507  -7.811  1.00  0.00     0.093 A 
BRANCH   3  13
ATOM     13  C   UNL     1       5.944  -0.858  -7.078  1.00  0.00     0.021 A 
ATOM     14  C   UNL     1       6.548  -1.843  -7.877  1.00  0.00     0.016 A 
ATOM     15  C   UNL     1       6.674  -3.151  -7.400  1.00  0.00     0.047 A 
ATOM     16  C   UNL     1       6.222  -3.480  -6.117  1.00  0.00     0.115 A 
ATOM     17  C   UNL     1       5.489  -1.195  -5.791  1.00  0.00     0.016 A 
ATOM     18  C   UNL     1       5.619  -2.501  -5.319  1.00  0.00     0.047 A 
BRANCH  16  19
ATOM     19  O   UNL     1       6.399  -4.773  -5.635  1.00  0.00    -0.508 OA
ATOM     20  H   UNL     1       7.252  -5.047  -5.157  1.00  0.00     0.293 HD
ENDBRANCH  16  19
ENDBRANCH   3  13
BRANCH  10  21
ATOM     21  O   UNL     1       4.676   5.002  -9.716  1.00  0.00    -0.507 OA
ATOM     22  H   UNL     1       3.753   5.410  -9.603  1.00  0.00     0.293 HD
ENDBRANCH  10  21
BRANCH  11  23
ATOM     23  O   UNL     1       7.485   6.046  -5.926  1.00  0.00    -0.508 OA
ATOM     24  H   UNL     1       8.495   6.084  -5.914  1.00  0.00     0.293 HD
ENDBRANCH  11  23
ENDBRANCH   1   2
BRANCH   1  25
ATOM     25  C   UNL     1       3.486  -0.656  -9.883  1.00  0.00     0.339 C 
ATOM     26  C   UNL     1       2.500   0.214  -9.042  1.00  0.00     0.214 C 
ATOM     27  O   UNL     1       3.353  -2.039  -9.587  1.00  0.00    -0.332 OA
ATOM     28  C   UNL     1       1.671  -0.624  -8.030  1.00  0.00     0.180 C 
ATOM     29  C   UNL     1       2.024  -2.461  -9.792  1.00  0.00     0.179 C 
ATOM     30  C   UNL     1       1.130  -1.959  -8.629  1.00  0.00     0.177 C 
BRANCH  26  31
ATOM     31  O   UNL     1       1.648   0.949  -9.889  1.00  0.00    -0.384 OA
ATOM     32  H   UNL     1       1.901   0.741 -10.827  1.00  0.00     0.211 HD
ENDBRANCH  26  31
BRANCH  28  33
ATOM     33  O   UNL     1       2.429  -0.878  -6.870  1.00  0.00    -0.387 OA
ATOM     34  H   UNL     1       2.428  -1.854  -6.710  1.00  0.00     0.211 HD
ENDBRANCH  28  33
BRANCH  29  35
ATOM     35  C   UNL     1       2.005  -3.996  -9.900  1.00  0.00     0.191 C 
BRANCH  35  36
ATOM     36  O   UNL     1       1.052  -4.555  -9.036  1.00  0.00    -0.394 OA
ATOM     37  H   UNL     1       0.995  -3.959  -8.250  1.00  0.00     0.210 HD
ENDBRANCH  35  36
ENDBRANCH  29  35
BRANCH  30  38
ATOM     38  O   UNL     1      -0.183  -1.791  -9.098  1.00  0.00    -0.387 OA
ATOM     39  H   UNL     1      -0.339  -2.492  -9.785  1.00  0.00     0.211 HD
ENDBRANCH  30  38
ENDBRANCH   1  25
TORSDOF 11
ENDMDL
