MODEL 1
REMARK VINA RESULT:    -1.096      0.000      0.000
REMARK INTER + INTRA:          -9.741
REMARK INTER:                  -2.890
REMARK INTRA:                  -6.852
REMARK UNBOUND:                -6.852
REMARK SMILES CCCCCCCCCCCCCCCCCCCCCCCCCCCCCC(=O)[O-]
REMARK SMILES IDX 16 1 17 2 18 3 19 4 20 5 21 6 22 7 23 8 24 9 25 10 26 11
REMARK SMILES IDX 27 12 28 13 29 14 30 15 31 16 32 17 15 18 14 19 13 20 12 21
REMARK SMILES IDX 11 22 10 23 9 24 8 25 7 26 6 27 5 28 4 29 3 30 2 31 1 32
REMARK H PARENT
REMARK Flexibility Score: inf
ROOT
ATOM      1  C   UNL     1     143.690  43.265  -9.306  1.00  0.00     0.000 C 
ENDROOT
BRANCH   1   2
ATOM      2  C   UNL     1     144.607  44.471  -9.044  1.00  0.00     0.000 C 
BRANCH   2   3
ATOM      3  C   UNL     1     146.085  44.170  -9.352  1.00  0.00     0.000 C 
BRANCH   3   4
ATOM      4  C   UNL     1     146.803  43.306  -8.297  1.00  0.00     0.000 C 
BRANCH   4   5
ATOM      5  C   UNL     1     147.882  42.356  -8.855  1.00  0.00     0.000 C 
BRANCH   5   6
ATOM      6  C   UNL     1     148.024  42.368 -10.389  1.00  0.00     0.000 C 
BRANCH   6   7
ATOM      7  C   UNL     1     147.794  40.986 -11.017  1.00  0.00     0.000 C 
BRANCH   7   8
ATOM      8  C   UNL     1     147.790  39.883  -9.947  1.00  0.00     0.000 C 
BRANCH   8   9
ATOM      9  C   UNL     1     147.033  38.627 -10.405  1.00  0.00     0.000 C 
BRANCH   9  10
ATOM     10  C   UNL     1     146.732  37.663  -9.243  1.00  0.00     0.000 C 
BRANCH  10  11
ATOM     11  C   UNL     1     147.100  38.250  -7.867  1.00  0.00     0.000 C 
BRANCH  11  12
ATOM     12  C   UNL     1     146.122  37.905  -6.728  1.00  0.00     0.000 C 
BRANCH  12  13
ATOM     13  C   UNL     1     146.188  38.905  -5.561  1.00  0.00     0.006 C 
BRANCH  13  14
ATOM     14  C   UNL     1     146.662  40.293  -6.012  1.00  0.00     0.053 C 
BRANCH  14  15
ATOM     15  C   UNL     1     147.357  41.034  -4.909  1.00  0.00     0.041 C 
ATOM     16  O   UNL     1     147.526  40.488  -3.787  1.00  0.00    -0.550 OA
ATOM     17  O   UNL     1     147.836  42.319  -5.128  1.00  0.00    -0.550 OA
ENDBRANCH  14  15
ENDBRANCH  13  14
ENDBRANCH  12  13
ENDBRANCH  11  12
ENDBRANCH  10  11
ENDBRANCH   9  10
ENDBRANCH   8   9
ENDBRANCH   7   8
ENDBRANCH   6   7
ENDBRANCH   5   6
ENDBRANCH   4   5
ENDBRANCH   3   4
ENDBRANCH   2   3
ENDBRANCH   1   2
BRANCH   1  18
ATOM     18  C   UNL     1     144.074  42.548 -10.606  1.00  0.00     0.000 C 
BRANCH  18  19
ATOM     19  C   UNL     1     144.183  41.030 -10.384  1.00  0.00     0.000 C 
BRANCH  19  20
ATOM     20  C   UNL     1     144.234  40.647  -8.895  1.00  0.00     0.000 C 
BRANCH  20  21
ATOM     21  C   UNL     1     143.415  39.384  -8.582  1.00  0.00     0.000 C 
BRANCH  21  22
ATOM     22  C   UNL     1     143.192  38.503  -9.822  1.00  0.00     0.000 C 
BRANCH  22  23
ATOM     23  C   UNL     1     142.027  37.516  -9.651  1.00  0.00     0.000 C 
BRANCH  23  24
ATOM     24  C   UNL     1     141.112  37.531 -10.883  1.00  0.00    -0.000 C 
BRANCH  24  25
ATOM     25  C   UNL     1     141.906  37.216 -12.161  1.00  0.00    -0.000 C 
BRANCH  25  26
ATOM     26  C   UNL     1     141.607  38.198 -13.310  1.00  0.00    -0.000 C 
BRANCH  26  27
ATOM     27  C   UNL     1     142.212  39.603 -13.142  1.00  0.00    -0.000 C 
BRANCH  27  28
ATOM     28  C   UNL     1     141.228  40.728 -13.505  1.00  0.00    -0.000 C 
BRANCH  28  29
ATOM     29  C   UNL     1     140.930  41.656 -12.316  1.00  0.00    -0.000 C 
BRANCH  29  30
ATOM     30  C   UNL     1     140.013  41.003 -11.271  1.00  0.00    -0.000 C 
BRANCH  30  31
ATOM     31  C   UNL     1     140.518  41.282  -9.850  1.00  0.00    -0.003 C 
ATOM     32  C   UNL     1     139.774  40.433  -8.822  1.00  0.00     0.004 C 
ENDBRANCH  30  31
ENDBRANCH  29  30
ENDBRANCH  28  29
ENDBRANCH  27  28
ENDBRANCH  26  27
ENDBRANCH  25  26
ENDBRANCH  24  25
ENDBRANCH  23  24
ENDBRANCH  22  23
ENDBRANCH  21  22
ENDBRANCH  20  21
ENDBRANCH  19  20
ENDBRANCH  18  19
ENDBRANCH   1  18
TORSDOF 28
ENDMDL
MODEL 2
REMARK VINA RESULT:    -0.998      2.092      2.514
REMARK INTER + INTRA:          -9.482
REMARK INTER:                  -2.678
REMARK INTRA:                  -6.804
REMARK UNBOUND:                -6.852
REMARK SMILES CCCCCCCCCCCCCCCCCCCCCCCCCCCCCC(=O)[O-]
REMARK SMILES IDX 16 1 17 2 18 3 19 4 20 5 21 6 22 7 23 8 24 9 25 10 26 11
REMARK SMILES IDX 27 12 28 13 29 14 30 15 31 16 32 17 15 18 14 19 13 20 12 21
REMARK SMILES IDX 11 22 10 23 9 24 8 25 7 26 6 27 5 28 4 29 3 30 2 31 1 32
REMARK H PARENT
REMARK Flexibility Score: inf
ROOT
ATOM      1  C   UNL     1     143.587  42.714  -8.798  1.00  0.00     0.000 C 
ENDROOT
BRANCH   1   2
ATOM      2  C   UNL     1     144.582  43.816  -8.399  1.00  0.00     0.000 C 
BRANCH   2   3
ATOM      3  C   UNL     1     146.047  43.350  -8.477  1.00  0.00     0.000 C 
BRANCH   3   4
ATOM      4  C   UNL     1     146.482  42.392  -7.351  1.00  0.00     0.000 C 
BRANCH   4   5
ATOM      5  C   UNL     1     147.623  41.424  -7.723  1.00  0.00     0.000 C 
BRANCH   5   6
ATOM      6  C   UNL     1     147.824  41.209  -9.234  1.00  0.00     0.000 C 
BRANCH   6   7
ATOM      7  C   UNL     1     147.660  39.741  -9.654  1.00  0.00     0.000 C 
BRANCH   7   8
ATOM      8  C   UNL     1     147.783  38.802  -8.444  1.00  0.00     0.000 C 
BRANCH   8   9
ATOM      9  C   UNL     1     146.589  37.841  -8.326  1.00  0.00     0.000 C 
BRANCH   9  10
ATOM     10  C   UNL     1     146.265  37.479  -6.865  1.00  0.00     0.000 C 
BRANCH  10  11
ATOM     11  C   UNL     1     146.246  38.705  -5.934  1.00  0.00     0.000 C 
BRANCH  11  12
ATOM     12  C   UNL     1     145.047  38.772  -4.968  1.00  0.00     0.000 C 
BRANCH  12  13
ATOM     13  C   UNL     1     144.452  40.185  -4.852  1.00  0.00     0.006 C 
BRANCH  13  14
ATOM     14  C   UNL     1     143.109  40.192  -4.108  1.00  0.00     0.053 C 
BRANCH  14  15
ATOM     15  C   UNL     1     141.970  40.564  -5.009  1.00  0.00     0.041 C 
ATOM     16  O   UNL     1     142.012  41.632  -5.675  1.00  0.00    -0.550 OA
ATOM     17  O   UNL     1     140.873  39.720  -5.128  1.00  0.00    -0.550 OA
ENDBRANCH  14  15
ENDBRANCH  13  14
ENDBRANCH  12  13
ENDBRANCH  11  12
ENDBRANCH  10  11
ENDBRANCH   9  10
ENDBRANCH   8   9
ENDBRANCH   7   8
ENDBRANCH   6   7
ENDBRANCH   5   6
ENDBRANCH   4   5
ENDBRANCH   3   4
ENDBRANCH   2   3
ENDBRANCH   1   2
BRANCH   1  18
ATOM     18  C   UNL     1     144.059  41.968 -10.052  1.00  0.00     0.000 C 
BRANCH  18  19
ATOM     19  C   UNL     1     144.091  40.450  -9.809  1.00  0.00     0.000 C 
BRANCH  19  20
ATOM     20  C   UNL     1     143.724  40.070  -8.365  1.00  0.00     0.000 C 
BRANCH  20  21
ATOM     21  C   UNL     1     142.981  38.726  -8.278  1.00  0.00     0.000 C 
BRANCH  21  22
ATOM     22  C   UNL     1     143.020  37.944  -9.601  1.00  0.00     0.000 C 
BRANCH  22  23
ATOM     23  C   UNL     1     141.895  36.903  -9.712  1.00  0.00     0.000 C 
BRANCH  23  24
ATOM     24  C   UNL     1     141.041  37.152 -10.963  1.00  0.00    -0.000 C 
BRANCH  24  25
ATOM     25  C   UNL     1     141.926  37.350 -12.203  1.00  0.00    -0.000 C 
BRANCH  25  26
ATOM     26  C   UNL     1     141.475  38.533 -13.081  1.00  0.00    -0.000 C 
BRANCH  26  27
ATOM     27  C   UNL     1     141.796  39.927 -12.511  1.00  0.00    -0.000 C 
BRANCH  27  28
ATOM     28  C   UNL     1     140.543  40.686 -12.042  1.00  0.00    -0.000 C 
BRANCH  28  29
ATOM     29  C   UNL     1     140.532  40.923 -10.523  1.00  0.00    -0.000 C 
BRANCH  29  30
ATOM     30  C   UNL     1     139.298  40.315  -9.839  1.00  0.00    -0.000 C 
BRANCH  30  31
ATOM     31  C   UNL     1     139.627  39.881  -8.405  1.00  0.00    -0.003 C 
ATOM     32  C   UNL     1     138.984  38.537  -8.072  1.00  0.00     0.004 C 
ENDBRANCH  30  31
ENDBRANCH  29  30
ENDBRANCH  28  29
ENDBRANCH  27  28
ENDBRANCH  26  27
ENDBRANCH  25  26
ENDBRANCH  24  25
ENDBRANCH  23  24
ENDBRANCH  22  23
ENDBRANCH  21  22
ENDBRANCH  20  21
ENDBRANCH  19  20
ENDBRANCH  18  19
ENDBRANCH   1  18
TORSDOF 28
ENDMDL
MODEL 3
REMARK VINA RESULT:    -0.996      1.933      6.183
REMARK INTER + INTRA:          -9.478
REMARK INTER:                  -2.693
REMARK INTRA:                  -6.785
REMARK UNBOUND:                -6.852
REMARK SMILES CCCCCCCCCCCCCCCCCCCCCCCCCCCCCC(=O)[O-]
REMARK SMILES IDX 16 1 17 2 18 3 19 4 20 5 21 6 22 7 23 8 24 9 25 10 26 11
REMARK SMILES IDX 27 12 28 13 29 14 30 15 31 16 32 17 15 18 14 19 13 20 12 21
REMARK SMILES IDX 11 22 10 23 9 24 8 25 7 26 6 27 5 28 4 29 3 30 2 31 1 32
REMARK H PARENT
REMARK Flexibility Score: inf
ROOT
ATOM      1  C   UNL     1     143.887  37.743 -10.405  1.00  0.00     0.000 C 
ENDROOT
BRANCH   1   2
ATOM      2  C   UNL     1     142.633  36.876 -10.214  1.00  0.00     0.000 C 
BRANCH   2   3
ATOM      3  C   UNL     1     141.715  36.881 -11.451  1.00  0.00     0.000 C 
BRANCH   3   4
ATOM      4  C   UNL     1     142.398  37.309 -12.763  1.00  0.00     0.000 C 
BRANCH   4   5
ATOM      5  C   UNL     1     141.567  38.254 -13.654  1.00  0.00     0.000 C 
BRANCH   5   6
ATOM      6  C   UNL     1     140.995  39.488 -12.933  1.00  0.00     0.000 C 
BRANCH   6   7
ATOM      7  C   UNL     1     142.061  40.558 -12.650  1.00  0.00     0.000 C 
BRANCH   7   8
ATOM      8  C   UNL     1     142.114  40.906 -11.155  1.00  0.00     0.000 C 
BRANCH   8   9
ATOM      9  C   UNL     1     140.907  40.351 -10.381  1.00  0.00     0.000 C 
BRANCH   9  10
ATOM     10  C   UNL     1     141.248  40.015  -8.918  1.00  0.00     0.000 C 
BRANCH  10  11
ATOM     11  C   UNL     1     142.641  40.519  -8.497  1.00  0.00     0.000 C 
BRANCH  11  12
ATOM     12  C   UNL     1     142.986  40.312  -7.009  1.00  0.00     0.000 C 
BRANCH  12  13
ATOM     13  C   UNL     1     143.541  38.909  -6.715  1.00  0.00     0.006 C 
BRANCH  13  14
ATOM     14  C   UNL     1     144.771  38.950  -5.797  1.00  0.00     0.053 C 
BRANCH  14  15
ATOM     15  C   UNL     1     144.468  38.417  -4.429  1.00  0.00     0.041 C 
ATOM     16  O   UNL     1     144.940  37.309  -4.061  1.00  0.00    -0.550 OA
ATOM     17  O   UNL     1     143.681  39.155  -3.553  1.00  0.00    -0.550 OA
ENDBRANCH  14  15
ENDBRANCH  13  14
ENDBRANCH  12  13
ENDBRANCH  11  12
ENDBRANCH  10  11
ENDBRANCH   9  10
ENDBRANCH   8   9
ENDBRANCH   7   8
ENDBRANCH   6   7
ENDBRANCH   5   6
ENDBRANCH   4   5
ENDBRANCH   3   4
ENDBRANCH   2   3
ENDBRANCH   1   2
BRANCH   1  18
ATOM     18  C   UNL     1     145.026  37.282  -9.488  1.00  0.00     0.000 C 
BRANCH  18  19
ATOM     19  C   UNL     1     146.262  36.875 -10.308  1.00  0.00     0.000 C 
BRANCH  19  20
ATOM     20  C   UNL     1     147.504  37.718  -9.973  1.00  0.00     0.000 C 
BRANCH  20  21
ATOM     21  C   UNL     1     147.429  38.349  -8.573  1.00  0.00     0.000 C 
BRANCH  21  22
ATOM     22  C   UNL     1     147.674  39.867  -8.596  1.00  0.00     0.000 C 
BRANCH  22  23
ATOM     23  C   UNL     1     146.371  40.681  -8.619  1.00  0.00     0.000 C 
BRANCH  23  24
ATOM     24  C   UNL     1     146.629  42.137  -8.208  1.00  0.00    -0.000 C 
BRANCH  24  25
ATOM     25  C   UNL     1     146.054  43.112  -9.248  1.00  0.00    -0.000 C 
BRANCH  25  26
ATOM     26  C   UNL     1     145.159  42.417 -10.292  1.00  0.00    -0.000 C 
BRANCH  26  27
ATOM     27  C   UNL     1     145.654  42.518 -11.746  1.00  0.00    -0.000 C 
BRANCH  27  28
ATOM     28  C   UNL     1     147.075  41.961 -11.937  1.00  0.00    -0.000 C 
BRANCH  28  29
ATOM     29  C   UNL     1     147.076  40.490 -12.383  1.00  0.00    -0.000 C 
BRANCH  29  30
ATOM     30  C   UNL     1     145.689  40.009 -12.835  1.00  0.00    -0.000 C 
BRANCH  30  31
ATOM     31  C   UNL     1     145.779  38.629 -13.500  1.00  0.00    -0.003 C 
ATOM     32  C   UNL     1     147.231  38.224 -13.740  1.00  0.00     0.004 C 
ENDBRANCH  30  31
ENDBRANCH  29  30
ENDBRANCH  28  29
ENDBRANCH  27  28
ENDBRANCH  26  27
ENDBRANCH  25  26
ENDBRANCH  24  25
ENDBRANCH  23  24
ENDBRANCH  22  23
ENDBRANCH  21  22
ENDBRANCH  20  21
ENDBRANCH  19  20
ENDBRANCH  18  19
ENDBRANCH   1  18
TORSDOF 28
ENDMDL
MODEL 4
REMARK VINA RESULT:    -0.990      1.883      3.650
REMARK INTER + INTRA:          -9.463
REMARK INTER:                  -2.561
REMARK INTRA:                  -6.902
REMARK UNBOUND:                -6.852
REMARK SMILES CCCCCCCCCCCCCCCCCCCCCCCCCCCCCC(=O)[O-]
REMARK SMILES IDX 16 1 17 2 18 3 19 4 20 5 21 6 22 7 23 8 24 9 25 10 26 11
REMARK SMILES IDX 27 12 28 13 29 14 30 15 31 16 32 17 15 18 14 19 13 20 12 21
REMARK SMILES IDX 11 22 10 23 9 24 8 25 7 26 6 27 5 28 4 29 3 30 2 31 1 32
REMARK H PARENT
REMARK Flexibility Score: inf
ROOT
ATOM      1  C   UNL     1     144.948  40.537 -10.786  1.00  0.00     0.000 C 
ENDROOT
BRANCH   1   2
ATOM      2  C   UNL     1     146.051  41.414 -11.400  1.00  0.00     0.000 C 
BRANCH   2   3
ATOM      3  C   UNL     1     146.485  40.928 -12.796  1.00  0.00     0.000 C 
BRANCH   3   4
ATOM      4  C   UNL     1     145.504  39.956 -13.478  1.00  0.00     0.000 C 
BRANCH   4   5
ATOM      5  C   UNL     1     146.096  38.579 -13.839  1.00  0.00     0.000 C 
BRANCH   5   6
ATOM      6  C   UNL     1     147.358  38.188 -13.048  1.00  0.00     0.000 C 
BRANCH   6   7
ATOM      7  C   UNL     1     147.182  36.884 -12.256  1.00  0.00     0.000 C 
BRANCH   7   8
ATOM      8  C   UNL     1     147.350  37.124 -10.747  1.00  0.00     0.000 C 
BRANCH   8   9
ATOM      9  C   UNL     1     148.088  38.438 -10.443  1.00  0.00     0.000 C 
BRANCH   9  10
ATOM     10  C   UNL     1     147.767  38.984  -9.040  1.00  0.00     0.000 C 
BRANCH  10  11
ATOM     11  C   UNL     1     146.905  38.019  -8.205  1.00  0.00     0.000 C 
BRANCH  11  12
ATOM     12  C   UNL     1     145.876  38.698  -7.281  1.00  0.00     0.000 C 
BRANCH  12  13
ATOM     13  C   UNL     1     146.001  40.231  -7.273  1.00  0.00     0.006 C 
BRANCH  13  14
ATOM     14  C   UNL     1     144.701  40.918  -6.831  1.00  0.00     0.053 C 
BRANCH  14  15
ATOM     15  C   UNL     1     144.894  41.740  -5.593  1.00  0.00     0.041 C 
ATOM     16  O   UNL     1     144.713  42.986  -5.624  1.00  0.00    -0.550 OA
ATOM     17  O   UNL     1     145.252  41.127  -4.399  1.00  0.00    -0.550 OA
ENDBRANCH  14  15
ENDBRANCH  13  14
ENDBRANCH  12  13
ENDBRANCH  11  12
ENDBRANCH  10  11
ENDBRANCH   9  10
ENDBRANCH   8   9
ENDBRANCH   7   8
ENDBRANCH   6   7
ENDBRANCH   5   6
ENDBRANCH   4   5
ENDBRANCH   3   4
ENDBRANCH   2   3
ENDBRANCH   1   2
BRANCH   1  18
ATOM     18  C   UNL     1     143.729  41.377 -10.386  1.00  0.00     0.000 C 
BRANCH  18  19
ATOM     19  C   UNL     1     142.724  41.474 -11.546  1.00  0.00     0.000 C 
BRANCH  19  20
ATOM     20  C   UNL     1     141.320  40.979 -11.160  1.00  0.00     0.000 C 
BRANCH  20  21
ATOM     21  C   UNL     1     140.809  39.867 -12.091  1.00  0.00     0.000 C 
BRANCH  21  22
ATOM     22  C   UNL     1     141.821  39.507 -13.191  1.00  0.00     0.000 C 
BRANCH  22  23
ATOM     23  C   UNL     1     141.864  38.002 -13.493  1.00  0.00     0.000 C 
BRANCH  23  24
ATOM     24  C   UNL     1     141.996  37.187 -12.199  1.00  0.00    -0.000 C 
BRANCH  24  25
ATOM     25  C   UNL     1     143.466  37.087 -11.761  1.00  0.00    -0.000 C 
BRANCH  25  26
ATOM     26  C   UNL     1     143.686  37.510 -10.296  1.00  0.00    -0.000 C 
BRANCH  26  27
ATOM     27  C   UNL     1     142.507  37.220  -9.349  1.00  0.00    -0.000 C 
BRANCH  27  28
ATOM     28  C   UNL     1     142.361  38.269  -8.233  1.00  0.00    -0.000 C 
BRANCH  28  29
ATOM     29  C   UNL     1     141.014  39.008  -8.293  1.00  0.00    -0.000 C 
BRANCH  29  30
ATOM     30  C   UNL     1     139.880  38.127  -8.840  1.00  0.00    -0.000 C 
BRANCH  30  31
ATOM     31  C   UNL     1     138.510  38.744  -8.531  1.00  0.00    -0.003 C 
ATOM     32  C   UNL     1     138.475  40.226  -8.897  1.00  0.00     0.004 C 
ENDBRANCH  30  31
ENDBRANCH  29  30
ENDBRANCH  28  29
ENDBRANCH  27  28
ENDBRANCH  26  27
ENDBRANCH  25  26
ENDBRANCH  24  25
ENDBRANCH  23  24
ENDBRANCH  22  23
ENDBRANCH  21  22
ENDBRANCH  20  21
ENDBRANCH  19  20
ENDBRANCH  18  19
ENDBRANCH   1  18
TORSDOF 28
ENDMDL
MODEL 5
REMARK VINA RESULT:    -0.948      2.138      3.385
REMARK INTER + INTRA:          -9.351
REMARK INTER:                  -2.995
REMARK INTRA:                  -6.356
REMARK UNBOUND:                -6.852
REMARK SMILES CCCCCCCCCCCCCCCCCCCCCCCCCCCCCC(=O)[O-]
REMARK SMILES IDX 16 1 17 2 18 3 19 4 20 5 21 6 22 7 23 8 24 9 25 10 26 11
REMARK SMILES IDX 27 12 28 13 29 14 30 15 31 16 32 17 15 18 14 19 13 20 12 21
REMARK SMILES IDX 11 22 10 23 9 24 8 25 7 26 6 27 5 28 4 29 3 30 2 31 1 32
REMARK H PARENT
REMARK Flexibility Score: inf
ROOT
ATOM      1  C   UNL     1     145.911  42.589  -9.985  1.00  0.00     0.000 C 
ENDROOT
BRANCH   1   2
ATOM      2  C   UNL     1     145.372  41.469  -9.081  1.00  0.00     0.000 C 
BRANCH   2   3
ATOM      3  C   UNL     1     146.399  41.011  -8.028  1.00  0.00     0.000 C 
BRANCH   3   4
ATOM      4  C   UNL     1     147.732  40.498  -8.605  1.00  0.00     0.000 C 
BRANCH   4   5
ATOM      5  C   UNL     1     147.597  39.464  -9.742  1.00  0.00     0.000 C 
BRANCH   5   6
ATOM      6  C   UNL     1     147.513  37.998  -9.277  1.00  0.00     0.000 C 
BRANCH   6   7
ATOM      7  C   UNL     1     146.401  37.213  -9.987  1.00  0.00     0.000 C 
BRANCH   7   8
ATOM      8  C   UNL     1     145.031  37.873  -9.769  1.00  0.00     0.000 C 
BRANCH   8   9
ATOM      9  C   UNL     1     143.984  36.884  -9.231  1.00  0.00     0.000 C 
BRANCH   9  10
ATOM     10  C   UNL     1     143.917  36.875  -7.693  1.00  0.00     0.000 C 
BRANCH  10  11
ATOM     11  C   UNL     1     144.212  38.254  -7.073  1.00  0.00     0.000 C 
BRANCH  11  12
ATOM     12  C   UNL     1     144.973  38.216  -5.733  1.00  0.00     0.000 C 
BRANCH  12  13
ATOM     13  C   UNL     1     146.451  37.822  -5.897  1.00  0.00     0.006 C 
BRANCH  13  14
ATOM     14  C   UNL     1     146.928  36.878  -4.785  1.00  0.00     0.053 C 
BRANCH  14  15
ATOM     15  C   UNL     1     146.869  37.526  -3.435  1.00  0.00     0.041 C 
ATOM     16  O   UNL     1     147.394  38.656  -3.251  1.00  0.00    -0.550 OA
ATOM     17  O   UNL     1     146.215  36.892  -2.386  1.00  0.00    -0.550 OA
ENDBRANCH  14  15
ENDBRANCH  13  14
ENDBRANCH  12  13
ENDBRANCH  11  12
ENDBRANCH  10  11
ENDBRANCH   9  10
ENDBRANCH   8   9
ENDBRANCH   7   8
ENDBRANCH   6   7
ENDBRANCH   5   6
ENDBRANCH   4   5
ENDBRANCH   3   4
ENDBRANCH   2   3
ENDBRANCH   1   2
BRANCH   1  18
ATOM     18  C   UNL     1     145.691  42.261 -11.466  1.00  0.00     0.000 C 
BRANCH  18  19
ATOM     19  C   UNL     1     144.819  41.005 -11.628  1.00  0.00     0.000 C 
BRANCH  19  20
ATOM     20  C   UNL     1     144.910  40.394 -13.037  1.00  0.00     0.000 C 
BRANCH  20  21
ATOM     21  C   UNL     1     145.933  39.249 -13.119  1.00  0.00     0.000 C 
BRANCH  21  22
ATOM     22  C   UNL     1     145.451  38.090 -14.005  1.00  0.00     0.000 C 
BRANCH  22  23
ATOM     23  C   UNL     1     144.717  36.998 -13.211  1.00  0.00     0.000 C 
BRANCH  23  24
ATOM     24  C   UNL     1     143.250  36.897 -13.649  1.00  0.00    -0.000 C 
BRANCH  24  25
ATOM     25  C   UNL     1     142.309  37.383 -12.535  1.00  0.00    -0.000 C 
BRANCH  25  26
ATOM     26  C   UNL     1     141.412  38.555 -12.974  1.00  0.00    -0.000 C 
BRANCH  26  27
ATOM     27  C   UNL     1     141.297  39.705 -11.958  1.00  0.00    -0.000 C 
BRANCH  27  28
ATOM     28  C   UNL     1     141.132  39.212 -10.510  1.00  0.00    -0.000 C 
BRANCH  28  29
ATOM     29  C   UNL     1     141.989  40.011  -9.514  1.00  0.00    -0.000 C 
BRANCH  29  30
ATOM     30  C   UNL     1     141.352  40.093  -8.119  1.00  0.00    -0.000 C 
BRANCH  30  31
ATOM     31  C   UNL     1     141.705  41.420  -7.434  1.00  0.00    -0.003 C 
ATOM     32  C   UNL     1     141.457  41.350  -5.930  1.00  0.00     0.004 C 
ENDBRANCH  30  31
ENDBRANCH  29  30
ENDBRANCH  28  29
ENDBRANCH  27  28
ENDBRANCH  26  27
ENDBRANCH  25  26
ENDBRANCH  24  25
ENDBRANCH  23  24
ENDBRANCH  22  23
ENDBRANCH  21  22
ENDBRANCH  20  21
ENDBRANCH  19  20
ENDBRANCH  18  19
ENDBRANCH   1  18
TORSDOF 28
ENDMDL
MODEL 6
REMARK VINA RESULT:    -0.911      2.650      6.935
REMARK INTER + INTRA:          -9.255
REMARK INTER:                  -2.557
REMARK INTRA:                  -6.698
REMARK UNBOUND:                -6.852
REMARK SMILES CCCCCCCCCCCCCCCCCCCCCCCCCCCCCC(=O)[O-]
REMARK SMILES IDX 16 1 17 2 18 3 19 4 20 5 21 6 22 7 23 8 24 9 25 10 26 11
REMARK SMILES IDX 27 12 28 13 29 14 30 15 31 16 32 17 15 18 14 19 13 20 12 21
REMARK SMILES IDX 11 22 10 23 9 24 8 25 7 26 6 27 5 28 4 29 3 30 2 31 1 32
REMARK H PARENT
REMARK Flexibility Score: inf
ROOT
ATOM      1  C   UNL     1     143.622  40.201  -8.850  1.00  0.00     0.000 C 
ENDROOT
BRANCH   1   2
ATOM      2  C   UNL     1     143.378  38.924  -8.030  1.00  0.00     0.000 C 
BRANCH   2   3
ATOM      3  C   UNL     1     143.422  37.648  -8.892  1.00  0.00     0.000 C 
BRANCH   3   4
ATOM      4  C   UNL     1     142.070  36.927  -9.051  1.00  0.00     0.000 C 
BRANCH   4   5
ATOM      5  C   UNL     1     141.134  37.524 -10.122  1.00  0.00     0.000 C 
BRANCH   5   6
ATOM      6  C   UNL     1     141.250  36.879 -11.515  1.00  0.00     0.000 C 
BRANCH   6   7
ATOM      7  C   UNL     1     142.184  37.657 -12.454  1.00  0.00     0.000 C 
BRANCH   7   8
ATOM      8  C   UNL     1     141.399  38.668 -13.303  1.00  0.00     0.000 C 
BRANCH   8   9
ATOM      9  C   UNL     1     142.287  39.811 -13.821  1.00  0.00     0.000 C 
BRANCH   9  10
ATOM     10  C   UNL     1     141.844  41.188 -13.294  1.00  0.00     0.000 C 
BRANCH  10  11
ATOM     11  C   UNL     1     140.561  41.119 -12.445  1.00  0.00     0.000 C 
BRANCH  11  12
ATOM     12  C   UNL     1     140.610  41.914 -11.125  1.00  0.00     0.000 C 
BRANCH  12  13
ATOM     13  C   UNL     1     140.431  41.023  -9.885  1.00  0.00     0.006 C 
BRANCH  13  14
ATOM     14  C   UNL     1     139.030  41.155  -9.271  1.00  0.00     0.053 C 
BRANCH  14  15
ATOM     15  C   UNL     1     138.774  40.111  -8.227  1.00  0.00     0.041 C 
ATOM     16  O   UNL     1     138.263  39.005  -8.548  1.00  0.00    -0.550 OA
ATOM     17  O   UNL     1     139.119  40.352  -6.903  1.00  0.00    -0.550 OA
ENDBRANCH  14  15
ENDBRANCH  13  14
ENDBRANCH  12  13
ENDBRANCH  11  12
ENDBRANCH  10  11
ENDBRANCH   9  10
ENDBRANCH   8   9
ENDBRANCH   7   8
ENDBRANCH   6   7
ENDBRANCH   5   6
ENDBRANCH   4   5
ENDBRANCH   3   4
ENDBRANCH   2   3
ENDBRANCH   1   2
BRANCH   1  18
ATOM     18  C   UNL     1     144.008  39.867 -10.296  1.00  0.00     0.000 C 
BRANCH  18  19
ATOM     19  C   UNL     1     144.540  41.113 -11.024  1.00  0.00     0.000 C 
BRANCH  19  20
ATOM     20  C   UNL     1     146.024  40.991 -11.408  1.00  0.00     0.000 C 
BRANCH  20  21
ATOM     21  C   UNL     1     146.529  39.539 -11.359  1.00  0.00     0.000 C 
BRANCH  21  22
ATOM     22  C   UNL     1     147.641  39.337 -10.317  1.00  0.00     0.000 C 
BRANCH  22  23
ATOM     23  C   UNL     1     147.423  38.091  -9.446  1.00  0.00     0.000 C 
BRANCH  23  24
ATOM     24  C   UNL     1     147.103  38.485  -7.997  1.00  0.00    -0.000 C 
BRANCH  24  25
ATOM     25  C   UNL     1     147.382  39.977  -7.759  1.00  0.00    -0.000 C 
BRANCH  25  26
ATOM     26  C   UNL     1     146.545  40.568  -6.608  1.00  0.00    -0.000 C 
BRANCH  26  27
ATOM     27  C   UNL     1     146.154  42.047  -6.779  1.00  0.00    -0.000 C 
BRANCH  27  28
ATOM     28  C   UNL     1     146.601  42.634  -8.129  1.00  0.00    -0.000 C 
BRANCH  28  29
ATOM     29  C   UNL     1     145.587  43.639  -8.699  1.00  0.00    -0.000 C 
BRANCH  29  30
ATOM     30  C   UNL     1     144.350  43.804  -7.802  1.00  0.00    -0.000 C 
BRANCH  30  31
ATOM     31  C   UNL     1     143.060  43.655  -8.618  1.00  0.00    -0.003 C 
ATOM     32  C   UNL     1     143.131  44.456  -9.916  1.00  0.00     0.004 C 
ENDBRANCH  30  31
ENDBRANCH  29  30
ENDBRANCH  28  29
ENDBRANCH  27  28
ENDBRANCH  26  27
ENDBRANCH  25  26
ENDBRANCH  24  25
ENDBRANCH  23  24
ENDBRANCH  22  23
ENDBRANCH  21  22
ENDBRANCH  20  21
ENDBRANCH  19  20
ENDBRANCH  18  19
ENDBRANCH   1  18
TORSDOF 28
ENDMDL
MODEL 7
REMARK VINA RESULT:    -0.897     10.921     14.628
REMARK INTER + INTRA:          -9.218
REMARK INTER:                  -2.430
REMARK INTRA:                  -6.787
REMARK UNBOUND:                -6.852
REMARK SMILES CCCCCCCCCCCCCCCCCCCCCCCCCCCCCC(=O)[O-]
REMARK SMILES IDX 16 1 17 2 18 3 19 4 20 5 21 6 22 7 23 8 24 9 25 10 26 11
REMARK SMILES IDX 27 12 28 13 29 14 30 15 31 16 32 17 15 18 14 19 13 20 12 21
REMARK SMILES IDX 11 22 10 23 9 24 8 25 7 26 6 27 5 28 4 29 3 30 2 31 1 32
REMARK H PARENT
REMARK Flexibility Score: inf
ROOT
ATOM      1  C   UNL     1     143.309  50.851  -9.796  1.00  0.00     0.000 C 
ENDROOT
BRANCH   1   2
ATOM      2  C   UNL     1     143.814  50.714 -11.242  1.00  0.00     0.000 C 
BRANCH   2   3
ATOM      3  C   UNL     1     142.770  51.166 -12.280  1.00  0.00     0.000 C 
BRANCH   3   4
ATOM      4  C   UNL     1     143.299  52.144 -13.347  1.00  0.00     0.000 C 
BRANCH   4   5
ATOM      5  C   UNL     1     142.273  53.181 -13.848  1.00  0.00     0.000 C 
BRANCH   5   6
ATOM      6  C   UNL     1     141.047  53.371 -12.936  1.00  0.00     0.000 C 
BRANCH   6   7
ATOM      7  C   UNL     1     139.719  53.288 -13.702  1.00  0.00     0.000 C 
BRANCH   7   8
ATOM      8  C   UNL     1     138.635  52.597 -12.859  1.00  0.00     0.000 C 
BRANCH   8   9
ATOM      9  C   UNL     1     139.208  51.948 -11.589  1.00  0.00     0.000 C 
BRANCH   9  10
ATOM     10  C   UNL     1     139.226  50.411 -11.669  1.00  0.00     0.000 C 
BRANCH  10  11
ATOM     11  C   UNL     1     137.856  49.814 -12.038  1.00  0.00     0.000 C 
BRANCH  11  12
ATOM     12  C   UNL     1     137.120  49.109 -10.882  1.00  0.00     0.000 C 
BRANCH  12  13
ATOM     13  C   UNL     1     136.238  50.067 -10.063  1.00  0.00     0.006 C 
BRANCH  13  14
ATOM     14  C   UNL     1     136.567  50.021  -8.564  1.00  0.00     0.053 C 
BRANCH  14  15
ATOM     15  C   UNL     1     137.887  50.662  -8.259  1.00  0.00     0.041 C 
ATOM     16  O   UNL     1     138.907  49.950  -8.062  1.00  0.00    -0.550 OA
ATOM     17  O   UNL     1     137.994  52.046  -8.213  1.00  0.00    -0.550 OA
ENDBRANCH  14  15
ENDBRANCH  13  14
ENDBRANCH  12  13
ENDBRANCH  11  12
ENDBRANCH  10  11
ENDBRANCH   9  10
ENDBRANCH   8   9
ENDBRANCH   7   8
ENDBRANCH   6   7
ENDBRANCH   5   6
ENDBRANCH   4   5
ENDBRANCH   3   4
ENDBRANCH   2   3
ENDBRANCH   1   2
BRANCH   1  18
ATOM     18  C   UNL     1     142.206  51.912  -9.691  1.00  0.00     0.000 C 
BRANCH  18  19
ATOM     19  C   UNL     1     142.004  52.351  -8.231  1.00  0.00     0.000 C 
BRANCH  19  20
ATOM     20  C   UNL     1     141.605  53.831  -8.105  1.00  0.00     0.000 C 
BRANCH  20  21
ATOM     21  C   UNL     1     141.035  54.403  -9.413  1.00  0.00     0.000 C 
BRANCH  21  22
ATOM     22  C   UNL     1     139.606  54.944  -9.247  1.00  0.00     0.000 C 
BRANCH  22  23
ATOM     23  C   UNL     1     139.036  55.532 -10.548  1.00  0.00     0.000 C 
BRANCH  23  24
ATOM     24  C   UNL     1     139.937  56.653 -11.082  1.00  0.00    -0.000 C 
BRANCH  24  25
ATOM     25  C   UNL     1     139.743  56.841 -12.595  1.00  0.00    -0.000 C 
BRANCH  25  26
ATOM     26  C   UNL     1     141.062  57.124 -13.339  1.00  0.00    -0.000 C 
BRANCH  26  27
ATOM     27  C   UNL     1     142.334  57.014 -12.477  1.00  0.00    -0.000 C 
BRANCH  27  28
ATOM     28  C   UNL     1     143.598  56.733 -13.307  1.00  0.00    -0.000 C 
BRANCH  28  29
ATOM     29  C   UNL     1     144.562  55.766 -12.601  1.00  0.00    -0.000 C 
BRANCH  29  30
ATOM     30  C   UNL     1     143.981  55.199 -11.297  1.00  0.00    -0.000 C 
BRANCH  30  31
ATOM     31  C   UNL     1     144.951  54.197 -10.656  1.00  0.00    -0.003 C 
ATOM     32  C   UNL     1     145.140  54.484  -9.169  1.00  0.00     0.004 C 
ENDBRANCH  30  31
ENDBRANCH  29  30
ENDBRANCH  28  29
ENDBRANCH  27  28
ENDBRANCH  26  27
ENDBRANCH  25  26
ENDBRANCH  24  25
ENDBRANCH  23  24
ENDBRANCH  22  23
ENDBRANCH  21  22
ENDBRANCH  20  21
ENDBRANCH  19  20
ENDBRANCH  18  19
ENDBRANCH   1  18
TORSDOF 28
ENDMDL
MODEL 8
REMARK VINA RESULT:    -0.888      2.815      6.673
REMARK INTER + INTRA:          -9.194
REMARK INTER:                  -2.769
REMARK INTRA:                  -6.425
REMARK UNBOUND:                -6.852
REMARK SMILES CCCCCCCCCCCCCCCCCCCCCCCCCCCCCC(=O)[O-]
REMARK SMILES IDX 16 1 17 2 18 3 19 4 20 5 21 6 22 7 23 8 24 9 25 10 26 11
REMARK SMILES IDX 27 12 28 13 29 14 30 15 31 16 32 17 15 18 14 19 13 20 12 21
REMARK SMILES IDX 11 22 10 23 9 24 8 25 7 26 6 27 5 28 4 29 3 30 2 31 1 32
REMARK H PARENT
REMARK Flexibility Score: inf
ROOT
ATOM      1  C   UNL     1     144.284  40.584  -7.023  1.00  0.00     0.000 C 
ENDROOT
BRANCH   1   2
ATOM      2  C   UNL     1     143.007  39.872  -7.498  1.00  0.00     0.000 C 
BRANCH   2   3
ATOM      3  C   UNL     1     142.922  38.415  -7.007  1.00  0.00     0.000 C 
BRANCH   3   4
ATOM      4  C   UNL     1     141.566  37.727  -7.252  1.00  0.00     0.000 C 
BRANCH   4   5
ATOM      5  C   UNL     1     141.477  36.907  -8.554  1.00  0.00     0.000 C 
BRANCH   5   6
ATOM      6  C   UNL     1     140.491  37.459  -9.601  1.00  0.00     0.000 C 
BRANCH   6   7
ATOM      7  C   UNL     1     141.195  38.205 -10.744  1.00  0.00     0.000 C 
BRANCH   7   8
ATOM      8  C   UNL     1     141.464  37.271 -11.934  1.00  0.00     0.000 C 
BRANCH   8   9
ATOM      9  C   UNL     1     141.746  38.044 -13.232  1.00  0.00     0.000 C 
BRANCH   9  10
ATOM     10  C   UNL     1     141.865  39.561 -13.002  1.00  0.00     0.000 C 
BRANCH  10  11
ATOM     11  C   UNL     1     140.641  40.343 -13.514  1.00  0.00     0.000 C 
BRANCH  11  12
ATOM     12  C   UNL     1     140.703  41.867 -13.297  1.00  0.00     0.000 C 
BRANCH  12  13
ATOM     13  C   UNL     1     140.070  42.307 -11.966  1.00  0.00     0.006 C 
BRANCH  13  14
ATOM     14  C   UNL     1     138.912  41.392 -11.543  1.00  0.00     0.053 C 
BRANCH  14  15
ATOM     15  C   UNL     1     138.975  41.045 -10.086  1.00  0.00     0.041 C 
ATOM     16  O   UNL     1     140.018  41.285  -9.422  1.00  0.00    -0.550 OA
ATOM     17  O   UNL     1     137.874  40.477  -9.458  1.00  0.00    -0.550 OA
ENDBRANCH  14  15
ENDBRANCH  13  14
ENDBRANCH  12  13
ENDBRANCH  11  12
ENDBRANCH  10  11
ENDBRANCH   9  10
ENDBRANCH   8   9
ENDBRANCH   7   8
ENDBRANCH   6   7
ENDBRANCH   5   6
ENDBRANCH   4   5
ENDBRANCH   3   4
ENDBRANCH   2   3
ENDBRANCH   1   2
BRANCH   1  18
ATOM     18  C   UNL     1     145.137  39.664  -6.140  1.00  0.00     0.000 C 
BRANCH  18  19
ATOM     19  C   UNL     1     146.635  39.871  -6.417  1.00  0.00     0.000 C 
BRANCH  19  20
ATOM     20  C   UNL     1     146.898  40.766  -7.640  1.00  0.00     0.000 C 
BRANCH  20  21
ATOM     21  C   UNL     1     147.752  40.068  -8.710  1.00  0.00     0.000 C 
BRANCH  21  22
ATOM     22  C   UNL     1     147.831  38.547  -8.504  1.00  0.00     0.000 C 
BRANCH  22  23
ATOM     23  C   UNL     1     147.174  37.755  -9.644  1.00  0.00     0.000 C 
BRANCH  23  24
ATOM     24  C   UNL     1     145.738  37.356  -9.277  1.00  0.00    -0.000 C 
BRANCH  24  25
ATOM     25  C   UNL     1     144.719  38.101 -10.154  1.00  0.00    -0.000 C 
BRANCH  25  26
ATOM     26  C   UNL     1     145.278  38.471 -11.541  1.00  0.00    -0.000 C 
BRANCH  26  27
ATOM     27  C   UNL     1     145.263  39.975 -11.870  1.00  0.00    -0.000 C 
BRANCH  27  28
ATOM     28  C   UNL     1     144.769  40.841 -10.698  1.00  0.00    -0.000 C 
BRANCH  28  29
ATOM     29  C   UNL     1     143.805  41.950 -11.152  1.00  0.00    -0.000 C 
BRANCH  29  30
ATOM     30  C   UNL     1     143.212  42.736  -9.972  1.00  0.00    -0.000 C 
BRANCH  30  31
ATOM     31  C   UNL     1     144.308  43.503  -9.221  1.00  0.00    -0.003 C 
ATOM     32  C   UNL     1     143.734  44.257  -8.024  1.00  0.00     0.004 C 
ENDBRANCH  30  31
ENDBRANCH  29  30
ENDBRANCH  28  29
ENDBRANCH  27  28
ENDBRANCH  26  27
ENDBRANCH  25  26
ENDBRANCH  24  25
ENDBRANCH  23  24
ENDBRANCH  22  23
ENDBRANCH  21  22
ENDBRANCH  20  21
ENDBRANCH  19  20
ENDBRANCH  18  19
ENDBRANCH   1  18
TORSDOF 28
ENDMDL
MODEL 9
REMARK VINA RESULT:    -0.884      3.314      6.136
REMARK INTER + INTRA:          -9.183
REMARK INTER:                  -2.416
REMARK INTRA:                  -6.767
REMARK UNBOUND:                -6.852
REMARK SMILES CCCCCCCCCCCCCCCCCCCCCCCCCCCCCC(=O)[O-]
REMARK SMILES IDX 16 1 17 2 18 3 19 4 20 5 21 6 22 7 23 8 24 9 25 10 26 11
REMARK SMILES IDX 27 12 28 13 29 14 30 15 31 16 32 17 15 18 14 19 13 20 12 21
REMARK SMILES IDX 11 22 10 23 9 24 8 25 7 26 6 27 5 28 4 29 3 30 2 31 1 32
REMARK H PARENT
REMARK Flexibility Score: inf
ROOT
ATOM      1  C   UNL     1     146.676  40.223  -7.421  1.00  0.00     0.000 C 
ENDROOT
BRANCH   1   2
ATOM      2  C   UNL     1     147.773  39.435  -8.154  1.00  0.00     0.000 C 
BRANCH   2   3
ATOM      3  C   UNL     1     147.234  38.654  -9.367  1.00  0.00     0.000 C 
BRANCH   3   4
ATOM      4  C   UNL     1     147.737  39.152 -10.735  1.00  0.00     0.000 C 
BRANCH   4   5
ATOM      5  C   UNL     1     147.742  40.685 -10.910  1.00  0.00     0.000 C 
BRANCH   5   6
ATOM      6  C   UNL     1     146.865  41.207 -12.063  1.00  0.00     0.000 C 
BRANCH   6   7
ATOM      7  C   UNL     1     145.979  42.390 -11.647  1.00  0.00     0.000 C 
BRANCH   7   8
ATOM      8  C   UNL     1     145.881  42.499 -10.117  1.00  0.00     0.000 C 
BRANCH   8   9
ATOM      9  C   UNL     1     144.440  42.326  -9.610  1.00  0.00     0.000 C 
BRANCH   9  10
ATOM     10  C   UNL     1     143.974  40.859  -9.644  1.00  0.00     0.000 C 
BRANCH  10  11
ATOM     11  C   UNL     1     142.852  40.611 -10.669  1.00  0.00     0.000 C 
BRANCH  11  12
ATOM     12  C   UNL     1     143.272  39.805 -11.913  1.00  0.00     0.000 C 
BRANCH  12  13
ATOM     13  C   UNL     1     144.195  38.622 -11.573  1.00  0.00     0.006 C 
BRANCH  13  14
ATOM     14  C   UNL     1     143.725  37.312 -12.222  1.00  0.00     0.053 C 
BRANCH  14  15
ATOM     15  C   UNL     1     142.287  37.379 -12.641  1.00  0.00     0.041 C 
ATOM     16  O   UNL     1     141.373  37.114 -11.816  1.00  0.00    -0.550 OA
ATOM     17  O   UNL     1     141.957  37.754 -13.937  1.00  0.00    -0.550 OA
ENDBRANCH  14  15
ENDBRANCH  13  14
ENDBRANCH  12  13
ENDBRANCH  11  12
ENDBRANCH  10  11
ENDBRANCH   9  10
ENDBRANCH   8   9
ENDBRANCH   7   8
ENDBRANCH   6   7
ENDBRANCH   5   6
ENDBRANCH   4   5
ENDBRANCH   3   4
ENDBRANCH   2   3
ENDBRANCH   1   2
BRANCH   1  18
ATOM     18  C   UNL     1     147.267  41.092  -6.305  1.00  0.00     0.000 C 
BRANCH  18  19
ATOM     19  C   UNL     1     146.157  41.665  -5.408  1.00  0.00     0.000 C 
BRANCH  19  20
ATOM     20  C   UNL     1     144.746  41.318  -5.911  1.00  0.00     0.000 C 
BRANCH  20  21
ATOM     21  C   UNL     1     143.907  40.581  -4.855  1.00  0.00     0.000 C 
BRANCH  21  22
ATOM     22  C   UNL     1     144.774  39.811  -3.845  1.00  0.00     0.000 C 
BRANCH  22  23
ATOM     23  C   UNL     1     144.777  38.296  -4.095  1.00  0.00     0.000 C 
BRANCH  23  24
ATOM     24  C   UNL     1     146.128  37.838  -4.663  1.00  0.00    -0.000 C 
BRANCH  24  25
ATOM     25  C   UNL     1     145.930  36.906  -5.868  1.00  0.00    -0.000 C 
BRANCH  25  26
ATOM     26  C   UNL     1     144.475  36.875  -6.372  1.00  0.00    -0.000 C 
BRANCH  26  27
ATOM     27  C   UNL     1     144.233  37.588  -7.715  1.00  0.00    -0.000 C 
BRANCH  27  28
ATOM     28  C   UNL     1     143.031  37.020  -8.488  1.00  0.00    -0.000 C 
BRANCH  28  29
ATOM     29  C   UNL     1     141.818  37.964  -8.467  1.00  0.00    -0.000 C 
BRANCH  29  30
ATOM     30  C   UNL     1     141.833  38.919  -7.264  1.00  0.00    -0.000 C 
BRANCH  30  31
ATOM     31  C   UNL     1     141.037  38.332  -6.091  1.00  0.00    -0.003 C 
ATOM     32  C   UNL     1     140.330  39.429  -5.298  1.00  0.00     0.004 C 
ENDBRANCH  30  31
ENDBRANCH  29  30
ENDBRANCH  28  29
ENDBRANCH  27  28
ENDBRANCH  26  27
ENDBRANCH  25  26
ENDBRANCH  24  25
ENDBRANCH  23  24
ENDBRANCH  22  23
ENDBRANCH  21  22
ENDBRANCH  20  21
ENDBRANCH  19  20
ENDBRANCH  18  19
ENDBRANCH   1  18
TORSDOF 28
ENDMDL
