MODEL 1
REMARK VINA RESULT:    -5.135      0.000      0.000
REMARK INTER + INTRA:         -11.306
REMARK INTER:                  -9.338
REMARK INTRA:                  -1.968
REMARK UNBOUND:                -1.968
REMARK SMILES CCCCCCCCCCCCCCCC(=O)[O-]
REMARK SMILES IDX 9 1 10 2 11 3 12 4 13 5 14 6 15 7 16 8 17 9 18 10 8 11 7 12
REMARK SMILES IDX 6 13 5 14 4 15 3 16 2 17 1 18
REMARK H PARENT
REMARK Flexibility Score: inf
ROOT
ATOM      1  C   UNL     1     -14.933   5.596 -23.031  1.00  0.00     0.000 C 
ENDROOT
BRANCH   1   2
ATOM      2  C   UNL     1     -13.729   5.275 -22.123  1.00  0.00     0.000 C 
BRANCH   2   3
ATOM      3  C   UNL     1     -13.769   5.924 -20.728  1.00  0.00     0.000 C 
BRANCH   3   4
ATOM      4  C   UNL     1     -12.933   7.212 -20.647  1.00  0.00     0.000 C 
BRANCH   4   5
ATOM      5  C   UNL     1     -13.764   8.428 -20.206  1.00  0.00     0.000 C 
BRANCH   5   6
ATOM      6  C   UNL     1     -15.270   8.129 -20.147  1.00  0.00     0.006 C 
BRANCH   6   7
ATOM      7  C   UNL     1     -16.017   8.866 -21.262  1.00  0.00     0.053 C 
BRANCH   7   8
ATOM      8  C   UNL     1     -17.489   8.871 -20.990  1.00  0.00     0.041 C 
ATOM      9  O   UNL     1     -18.141   7.795 -21.009  1.00  0.00    -0.550 OA
ATOM     10  O   UNL     1     -18.132  10.060 -20.668  1.00  0.00    -0.550 OA
ENDBRANCH   7   8
ENDBRANCH   6   7
ENDBRANCH   5   6
ENDBRANCH   4   5
ENDBRANCH   3   4
ENDBRANCH   2   3
ENDBRANCH   1   2
BRANCH   1  11
ATOM     11  C   UNL     1     -16.016   4.501 -23.102  1.00  0.00     0.000 C 
BRANCH  11  12
ATOM     12  C   UNL     1     -17.055   4.539 -21.967  1.00  0.00    -0.000 C 
BRANCH  12  13
ATOM     13  C   UNL     1     -17.165   3.203 -21.212  1.00  0.00    -0.000 C 
BRANCH  13  14
ATOM     14  C   UNL     1     -16.442   3.238 -19.848  1.00  0.00    -0.000 C 
BRANCH  14  15
ATOM     15  C   UNL     1     -15.022   2.640 -19.874  1.00  0.00    -0.000 C 
BRANCH  15  16
ATOM     16  C   UNL     1     -14.962   1.104 -19.839  1.00  0.00    -0.000 C 
BRANCH  16  17
ATOM     17  C   UNL     1     -14.108   0.514 -20.970  1.00  0.00    -0.003 C 
ATOM     18  C   UNL     1     -13.961   1.508 -22.119  1.00  0.00     0.004 C 
ENDBRANCH  16  17
ENDBRANCH  15  16
ENDBRANCH  14  15
ENDBRANCH  13  14
ENDBRANCH  12  13
ENDBRANCH  11  12
ENDBRANCH   1  11
TORSDOF 14
ENDMDL
MODEL 2
REMARK VINA RESULT:    -5.119      1.921      3.343
REMARK INTER + INTRA:         -11.276
REMARK INTER:                  -9.530
REMARK INTRA:                  -1.746
REMARK UNBOUND:                -1.968
REMARK SMILES CCCCCCCCCCCCCCCC(=O)[O-]
REMARK SMILES IDX 9 1 10 2 11 3 12 4 13 5 14 6 15 7 16 8 17 9 18 10 8 11 7 12
REMARK SMILES IDX 6 13 5 14 4 15 3 16 2 17 1 18
REMARK H PARENT
REMARK Flexibility Score: inf
ROOT
ATOM      1  C   UNL     1     -17.555   4.606 -23.131  1.00  0.00     0.000 C 
ENDROOT
BRANCH   1   2
ATOM      2  C   UNL     1     -17.746   3.559 -22.016  1.00  0.00     0.000 C 
BRANCH   2   3
ATOM      3  C   UNL     1     -17.366   4.031 -20.601  1.00  0.00     0.000 C 
BRANCH   3   4
ATOM      4  C   UNL     1     -17.206   5.557 -20.506  1.00  0.00     0.000 C 
BRANCH   4   5
ATOM      5  C   UNL     1     -15.777   5.978 -20.128  1.00  0.00     0.000 C 
BRANCH   5   6
ATOM      6  C   UNL     1     -15.605   7.503 -20.057  1.00  0.00     0.006 C 
BRANCH   6   7
ATOM      7  C   UNL     1     -14.142   7.899 -20.272  1.00  0.00     0.053 C 
BRANCH   7   8
ATOM      8  C   UNL     1     -13.911   9.310 -19.828  1.00  0.00     0.041 C 
ATOM      9  O   UNL     1     -12.747   9.705 -19.556  1.00  0.00    -0.550 OA
ATOM     10  O   UNL     1     -14.975  10.201 -19.762  1.00  0.00    -0.550 OA
ENDBRANCH   7   8
ENDBRANCH   6   7
ENDBRANCH   5   6
ENDBRANCH   4   5
ENDBRANCH   3   4
ENDBRANCH   2   3
ENDBRANCH   1   2
BRANCH   1  11
ATOM     11  C   UNL     1     -16.341   4.375 -24.052  1.00  0.00     0.000 C 
BRANCH  11  12
ATOM     12  C   UNL     1     -15.036   5.047 -23.589  1.00  0.00    -0.000 C 
BRANCH  12  13
ATOM     13  C   UNL     1     -13.960   4.034 -23.159  1.00  0.00    -0.000 C 
BRANCH  13  14
ATOM     14  C   UNL     1     -14.491   2.584 -23.149  1.00  0.00    -0.000 C 
BRANCH  14  15
ATOM     15  C   UNL     1     -14.039   1.759 -21.928  1.00  0.00    -0.000 C 
BRANCH  15  16
ATOM     16  C   UNL     1     -15.143   0.918 -21.266  1.00  0.00    -0.000 C 
BRANCH  16  17
ATOM     17  C   UNL     1     -14.932   0.737 -19.756  1.00  0.00    -0.003 C 
ATOM     18  C   UNL     1     -14.558  -0.705 -19.426  1.00  0.00     0.004 C 
ENDBRANCH  16  17
ENDBRANCH  15  16
ENDBRANCH  14  15
ENDBRANCH  13  14
ENDBRANCH  12  13
ENDBRANCH  11  12
ENDBRANCH   1  11
TORSDOF 14
ENDMDL
MODEL 3
REMARK VINA RESULT:    -5.116      3.637      6.532
REMARK INTER + INTRA:         -11.271
REMARK INTER:                  -8.895
REMARK INTRA:                  -2.376
REMARK UNBOUND:                -1.968
REMARK SMILES CCCCCCCCCCCCCCCC(=O)[O-]
REMARK SMILES IDX 9 1 10 2 11 3 12 4 13 5 14 6 15 7 16 8 17 9 18 10 8 11 7 12
REMARK SMILES IDX 6 13 5 14 4 15 3 16 2 17 1 18
REMARK H PARENT
REMARK Flexibility Score: inf
ROOT
ATOM      1  C   UNL     1     -15.770   3.716 -23.915  1.00  0.00     0.000 C 
ENDROOT
BRANCH   1   2
ATOM      2  C   UNL     1     -17.221   3.596 -23.407  1.00  0.00     0.000 C 
BRANCH   2   3
ATOM      3  C   UNL     1     -17.400   2.752 -22.132  1.00  0.00     0.000 C 
BRANCH   3   4
ATOM      4  C   UNL     1     -17.207   3.570 -20.845  1.00  0.00     0.000 C 
BRANCH   4   5
ATOM      5  C   UNL     1     -16.134   2.971 -19.921  1.00  0.00     0.000 C 
BRANCH   5   6
ATOM      6  C   UNL     1     -15.340   1.838 -20.589  1.00  0.00     0.006 C 
BRANCH   6   7
ATOM      7  C   UNL     1     -14.921   0.784 -19.561  1.00  0.00     0.053 C 
BRANCH   7   8
ATOM      8  C   UNL     1     -14.343  -0.415 -20.246  1.00  0.00     0.041 C 
ATOM      9  O   UNL     1     -14.120  -0.391 -21.484  1.00  0.00    -0.550 OA
ATOM     10  O   UNL     1     -14.006  -1.542 -19.507  1.00  0.00    -0.550 OA
ENDBRANCH   7   8
ENDBRANCH   6   7
ENDBRANCH   5   6
ENDBRANCH   4   5
ENDBRANCH   3   4
ENDBRANCH   2   3
ENDBRANCH   1   2
BRANCH   1  11
ATOM     11  C   UNL     1     -15.047   5.026 -23.544  1.00  0.00     0.000 C 
BRANCH  11  12
ATOM     12  C   UNL     1     -13.955   4.884 -22.469  1.00  0.00    -0.000 C 
BRANCH  12  13
ATOM     13  C   UNL     1     -13.816   6.138 -21.588  1.00  0.00    -0.000 C 
BRANCH  13  14
ATOM     14  C   UNL     1     -14.397   5.928 -20.172  1.00  0.00    -0.000 C 
BRANCH  14  15
ATOM     15  C   UNL     1     -15.618   6.813 -19.858  1.00  0.00    -0.000 C 
BRANCH  15  16
ATOM     16  C   UNL     1     -16.289   7.457 -21.082  1.00  0.00    -0.000 C 
BRANCH  16  17
ATOM     17  C   UNL     1     -17.802   7.204 -21.137  1.00  0.00    -0.003 C 
ATOM     18  C   UNL     1     -18.272   7.015 -22.577  1.00  0.00     0.004 C 
ENDBRANCH  16  17
ENDBRANCH  15  16
ENDBRANCH  14  15
ENDBRANCH  13  14
ENDBRANCH  12  13
ENDBRANCH  11  12
ENDBRANCH   1  11
TORSDOF 14
ENDMDL
MODEL 4
REMARK VINA RESULT:    -5.110      3.477      6.325
REMARK INTER + INTRA:         -11.261
REMARK INTER:                  -9.062
REMARK INTRA:                  -2.198
REMARK UNBOUND:                -1.968
REMARK SMILES CCCCCCCCCCCCCCCC(=O)[O-]
REMARK SMILES IDX 9 1 10 2 11 3 12 4 13 5 14 6 15 7 16 8 17 9 18 10 8 11 7 12
REMARK SMILES IDX 6 13 5 14 4 15 3 16 2 17 1 18
REMARK H PARENT
REMARK Flexibility Score: inf
ROOT
ATOM      1  C   UNL     1     -17.759   3.364 -21.715  1.00  0.00     0.000 C 
ENDROOT
BRANCH   1   2
ATOM      2  C   UNL     1     -16.929   3.729 -20.467  1.00  0.00     0.000 C 
BRANCH   2   3
ATOM      3  C   UNL     1     -16.095   2.579 -19.876  1.00  0.00     0.000 C 
BRANCH   3   4
ATOM      4  C   UNL     1     -14.636   2.592 -20.361  1.00  0.00     0.000 C 
BRANCH   4   5
ATOM      5  C   UNL     1     -14.294   1.375 -21.236  1.00  0.00     0.000 C 
BRANCH   5   6
ATOM      6  C   UNL     1     -14.155   1.733 -22.724  1.00  0.00     0.006 C 
BRANCH   6   7
ATOM      7  C   UNL     1     -15.348   1.208 -23.526  1.00  0.00     0.053 C 
BRANCH   7   8
ATOM      8  C   UNL     1     -15.656  -0.205 -23.144  1.00  0.00     0.041 C 
ATOM      9  O   UNL     1     -14.876  -1.136 -23.475  1.00  0.00    -0.550 OA
ATOM     10  O   UNL     1     -16.780  -0.489 -22.378  1.00  0.00    -0.550 OA
ENDBRANCH   7   8
ENDBRANCH   6   7
ENDBRANCH   5   6
ENDBRANCH   4   5
ENDBRANCH   3   4
ENDBRANCH   2   3
ENDBRANCH   1   2
BRANCH   1  11
ATOM     11  C   UNL     1     -17.706   4.389 -22.865  1.00  0.00     0.000 C 
BRANCH  11  12
ATOM     12  C   UNL     1     -17.340   5.823 -22.442  1.00  0.00    -0.000 C 
BRANCH  12  13
ATOM     13  C   UNL     1     -16.059   6.339 -23.122  1.00  0.00    -0.000 C 
BRANCH  13  14
ATOM     14  C   UNL     1     -14.969   5.249 -23.224  1.00  0.00    -0.000 C 
BRANCH  14  15
ATOM     15  C   UNL     1     -13.770   5.471 -22.281  1.00  0.00    -0.000 C 
BRANCH  15  16
ATOM     16  C   UNL     1     -14.098   6.210 -20.974  1.00  0.00    -0.000 C 
BRANCH  16  17
ATOM     17  C   UNL     1     -13.050   7.272 -20.609  1.00  0.00    -0.003 C 
ATOM     18  C   UNL     1     -13.720   8.584 -20.211  1.00  0.00     0.004 C 
ENDBRANCH  16  17
ENDBRANCH  15  16
ENDBRANCH  14  15
ENDBRANCH  13  14
ENDBRANCH  12  13
ENDBRANCH  11  12
ENDBRANCH   1  11
TORSDOF 14
ENDMDL
MODEL 5
REMARK VINA RESULT:    -5.105      2.916      5.951
REMARK INTER + INTRA:         -11.252
REMARK INTER:                  -8.853
REMARK INTRA:                  -2.399
REMARK UNBOUND:                -1.968
REMARK SMILES CCCCCCCCCCCCCCCC(=O)[O-]
REMARK SMILES IDX 9 1 10 2 11 3 12 4 13 5 14 6 15 7 16 8 17 9 18 10 8 11 7 12
REMARK SMILES IDX 6 13 5 14 4 15 3 16 2 17 1 18
REMARK H PARENT
REMARK Flexibility Score: inf
ROOT
ATOM      1  C   UNL     1     -15.449   5.711 -23.952  1.00  0.00     0.000 C 
ENDROOT
BRANCH   1   2
ATOM      2  C   UNL     1     -16.676   4.827 -23.650  1.00  0.00     0.000 C 
BRANCH   2   3
ATOM      3  C   UNL     1     -17.391   5.131 -22.322  1.00  0.00     0.000 C 
BRANCH   3   4
ATOM      4  C   UNL     1     -17.634   3.872 -21.474  1.00  0.00     0.000 C 
BRANCH   4   5
ATOM      5  C   UNL     1     -16.913   3.926 -20.118  1.00  0.00     0.000 C 
BRANCH   5   6
ATOM      6  C   UNL     1     -15.905   2.780 -19.934  1.00  0.00     0.006 C 
BRANCH   6   7
ATOM      7  C   UNL     1     -14.667   2.997 -20.808  1.00  0.00     0.053 C 
BRANCH   7   8
ATOM      8  C   UNL     1     -14.441   1.815 -21.698  1.00  0.00     0.041 C 
ATOM      9  O   UNL     1     -14.984   1.763 -22.832  1.00  0.00    -0.550 OA
ATOM     10  O   UNL     1     -13.590   0.794 -21.295  1.00  0.00    -0.550 OA
ENDBRANCH   7   8
ENDBRANCH   6   7
ENDBRANCH   5   6
ENDBRANCH   4   5
ENDBRANCH   3   4
ENDBRANCH   2   3
ENDBRANCH   1   2
BRANCH   1  11
ATOM     11  C   UNL     1     -15.648   6.757 -25.067  1.00  0.00     0.000 C 
BRANCH  11  12
ATOM     12  C   UNL     1     -16.553   7.943 -24.690  1.00  0.00    -0.000 C 
BRANCH  12  13
ATOM     13  C   UNL     1     -16.001   8.769 -23.514  1.00  0.00    -0.000 C 
BRANCH  13  14
ATOM     14  C   UNL     1     -17.005   8.869 -22.345  1.00  0.00    -0.000 C 
BRANCH  14  15
ATOM     15  C   UNL     1     -16.376   8.641 -20.957  1.00  0.00    -0.000 C 
BRANCH  15  16
ATOM     16  C   UNL     1     -14.881   8.283 -20.970  1.00  0.00    -0.000 C 
BRANCH  16  17
ATOM     17  C   UNL     1     -14.600   6.872 -20.435  1.00  0.00    -0.003 C 
ATOM     18  C   UNL     1     -13.218   6.390 -20.867  1.00  0.00     0.004 C 
ENDBRANCH  16  17
ENDBRANCH  15  16
ENDBRANCH  14  15
ENDBRANCH  13  14
ENDBRANCH  12  13
ENDBRANCH  11  12
ENDBRANCH   1  11
TORSDOF 14
ENDMDL
MODEL 6
REMARK VINA RESULT:    -5.105      2.025      4.765
REMARK INTER + INTRA:         -11.250
REMARK INTER:                  -9.082
REMARK INTRA:                  -2.168
REMARK UNBOUND:                -1.968
REMARK SMILES CCCCCCCCCCCCCCCC(=O)[O-]
REMARK SMILES IDX 9 1 10 2 11 3 12 4 13 5 14 6 15 7 16 8 17 9 18 10 8 11 7 12
REMARK SMILES IDX 6 13 5 14 4 15 3 16 2 17 1 18
REMARK H PARENT
REMARK Flexibility Score: inf
ROOT
ATOM      1  C   UNL     1     -15.612   1.749 -21.065  1.00  0.00     0.000 C 
ENDROOT
BRANCH   1   2
ATOM      2  C   UNL     1     -14.199   1.794 -21.681  1.00  0.00     0.000 C 
BRANCH   2   3
ATOM      3  C   UNL     1     -14.151   2.101 -23.189  1.00  0.00     0.000 C 
BRANCH   3   4
ATOM      4  C   UNL     1     -14.503   3.562 -23.510  1.00  0.00     0.000 C 
BRANCH   4   5
ATOM      5  C   UNL     1     -13.529   4.560 -22.864  1.00  0.00     0.000 C 
BRANCH   5   6
ATOM      6  C   UNL     1     -14.246   5.655 -22.060  1.00  0.00     0.006 C 
BRANCH   6   7
ATOM      7  C   UNL     1     -13.317   6.253 -21.000  1.00  0.00     0.053 C 
BRANCH   7   8
ATOM      8  C   UNL     1     -13.945   7.457 -20.372  1.00  0.00     0.041 C 
ATOM      9  O   UNL     1     -15.117   7.396 -19.916  1.00  0.00    -0.550 OA
ATOM     10  O   UNL     1     -13.218   8.635 -20.246  1.00  0.00    -0.550 OA
ENDBRANCH   7   8
ENDBRANCH   6   7
ENDBRANCH   5   6
ENDBRANCH   4   5
ENDBRANCH   3   4
ENDBRANCH   2   3
ENDBRANCH   1   2
BRANCH   1  11
ATOM     11  C   UNL     1     -15.878   2.779 -19.950  1.00  0.00     0.000 C 
BRANCH  11  12
ATOM     12  C   UNL     1     -16.864   3.900 -20.322  1.00  0.00    -0.000 C 
BRANCH  12  13
ATOM     13  C   UNL     1     -17.654   3.600 -21.608  1.00  0.00    -0.000 C 
BRANCH  13  14
ATOM     14  C   UNL     1     -17.803   4.845 -22.510  1.00  0.00    -0.000 C 
BRANCH  14  15
ATOM     15  C   UNL     1     -17.904   6.173 -21.734  1.00  0.00    -0.000 C 
BRANCH  15  16
ATOM     16  C   UNL     1     -17.957   7.435 -22.610  1.00  0.00    -0.000 C 
BRANCH  16  17
ATOM     17  C   UNL     1     -16.571   7.888 -23.090  1.00  0.00    -0.003 C 
ATOM     18  C   UNL     1     -16.614   8.318 -24.554  1.00  0.00     0.004 C 
ENDBRANCH  16  17
ENDBRANCH  15  16
ENDBRANCH  14  15
ENDBRANCH  13  14
ENDBRANCH  12  13
ENDBRANCH  11  12
ENDBRANCH   1  11
TORSDOF 14
ENDMDL
MODEL 7
REMARK VINA RESULT:    -5.104      2.272      5.339
REMARK INTER + INTRA:         -11.249
REMARK INTER:                  -9.029
REMARK INTRA:                  -2.220
REMARK UNBOUND:                -1.968
REMARK SMILES CCCCCCCCCCCCCCCC(=O)[O-]
REMARK SMILES IDX 9 1 10 2 11 3 12 4 13 5 14 6 15 7 16 8 17 9 18 10 8 11 7 12
REMARK SMILES IDX 6 13 5 14 4 15 3 16 2 17 1 18
REMARK H PARENT
REMARK Flexibility Score: inf
ROOT
ATOM      1  C   UNL     1     -15.637  -0.456 -22.423  1.00  0.00     0.000 C 
ENDROOT
BRANCH   1   2
ATOM      2  C   UNL     1     -17.149  -0.226 -22.628  1.00  0.00     0.000 C 
BRANCH   2   3
ATOM      3  C   UNL     1     -17.521   1.079 -23.353  1.00  0.00     0.000 C 
BRANCH   3   4
ATOM      4  C   UNL     1     -17.589   2.288 -22.405  1.00  0.00     0.000 C 
BRANCH   4   5
ATOM      5  C   UNL     1     -17.037   3.571 -23.046  1.00  0.00     0.000 C 
BRANCH   5   6
ATOM      6  C   UNL     1     -15.713   3.341 -23.792  1.00  0.00     0.006 C 
BRANCH   6   7
ATOM      7  C   UNL     1     -14.857   4.611 -23.790  1.00  0.00     0.053 C 
BRANCH   7   8
ATOM      8  C   UNL     1     -15.623   5.760 -24.365  1.00  0.00     0.041 C 
ATOM      9  O   UNL     1     -15.999   5.733 -25.566  1.00  0.00    -0.550 OA
ATOM     10  O   UNL     1     -15.965   6.840 -23.561  1.00  0.00    -0.550 OA
ENDBRANCH   7   8
ENDBRANCH   6   7
ENDBRANCH   5   6
ENDBRANCH   4   5
ENDBRANCH   3   4
ENDBRANCH   2   3
ENDBRANCH   1   2
BRANCH   1  11
ATOM     11  C   UNL     1     -15.239  -1.040 -21.053  1.00  0.00     0.000 C 
BRANCH  11  12
ATOM     12  C   UNL     1     -14.722  -0.010 -20.033  1.00  0.00    -0.000 C 
BRANCH  12  13
ATOM     13  C   UNL     1     -14.477   1.377 -20.653  1.00  0.00    -0.000 C 
BRANCH  13  14
ATOM     14  C   UNL     1     -15.071   2.516 -19.796  1.00  0.00    -0.000 C 
BRANCH  14  15
ATOM     15  C   UNL     1     -14.472   3.905 -20.097  1.00  0.00    -0.000 C 
BRANCH  15  16
ATOM     16  C   UNL     1     -15.494   5.050 -20.178  1.00  0.00    -0.000 C 
BRANCH  16  17
ATOM     17  C   UNL     1     -14.835   6.429 -20.323  1.00  0.00    -0.003 C 
ATOM     18  C   UNL     1     -13.367   6.294 -20.719  1.00  0.00     0.004 C 
ENDBRANCH  16  17
ENDBRANCH  15  16
ENDBRANCH  14  15
ENDBRANCH  13  14
ENDBRANCH  12  13
ENDBRANCH  11  12
ENDBRANCH   1  11
TORSDOF 14
ENDMDL
MODEL 8
REMARK VINA RESULT:    -5.104      1.969      3.532
REMARK INTER + INTRA:         -11.248
REMARK INTER:                  -9.525
REMARK INTRA:                  -1.724
REMARK UNBOUND:                -1.968
REMARK SMILES CCCCCCCCCCCCCCCC(=O)[O-]
REMARK SMILES IDX 9 1 10 2 11 3 12 4 13 5 14 6 15 7 16 8 17 9 18 10 8 11 7 12
REMARK SMILES IDX 6 13 5 14 4 15 3 16 2 17 1 18
REMARK H PARENT
REMARK Flexibility Score: inf
ROOT
ATOM      1  C   UNL     1     -17.642   3.246 -21.968  1.00  0.00     0.000 C 
ENDROOT
BRANCH   1   2
ATOM      2  C   UNL     1     -17.454   4.637 -22.607  1.00  0.00     0.000 C 
BRANCH   2   3
ATOM      3  C   UNL     1     -16.230   4.773 -23.531  1.00  0.00     0.000 C 
BRANCH   3   4
ATOM      4  C   UNL     1     -15.150   5.703 -22.955  1.00  0.00     0.000 C 
BRANCH   4   5
ATOM      5  C   UNL     1     -14.141   4.957 -22.067  1.00  0.00     0.000 C 
BRANCH   5   6
ATOM      6  C   UNL     1     -14.021   5.568 -20.662  1.00  0.00     0.006 C 
BRANCH   6   7
ATOM      7  C   UNL     1     -13.215   6.869 -20.699  1.00  0.00     0.053 C 
BRANCH   7   8
ATOM      8  C   UNL     1     -14.071   8.027 -20.292  1.00  0.00     0.041 C 
ATOM      9  O   UNL     1     -13.627   9.202 -20.373  1.00  0.00    -0.550 OA
ATOM     10  O   UNL     1     -15.377   7.812 -19.869  1.00  0.00    -0.550 OA
ENDBRANCH   7   8
ENDBRANCH   6   7
ENDBRANCH   5   6
ENDBRANCH   4   5
ENDBRANCH   3   4
ENDBRANCH   2   3
ENDBRANCH   1   2
BRANCH   1  11
ATOM     11  C   UNL     1     -17.029   2.070 -22.753  1.00  0.00     0.000 C 
BRANCH  11  12
ATOM     12  C   UNL     1     -17.954   0.853 -22.929  1.00  0.00    -0.000 C 
BRANCH  12  13
ATOM     13  C   UNL     1     -17.272  -0.476 -22.559  1.00  0.00    -0.000 C 
BRANCH  13  14
ATOM     14  C   UNL     1     -15.756  -0.311 -22.318  1.00  0.00    -0.000 C 
BRANCH  14  15
ATOM     15  C   UNL     1     -15.274  -0.855 -20.959  1.00  0.00    -0.000 C 
BRANCH  15  16
ATOM     16  C   UNL     1     -14.185  -0.015 -20.271  1.00  0.00    -0.000 C 
BRANCH  16  17
ATOM     17  C   UNL     1     -14.380   1.495 -20.471  1.00  0.00    -0.003 C 
ATOM     18  C   UNL     1     -15.301   2.073 -19.400  1.00  0.00     0.004 C 
ENDBRANCH  16  17
ENDBRANCH  15  16
ENDBRANCH  14  15
ENDBRANCH  13  14
ENDBRANCH  12  13
ENDBRANCH  11  12
ENDBRANCH   1  11
TORSDOF 14
ENDMDL
MODEL 9
REMARK VINA RESULT:    -5.062      1.644      3.108
REMARK INTER + INTRA:         -11.173
REMARK INTER:                  -8.709
REMARK INTRA:                  -2.464
REMARK UNBOUND:                -1.968
REMARK SMILES CCCCCCCCCCCCCCCC(=O)[O-]
REMARK SMILES IDX 9 1 10 2 11 3 12 4 13 5 14 6 15 7 16 8 17 9 18 10 8 11 7 12
REMARK SMILES IDX 6 13 5 14 4 15 3 16 2 17 1 18
REMARK H PARENT
REMARK Flexibility Score: inf
ROOT
ATOM      1  C   UNL     1     -13.903   4.675 -22.853  1.00  0.00     0.000 C 
ENDROOT
BRANCH   1   2
ATOM      2  C   UNL     1     -14.981   4.530 -23.946  1.00  0.00     0.000 C 
BRANCH   2   3
ATOM      3  C   UNL     1     -16.015   5.668 -24.002  1.00  0.00     0.000 C 
BRANCH   3   4
ATOM      4  C   UNL     1     -15.721   6.686 -25.117  1.00  0.00     0.000 C 
BRANCH   4   5
ATOM      5  C   UNL     1     -16.056   8.128 -24.703  1.00  0.00     0.000 C 
BRANCH   5   6
ATOM      6  C   UNL     1     -16.564   8.228 -23.256  1.00  0.00     0.006 C 
BRANCH   6   7
ATOM      7  C   UNL     1     -17.536   9.401 -23.097  1.00  0.00     0.053 C 
BRANCH   7   8
ATOM      8  C   UNL     1     -18.459   9.164 -21.944  1.00  0.00     0.041 C 
ATOM      9  O   UNL     1     -19.092   8.081 -21.851  1.00  0.00    -0.550 OA
ATOM     10  O   UNL     1     -18.582  10.122 -20.944  1.00  0.00    -0.550 OA
ENDBRANCH   7   8
ENDBRANCH   6   7
ENDBRANCH   5   6
ENDBRANCH   4   5
ENDBRANCH   3   4
ENDBRANCH   2   3
ENDBRANCH   1   2
BRANCH   1  11
ATOM     11  C   UNL     1     -14.085   5.876 -21.903  1.00  0.00     0.000 C 
BRANCH  11  12
ATOM     12  C   UNL     1     -14.495   5.511 -20.465  1.00  0.00    -0.000 C 
BRANCH  12  13
ATOM     13  C   UNL     1     -15.670   6.358 -19.945  1.00  0.00    -0.000 C 
BRANCH  13  14
ATOM     14  C   UNL     1     -17.040   5.771 -20.348  1.00  0.00    -0.000 C 
BRANCH  14  15
ATOM     15  C   UNL     1     -17.116   4.234 -20.253  1.00  0.00    -0.000 C 
BRANCH  15  16
ATOM     16  C   UNL     1     -17.572   3.524 -21.538  1.00  0.00    -0.000 C 
BRANCH  16  17
ATOM     17  C   UNL     1     -16.866   2.180 -21.761  1.00  0.00    -0.003 C 
ATOM     18  C   UNL     1     -15.620   2.066 -20.887  1.00  0.00     0.004 C 
ENDBRANCH  16  17
ENDBRANCH  15  16
ENDBRANCH  14  15
ENDBRANCH  13  14
ENDBRANCH  12  13
ENDBRANCH  11  12
ENDBRANCH   1  11
TORSDOF 14
ENDMDL
