MODEL 1
REMARK VINA RESULT:    -6.062      0.000      0.000
REMARK INTER + INTRA:          -6.856
REMARK INTER:                  -7.302
REMARK INTRA:                   0.446
REMARK UNBOUND:                 0.446
REMARK SMILES O=c1c(O)c(-c2ccc(O)c(O)c2)oc2cc(O)cc(O)c12
REMARK SMILES IDX 5 1 3 2 2 3 1 4 22 5 20 6 19 7 17 8 16 9 15 10 14 11 6 12
REMARK SMILES IDX 7 13 8 14 9 15 13 16 11 17 10 18 12 20 4 22 21 24 18 26
REMARK H PARENT 10 19 12 21 4 23 21 25 18 27
REMARK Flexibility Score: inf
ROOT
ATOM      1  C   UNL     1      26.964 -18.150   0.772  1.00  0.00     0.180 A 
ATOM      2  C   UNL     1      28.042 -17.584   0.070  1.00  0.00     0.208 A 
ATOM      3  C   UNL     1      29.342 -17.742   0.577  1.00  0.00     0.238 A 
ATOM      4  O   UNL     1      30.294 -17.170  -0.016  1.00  0.00    -0.285 OA
ATOM      5  C   UNL     1      29.555 -18.511   1.747  1.00  0.00     0.111 A 
ATOM      6  C   UNL     1      30.833 -18.774   2.325  1.00  0.00     0.134 A 
ATOM      7  C   UNL     1      30.914 -19.458   3.544  1.00  0.00     0.093 A 
ATOM      8  C   UNL     1      29.769 -19.944   4.174  1.00  0.00     0.123 A 
ATOM      9  C   UNL     1      28.517 -19.740   3.590  1.00  0.00     0.094 A 
ATOM     10  C   UNL     1      28.402 -19.028   2.394  1.00  0.00     0.146 A 
ATOM     11  O   UNL     1      27.191 -18.838   1.885  1.00  0.00    -0.452 OA
ENDROOT
BRANCH   1  12
ATOM     12  C   UNL     1      25.564 -18.015   0.309  1.00  0.00     0.025 A 
ATOM     13  C   UNL     1      25.235 -17.008  -0.610  1.00  0.00     0.016 A 
ATOM     14  C   UNL     1      23.924 -16.875  -1.077  1.00  0.00     0.051 A 
ATOM     15  C   UNL     1      22.927 -17.755  -0.644  1.00  0.00     0.157 A 
ATOM     16  C   UNL     1      24.565 -18.912   0.728  1.00  0.00     0.062 A 
ATOM     17  C   UNL     1      23.249 -18.782   0.260  1.00  0.00     0.158 A 
BRANCH  15  18
ATOM     18  O   UNL     1      21.628 -17.597  -1.124  1.00  0.00    -0.504 OA
ATOM     19  H   UNL     1      21.325 -18.003  -2.001  1.00  0.00     0.293 HD
ENDBRANCH  15  18
BRANCH  17  20
ATOM     20  O   UNL     1      22.263 -19.672   0.685  1.00  0.00    -0.504 OA
ATOM     21  H   UNL     1      21.872 -19.626   1.618  1.00  0.00     0.293 HD
ENDBRANCH  17  20
ENDBRANCH   1  12
BRANCH   2  22
ATOM     22  O   UNL     1      27.820 -16.895  -1.125  1.00  0.00    -0.502 OA
ATOM     23  H   UNL     1      28.216 -17.194  -2.008  1.00  0.00     0.293 HD
ENDBRANCH   2  22
BRANCH   6  24
ATOM     24  O   UNL     1      32.049 -18.411   1.735  1.00  0.00    -0.507 OA
ATOM     25  H   UNL     1      32.815 -17.967   2.217  1.00  0.00     0.293 HD
ENDBRANCH   6  24
BRANCH   8  26
ATOM     26  O   UNL     1      29.887 -20.635   5.378  1.00  0.00    -0.508 OA
ATOM     27  H   UNL     1      30.187 -20.173   6.228  1.00  0.00     0.293 HD
ENDBRANCH   8  26
TORSDOF 6
ENDMDL
MODEL 2
REMARK VINA RESULT:    -5.573      2.270      2.745
REMARK INTER + INTRA:          -6.267
REMARK INTER:                  -6.025
REMARK INTRA:                  -0.243
REMARK UNBOUND:                 0.446
REMARK SMILES O=c1c(O)c(-c2ccc(O)c(O)c2)oc2cc(O)cc(O)c12
REMARK SMILES IDX 5 1 3 2 2 3 1 4 22 5 20 6 19 7 17 8 16 9 15 10 14 11 6 12
REMARK SMILES IDX 7 13 8 14 9 15 13 16 11 17 10 18 12 20 4 22 21 24 18 26
REMARK H PARENT 10 19 12 21 4 23 21 25 18 27
REMARK Flexibility Score: inf
ROOT
ATOM      1  C   UNL     1      27.665 -19.129   1.426  1.00  0.00     0.180 A 
ATOM      2  C   UNL     1      28.332 -18.493   2.488  1.00  0.00     0.208 A 
ATOM      3  C   UNL     1      29.461 -19.111   3.050  1.00  0.00     0.238 A 
ATOM      4  O   UNL     1      30.008 -18.573   4.048  1.00  0.00    -0.285 OA
ATOM      5  C   UNL     1      29.943 -20.327   2.507  1.00  0.00     0.111 A 
ATOM      6  C   UNL     1      31.104 -21.018   2.969  1.00  0.00     0.134 A 
ATOM      7  C   UNL     1      31.426 -22.268   2.426  1.00  0.00     0.093 A 
ATOM      8  C   UNL     1      30.668 -22.823   1.397  1.00  0.00     0.123 A 
ATOM      9  C   UNL     1      29.561 -22.131   0.900  1.00  0.00     0.094 A 
ATOM     10  C   UNL     1      29.193 -20.899   1.447  1.00  0.00     0.146 A 
ATOM     11  O   UNL     1      28.122 -20.286   0.960  1.00  0.00    -0.452 OA
ENDROOT
BRANCH   1  12
ATOM     12  C   UNL     1      26.460 -18.549   0.791  1.00  0.00     0.025 A 
ATOM     13  C   UNL     1      26.597 -17.454  -0.075  1.00  0.00     0.016 A 
ATOM     14  C   UNL     1      25.476 -16.903  -0.703  1.00  0.00     0.051 A 
ATOM     15  C   UNL     1      24.206 -17.447  -0.486  1.00  0.00     0.157 A 
ATOM     16  C   UNL     1      25.186 -19.108   0.991  1.00  0.00     0.062 A 
ATOM     17  C   UNL     1      24.059 -18.558   0.362  1.00  0.00     0.158 A 
BRANCH  15  18
ATOM     18  O   UNL     1      23.105 -16.875  -1.123  1.00  0.00    -0.504 OA
ATOM     19  H   UNL     1      22.155 -17.070  -0.834  1.00  0.00     0.293 HD
ENDBRANCH  15  18
BRANCH  17  20
ATOM     20  O   UNL     1      22.798 -19.114   0.572  1.00  0.00    -0.504 OA
ATOM     21  H   UNL     1      22.318 -19.631  -0.154  1.00  0.00     0.293 HD
ENDBRANCH  17  20
ENDBRANCH   1  12
BRANCH   2  22
ATOM     22  O   UNL     1      27.886 -17.256   2.959  1.00  0.00    -0.502 OA
ATOM     23  H   UNL     1      28.477 -16.433   2.972  1.00  0.00     0.293 HD
ENDBRANCH   2  22
BRANCH   6  24
ATOM     24  O   UNL     1      31.985 -20.514   3.932  1.00  0.00    -0.507 OA
ATOM     25  H   UNL     1      32.933 -20.223   3.752  1.00  0.00     0.293 HD
ENDBRANCH   6  24
BRANCH   8  26
ATOM     26  O   UNL     1      31.026 -24.061   0.869  1.00  0.00    -0.508 OA
ATOM     27  H   UNL     1      31.358 -24.814   1.460  1.00  0.00     0.293 HD
ENDBRANCH   8  26
TORSDOF 6
ENDMDL
MODEL 3
REMARK VINA RESULT:    -4.551      4.501      6.794
REMARK INTER + INTRA:          -5.036
REMARK INTER:                  -5.013
REMARK INTRA:                  -0.023
REMARK UNBOUND:                 0.446
REMARK SMILES O=c1c(O)c(-c2ccc(O)c(O)c2)oc2cc(O)cc(O)c12
REMARK SMILES IDX 5 1 3 2 2 3 1 4 22 5 20 6 19 7 17 8 16 9 15 10 14 11 6 12
REMARK SMILES IDX 7 13 8 14 9 15 13 16 11 17 10 18 12 20 4 22 21 24 18 26
REMARK H PARENT 10 19 12 21 4 23 21 25 18 27
REMARK Flexibility Score: inf
ROOT
ATOM      1  C   UNL     1      29.970 -21.965   1.303  1.00  0.00     0.180 A 
ATOM      2  C   UNL     1      30.728 -21.616   2.434  1.00  0.00     0.208 A 
ATOM      3  C   UNL     1      30.576 -20.333   2.986  1.00  0.00     0.238 A 
ATOM      4  O   UNL     1      31.313 -20.002   3.952  1.00  0.00    -0.285 OA
ATOM      5  C   UNL     1      29.627 -19.437   2.437  1.00  0.00     0.111 A 
ATOM      6  C   UNL     1      29.358 -18.129   2.943  1.00  0.00     0.134 A 
ATOM      7  C   UNL     1      28.473 -17.290   2.255  1.00  0.00     0.093 A 
ATOM      8  C   UNL     1      27.801 -17.731   1.116  1.00  0.00     0.123 A 
ATOM      9  C   UNL     1      28.016 -19.027   0.643  1.00  0.00     0.094 A 
ATOM     10  C   UNL     1      28.921 -19.875   1.286  1.00  0.00     0.146 A 
ATOM     11  O   UNL     1      29.111 -21.091   0.791  1.00  0.00    -0.452 OA
ENDROOT
BRANCH   1  12
ATOM     12  C   UNL     1      30.084 -23.291   0.656  1.00  0.00     0.025 A 
ATOM     13  C   UNL     1      31.347 -23.760   0.262  1.00  0.00     0.016 A 
ATOM     14  C   UNL     1      31.482 -25.018  -0.331  1.00  0.00     0.051 A 
ATOM     15  C   UNL     1      30.361 -25.831  -0.527  1.00  0.00     0.157 A 
ATOM     16  C   UNL     1      28.961 -24.118   0.477  1.00  0.00     0.062 A 
ATOM     17  C   UNL     1      29.094 -25.382  -0.118  1.00  0.00     0.158 A 
BRANCH  15  18
ATOM     18  O   UNL     1      30.525 -27.081  -1.125  1.00  0.00    -0.504 OA
ATOM     19  H   UNL     1      29.755 -27.729  -1.237  1.00  0.00     0.293 HD
ENDBRANCH  15  18
BRANCH  17  20
ATOM     20  O   UNL     1      27.974 -26.192  -0.297  1.00  0.00    -0.504 OA
ATOM     21  H   UNL     1      27.068 -25.804  -0.529  1.00  0.00     0.293 HD
ENDBRANCH  17  20
ENDBRANCH   1  12
BRANCH   2  22
ATOM     22  O   UNL     1      31.604 -22.541   3.007  1.00  0.00    -0.502 OA
ATOM     23  H   UNL     1      32.566 -22.316   3.228  1.00  0.00     0.293 HD
ENDBRANCH   2  22
BRANCH   6  24
ATOM     24  O   UNL     1      29.907 -17.618   4.124  1.00  0.00    -0.507 OA
ATOM     25  H   UNL     1      30.883 -17.412   4.265  1.00  0.00     0.293 HD
ENDBRANCH   6  24
BRANCH   8  26
ATOM     26  O   UNL     1      26.915 -16.876   0.465  1.00  0.00    -0.508 OA
ATOM     27  H   UNL     1      26.410 -16.154   0.966  1.00  0.00     0.293 HD
ENDBRANCH   8  26
TORSDOF 6
ENDMDL
MODEL 4
REMARK VINA RESULT:    -3.716      1.256      2.960
REMARK INTER + INTRA:          -4.030
REMARK INTER:                  -4.181
REMARK INTRA:                   0.151
REMARK UNBOUND:                 0.446
REMARK SMILES O=c1c(O)c(-c2ccc(O)c(O)c2)oc2cc(O)cc(O)c12
REMARK SMILES IDX 5 1 3 2 2 3 1 4 22 5 20 6 19 7 17 8 16 9 15 10 14 11 6 12
REMARK SMILES IDX 7 13 8 14 9 15 13 16 11 17 10 18 12 20 4 22 21 24 18 26
REMARK H PARENT 10 19 12 21 4 23 21 25 18 27
REMARK Flexibility Score: inf
ROOT
ATOM      1  C   UNL     1      26.570 -18.269   0.919  1.00  0.00     0.180 A 
ATOM      2  C   UNL     1      26.858 -18.765   2.202  1.00  0.00     0.208 A 
ATOM      3  C   UNL     1      28.200 -18.882   2.601  1.00  0.00     0.238 A 
ATOM      4  O   UNL     1      28.453 -19.397   3.721  1.00  0.00    -0.285 OA
ATOM      5  C   UNL     1      29.234 -18.450   1.735  1.00  0.00     0.111 A 
ATOM      6  C   UNL     1      30.625 -18.482   2.052  1.00  0.00     0.134 A 
ATOM      7  C   UNL     1      31.565 -18.128   1.076  1.00  0.00     0.093 A 
ATOM      8  C   UNL     1      31.163 -17.684  -0.183  1.00  0.00     0.123 A 
ATOM      9  C   UNL     1      29.804 -17.597  -0.486  1.00  0.00     0.094 A 
ATOM     10  C   UNL     1      28.843 -17.979   0.454  1.00  0.00     0.146 A 
ATOM     11  O   UNL     1      27.562 -17.902   0.116  1.00  0.00    -0.452 OA
ENDROOT
BRANCH   1  12
ATOM     12  C   UNL     1      25.183 -18.129   0.422  1.00  0.00     0.025 A 
ATOM     13  C   UNL     1      24.856 -17.054  -0.420  1.00  0.00     0.016 A 
ATOM     14  C   UNL     1      23.559 -16.914  -0.919  1.00  0.00     0.051 A 
ATOM     15  C   UNL     1      22.572 -17.851  -0.597  1.00  0.00     0.157 A 
ATOM     16  C   UNL     1      24.195 -19.082   0.727  1.00  0.00     0.062 A 
ATOM     17  C   UNL     1      22.892 -18.944   0.226  1.00  0.00     0.158 A 
BRANCH  15  18
ATOM     18  O   UNL     1      21.285 -17.684  -1.107  1.00  0.00    -0.504 OA
ATOM     19  H   UNL     1      20.480 -17.557  -0.506  1.00  0.00     0.293 HD
ENDBRANCH  15  18
BRANCH  17  20
ATOM     20  O   UNL     1      21.917 -19.890   0.540  1.00  0.00    -0.504 OA
ATOM     21  H   UNL     1      20.933 -19.714   0.379  1.00  0.00     0.293 HD
ENDBRANCH  17  20
ENDBRANCH   1  12
BRANCH   2  22
ATOM     22  O   UNL     1      25.822 -19.114   3.072  1.00  0.00    -0.502 OA
ATOM     23  H   UNL     1      24.854 -19.157   2.775  1.00  0.00     0.293 HD
ENDBRANCH   2  22
BRANCH   6  24
ATOM     24  O   UNL     1      31.135 -18.825   3.309  1.00  0.00    -0.507 OA
ATOM     25  H   UNL     1      32.099 -18.731   3.586  1.00  0.00     0.293 HD
ENDBRANCH   6  24
BRANCH   8  26
ATOM     26  O   UNL     1      32.125 -17.323  -1.125  1.00  0.00    -0.508 OA
ATOM     27  H   UNL     1      32.563 -18.012  -1.726  1.00  0.00     0.293 HD
ENDBRANCH   8  26
TORSDOF 6
ENDMDL
