MODEL 1
REMARK VINA RESULT:    -6.347      0.000      0.000
REMARK INTER + INTRA:          -7.833
REMARK INTER:                  -7.646
REMARK INTRA:                  -0.187
REMARK UNBOUND:                -0.187
REMARK SMILES O=c1c(O)c(-c2ccc(O)c(O)c2)oc2cc(O)cc(O)c12
REMARK SMILES IDX 5 1 3 2 2 3 1 4 22 5 20 6 19 7 17 8 16 9 15 10 14 11 6 12
REMARK SMILES IDX 7 13 8 14 9 15 13 16 11 17 10 18 12 20 4 22 21 24 18 26
REMARK H PARENT 10 19 12 21 4 23 21 25 18 27
REMARK Flexibility Score: inf
ROOT
ATOM      1  C   UNL     1       5.347   9.635  35.118  1.00  0.00     0.180 A 
ATOM      2  C   UNL     1       3.942   9.717  35.074  1.00  0.00     0.208 A 
ATOM      3  C   UNL     1       3.225   9.705  36.281  1.00  0.00     0.238 A 
ATOM      4  O   UNL     1       1.964   9.767  36.253  1.00  0.00    -0.285 OA
ATOM      5  C   UNL     1       3.919   9.632  37.505  1.00  0.00     0.111 A 
ATOM      6  C   UNL     1       3.272   9.619  38.763  1.00  0.00     0.134 A 
ATOM      7  C   UNL     1       4.036   9.554  39.938  1.00  0.00     0.093 A 
ATOM      8  C   UNL     1       5.433   9.503  39.878  1.00  0.00     0.123 A 
ATOM      9  C   UNL     1       6.076   9.515  38.639  1.00  0.00     0.094 A 
ATOM     10  C   UNL     1       5.333   9.577  37.456  1.00  0.00     0.146 A 
ATOM     11  O   UNL     1       5.970   9.582  36.292  1.00  0.00    -0.452 OA
ENDROOT
BRANCH   1  12
ATOM     12  C   UNL     1       6.173   9.622  33.888  1.00  0.00     0.025 A 
ATOM     13  C   UNL     1       7.102  10.651  33.671  1.00  0.00     0.016 A 
ATOM     14  C   UNL     1       7.906  10.649  32.528  1.00  0.00     0.051 A 
ATOM     15  C   UNL     1       7.807   9.612  31.596  1.00  0.00     0.157 A 
ATOM     16  C   UNL     1       6.089   8.569  32.960  1.00  0.00     0.062 A 
ATOM     17  C   UNL     1       6.897   8.564  31.814  1.00  0.00     0.158 A 
BRANCH  15  18
ATOM     18  O   UNL     1       8.621   9.638  30.463  1.00  0.00    -0.504 OA
ATOM     19  H   UNL     1       8.569  10.386  29.781  1.00  0.00     0.293 HD
ENDBRANCH  15  18
BRANCH  17  20
ATOM     20  O   UNL     1       6.803   7.520  30.895  1.00  0.00    -0.504 OA
ATOM     21  H   UNL     1       6.066   7.489  30.199  1.00  0.00     0.293 HD
ENDBRANCH  17  20
ENDBRANCH   1  12
BRANCH   2  22
ATOM     22  O   UNL     1       3.280   9.838  33.850  1.00  0.00    -0.502 OA
ATOM     23  H   UNL     1       2.955   9.034  33.326  1.00  0.00     0.293 HD
ENDBRANCH   2  22
BRANCH   6  24
ATOM     24  O   UNL     1       1.880   9.670  38.856  1.00  0.00    -0.507 OA
ATOM     25  H   UNL     1       1.390  10.535  39.053  1.00  0.00     0.293 HD
ENDBRANCH   6  24
BRANCH   8  26
ATOM     26  O   UNL     1       6.192   9.440  41.044  1.00  0.00    -0.508 OA
ATOM     27  H   UNL     1       6.611   8.572  41.357  1.00  0.00     0.293 HD
ENDBRANCH   8  26
TORSDOF 6
ENDMDL
MODEL 2
REMARK VINA RESULT:    -5.975      1.693      2.640
REMARK INTER + INTRA:          -7.385
REMARK INTER:                  -7.174
REMARK INTRA:                  -0.211
REMARK UNBOUND:                -0.187
REMARK SMILES O=c1c(O)c(-c2ccc(O)c(O)c2)oc2cc(O)cc(O)c12
REMARK SMILES IDX 5 1 3 2 2 3 1 4 22 5 20 6 19 7 17 8 16 9 15 10 14 11 6 12
REMARK SMILES IDX 7 13 8 14 9 15 13 16 11 17 10 18 12 20 4 22 21 24 18 26
REMARK H PARENT 10 19 12 21 4 23 21 25 18 27
REMARK Flexibility Score: inf
ROOT
ATOM      1  C   UNL     1       5.875   8.747  34.696  1.00  0.00     0.180 A 
ATOM      2  C   UNL     1       6.077   7.620  35.516  1.00  0.00     0.208 A 
ATOM      3  C   UNL     1       5.413   7.553  36.751  1.00  0.00     0.238 A 
ATOM      4  O   UNL     1       5.595   6.553  37.499  1.00  0.00    -0.285 OA
ATOM      5  C   UNL     1       4.548   8.596  37.135  1.00  0.00     0.111 A 
ATOM      6  C   UNL     1       3.839   8.603  38.361  1.00  0.00     0.134 A 
ATOM      7  C   UNL     1       2.988   9.676  38.667  1.00  0.00     0.093 A 
ATOM      8  C   UNL     1       2.833  10.740  37.772  1.00  0.00     0.123 A 
ATOM      9  C   UNL     1       3.530  10.738  36.563  1.00  0.00     0.094 A 
ATOM     10  C   UNL     1       4.385   9.680  36.239  1.00  0.00     0.146 A 
ATOM     11  O   UNL     1       5.039   9.707  35.085  1.00  0.00    -0.452 OA
ENDROOT
BRANCH   1  12
ATOM     12  C   UNL     1       6.554   8.901  33.389  1.00  0.00     0.025 A 
ATOM     13  C   UNL     1       7.581   9.848  33.252  1.00  0.00     0.016 A 
ATOM     14  C   UNL     1       8.250   9.996  32.034  1.00  0.00     0.051 A 
ATOM     15  C   UNL     1       7.915   9.192  30.941  1.00  0.00     0.157 A 
ATOM     16  C   UNL     1       6.232   8.079  32.295  1.00  0.00     0.062 A 
ATOM     17  C   UNL     1       6.903   8.225  31.072  1.00  0.00     0.158 A 
BRANCH  15  18
ATOM     18  O   UNL     1       8.598   9.365  29.737  1.00  0.00    -0.504 OA
ATOM     19  H   UNL     1       8.785   8.591  29.110  1.00  0.00     0.293 HD
ENDBRANCH  15  18
BRANCH  17  20
ATOM     20  O   UNL     1       6.574   7.410  29.990  1.00  0.00    -0.504 OA
ATOM     21  H   UNL     1       5.849   6.704  30.058  1.00  0.00     0.293 HD
ENDBRANCH  17  20
ENDBRANCH   1  12
BRANCH   2  22
ATOM     22  O   UNL     1       6.901   6.576  35.090  1.00  0.00    -0.502 OA
ATOM     23  H   UNL     1       6.532   5.696  34.752  1.00  0.00     0.293 HD
ENDBRANCH   2  22
BRANCH   6  24
ATOM     24  O   UNL     1       3.972   7.556  39.273  1.00  0.00    -0.507 OA
ATOM     25  H   UNL     1       4.638   6.806  39.132  1.00  0.00     0.293 HD
ENDBRANCH   6  24
BRANCH   8  26
ATOM     26  O   UNL     1       1.987  11.805  38.075  1.00  0.00    -0.508 OA
ATOM     27  H   UNL     1       2.080  12.325  38.939  1.00  0.00     0.293 HD
ENDBRANCH   8  26
TORSDOF 6
ENDMDL
MODEL 3
REMARK VINA RESULT:    -5.972      0.566      1.418
REMARK INTER + INTRA:          -7.381
REMARK INTER:                  -7.138
REMARK INTRA:                  -0.243
REMARK UNBOUND:                -0.187
REMARK SMILES O=c1c(O)c(-c2ccc(O)c(O)c2)oc2cc(O)cc(O)c12
REMARK SMILES IDX 5 1 3 2 2 3 1 4 22 5 20 6 19 7 17 8 16 9 15 10 14 11 6 12
REMARK SMILES IDX 7 13 8 14 9 15 13 16 11 17 10 18 12 20 4 22 21 24 18 26
REMARK H PARENT 10 19 12 21 4 23 21 25 18 27
REMARK Flexibility Score: inf
ROOT
ATOM      1  C   UNL     1       5.357   9.586  35.205  1.00  0.00     0.180 A 
ATOM      2  C   UNL     1       3.959   9.754  35.188  1.00  0.00     0.208 A 
ATOM      3  C   UNL     1       3.270   9.822  36.409  1.00  0.00     0.238 A 
ATOM      4  O   UNL     1       2.016   9.962  36.406  1.00  0.00    -0.285 OA
ATOM      5  C   UNL     1       3.987   9.743  37.620  1.00  0.00     0.111 A 
ATOM      6  C   UNL     1       3.369   9.807  38.892  1.00  0.00     0.134 A 
ATOM      7  C   UNL     1       4.153   9.730  40.052  1.00  0.00     0.093 A 
ATOM      8  C   UNL     1       5.543   9.590  39.964  1.00  0.00     0.123 A 
ATOM      9  C   UNL     1       6.157   9.526  38.712  1.00  0.00     0.094 A 
ATOM     10  C   UNL     1       5.393   9.599  37.544  1.00  0.00     0.146 A 
ATOM     11  O   UNL     1       6.003   9.529  36.367  1.00  0.00    -0.452 OA
ENDROOT
BRANCH   1  12
ATOM     12  C   UNL     1       6.153   9.485  33.960  1.00  0.00     0.025 A 
ATOM     13  C   UNL     1       6.070   8.320  33.181  1.00  0.00     0.016 A 
ATOM     14  C   UNL     1       6.796   8.211  31.992  1.00  0.00     0.051 A 
ATOM     15  C   UNL     1       7.600   9.268  31.554  1.00  0.00     0.157 A 
ATOM     16  C   UNL     1       6.946  10.555  33.508  1.00  0.00     0.062 A 
ATOM     17  C   UNL     1       7.673  10.448  32.313  1.00  0.00     0.158 A 
BRANCH  15  18
ATOM     18  O   UNL     1       8.314   9.129  30.364  1.00  0.00    -0.504 OA
ATOM     19  H   UNL     1       7.860   9.156  29.459  1.00  0.00     0.293 HD
ENDBRANCH  15  18
BRANCH  17  20
ATOM     20  O   UNL     1       8.462  11.511  31.875  1.00  0.00    -0.504 OA
ATOM     21  H   UNL     1       8.844  12.191  32.524  1.00  0.00     0.293 HD
ENDBRANCH  17  20
ENDBRANCH   1  12
BRANCH   2  22
ATOM     22  O   UNL     1       3.278   9.880  33.975  1.00  0.00    -0.502 OA
ATOM     23  H   UNL     1       3.510  10.592  33.293  1.00  0.00     0.293 HD
ENDBRANCH   2  22
BRANCH   6  24
ATOM     24  O   UNL     1       1.985   9.948  39.012  1.00  0.00    -0.507 OA
ATOM     25  H   UNL     1       1.570  10.683  39.573  1.00  0.00     0.293 HD
ENDBRANCH   6  24
BRANCH   8  26
ATOM     26  O   UNL     1       6.323   9.514  41.116  1.00  0.00    -0.508 OA
ATOM     27  H   UNL     1       5.905   9.410  42.033  1.00  0.00     0.293 HD
ENDBRANCH   8  26
TORSDOF 6
ENDMDL
MODEL 4
REMARK VINA RESULT:    -5.503      1.432      2.267
REMARK INTER + INTRA:          -6.816
REMARK INTER:                  -6.494
REMARK INTRA:                  -0.322
REMARK UNBOUND:                -0.187
REMARK SMILES O=c1c(O)c(-c2ccc(O)c(O)c2)oc2cc(O)cc(O)c12
REMARK SMILES IDX 5 1 3 2 2 3 1 4 22 5 20 6 19 7 17 8 16 9 15 10 14 11 6 12
REMARK SMILES IDX 7 13 8 14 9 15 13 16 11 17 10 18 12 20 4 22 21 24 18 26
REMARK H PARENT 10 19 12 21 4 23 21 25 18 27
REMARK Flexibility Score: inf
ROOT
ATOM      1  C   UNL     1       5.282   9.744  36.595  1.00  0.00     0.180 A 
ATOM      2  C   UNL     1       4.028  10.338  36.836  1.00  0.00     0.208 A 
ATOM      3  C   UNL     1       3.666  10.643  38.157  1.00  0.00     0.238 A 
ATOM      4  O   UNL     1       2.540  11.166  38.387  1.00  0.00    -0.285 OA
ATOM      5  C   UNL     1       4.564  10.370  39.208  1.00  0.00     0.111 A 
ATOM      6  C   UNL     1       4.277  10.650  40.565  1.00  0.00     0.134 A 
ATOM      7  C   UNL     1       5.229  10.357  41.553  1.00  0.00     0.093 A 
ATOM      8  C   UNL     1       6.461   9.790  41.209  1.00  0.00     0.123 A 
ATOM      9  C   UNL     1       6.748   9.511  39.872  1.00  0.00     0.094 A 
ATOM     10  C   UNL     1       5.813   9.794  38.873  1.00  0.00     0.146 A 
ATOM     11  O   UNL     1       6.111   9.514  37.610  1.00  0.00    -0.452 OA
ENDROOT
BRANCH   1  12
ATOM     12  C   UNL     1       5.728   9.375  35.232  1.00  0.00     0.025 A 
ATOM     13  C   UNL     1       5.351   8.134  34.695  1.00  0.00     0.016 A 
ATOM     14  C   UNL     1       5.744   7.773  33.404  1.00  0.00     0.051 A 
ATOM     15  C   UNL     1       6.503   8.650  32.624  1.00  0.00     0.157 A 
ATOM     16  C   UNL     1       6.475  10.265  34.439  1.00  0.00     0.062 A 
ATOM     17  C   UNL     1       6.868   9.905  33.142  1.00  0.00     0.158 A 
BRANCH  15  18
ATOM     18  O   UNL     1       6.882   8.261  31.339  1.00  0.00    -0.504 OA
ATOM     19  H   UNL     1       7.118   7.301  31.116  1.00  0.00     0.293 HD
ENDBRANCH  15  18
BRANCH  17  20
ATOM     20  O   UNL     1       7.613  10.790  32.364  1.00  0.00    -0.504 OA
ATOM     21  H   UNL     1       8.351  11.358  32.766  1.00  0.00     0.293 HD
ENDBRANCH  17  20
ENDBRANCH   1  12
BRANCH   2  22
ATOM     22  O   UNL     1       3.176  10.645  35.772  1.00  0.00    -0.502 OA
ATOM     23  H   UNL     1       2.857   9.945  35.113  1.00  0.00     0.293 HD
ENDBRANCH   2  22
BRANCH   6  24
ATOM     24  O   UNL     1       3.058  11.217  40.940  1.00  0.00    -0.507 OA
ATOM     25  H   UNL     1       2.173  10.816  40.653  1.00  0.00     0.293 HD
ENDBRANCH   6  24
BRANCH   8  26
ATOM     26  O   UNL     1       7.407   9.499  42.190  1.00  0.00    -0.508 OA
ATOM     27  H   UNL     1       7.792   8.568  42.295  1.00  0.00     0.293 HD
ENDBRANCH   8  26
TORSDOF 6
ENDMDL
MODEL 5
REMARK VINA RESULT:    -5.365      9.751     13.221
REMARK INTER + INTRA:          -6.650
REMARK INTER:                  -6.329
REMARK INTRA:                  -0.320
REMARK UNBOUND:                -0.187
REMARK SMILES O=c1c(O)c(-c2ccc(O)c(O)c2)oc2cc(O)cc(O)c12
REMARK SMILES IDX 5 1 3 2 2 3 1 4 22 5 20 6 19 7 17 8 16 9 15 10 14 11 6 12
REMARK SMILES IDX 7 13 8 14 9 15 13 16 11 17 10 18 12 20 4 22 21 24 18 26
REMARK H PARENT 10 19 12 21 4 23 21 25 18 27
REMARK Flexibility Score: inf
ROOT
ATOM      1  C   UNL     1      13.278  13.929  43.894  1.00  0.00     0.180 A 
ATOM      2  C   UNL     1      13.890  12.816  44.503  1.00  0.00     0.208 A 
ATOM      3  C   UNL     1      13.418  11.530  44.194  1.00  0.00     0.238 A 
ATOM      4  O   UNL     1      13.951  10.526  44.742  1.00  0.00    -0.285 OA
ATOM      5  C   UNL     1      12.364  11.377  43.272  1.00  0.00     0.111 A 
ATOM      6  C   UNL     1      11.833  10.117  42.905  1.00  0.00     0.134 A 
ATOM      7  C   UNL     1      10.788  10.047  41.971  1.00  0.00     0.093 A 
ATOM      8  C   UNL     1      10.264  11.212  41.400  1.00  0.00     0.123 A 
ATOM      9  C   UNL     1      10.783  12.457  41.760  1.00  0.00     0.094 A 
ATOM     10  C   UNL     1      11.824  12.548  42.690  1.00  0.00     0.146 A 
ATOM     11  O   UNL     1      12.295  13.745  43.017  1.00  0.00    -0.452 OA
ENDROOT
BRANCH   1  12
ATOM     12  C   UNL     1      13.706  15.317  44.183  1.00  0.00     0.025 A 
ATOM     13  C   UNL     1      14.543  15.984  43.274  1.00  0.00     0.016 A 
ATOM     14  C   UNL     1      14.943  17.301  43.516  1.00  0.00     0.051 A 
ATOM     15  C   UNL     1      14.500  17.976  44.657  1.00  0.00     0.157 A 
ATOM     16  C   UNL     1      13.245  16.004  45.319  1.00  0.00     0.062 A 
ATOM     17  C   UNL     1      13.643  17.327  45.562  1.00  0.00     0.158 A 
BRANCH  15  18
ATOM     18  O   UNL     1      14.917  19.289  44.873  1.00  0.00    -0.504 OA
ATOM     19  H   UNL     1      14.848  19.733  45.781  1.00  0.00     0.293 HD
ENDBRANCH  15  18
BRANCH  17  20
ATOM     20  O   UNL     1      13.187  18.000  46.695  1.00  0.00    -0.504 OA
ATOM     21  H   UNL     1      12.327  17.731  47.162  1.00  0.00     0.293 HD
ENDBRANCH  17  20
ENDBRANCH   1  12
BRANCH   2  22
ATOM     22  O   UNL     1      14.967  12.992  45.375  1.00  0.00    -0.502 OA
ATOM     23  H   UNL     1      15.745  12.345  45.414  1.00  0.00     0.293 HD
ENDBRANCH   2  22
BRANCH   6  24
ATOM     24  O   UNL     1      12.335   8.937  43.456  1.00  0.00    -0.507 OA
ATOM     25  H   UNL     1      12.528   8.122  42.886  1.00  0.00     0.293 HD
ENDBRANCH   6  24
BRANCH   8  26
ATOM     26  O   UNL     1       9.226  11.144  40.473  1.00  0.00    -0.508 OA
ATOM     27  H   UNL     1       9.020  10.288  39.971  1.00  0.00     0.293 HD
ENDBRANCH   8  26
TORSDOF 6
ENDMDL
MODEL 6
REMARK VINA RESULT:    -5.350     11.773     13.995
REMARK INTER + INTRA:          -6.632
REMARK INTER:                  -6.319
REMARK INTRA:                  -0.313
REMARK UNBOUND:                -0.187
REMARK SMILES O=c1c(O)c(-c2ccc(O)c(O)c2)oc2cc(O)cc(O)c12
REMARK SMILES IDX 5 1 3 2 2 3 1 4 22 5 20 6 19 7 17 8 16 9 15 10 14 11 6 12
REMARK SMILES IDX 7 13 8 14 9 15 13 16 11 17 10 18 12 20 4 22 21 24 18 26
REMARK H PARENT 10 19 12 21 4 23 21 25 18 27
REMARK Flexibility Score: inf
ROOT
ATOM      1  C   UNL     1      14.836  15.561  43.314  1.00  0.00     0.180 A 
ATOM      2  C   UNL     1      14.114  14.393  43.002  1.00  0.00     0.208 A 
ATOM      3  C   UNL     1      12.726  14.378  43.217  1.00  0.00     0.238 A 
ATOM      4  O   UNL     1      12.069  13.333  42.952  1.00  0.00    -0.285 OA
ATOM      5  C   UNL     1      12.085  15.528  43.717  1.00  0.00     0.111 A 
ATOM      6  C   UNL     1      10.691  15.596  43.958  1.00  0.00     0.134 A 
ATOM      7  C   UNL     1      10.126  16.782  44.448  1.00  0.00     0.093 A 
ATOM      8  C   UNL     1      10.927  17.901  44.702  1.00  0.00     0.123 A 
ATOM      9  C   UNL     1      12.302  17.839  44.467  1.00  0.00     0.094 A 
ATOM     10  C   UNL     1      12.885  16.665  43.980  1.00  0.00     0.146 A 
ATOM     11  O   UNL     1      14.195  16.633  43.771  1.00  0.00    -0.452 OA
ENDROOT
BRANCH   1  12
ATOM     12  C   UNL     1      16.304  15.649  43.134  1.00  0.00     0.025 A 
ATOM     13  C   UNL     1      17.150  15.356  44.215  1.00  0.00     0.016 A 
ATOM     14  C   UNL     1      18.538  15.413  44.064  1.00  0.00     0.051 A 
ATOM     15  C   UNL     1      19.101  15.746  42.828  1.00  0.00     0.157 A 
ATOM     16  C   UNL     1      16.872  15.963  41.887  1.00  0.00     0.062 A 
ATOM     17  C   UNL     1      18.265  16.018  41.732  1.00  0.00     0.158 A 
BRANCH  15  18
ATOM     18  O   UNL     1      20.490  15.796  42.707  1.00  0.00    -0.504 OA
ATOM     19  H   UNL     1      20.984  15.293  41.980  1.00  0.00     0.293 HD
ENDBRANCH  15  18
BRANCH  17  20
ATOM     20  O   UNL     1      18.820  16.337  40.494  1.00  0.00    -0.504 OA
ATOM     21  H   UNL     1      19.824  16.374  40.356  1.00  0.00     0.293 HD
ENDBRANCH  17  20
ENDBRANCH   1  12
BRANCH   2  22
ATOM     22  O   UNL     1      14.765  13.283  42.461  1.00  0.00    -0.502 OA
ATOM     23  H   UNL     1      15.305  12.640  43.028  1.00  0.00     0.293 HD
ENDBRANCH   2  22
BRANCH   6  24
ATOM     24  O   UNL     1       9.866  14.497  43.713  1.00  0.00    -0.507 OA
ATOM     25  H   UNL     1       9.149  14.212  44.370  1.00  0.00     0.293 HD
ENDBRANCH   6  24
BRANCH   8  26
ATOM     26  O   UNL     1      10.367  19.080  45.188  1.00  0.00    -0.508 OA
ATOM     27  H   UNL     1      10.729  19.536  46.017  1.00  0.00     0.293 HD
ENDBRANCH   8  26
TORSDOF 6
ENDMDL
MODEL 7
REMARK VINA RESULT:    -5.325     10.377     13.314
REMARK INTER + INTRA:          -6.602
REMARK INTER:                  -6.280
REMARK INTRA:                  -0.323
REMARK UNBOUND:                -0.187
REMARK SMILES O=c1c(O)c(-c2ccc(O)c(O)c2)oc2cc(O)cc(O)c12
REMARK SMILES IDX 5 1 3 2 2 3 1 4 22 5 20 6 19 7 17 8 16 9 15 10 14 11 6 12
REMARK SMILES IDX 7 13 8 14 9 15 13 16 11 17 10 18 12 20 4 22 21 24 18 26
REMARK H PARENT 10 19 12 21 4 23 21 25 18 27
REMARK Flexibility Score: inf
ROOT
ATOM      1  C   UNL     1      13.078  13.881  43.830  1.00  0.00     0.180 A 
ATOM      2  C   UNL     1      12.415  14.591  44.849  1.00  0.00     0.208 A 
ATOM      3  C   UNL     1      12.975  15.792  45.312  1.00  0.00     0.238 A 
ATOM      4  O   UNL     1      12.395  16.432  46.233  1.00  0.00    -0.285 OA
ATOM      5  C   UNL     1      14.170  16.272  44.739  1.00  0.00     0.111 A 
ATOM      6  C   UNL     1      14.796  17.474  45.146  1.00  0.00     0.134 A 
ATOM      7  C   UNL     1      15.981  17.889  44.519  1.00  0.00     0.093 A 
ATOM      8  C   UNL     1      16.550  17.124  43.494  1.00  0.00     0.123 A 
ATOM      9  C   UNL     1      15.936  15.938  43.090  1.00  0.00     0.094 A 
ATOM     10  C   UNL     1      14.756  15.506  43.703  1.00  0.00     0.146 A 
ATOM     11  O   UNL     1      14.197  14.371  43.302  1.00  0.00    -0.452 OA
ENDROOT
BRANCH   1  12
ATOM     12  C   UNL     1      12.561  12.597  43.302  1.00  0.00     0.025 A 
ATOM     13  C   UNL     1      12.972  11.393  43.894  1.00  0.00     0.016 A 
ATOM     14  C   UNL     1      12.482  10.171  43.425  1.00  0.00     0.051 A 
ATOM     15  C   UNL     1      11.564  10.134  42.372  1.00  0.00     0.157 A 
ATOM     16  C   UNL     1      11.622  12.560  42.256  1.00  0.00     0.062 A 
ATOM     17  C   UNL     1      11.127  11.334  41.787  1.00  0.00     0.158 A 
BRANCH  15  18
ATOM     18  O   UNL     1      11.094   8.899  41.925  1.00  0.00    -0.504 OA
ATOM     19  H   UNL     1      11.675   8.069  41.929  1.00  0.00     0.293 HD
ENDBRANCH  15  18
BRANCH  17  20
ATOM     20  O   UNL     1      10.200  11.306  40.745  1.00  0.00    -0.504 OA
ATOM     21  H   UNL     1       9.746  10.444  40.462  1.00  0.00     0.293 HD
ENDBRANCH  17  20
ENDBRANCH   1  12
BRANCH   2  22
ATOM     22  O   UNL     1      11.206  14.121  45.366  1.00  0.00    -0.502 OA
ATOM     23  H   UNL     1      10.714  14.594  46.114  1.00  0.00     0.293 HD
ENDBRANCH   2  22
BRANCH   6  24
ATOM     24  O   UNL     1      14.253  18.258  46.165  1.00  0.00    -0.507 OA
ATOM     25  H   UNL     1      14.742  18.412  47.038  1.00  0.00     0.293 HD
ENDBRANCH   6  24
BRANCH   8  26
ATOM     26  O   UNL     1      17.725  17.536  42.870  1.00  0.00    -0.508 OA
ATOM     27  H   UNL     1      18.632  17.206  43.179  1.00  0.00     0.293 HD
ENDBRANCH   8  26
TORSDOF 6
ENDMDL
MODEL 8
REMARK VINA RESULT:    -5.255     10.259     11.980
REMARK INTER + INTRA:          -6.518
REMARK INTER:                  -6.251
REMARK INTRA:                  -0.267
REMARK UNBOUND:                -0.187
REMARK SMILES O=c1c(O)c(-c2ccc(O)c(O)c2)oc2cc(O)cc(O)c12
REMARK SMILES IDX 5 1 3 2 2 3 1 4 22 5 20 6 19 7 17 8 16 9 15 10 14 11 6 12
REMARK SMILES IDX 7 13 8 14 9 15 13 16 11 17 10 18 12 20 4 22 21 24 18 26
REMARK H PARENT 10 19 12 21 4 23 21 25 18 27
REMARK Flexibility Score: inf
ROOT
ATOM      1  C   UNL     1      12.111  11.803  43.610  1.00  0.00     0.180 A 
ATOM      2  C   UNL     1      13.283  12.584  43.613  1.00  0.00     0.208 A 
ATOM      3  C   UNL     1      13.166  13.981  43.682  1.00  0.00     0.238 A 
ATOM      4  O   UNL     1      14.209  14.691  43.674  1.00  0.00    -0.285 OA
ATOM      5  C   UNL     1      11.890  14.571  43.767  1.00  0.00     0.111 A 
ATOM      6  C   UNL     1      11.686  15.970  43.844  1.00  0.00     0.134 A 
ATOM      7  C   UNL     1      10.382  16.480  43.936  1.00  0.00     0.093 A 
ATOM      8  C   UNL     1       9.280  15.618  43.953  1.00  0.00     0.123 A 
ATOM      9  C   UNL     1       9.476  14.238  43.877  1.00  0.00     0.094 A 
ATOM     10  C   UNL     1      10.767  13.710  43.783  1.00  0.00     0.146 A 
ATOM     11  O   UNL     1      10.923  12.394  43.707  1.00  0.00    -0.452 OA
ENDROOT
BRANCH   1  12
ATOM     12  C   UNL     1      12.150  10.325  43.520  1.00  0.00     0.025 A 
ATOM     13  C   UNL     1      11.876   9.702  42.293  1.00  0.00     0.016 A 
ATOM     14  C   UNL     1      11.927   8.310  42.179  1.00  0.00     0.051 A 
ATOM     15  C   UNL     1      12.268   7.523  43.282  1.00  0.00     0.157 A 
ATOM     16  C   UNL     1      12.513   9.534  44.624  1.00  0.00     0.062 A 
ATOM     17  C   UNL     1      12.567   8.136  44.510  1.00  0.00     0.158 A 
BRANCH  15  18
ATOM     18  O   UNL     1      12.309   6.136  43.139  1.00  0.00    -0.504 OA
ATOM     19  H   UNL     1      12.841   5.546  43.769  1.00  0.00     0.293 HD
ENDBRANCH  15  18
BRANCH  17  20
ATOM     20  O   UNL     1      12.922   7.357  45.611  1.00  0.00    -0.504 OA
ATOM     21  H   UNL     1      13.715   6.727  45.582  1.00  0.00     0.293 HD
ENDBRANCH  17  20
ENDBRANCH   1  12
BRANCH   2  22
ATOM     22  O   UNL     1      14.538  11.972  43.578  1.00  0.00    -0.502 OA
ATOM     23  H   UNL     1      15.043  11.719  44.419  1.00  0.00     0.293 HD
ENDBRANCH   2  22
BRANCH   6  24
ATOM     24  O   UNL     1      12.765  16.855  43.830  1.00  0.00    -0.507 OA
ATOM     25  H   UNL     1      13.015  17.380  43.000  1.00  0.00     0.293 HD
ENDBRANCH   6  24
BRANCH   8  26
ATOM     26  O   UNL     1       7.985  16.124  44.046  1.00  0.00    -0.508 OA
ATOM     27  H   UNL     1       7.196  15.637  43.637  1.00  0.00     0.293 HD
ENDBRANCH   8  26
TORSDOF 6
ENDMDL
MODEL 9
REMARK VINA RESULT:    -5.242     10.494     13.010
REMARK INTER + INTRA:          -6.502
REMARK INTER:                  -6.179
REMARK INTRA:                  -0.323
REMARK UNBOUND:                -0.187
REMARK SMILES O=c1c(O)c(-c2ccc(O)c(O)c2)oc2cc(O)cc(O)c12
REMARK SMILES IDX 5 1 3 2 2 3 1 4 22 5 20 6 19 7 17 8 16 9 15 10 14 11 6 12
REMARK SMILES IDX 7 13 8 14 9 15 13 16 11 17 10 18 12 20 4 22 21 24 18 26
REMARK H PARENT 10 19 12 21 4 23 21 25 18 27
REMARK Flexibility Score: inf
ROOT
ATOM      1  C   UNL     1      11.662  16.389  43.367  1.00  0.00     0.180 A 
ATOM      2  C   UNL     1      12.554  17.442  43.088  1.00  0.00     0.208 A 
ATOM      3  C   UNL     1      12.073  18.760  43.108  1.00  0.00     0.238 A 
ATOM      4  O   UNL     1      12.860  19.712  42.848  1.00  0.00    -0.285 OA
ATOM      5  C   UNL     1      10.722  19.005  43.425  1.00  0.00     0.111 A 
ATOM      6  C   UNL     1      10.159  20.303  43.470  1.00  0.00     0.134 A 
ATOM      7  C   UNL     1       8.806  20.465  43.804  1.00  0.00     0.093 A 
ATOM      8  C   UNL     1       8.006  19.354  44.093  1.00  0.00     0.123 A 
ATOM      9  C   UNL     1       8.556  18.072  44.049  1.00  0.00     0.094 A 
ATOM     10  C   UNL     1       9.902  17.889  43.716  1.00  0.00     0.146 A 
ATOM     11  O   UNL     1      10.397  16.658  43.677  1.00  0.00    -0.452 OA
ENDROOT
BRANCH   1  12
ATOM     12  C   UNL     1      12.089  14.970  43.347  1.00  0.00     0.025 A 
ATOM     13  C   UNL     1      12.621  14.393  44.511  1.00  0.00     0.016 A 
ATOM     14  C   UNL     1      13.011  13.052  44.520  1.00  0.00     0.051 A 
ATOM     15  C   UNL     1      12.862  12.263  43.376  1.00  0.00     0.157 A 
ATOM     16  C   UNL     1      11.920  14.171  42.203  1.00  0.00     0.062 A 
ATOM     17  C   UNL     1      12.309  12.823  42.212  1.00  0.00     0.158 A 
BRANCH  15  18
ATOM     18  O   UNL     1      13.262  10.928  43.415  1.00  0.00    -0.504 OA
ATOM     19  H   UNL     1      13.878  10.531  42.715  1.00  0.00     0.293 HD
ENDBRANCH  15  18
BRANCH  17  20
ATOM     20  O   UNL     1      12.144  12.039  41.071  1.00  0.00    -0.504 OA
ATOM     21  H   UNL     1      11.423  12.241  40.387  1.00  0.00     0.293 HD
ENDBRANCH  17  20
ENDBRANCH   1  12
BRANCH   2  22
ATOM     22  O   UNL     1      13.900  17.177  42.825  1.00  0.00    -0.502 OA
ATOM     23  H   UNL     1      14.339  17.416  41.944  1.00  0.00     0.293 HD
ENDBRANCH   2  22
BRANCH   6  24
ATOM     24  O   UNL     1      10.932  21.431  43.188  1.00  0.00    -0.507 OA
ATOM     25  H   UNL     1      11.927  21.365  43.008  1.00  0.00     0.293 HD
ENDBRANCH   6  24
BRANCH   8  26
ATOM     26  O   UNL     1       6.663  19.513  44.425  1.00  0.00    -0.508 OA
ATOM     27  H   UNL     1       6.205  20.414  44.361  1.00  0.00     0.293 HD
ENDBRANCH   8  26
TORSDOF 6
ENDMDL
