MODEL 1
REMARK VINA RESULT:    -3.903      0.000      0.000
REMARK INTER + INTRA:         -11.502
REMARK INTER:                  -8.466
REMARK INTRA:                  -3.035
REMARK UNBOUND:                -3.035
REMARK SMILES CCCCCCCCCCCCCCCCCCCCCC(=O)[O-]
REMARK SMILES IDX 12 1 11 2 10 3 9 4 8 5 7 6 6 7 5 8 4 9 3 10 2 11 1 12 13 13
REMARK SMILES IDX 14 14 15 15 16 16 17 17 18 18 19 19 20 20 21 21 22 22 23 23
REMARK SMILES IDX 24 24
REMARK H PARENT
REMARK Flexibility Score: inf
ROOT
ATOM      1  C   UNL     1      30.888  32.841   4.068  1.00  0.00     0.000 C 
ENDROOT
BRANCH   1   2
ATOM      2  C   UNL     1      31.951  33.489   3.165  1.00  0.00     0.000 C 
BRANCH   2   3
ATOM      3  C   UNL     1      32.545  32.499   2.149  1.00  0.00     0.000 C 
BRANCH   3   4
ATOM      4  C   UNL     1      33.553  33.160   1.191  1.00  0.00    -0.000 C 
BRANCH   4   5
ATOM      5  C   UNL     1      32.912  33.514  -0.167  1.00  0.00    -0.000 C 
BRANCH   5   6
ATOM      6  C   UNL     1      31.514  32.904  -0.372  1.00  0.00    -0.000 C 
BRANCH   6   7
ATOM      7  C   UNL     1      30.403  33.965  -0.436  1.00  0.00    -0.000 C 
BRANCH   7   8
ATOM      8  C   UNL     1      30.826  35.317   0.167  1.00  0.00    -0.000 C 
BRANCH   8   9
ATOM      9  C   UNL     1      29.682  36.148   0.778  1.00  0.00    -0.000 C 
BRANCH   9  10
ATOM     10  C   UNL     1      30.009  36.677   2.185  1.00  0.00    -0.000 C 
BRANCH  10  11
ATOM     11  C   UNL     1      28.748  36.958   3.017  1.00  0.00    -0.003 C 
ATOM     12  C   UNL     1      27.488  37.059   2.159  1.00  0.00     0.004 C 
ENDBRANCH  10  11
ENDBRANCH   9  10
ENDBRANCH   8   9
ENDBRANCH   7   8
ENDBRANCH   6   7
ENDBRANCH   5   6
ENDBRANCH   4   5
ENDBRANCH   3   4
ENDBRANCH   2   3
ENDBRANCH   1   2
BRANCH   1  13
ATOM     13  C   UNL     1      29.477  33.417   3.845  1.00  0.00     0.000 C 
BRANCH  13  14
ATOM     14  C   UNL     1      28.696  32.798   2.671  1.00  0.00     0.000 C 
BRANCH  14  15
ATOM     15  C   UNL     1      27.179  33.019   2.776  1.00  0.00     0.000 C 
BRANCH  15  16
ATOM     16  C   UNL     1      26.610  33.561   1.456  1.00  0.00     0.000 C 
BRANCH  16  17
ATOM     17  C   UNL     1      25.101  33.849   1.531  1.00  0.00     0.000 C 
BRANCH  17  18
ATOM     18  C   UNL     1      24.211  32.849   0.767  1.00  0.00     0.000 C 
BRANCH  18  19
ATOM     19  C   UNL     1      23.379  33.494  -0.362  1.00  0.00     0.000 C 
BRANCH  19  20
ATOM     20  C   UNL     1      23.593  35.015  -0.451  1.00  0.00     0.006 C 
BRANCH  20  21
ATOM     21  C   UNL     1      22.327  35.801  -0.087  1.00  0.00     0.053 C 
BRANCH  21  22
ATOM     22  C   UNL     1      22.552  36.693   1.097  1.00  0.00     0.041 C 
ATOM     23  O   UNL     1      23.709  37.105   1.370  1.00  0.00    -0.550 OA
ATOM     24  O   UNL     1      21.475  37.099   1.876  1.00  0.00    -0.550 OA
ENDBRANCH  21  22
ENDBRANCH  20  21
ENDBRANCH  19  20
ENDBRANCH  18  19
ENDBRANCH  17  18
ENDBRANCH  16  17
ENDBRANCH  15  16
ENDBRANCH  14  15
ENDBRANCH  13  14
ENDBRANCH   1  13
TORSDOF 20
ENDMDL
MODEL 2
REMARK VINA RESULT:    -3.897      1.679      2.205
REMARK INTER + INTRA:         -11.487
REMARK INTER:                  -7.817
REMARK INTRA:                  -3.670
REMARK UNBOUND:                -3.035
REMARK SMILES CCCCCCCCCCCCCCCCCCCCCC(=O)[O-]
REMARK SMILES IDX 12 1 11 2 10 3 9 4 8 5 7 6 6 7 5 8 4 9 3 10 2 11 1 12 13 13
REMARK SMILES IDX 14 14 15 15 16 16 17 17 18 18 19 19 20 20 21 21 22 22 23 23
REMARK SMILES IDX 24 24
REMARK H PARENT
REMARK Flexibility Score: inf
ROOT
ATOM      1  C   UNL     1      29.816  32.767   3.732  1.00  0.00     0.000 C 
ENDROOT
BRANCH   1   2
ATOM      2  C   UNL     1      31.288  32.945   4.141  1.00  0.00     0.000 C 
BRANCH   2   3
ATOM      3  C   UNL     1      32.110  33.688   3.075  1.00  0.00     0.000 C 
BRANCH   3   4
ATOM      4  C   UNL     1      32.961  32.741   2.210  1.00  0.00    -0.000 C 
BRANCH   4   5
ATOM      5  C   UNL     1      32.667  32.914   0.704  1.00  0.00    -0.000 C 
BRANCH   5   6
ATOM      6  C   UNL     1      31.173  32.826   0.349  1.00  0.00    -0.000 C 
BRANCH   6   7
ATOM      7  C   UNL     1      30.666  34.063  -0.411  1.00  0.00    -0.000 C 
BRANCH   7   8
ATOM      8  C   UNL     1      29.403  34.680   0.217  1.00  0.00    -0.000 C 
BRANCH   8   9
ATOM      9  C   UNL     1      29.458  36.204   0.435  1.00  0.00    -0.000 C 
BRANCH   9  10
ATOM     10  C   UNL     1      30.766  36.669   1.097  1.00  0.00    -0.000 C 
BRANCH  10  11
ATOM     11  C   UNL     1      30.574  37.056   2.572  1.00  0.00    -0.003 C 
ATOM     12  C   UNL     1      29.159  37.547   2.873  1.00  0.00     0.004 C 
ENDBRANCH  10  11
ENDBRANCH   9  10
ENDBRANCH   8   9
ENDBRANCH   7   8
ENDBRANCH   6   7
ENDBRANCH   5   6
ENDBRANCH   4   5
ENDBRANCH   3   4
ENDBRANCH   2   3
ENDBRANCH   1   2
BRANCH   1  13
ATOM     13  C   UNL     1      28.980  34.045   3.926  1.00  0.00     0.000 C 
BRANCH  13  14
ATOM     14  C   UNL     1      27.468  33.883   3.683  1.00  0.00     0.000 C 
BRANCH  14  15
ATOM     15  C   UNL     1      27.141  32.840   2.603  1.00  0.00     0.000 C 
BRANCH  15  16
ATOM     16  C   UNL     1      26.192  33.424   1.545  1.00  0.00     0.000 C 
BRANCH  16  17
ATOM     17  C   UNL     1      26.001  34.944   1.691  1.00  0.00     0.000 C 
BRANCH  17  18
ATOM     18  C   UNL     1      25.674  35.684   0.379  1.00  0.00     0.000 C 
BRANCH  18  19
ATOM     19  C   UNL     1      25.900  34.833  -0.889  1.00  0.00     0.000 C 
BRANCH  19  20
ATOM     20  C   UNL     1      24.736  34.953  -1.889  1.00  0.00     0.006 C 
BRANCH  20  21
ATOM     21  C   UNL     1      23.908  33.665  -1.973  1.00  0.00     0.053 C 
BRANCH  21  22
ATOM     22  C   UNL     1      23.083  33.456  -0.740  1.00  0.00     0.041 C 
ATOM     23  O   UNL     1      22.211  34.303  -0.409  1.00  0.00    -0.550 OA
ATOM     24  O   UNL     1      23.250  32.307   0.023  1.00  0.00    -0.550 OA
ENDBRANCH  21  22
ENDBRANCH  20  21
ENDBRANCH  19  20
ENDBRANCH  18  19
ENDBRANCH  17  18
ENDBRANCH  16  17
ENDBRANCH  15  16
ENDBRANCH  14  15
ENDBRANCH  13  14
ENDBRANCH   1  13
TORSDOF 20
ENDMDL
MODEL 3
REMARK VINA RESULT:    -3.886      2.307      4.200
REMARK INTER + INTRA:         -11.465
REMARK INTER:                  -8.165
REMARK INTRA:                  -3.300
REMARK UNBOUND:                -3.035
REMARK SMILES CCCCCCCCCCCCCCCCCCCCCC(=O)[O-]
REMARK SMILES IDX 12 1 11 2 10 3 9 4 8 5 7 6 6 7 5 8 4 9 3 10 2 11 1 12 13 13
REMARK SMILES IDX 14 14 15 15 16 16 17 17 18 18 19 19 20 20 21 21 22 22 23 23
REMARK SMILES IDX 24 24
REMARK H PARENT
REMARK Flexibility Score: inf
ROOT
ATOM      1  C   UNL     1      27.072  32.872   2.774  1.00  0.00     0.000 C 
ENDROOT
BRANCH   1   2
ATOM      2  C   UNL     1      27.775  33.891   3.687  1.00  0.00     0.000 C 
BRANCH   2   3
ATOM      3  C   UNL     1      29.301  33.895   3.503  1.00  0.00     0.000 C 
BRANCH   3   4
ATOM      4  C   UNL     1      29.805  35.119   2.718  1.00  0.00    -0.000 C 
BRANCH   4   5
ATOM      5  C   UNL     1      30.151  34.765   1.255  1.00  0.00    -0.000 C 
BRANCH   5   6
ATOM      6  C   UNL     1      30.415  33.267   1.026  1.00  0.00    -0.000 C 
BRANCH   6   7
ATOM      7  C   UNL     1      31.628  33.008   0.116  1.00  0.00    -0.000 C 
BRANCH   7   8
ATOM      8  C   UNL     1      32.974  33.234   0.830  1.00  0.00    -0.000 C 
BRANCH   8   9
ATOM      9  C   UNL     1      33.122  32.525   2.189  1.00  0.00    -0.000 C 
BRANCH   9  10
ATOM     10  C   UNL     1      33.086  33.498   3.380  1.00  0.00    -0.000 C 
BRANCH  10  11
ATOM     11  C   UNL     1      33.802  34.823   3.080  1.00  0.00    -0.003 C 
ATOM     12  C   UNL     1      35.291  34.778   3.420  1.00  0.00     0.004 C 
ENDBRANCH  10  11
ENDBRANCH   9  10
ENDBRANCH   8   9
ENDBRANCH   7   8
ENDBRANCH   6   7
ENDBRANCH   5   6
ENDBRANCH   4   5
ENDBRANCH   3   4
ENDBRANCH   2   3
ENDBRANCH   1   2
BRANCH   1  13
ATOM     13  C   UNL     1      26.036  33.519   1.837  1.00  0.00     0.000 C 
BRANCH  13  14
ATOM     14  C   UNL     1      26.605  34.091   0.525  1.00  0.00     0.000 C 
BRANCH  14  15
ATOM     15  C   UNL     1      26.617  35.626   0.493  1.00  0.00     0.000 C 
BRANCH  15  16
ATOM     16  C   UNL     1      25.771  36.206   1.636  1.00  0.00     0.000 C 
BRANCH  16  17
ATOM     17  C   UNL     1      24.458  36.839   1.143  1.00  0.00     0.000 C 
BRANCH  17  18
ATOM     18  C   UNL     1      23.360  35.832   0.748  1.00  0.00     0.000 C 
BRANCH  18  19
ATOM     19  C   UNL     1      23.139  35.717  -0.775  1.00  0.00     0.000 C 
BRANCH  19  20
ATOM     20  C   UNL     1      23.456  34.308  -1.307  1.00  0.00     0.006 C 
BRANCH  20  21
ATOM     21  C   UNL     1      23.021  33.208  -0.330  1.00  0.00     0.053 C 
BRANCH  21  22
ATOM     22  C   UNL     1      22.147  32.190  -0.998  1.00  0.00     0.041 C 
ATOM     23  O   UNL     1      22.376  30.961  -0.848  1.00  0.00    -0.550 OA
ATOM     24  O   UNL     1      21.055  32.599  -1.754  1.00  0.00    -0.550 OA
ENDBRANCH  21  22
ENDBRANCH  20  21
ENDBRANCH  19  20
ENDBRANCH  18  19
ENDBRANCH  17  18
ENDBRANCH  16  17
ENDBRANCH  15  16
ENDBRANCH  14  15
ENDBRANCH  13  14
ENDBRANCH   1  13
TORSDOF 20
ENDMDL
MODEL 4
REMARK VINA RESULT:    -3.838      4.239      8.165
REMARK INTER + INTRA:         -11.361
REMARK INTER:                  -8.462
REMARK INTRA:                  -2.899
REMARK UNBOUND:                -3.035
REMARK SMILES CCCCCCCCCCCCCCCCCCCCCC(=O)[O-]
REMARK SMILES IDX 12 1 11 2 10 3 9 4 8 5 7 6 6 7 5 8 4 9 3 10 2 11 1 12 13 13
REMARK SMILES IDX 14 14 15 15 16 16 17 17 18 18 19 19 20 20 21 21 22 22 23 23
REMARK SMILES IDX 24 24
REMARK H PARENT
REMARK Flexibility Score: inf
ROOT
ATOM      1  C   UNL     1      29.561  33.036   3.858  1.00  0.00     0.000 C 
ENDROOT
BRANCH   1   2
ATOM      2  C   UNL     1      28.599  34.169   4.252  1.00  0.00     0.000 C 
BRANCH   2   3
ATOM      3  C   UNL     1      27.175  33.947   3.718  1.00  0.00     0.000 C 
BRANCH   3   4
ATOM      4  C   UNL     1      27.110  32.866   2.623  1.00  0.00    -0.000 C 
BRANCH   4   5
ATOM      5  C   UNL     1      26.780  33.466   1.239  1.00  0.00    -0.000 C 
BRANCH   5   6
ATOM      6  C   UNL     1      25.416  34.175   1.179  1.00  0.00    -0.000 C 
BRANCH   6   7
ATOM      7  C   UNL     1      25.496  35.570   0.537  1.00  0.00    -0.000 C 
BRANCH   7   8
ATOM      8  C   UNL     1      25.384  36.713   1.562  1.00  0.00    -0.000 C 
BRANCH   8   9
ATOM      9  C   UNL     1      26.726  37.316   2.019  1.00  0.00    -0.000 C 
BRANCH   9  10
ATOM     10  C   UNL     1      27.893  36.965   1.081  1.00  0.00    -0.000 C 
BRANCH  10  11
ATOM     11  C   UNL     1      29.238  36.883   1.818  1.00  0.00    -0.003 C 
ATOM     12  C   UNL     1      30.397  36.518   0.892  1.00  0.00     0.004 C 
ENDBRANCH  10  11
ENDBRANCH   9  10
ENDBRANCH   8   9
ENDBRANCH   7   8
ENDBRANCH   6   7
ENDBRANCH   5   6
ENDBRANCH   4   5
ENDBRANCH   3   4
ENDBRANCH   2   3
ENDBRANCH   1   2
BRANCH   1  13
ATOM     13  C   UNL     1      30.716  33.513   2.959  1.00  0.00     0.000 C 
BRANCH  13  14
ATOM     14  C   UNL     1      30.800  32.830   1.581  1.00  0.00     0.000 C 
BRANCH  14  15
ATOM     15  C   UNL     1      32.036  33.254   0.773  1.00  0.00     0.000 C 
BRANCH  15  16
ATOM     16  C   UNL     1      33.329  32.885   1.515  1.00  0.00     0.000 C 
BRANCH  16  17
ATOM     17  C   UNL     1      34.325  34.056   1.594  1.00  0.00     0.000 C 
BRANCH  17  18
ATOM     18  C   UNL     1      34.166  34.959   2.834  1.00  0.00     0.000 C 
BRANCH  18  19
ATOM     19  C   UNL     1      34.177  34.188   4.171  1.00  0.00     0.000 C 
BRANCH  19  20
ATOM     20  C   UNL     1      35.193  34.766   5.172  1.00  0.00     0.006 C 
BRANCH  20  21
ATOM     21  C   UNL     1      34.744  34.582   6.627  1.00  0.00     0.053 C 
BRANCH  21  22
ATOM     22  C   UNL     1      34.730  35.883   7.370  1.00  0.00     0.041 C 
ATOM     23  O   UNL     1      35.217  36.919   6.845  1.00  0.00    -0.550 OA
ATOM     24  O   UNL     1      34.144  35.959   8.627  1.00  0.00    -0.550 OA
ENDBRANCH  21  22
ENDBRANCH  20  21
ENDBRANCH  19  20
ENDBRANCH  18  19
ENDBRANCH  17  18
ENDBRANCH  16  17
ENDBRANCH  15  16
ENDBRANCH  14  15
ENDBRANCH  13  14
ENDBRANCH   1  13
TORSDOF 20
ENDMDL
MODEL 5
REMARK VINA RESULT:    -3.821      3.532      7.557
REMARK INTER + INTRA:         -11.324
REMARK INTER:                  -7.817
REMARK INTRA:                  -3.507
REMARK UNBOUND:                -3.035
REMARK SMILES CCCCCCCCCCCCCCCCCCCCCC(=O)[O-]
REMARK SMILES IDX 12 1 11 2 10 3 9 4 8 5 7 6 6 7 5 8 4 9 3 10 2 11 1 12 13 13
REMARK SMILES IDX 14 14 15 15 16 16 17 17 18 18 19 19 20 20 21 21 22 22 23 23
REMARK SMILES IDX 24 24
REMARK H PARENT
REMARK Flexibility Score: inf
ROOT
ATOM      1  C   UNL     1      29.237  33.718   3.520  1.00  0.00     0.000 C 
ENDROOT
BRANCH   1   2
ATOM      2  C   UNL     1      28.232  32.804   2.799  1.00  0.00     0.000 C 
BRANCH   2   3
ATOM      3  C   UNL     1      26.774  33.230   3.034  1.00  0.00     0.000 C 
BRANCH   3   4
ATOM      4  C   UNL     1      25.939  33.241   1.740  1.00  0.00    -0.000 C 
BRANCH   4   5
ATOM      5  C   UNL     1      26.670  33.962   0.588  1.00  0.00    -0.000 C 
BRANCH   5   6
ATOM      6  C   UNL     1      26.027  35.301   0.187  1.00  0.00    -0.000 C 
BRANCH   6   7
ATOM      7  C   UNL     1      25.158  35.904   1.304  1.00  0.00    -0.000 C 
BRANCH   7   8
ATOM      8  C   UNL     1      23.654  35.879   0.976  1.00  0.00    -0.000 C 
BRANCH   8   9
ATOM      9  C   UNL     1      23.313  35.764  -0.522  1.00  0.00    -0.000 C 
BRANCH   9  10
ATOM     10  C   UNL     1      22.352  34.604  -0.831  1.00  0.00    -0.000 C 
BRANCH  10  11
ATOM     11  C   UNL     1      23.092  33.305  -1.189  1.00  0.00    -0.003 C 
ATOM     12  C   UNL     1      23.006  32.254  -0.083  1.00  0.00     0.004 C 
ENDBRANCH  10  11
ENDBRANCH   9  10
ENDBRANCH   8   9
ENDBRANCH   7   8
ENDBRANCH   6   7
ENDBRANCH   5   6
ENDBRANCH   4   5
ENDBRANCH   3   4
ENDBRANCH   2   3
ENDBRANCH   1   2
BRANCH   1  13
ATOM     13  C   UNL     1      28.793  35.192   3.553  1.00  0.00     0.000 C 
BRANCH  13  14
ATOM     14  C   UNL     1      29.162  36.016   2.306  1.00  0.00     0.000 C 
BRANCH  14  15
ATOM     15  C   UNL     1      30.661  35.967   1.974  1.00  0.00     0.000 C 
BRANCH  15  16
ATOM     16  C   UNL     1      30.884  35.690   0.480  1.00  0.00     0.000 C 
BRANCH  16  17
ATOM     17  C   UNL     1      30.257  34.362   0.020  1.00  0.00     0.000 C 
BRANCH  17  18
ATOM     18  C   UNL     1      31.034  33.099   0.441  1.00  0.00     0.000 C 
BRANCH  18  19
ATOM     19  C   UNL     1      32.498  33.077  -0.049  1.00  0.00     0.000 C 
BRANCH  19  20
ATOM     20  C   UNL     1      33.485  32.716   1.076  1.00  0.00     0.006 C 
BRANCH  20  21
ATOM     21  C   UNL     1      32.912  33.014   2.468  1.00  0.00     0.053 C 
BRANCH  21  22
ATOM     22  C   UNL     1      33.687  34.092   3.165  1.00  0.00     0.041 C 
ATOM     23  O   UNL     1      34.025  35.133   2.543  1.00  0.00    -0.550 OA
ATOM     24  O   UNL     1      33.999  33.962   4.513  1.00  0.00    -0.550 OA
ENDBRANCH  21  22
ENDBRANCH  20  21
ENDBRANCH  19  20
ENDBRANCH  18  19
ENDBRANCH  17  18
ENDBRANCH  16  17
ENDBRANCH  15  16
ENDBRANCH  14  15
ENDBRANCH  13  14
ENDBRANCH   1  13
TORSDOF 20
ENDMDL
MODEL 6
REMARK VINA RESULT:    -3.796      3.436      6.817
REMARK INTER + INTRA:         -11.270
REMARK INTER:                  -7.065
REMARK INTRA:                  -4.206
REMARK UNBOUND:                -3.035
REMARK SMILES CCCCCCCCCCCCCCCCCCCCCC(=O)[O-]
REMARK SMILES IDX 12 1 11 2 10 3 9 4 8 5 7 6 6 7 5 8 4 9 3 10 2 11 1 12 13 13
REMARK SMILES IDX 14 14 15 15 16 16 17 17 18 18 19 19 20 20 21 21 22 22 23 23
REMARK SMILES IDX 24 24
REMARK H PARENT
REMARK Flexibility Score: inf
ROOT
ATOM      1  C   UNL     1      30.805  33.593   3.143  1.00  0.00     0.000 C 
ENDROOT
BRANCH   1   2
ATOM      2  C   UNL     1      29.591  33.114   3.957  1.00  0.00     0.000 C 
BRANCH   2   3
ATOM      3  C   UNL     1      28.488  34.181   4.054  1.00  0.00     0.000 C 
BRANCH   3   4
ATOM      4  C   UNL     1      27.087  33.621   3.744  1.00  0.00    -0.000 C 
BRANCH   4   5
ATOM      5  C   UNL     1      27.045  32.889   2.386  1.00  0.00    -0.000 C 
BRANCH   5   6
ATOM      6  C   UNL     1      26.061  33.507   1.378  1.00  0.00    -0.000 C 
BRANCH   6   7
ATOM      7  C   UNL     1      26.755  34.411   0.344  1.00  0.00    -0.000 C 
BRANCH   7   8
ATOM      8  C   UNL     1      26.832  35.883   0.787  1.00  0.00    -0.000 C 
BRANCH   8   9
ATOM      9  C   UNL     1      27.871  36.739   0.038  1.00  0.00    -0.000 C 
BRANCH   9  10
ATOM     10  C   UNL     1      28.749  37.579   0.980  1.00  0.00    -0.000 C 
BRANCH  10  11
ATOM     11  C   UNL     1      28.271  37.520   2.440  1.00  0.00    -0.003 C 
ATOM     12  C   UNL     1      29.395  37.786   3.439  1.00  0.00     0.004 C 
ENDBRANCH  10  11
ENDBRANCH   9  10
ENDBRANCH   8   9
ENDBRANCH   7   8
ENDBRANCH   6   7
ENDBRANCH   5   6
ENDBRANCH   4   5
ENDBRANCH   3   4
ENDBRANCH   2   3
ENDBRANCH   1   2
BRANCH   1  13
ATOM     13  C   UNL     1      30.411  34.435   1.916  1.00  0.00     0.000 C 
BRANCH  13  14
ATOM     14  C   UNL     1      30.253  33.647   0.602  1.00  0.00     0.000 C 
BRANCH  14  15
ATOM     15  C   UNL     1      30.719  34.434  -0.632  1.00  0.00     0.000 C 
BRANCH  15  16
ATOM     16  C   UNL     1      31.258  33.488  -1.715  1.00  0.00     0.000 C 
BRANCH  16  17
ATOM     17  C   UNL     1      32.500  32.704  -1.257  1.00  0.00     0.000 C 
BRANCH  17  18
ATOM     18  C   UNL     1      33.631  33.569  -0.667  1.00  0.00     0.000 C 
BRANCH  18  19
ATOM     19  C   UNL     1      33.985  33.217   0.795  1.00  0.00     0.000 C 
BRANCH  19  20
ATOM     20  C   UNL     1      34.105  34.467   1.684  1.00  0.00     0.006 C 
BRANCH  20  21
ATOM     21  C   UNL     1      34.106  35.764   0.865  1.00  0.00     0.053 C 
BRANCH  21  22
ATOM     22  C   UNL     1      33.114  36.754   1.397  1.00  0.00     0.041 C 
ATOM     23  O   UNL     1      32.313  37.333   0.616  1.00  0.00    -0.550 OA
ATOM     24  O   UNL     1      33.049  37.008   2.761  1.00  0.00    -0.550 OA
ENDBRANCH  21  22
ENDBRANCH  20  21
ENDBRANCH  19  20
ENDBRANCH  18  19
ENDBRANCH  17  18
ENDBRANCH  16  17
ENDBRANCH  15  16
ENDBRANCH  14  15
ENDBRANCH  13  14
ENDBRANCH   1  13
TORSDOF 20
ENDMDL
MODEL 7
REMARK VINA RESULT:    -3.775      3.840      6.636
REMARK INTER + INTRA:         -11.223
REMARK INTER:                  -7.846
REMARK INTRA:                  -3.377
REMARK UNBOUND:                -3.035
REMARK SMILES CCCCCCCCCCCCCCCCCCCCCC(=O)[O-]
REMARK SMILES IDX 12 1 11 2 10 3 9 4 8 5 7 6 6 7 5 8 4 9 3 10 2 11 1 12 13 13
REMARK SMILES IDX 14 14 15 15 16 16 17 17 18 18 19 19 20 20 21 21 22 22 23 23
REMARK SMILES IDX 24 24
REMARK H PARENT
REMARK Flexibility Score: inf
ROOT
ATOM      1  C   UNL     1      25.890  33.620   1.504  1.00  0.00     0.000 C 
ENDROOT
BRANCH   1   2
ATOM      2  C   UNL     1      27.042  33.028   2.333  1.00  0.00     0.000 C 
BRANCH   2   3
ATOM      3  C   UNL     1      27.083  33.582   3.767  1.00  0.00     0.000 C 
BRANCH   3   4
ATOM      4  C   UNL     1      28.518  33.774   4.292  1.00  0.00    -0.000 C 
BRANCH   4   5
ATOM      5  C   UNL     1      29.564  33.116   3.367  1.00  0.00    -0.000 C 
BRANCH   5   6
ATOM      6  C   UNL     1      30.942  32.926   4.025  1.00  0.00    -0.000 C 
BRANCH   6   7
ATOM      7  C   UNL     1      32.106  33.251   3.074  1.00  0.00    -0.000 C 
BRANCH   7   8
ATOM      8  C   UNL     1      33.369  33.733   3.812  1.00  0.00    -0.000 C 
BRANCH   8   9
ATOM      9  C   UNL     1      34.429  34.409   2.922  1.00  0.00    -0.000 C 
BRANCH   9  10
ATOM     10  C   UNL     1      34.602  35.906   3.226  1.00  0.00    -0.000 C 
BRANCH  10  11
ATOM     11  C   UNL     1      33.575  36.779   2.489  1.00  0.00    -0.003 C 
ATOM     12  C   UNL     1      33.349  36.332   1.046  1.00  0.00     0.004 C 
ENDBRANCH  10  11
ENDBRANCH   9  10
ENDBRANCH   8   9
ENDBRANCH   7   8
ENDBRANCH   6   7
ENDBRANCH   5   6
ENDBRANCH   4   5
ENDBRANCH   3   4
ENDBRANCH   2   3
ENDBRANCH   1   2
BRANCH   1  13
ATOM     13  C   UNL     1      26.280  34.918   0.773  1.00  0.00     0.000 C 
BRANCH  13  14
ATOM     14  C   UNL     1      26.105  36.210   1.592  1.00  0.00     0.000 C 
BRANCH  14  15
ATOM     15  C   UNL     1      27.293  37.174   1.455  1.00  0.00     0.000 C 
BRANCH  15  16
ATOM     16  C   UNL     1      28.418  36.801   2.431  1.00  0.00     0.000 C 
BRANCH  16  17
ATOM     17  C   UNL     1      29.664  36.246   1.719  1.00  0.00     0.000 C 
BRANCH  17  18
ATOM     18  C   UNL     1      29.653  36.390   0.185  1.00  0.00     0.000 C 
BRANCH  18  19
ATOM     19  C   UNL     1      29.540  35.045  -0.565  1.00  0.00     0.000 C 
BRANCH  19  20
ATOM     20  C   UNL     1      30.725  34.109  -0.270  1.00  0.00     0.006 C 
BRANCH  20  21
ATOM     21  C   UNL     1      31.572  33.834  -1.519  1.00  0.00     0.053 C 
BRANCH  21  22
ATOM     22  C   UNL     1      32.594  32.766  -1.270  1.00  0.00     0.041 C 
ATOM     23  O   UNL     1      32.641  31.748  -2.009  1.00  0.00    -0.550 OA
ATOM     24  O   UNL     1      33.520  32.916  -0.245  1.00  0.00    -0.550 OA
ENDBRANCH  21  22
ENDBRANCH  20  21
ENDBRANCH  19  20
ENDBRANCH  18  19
ENDBRANCH  17  18
ENDBRANCH  16  17
ENDBRANCH  15  16
ENDBRANCH  14  15
ENDBRANCH  13  14
ENDBRANCH   1  13
TORSDOF 20
ENDMDL
MODEL 8
REMARK VINA RESULT:    -3.771      4.052      7.471
REMARK INTER + INTRA:         -11.215
REMARK INTER:                  -7.114
REMARK INTRA:                  -4.101
REMARK UNBOUND:                -3.035
REMARK SMILES CCCCCCCCCCCCCCCCCCCCCC(=O)[O-]
REMARK SMILES IDX 12 1 11 2 10 3 9 4 8 5 7 6 6 7 5 8 4 9 3 10 2 11 1 12 13 13
REMARK SMILES IDX 14 14 15 15 16 16 17 17 18 18 19 19 20 20 21 21 22 22 23 23
REMARK SMILES IDX 24 24
REMARK H PARENT
REMARK Flexibility Score: inf
ROOT
ATOM      1  C   UNL     1      31.012  32.862   1.649  1.00  0.00     0.000 C 
ENDROOT
BRANCH   1   2
ATOM      2  C   UNL     1      30.821  33.753   2.889  1.00  0.00     0.000 C 
BRANCH   2   3
ATOM      3  C   UNL     1      29.721  33.230   3.827  1.00  0.00     0.000 C 
BRANCH   3   4
ATOM      4  C   UNL     1      28.441  32.820   3.074  1.00  0.00    -0.000 C 
BRANCH   4   5
ATOM      5  C   UNL     1      27.185  33.503   3.657  1.00  0.00    -0.000 C 
BRANCH   5   6
ATOM      6  C   UNL     1      26.269  34.130   2.592  1.00  0.00    -0.000 C 
BRANCH   6   7
ATOM      7  C   UNL     1      26.525  33.573   1.182  1.00  0.00    -0.000 C 
BRANCH   7   8
ATOM      8  C   UNL     1      26.946  34.657   0.173  1.00  0.00    -0.000 C 
BRANCH   8   9
ATOM      9  C   UNL     1      28.418  35.102   0.266  1.00  0.00    -0.000 C 
BRANCH   9  10
ATOM     10  C   UNL     1      28.578  36.626   0.396  1.00  0.00    -0.000 C 
BRANCH  10  11
ATOM     11  C   UNL     1      28.018  37.166   1.721  1.00  0.00    -0.003 C 
ATOM     12  C   UNL     1      28.910  36.834   2.916  1.00  0.00     0.004 C 
ENDBRANCH  10  11
ENDBRANCH   9  10
ENDBRANCH   8   9
ENDBRANCH   7   8
ENDBRANCH   6   7
ENDBRANCH   5   6
ENDBRANCH   4   5
ENDBRANCH   3   4
ENDBRANCH   2   3
ENDBRANCH   1   2
BRANCH   1  13
ATOM     13  C   UNL     1      32.494  32.639   1.292  1.00  0.00     0.000 C 
BRANCH  13  14
ATOM     14  C   UNL     1      32.935  33.218  -0.065  1.00  0.00     0.000 C 
BRANCH  14  15
ATOM     15  C   UNL     1      31.763  33.749  -0.902  1.00  0.00     0.000 C 
BRANCH  15  16
ATOM     16  C   UNL     1      31.881  35.266  -1.111  1.00  0.00     0.000 C 
BRANCH  16  17
ATOM     17  C   UNL     1      32.833  35.934  -0.104  1.00  0.00     0.000 C 
BRANCH  17  18
ATOM     18  C   UNL     1      32.136  36.694   1.042  1.00  0.00     0.000 C 
BRANCH  18  19
ATOM     19  C   UNL     1      32.976  36.774   2.336  1.00  0.00     0.000 C 
BRANCH  19  20
ATOM     20  C   UNL     1      34.163  35.795   2.324  1.00  0.00     0.006 C 
BRANCH  20  21
ATOM     21  C   UNL     1      34.998  35.881   3.608  1.00  0.00     0.053 C 
BRANCH  21  22
ATOM     22  C   UNL     1      34.683  34.757   4.549  1.00  0.00     0.041 C 
ATOM     23  O   UNL     1      34.040  33.753   4.145  1.00  0.00    -0.550 OA
ATOM     24  O   UNL     1      35.136  34.802   5.862  1.00  0.00    -0.550 OA
ENDBRANCH  21  22
ENDBRANCH  20  21
ENDBRANCH  19  20
ENDBRANCH  18  19
ENDBRANCH  17  18
ENDBRANCH  16  17
ENDBRANCH  15  16
ENDBRANCH  14  15
ENDBRANCH  13  14
ENDBRANCH   1  13
TORSDOF 20
ENDMDL
MODEL 9
REMARK VINA RESULT:    -3.765      3.466      7.357
REMARK INTER + INTRA:         -11.202
REMARK INTER:                  -7.690
REMARK INTRA:                  -3.512
REMARK UNBOUND:                -3.035
REMARK SMILES CCCCCCCCCCCCCCCCCCCCCC(=O)[O-]
REMARK SMILES IDX 12 1 11 2 10 3 9 4 8 5 7 6 6 7 5 8 4 9 3 10 2 11 1 12 13 13
REMARK SMILES IDX 14 14 15 15 16 16 17 17 18 18 19 19 20 20 21 21 22 22 23 23
REMARK SMILES IDX 24 24
REMARK H PARENT
REMARK Flexibility Score: inf
ROOT
ATOM      1  C   UNL     1      26.355  33.489   1.212  1.00  0.00     0.000 C 
ENDROOT
BRANCH   1   2
ATOM      2  C   UNL     1      24.868  33.100   1.265  1.00  0.00     0.000 C 
BRANCH   2   3
ATOM      3  C   UNL     1      24.035  33.802   0.181  1.00  0.00     0.000 C 
BRANCH   3   4
ATOM      4  C   UNL     1      24.878  34.734  -0.709  1.00  0.00    -0.000 C 
BRANCH   4   5
ATOM      5  C   UNL     1      24.472  36.214  -0.544  1.00  0.00    -0.000 C 
BRANCH   5   6
ATOM      6  C   UNL     1      24.167  36.615   0.909  1.00  0.00    -0.000 C 
BRANCH   6   7
ATOM      7  C   UNL     1      25.207  37.586   1.491  1.00  0.00    -0.000 C 
BRANCH   7   8
ATOM      8  C   UNL     1      26.531  36.895   1.870  1.00  0.00    -0.000 C 
BRANCH   8   9
ATOM      9  C   UNL     1      27.697  37.135   0.892  1.00  0.00    -0.000 C 
BRANCH   9  10
ATOM     10  C   UNL     1      28.770  36.035   0.958  1.00  0.00    -0.000 C 
BRANCH  10  11
ATOM     11  C   UNL     1      30.196  36.607   1.018  1.00  0.00    -0.003 C 
ATOM     12  C   UNL     1      30.582  37.080   2.419  1.00  0.00     0.004 C 
ENDBRANCH  10  11
ENDBRANCH   9  10
ENDBRANCH   8   9
ENDBRANCH   7   8
ENDBRANCH   6   7
ENDBRANCH   5   6
ENDBRANCH   4   5
ENDBRANCH   3   4
ENDBRANCH   2   3
ENDBRANCH   1   2
BRANCH   1  13
ATOM     13  C   UNL     1      27.171  32.907   2.381  1.00  0.00     0.000 C 
BRANCH  13  14
ATOM     14  C   UNL     1      27.170  33.755   3.667  1.00  0.00     0.000 C 
BRANCH  14  15
ATOM     15  C   UNL     1      28.583  34.120   4.147  1.00  0.00     0.000 C 
BRANCH  15  16
ATOM     16  C   UNL     1      29.574  32.984   3.853  1.00  0.00     0.000 C 
BRANCH  16  17
ATOM     17  C   UNL     1      30.725  33.422   2.931  1.00  0.00     0.000 C 
BRANCH  17  18
ATOM     18  C   UNL     1      30.667  32.845   1.502  1.00  0.00     0.000 C 
BRANCH  18  19
ATOM     19  C   UNL     1      31.913  33.167   0.650  1.00  0.00     0.000 C 
BRANCH  19  20
ATOM     20  C   UNL     1      33.224  32.800   1.369  1.00  0.00     0.006 C 
BRANCH  20  21
ATOM     21  C   UNL     1      34.322  33.847   1.143  1.00  0.00     0.053 C 
BRANCH  21  22
ATOM     22  C   UNL     1      33.893  35.207   1.605  1.00  0.00     0.041 C 
ATOM     23  O   UNL     1      33.723  36.135   0.772  1.00  0.00    -0.550 OA
ATOM     24  O   UNL     1      33.642  35.436   2.952  1.00  0.00    -0.550 OA
ENDBRANCH  21  22
ENDBRANCH  20  21
ENDBRANCH  19  20
ENDBRANCH  18  19
ENDBRANCH  17  18
ENDBRANCH  16  17
ENDBRANCH  15  16
ENDBRANCH  14  15
ENDBRANCH  13  14
ENDBRANCH   1  13
TORSDOF 20
ENDMDL
