MODEL 1
REMARK VINA RESULT:    92.390      0.000      0.000
REMARK INTER + INTRA:          95.090
REMARK INTER:                  95.090
REMARK INTRA:                   0.000
REMARK UNBOUND:                 0.000
REMARK SMILES CC1(C)CC[C@]2(C)CC[C@]3(C)C(=CC[C@@H]4[C@]5(C)CC[C@H](O)C(C)(C)[C@@H]5CC[C@@]43C)[C@@H]2C1
REMARK SMILES IDX 1 1 2 2 4 3 5 4 6 5 8 6 9 7 10 8 12 9 13 10 14 11 15 12
REMARK SMILES IDX 28 13 27 14 26 15 25 16 16 17 18 18 19 19 20 20 22 21 23 22
REMARK SMILES IDX 24 23 17 24 29 25 30 26 31 27 11 28 7 29 3 30 21 31
REMARK H PARENT 21 32
REMARK Flexibility Score: inf
ROOT
ATOM      1  C   UNL     1     -30.697  26.312   9.104  1.00  0.00     0.011 C 
ATOM      2  C   UNL     1     -30.989  26.183   7.589  1.00  0.00    -0.035 C 
ATOM      3  C   UNL     1     -30.674  24.766   7.061  1.00  0.00     0.007 C 
ATOM      4  C   UNL     1     -31.589  23.702   7.669  1.00  0.00     0.008 C 
ATOM      5  C   UNL     1     -33.112  23.974   7.453  1.00  0.00    -0.026 C 
ATOM      6  C   UNL     1     -33.544  23.567   5.996  1.00  0.00     0.008 C 
ATOM      7  C   UNL     1     -34.201  24.666   5.120  1.00  0.00     0.012 C 
ATOM      8  C   UNL     1     -35.284  25.588   5.806  1.00  0.00    -0.006 C 
ATOM      9  C   UNL     1     -34.892  25.782   7.278  1.00  0.00    -0.064 C 
ATOM     10  C   UNL     1     -35.789  26.282   8.138  1.00  0.00    -0.027 C 
ATOM     11  C   UNL     1     -37.127  26.750   7.678  1.00  0.00     0.032 C 
ATOM     12  C   UNL     1     -37.816  25.781   6.660  1.00  0.00     0.006 C 
ATOM     13  C   UNL     1     -36.801  25.023   5.679  1.00  0.00    -0.020 C 
ATOM     14  C   UNL     1     -36.845  23.515   5.993  1.00  0.00     0.008 C 
ATOM     15  C   UNL     1     -38.229  22.861   5.946  1.00  0.00     0.005 C 
ATOM     16  C   UNL     1     -39.441  23.726   6.424  1.00  0.00     0.003 C 
ATOM     17  C   UNL     1     -38.969  24.910   7.355  1.00  0.00    -0.025 C 
ATOM     18  C   UNL     1     -38.522  24.331   8.746  1.00  0.00     0.010 C 
ATOM     19  C   UNL     1     -39.126  22.961   9.124  1.00  0.00     0.033 C 
ATOM     20  C   UNL     1     -40.555  22.763   8.603  1.00  0.00     0.120 C 
ATOM     21  C   UNL     1     -40.630  22.829   7.029  1.00  0.00    -0.006 C 
ATOM     22  C   UNL     1     -40.636  21.385   6.429  1.00  0.00     0.014 C 
ATOM     23  C   UNL     1     -42.011  23.416   6.615  1.00  0.00     0.014 C 
ATOM     24  C   UNL     1     -40.160  25.902   7.585  1.00  0.00     0.012 C 
ATOM     25  C   UNL     1     -37.296  25.186   4.197  1.00  0.00     0.012 C 
ATOM     26  C   UNL     1     -33.483  25.455   7.785  1.00  0.00     0.022 C 
ATOM     27  C   UNL     1     -32.465  26.511   7.275  1.00  0.00     0.015 C 
ATOM     28  C   UNL     1     -35.191  26.985   5.105  1.00  0.00     0.017 C 
ATOM     29  C   UNL     1     -33.845  23.056   8.473  1.00  0.00     0.012 C 
ATOM     30  C   UNL     1     -30.084  27.193   6.848  1.00  0.00     0.011 C 
ENDROOT
BRANCH  20  31
ATOM     31  O   UNL     1     -41.044  21.542   9.100  1.00  0.00    -0.393 OA
ATOM     32  H   UNL     1     -40.442  20.828   8.763  1.00  0.00     0.210 HD
ENDBRANCH  20  31
TORSDOF 1
ENDMDL
