MODEL 1
REMARK VINA RESULT:    -5.849      0.000      0.000
REMARK INTER + INTRA:         -11.018
REMARK INTER:                  -9.952
REMARK INTRA:                  -1.066
REMARK UNBOUND:                -1.066
REMARK SMILES CCCCCCCCCCCCCC(=O)[O-]
REMARK SMILES IDX 8 1 9 2 10 3 11 4 12 5 13 6 14 7 15 8 16 9 7 10 6 11 5 12
REMARK SMILES IDX 4 13 3 14 2 15 1 16
REMARK H PARENT
REMARK Flexibility Score: inf
ROOT
ATOM      1  C   UNL     1      25.932  -1.132  61.509  1.00  0.00     0.000 C 
ENDROOT
BRANCH   1   2
ATOM      2  C   UNL     1      25.082   0.007  62.096  1.00  0.00     0.000 C 
BRANCH   2   3
ATOM      3  C   UNL     1      25.937   1.145  62.674  1.00  0.00     0.000 C 
BRANCH   3   4
ATOM      4  C   UNL     1      25.415   2.538  62.278  1.00  0.00     0.000 C 
BRANCH   4   5
ATOM      5  C   UNL     1      23.941   2.746  62.660  1.00  0.00     0.006 C 
BRANCH   5   6
ATOM      6  C   UNL     1      23.761   3.806  63.755  1.00  0.00     0.053 C 
BRANCH   6   7
ATOM      7  C   UNL     1      23.870   3.182  65.110  1.00  0.00     0.041 C 
ATOM      8  O   UNL     1      22.845   2.734  65.686  1.00  0.00    -0.550 OA
ATOM      9  O   UNL     1      25.100   3.131  65.756  1.00  0.00    -0.550 OA
ENDBRANCH   6   7
ENDBRANCH   5   6
ENDBRANCH   4   5
ENDBRANCH   3   4
ENDBRANCH   2   3
ENDBRANCH   1   2
BRANCH   1  10
ATOM     10  C   UNL     1      25.493  -2.521  62.020  1.00  0.00     0.000 C 
BRANCH  10  11
ATOM     11  C   UNL     1      25.480  -3.608  60.929  1.00  0.00    -0.000 C 
BRANCH  11  12
ATOM     12  C   UNL     1      25.310  -3.084  59.490  1.00  0.00    -0.000 C 
BRANCH  12  13
ATOM     13  C   UNL     1      23.874  -3.168  58.937  1.00  0.00    -0.000 C 
BRANCH  13  14
ATOM     14  C   UNL     1      22.829  -3.456  60.028  1.00  0.00    -0.000 C 
BRANCH  14  15
ATOM     15  C   UNL     1      21.765  -2.352  60.131  1.00  0.00    -0.003 C 
ATOM     16  C   UNL     1      21.732  -1.690  61.508  1.00  0.00     0.004 C 
ENDBRANCH  14  15
ENDBRANCH  13  14
ENDBRANCH  12  13
ENDBRANCH  11  12
ENDBRANCH  10  11
ENDBRANCH   1  10
TORSDOF 12
ENDMDL
MODEL 2
REMARK VINA RESULT:    -5.838      3.487      6.783
REMARK INTER + INTRA:         -10.999
REMARK INTER:                  -9.894
REMARK INTRA:                  -1.105
REMARK UNBOUND:                -1.066
REMARK SMILES CCCCCCCCCCCCCC(=O)[O-]
REMARK SMILES IDX 8 1 9 2 10 3 11 4 12 5 13 6 14 7 15 8 16 9 7 10 6 11 5 12
REMARK SMILES IDX 4 13 3 14 2 15 1 16
REMARK H PARENT
REMARK Flexibility Score: inf
ROOT
ATOM      1  C   UNL     1      25.955   1.111  62.731  1.00  0.00     0.000 C 
ENDROOT
BRANCH   1   2
ATOM      2  C   UNL     1      25.122   0.008  62.054  1.00  0.00     0.000 C 
BRANCH   2   3
ATOM      3  C   UNL     1      25.983  -1.171  61.576  1.00  0.00     0.000 C 
BRANCH   3   4
ATOM      4  C   UNL     1      25.400  -2.535  61.987  1.00  0.00     0.000 C 
BRANCH   4   5
ATOM      5  C   UNL     1      23.939  -2.710  61.543  1.00  0.00     0.006 C 
BRANCH   5   6
ATOM      6  C   UNL     1      23.778  -3.784  60.459  1.00  0.00     0.053 C 
BRANCH   6   7
ATOM      7  C   UNL     1      23.955  -3.186  59.099  1.00  0.00     0.041 C 
ATOM      8  O   UNL     1      25.095  -3.145  58.568  1.00  0.00    -0.550 OA
ATOM      9  O   UNL     1      22.865  -2.636  58.434  1.00  0.00    -0.550 OA
ENDBRANCH   6   7
ENDBRANCH   5   6
ENDBRANCH   4   5
ENDBRANCH   3   4
ENDBRANCH   2   3
ENDBRANCH   1   2
BRANCH   1  10
ATOM     10  C   UNL     1      25.513   2.528  62.306  1.00  0.00     0.000 C 
BRANCH  10  11
ATOM     11  C   UNL     1      25.403   3.520  63.478  1.00  0.00    -0.000 C 
BRANCH  11  12
ATOM     12  C   UNL     1      25.036   2.888  64.835  1.00  0.00    -0.000 C 
BRANCH  12  13
ATOM     13  C   UNL     1      23.602   3.178  65.318  1.00  0.00    -0.000 C 
BRANCH  13  14
ATOM     14  C   UNL     1      22.613   3.389  64.159  1.00  0.00    -0.000 C 
BRANCH  14  15
ATOM     15  C   UNL     1      21.685   2.183  63.949  1.00  0.00    -0.003 C 
ATOM     16  C   UNL     1      21.856   1.539  62.574  1.00  0.00     0.004 C 
ENDBRANCH  14  15
ENDBRANCH  13  14
ENDBRANCH  12  13
ENDBRANCH  11  12
ENDBRANCH  10  11
ENDBRANCH   1  10
TORSDOF 12
ENDMDL
MODEL 3
REMARK VINA RESULT:    -5.818      0.691      1.423
REMARK INTER + INTRA:         -10.966
REMARK INTER:                  -9.894
REMARK INTRA:                  -1.073
REMARK UNBOUND:                -1.066
REMARK SMILES CCCCCCCCCCCCCC(=O)[O-]
REMARK SMILES IDX 8 1 9 2 10 3 11 4 12 5 13 6 14 7 15 8 16 9 7 10 6 11 5 12
REMARK SMILES IDX 4 13 3 14 2 15 1 16
REMARK H PARENT
REMARK Flexibility Score: inf
ROOT
ATOM      1  C   UNL     1      25.108   0.092  61.979  1.00  0.00     0.000 C 
ENDROOT
BRANCH   1   2
ATOM      2  C   UNL     1      25.889   1.173  62.746  1.00  0.00     0.000 C 
BRANCH   2   3
ATOM      3  C   UNL     1      25.493   2.597  62.327  1.00  0.00     0.000 C 
BRANCH   3   4
ATOM      4  C   UNL     1      24.011   2.705  61.925  1.00  0.00     0.000 C 
BRANCH   4   5
ATOM      5  C   UNL     1      23.079   2.847  63.139  1.00  0.00     0.006 C 
BRANCH   5   6
ATOM      6  C   UNL     1      23.606   3.855  64.170  1.00  0.00     0.053 C 
BRANCH   6   7
ATOM      7  C   UNL     1      23.964   3.160  65.445  1.00  0.00     0.041 C 
ATOM      8  O   UNL     1      25.171   3.019  65.773  1.00  0.00    -0.550 OA
ATOM      9  O   UNL     1      22.965   2.632  66.255  1.00  0.00    -0.550 OA
ENDBRANCH   6   7
ENDBRANCH   5   6
ENDBRANCH   4   5
ENDBRANCH   3   4
ENDBRANCH   2   3
ENDBRANCH   1   2
BRANCH   1  10
ATOM     10  C   UNL     1      25.988  -1.119  61.605  1.00  0.00     0.000 C 
BRANCH  10  11
ATOM     11  C   UNL     1      25.379  -2.476  62.004  1.00  0.00    -0.000 C 
BRANCH  11  12
ATOM     12  C   UNL     1      25.381  -3.544  60.893  1.00  0.00    -0.000 C 
BRANCH  12  13
ATOM     13  C   UNL     1      24.003  -3.828  60.266  1.00  0.00    -0.000 C 
BRANCH  13  14
ATOM     14  C   UNL     1      22.835  -3.471  61.201  1.00  0.00    -0.000 C 
BRANCH  14  15
ATOM     15  C   UNL     1      21.972  -2.323  60.654  1.00  0.00    -0.003 C 
ATOM     16  C   UNL     1      21.678  -1.254  61.705  1.00  0.00     0.004 C 
ENDBRANCH  14  15
ENDBRANCH  13  14
ENDBRANCH  12  13
ENDBRANCH  11  12
ENDBRANCH  10  11
ENDBRANCH   1  10
TORSDOF 12
ENDMDL
MODEL 4
REMARK VINA RESULT:    -5.815      0.772      1.524
REMARK INTER + INTRA:         -10.960
REMARK INTER:                  -9.776
REMARK INTRA:                  -1.185
REMARK UNBOUND:                -1.066
REMARK SMILES CCCCCCCCCCCCCC(=O)[O-]
REMARK SMILES IDX 8 1 9 2 10 3 11 4 12 5 13 6 14 7 15 8 16 9 7 10 6 11 5 12
REMARK SMILES IDX 4 13 3 14 2 15 1 16
REMARK H PARENT
REMARK Flexibility Score: inf
ROOT
ATOM      1  C   UNL     1      25.506  -2.533  61.958  1.00  0.00     0.000 C 
ENDROOT
BRANCH   1   2
ATOM      2  C   UNL     1      25.914  -1.107  61.547  1.00  0.00     0.000 C 
BRANCH   2   3
ATOM      3  C   UNL     1      25.086  -0.027  62.259  1.00  0.00     0.000 C 
BRANCH   3   4
ATOM      4  C   UNL     1      25.913   1.224  62.602  1.00  0.00     0.000 C 
BRANCH   4   5
ATOM      5  C   UNL     1      25.230   2.525  62.152  1.00  0.00     0.006 C 
BRANCH   5   6
ATOM      6  C   UNL     1      25.519   3.699  63.097  1.00  0.00     0.053 C 
BRANCH   6   7
ATOM      7  C   UNL     1      24.612   3.649  64.286  1.00  0.00     0.041 C 
ATOM      8  O   UNL     1      23.424   4.054  64.194  1.00  0.00    -0.550 OA
ATOM      9  O   UNL     1      25.091   3.190  65.508  1.00  0.00    -0.550 OA
ENDBRANCH   6   7
ENDBRANCH   5   6
ENDBRANCH   4   5
ENDBRANCH   3   4
ENDBRANCH   2   3
ENDBRANCH   1   2
BRANCH   1  10
ATOM     10  C   UNL     1      25.480  -3.507  60.762  1.00  0.00     0.000 C 
BRANCH  10  11
ATOM     11  C   UNL     1      25.209  -2.822  59.410  1.00  0.00    -0.000 C 
BRANCH  11  12
ATOM     12  C   UNL     1      23.826  -3.118  58.795  1.00  0.00    -0.000 C 
BRANCH  12  13
ATOM     13  C   UNL     1      22.738  -3.514  59.812  1.00  0.00    -0.000 C 
BRANCH  13  14
ATOM     14  C   UNL     1      21.792  -2.351  60.158  1.00  0.00    -0.000 C 
BRANCH  14  15
ATOM     15  C   UNL     1      21.978  -1.850  61.599  1.00  0.00    -0.003 C 
ATOM     16  C   UNL     1      21.323  -0.491  61.839  1.00  0.00     0.004 C 
ENDBRANCH  14  15
ENDBRANCH  13  14
ENDBRANCH  12  13
ENDBRANCH  11  12
ENDBRANCH  10  11
ENDBRANCH   1  10
TORSDOF 12
ENDMDL
MODEL 5
REMARK VINA RESULT:    -5.748      2.838      6.425
REMARK INTER + INTRA:         -10.847
REMARK INTER:                  -9.736
REMARK INTRA:                  -1.111
REMARK UNBOUND:                -1.066
REMARK SMILES CCCCCCCCCCCCCC(=O)[O-]
REMARK SMILES IDX 8 1 9 2 10 3 11 4 12 5 13 6 14 7 15 8 16 9 7 10 6 11 5 12
REMARK SMILES IDX 4 13 3 14 2 15 1 16
REMARK H PARENT
REMARK Flexibility Score: inf
ROOT
ATOM      1  C   UNL     1      25.861   0.988  62.709  1.00  0.00     0.000 C 
ENDROOT
BRANCH   1   2
ATOM      2  C   UNL     1      25.135  -0.211  62.076  1.00  0.00     0.000 C 
BRANCH   2   3
ATOM      3  C   UNL     1      26.098  -1.178  61.370  1.00  0.00     0.000 C 
BRANCH   3   4
ATOM      4  C   UNL     1      25.723  -2.654  61.592  1.00  0.00     0.000 C 
BRANCH   4   5
ATOM      5  C   UNL     1      24.444  -2.819  62.430  1.00  0.00     0.006 C 
BRANCH   5   6
ATOM      6  C   UNL     1      23.388  -3.682  61.728  1.00  0.00     0.053 C 
BRANCH   6   7
ATOM      7  C   UNL     1      22.314  -2.821  61.141  1.00  0.00     0.041 C 
ATOM      8  O   UNL     1      22.026  -1.717  61.673  1.00  0.00    -0.550 OA
ATOM      9  O   UNL     1      21.604  -3.256  60.028  1.00  0.00    -0.550 OA
ENDBRANCH   6   7
ENDBRANCH   5   6
ENDBRANCH   4   5
ENDBRANCH   3   4
ENDBRANCH   2   3
ENDBRANCH   1   2
BRANCH   1  10
ATOM     10  C   UNL     1      25.372   2.339  62.146  1.00  0.00     0.000 C 
BRANCH  10  11
ATOM     11  C   UNL     1      25.596   3.527  63.101  1.00  0.00    -0.000 C 
BRANCH  11  12
ATOM     12  C   UNL     1      25.579   3.170  64.600  1.00  0.00    -0.000 C 
BRANCH  12  13
ATOM     13  C   UNL     1      24.178   3.139  65.241  1.00  0.00    -0.000 C 
BRANCH  13  14
ATOM     14  C   UNL     1      23.080   3.671  64.305  1.00  0.00    -0.000 C 
BRANCH  14  15
ATOM     15  C   UNL     1      21.847   2.755  64.262  1.00  0.00    -0.003 C 
ATOM     16  C   UNL     1      21.776   1.922  62.983  1.00  0.00     0.004 C 
ENDBRANCH  14  15
ENDBRANCH  13  14
ENDBRANCH  12  13
ENDBRANCH  11  12
ENDBRANCH  10  11
ENDBRANCH   1  10
TORSDOF 12
ENDMDL
MODEL 6
REMARK VINA RESULT:    -5.698      1.125      1.468
REMARK INTER + INTRA:         -10.762
REMARK INTER:                  -9.521
REMARK INTRA:                  -1.241
REMARK UNBOUND:                -1.066
REMARK SMILES CCCCCCCCCCCCCC(=O)[O-]
REMARK SMILES IDX 8 1 9 2 10 3 11 4 12 5 13 6 14 7 15 8 16 9 7 10 6 11 5 12
REMARK SMILES IDX 4 13 3 14 2 15 1 16
REMARK H PARENT
REMARK Flexibility Score: inf
ROOT
ATOM      1  C   UNL     1      25.930  -1.069  61.500  1.00  0.00     0.000 C 
ENDROOT
BRANCH   1   2
ATOM      2  C   UNL     1      25.045   0.065  62.047  1.00  0.00     0.000 C 
BRANCH   2   3
ATOM      3  C   UNL     1      25.857   1.151  62.770  1.00  0.00     0.000 C 
BRANCH   3   4
ATOM      4  C   UNL     1      25.492   2.572  62.304  1.00  0.00     0.000 C 
BRANCH   4   5
ATOM      5  C   UNL     1      24.625   3.323  63.327  1.00  0.00     0.006 C 
BRANCH   5   6
ATOM      6  C   UNL     1      23.197   3.568  62.821  1.00  0.00     0.053 C 
BRANCH   6   7
ATOM      7  C   UNL     1      22.255   2.563  63.404  1.00  0.00     0.041 C 
ATOM      8  O   UNL     1      21.968   2.599  64.629  1.00  0.00    -0.550 OA
ATOM      9  O   UNL     1      21.723   1.560  62.601  1.00  0.00    -0.550 OA
ENDBRANCH   6   7
ENDBRANCH   5   6
ENDBRANCH   4   5
ENDBRANCH   3   4
ENDBRANCH   2   3
ENDBRANCH   1   2
BRANCH   1  10
ATOM     10  C   UNL     1      25.532  -2.451  62.061  1.00  0.00     0.000 C 
BRANCH  10  11
ATOM     11  C   UNL     1      25.489  -3.563  60.997  1.00  0.00    -0.000 C 
BRANCH  11  12
ATOM     12  C   UNL     1      25.366  -3.069  59.542  1.00  0.00    -0.000 C 
BRANCH  12  13
ATOM     13  C   UNL     1      23.928  -3.031  58.991  1.00  0.00    -0.000 C 
BRANCH  13  14
ATOM     14  C   UNL     1      22.902  -3.650  59.956  1.00  0.00    -0.000 C 
BRANCH  14  15
ATOM     15  C   UNL     1      21.680  -2.745  60.177  1.00  0.00    -0.003 C 
ATOM     16  C   UNL     1      21.857  -1.795  61.361  1.00  0.00     0.004 C 
ENDBRANCH  14  15
ENDBRANCH  13  14
ENDBRANCH  12  13
ENDBRANCH  11  12
ENDBRANCH  10  11
ENDBRANCH   1  10
TORSDOF 12
ENDMDL
MODEL 7
REMARK VINA RESULT:    -5.603      2.252      6.073
REMARK INTER + INTRA:         -10.601
REMARK INTER:                  -9.492
REMARK INTRA:                  -1.109
REMARK UNBOUND:                -1.066
REMARK SMILES CCCCCCCCCCCCCC(=O)[O-]
REMARK SMILES IDX 8 1 9 2 10 3 11 4 12 5 13 6 14 7 15 8 16 9 7 10 6 11 5 12
REMARK SMILES IDX 4 13 3 14 2 15 1 16
REMARK H PARENT
REMARK Flexibility Score: inf
ROOT
ATOM      1  C   UNL     1      25.871  -1.232  61.838  1.00  0.00     0.000 C 
ENDROOT
BRANCH   1   2
ATOM      2  C   UNL     1      26.218  -1.613  60.388  1.00  0.00     0.000 C 
BRANCH   2   3
ATOM      3  C   UNL     1      25.802  -3.050  60.039  1.00  0.00     0.000 C 
BRANCH   3   4
ATOM      4  C   UNL     1      24.551  -3.103  59.144  1.00  0.00     0.000 C 
BRANCH   4   5
ATOM      5  C   UNL     1      23.361  -3.789  59.834  1.00  0.00     0.006 C 
BRANCH   5   6
ATOM      6  C   UNL     1      22.216  -2.813  60.141  1.00  0.00     0.053 C 
BRANCH   6   7
ATOM      7  C   UNL     1      22.327  -2.301  61.541  1.00  0.00     0.041 C 
ATOM      8  O   UNL     1      22.905  -2.987  62.424  1.00  0.00    -0.550 OA
ATOM      9  O   UNL     1      21.757  -1.079  61.882  1.00  0.00    -0.550 OA
ENDBRANCH   6   7
ENDBRANCH   5   6
ENDBRANCH   4   5
ENDBRANCH   3   4
ENDBRANCH   2   3
ENDBRANCH   1   2
BRANCH   1  10
ATOM     10  C   UNL     1      25.111   0.108  61.931  1.00  0.00     0.000 C 
BRANCH  10  11
ATOM     11  C   UNL     1      25.867   1.195  62.718  1.00  0.00    -0.000 C 
BRANCH  11  12
ATOM     12  C   UNL     1      25.534   2.644  62.311  1.00  0.00    -0.000 C 
BRANCH  12  13
ATOM     13  C   UNL     1      24.050   2.900  61.986  1.00  0.00    -0.000 C 
BRANCH  13  14
ATOM     14  C   UNL     1      23.145   2.824  63.227  1.00  0.00    -0.000 C 
BRANCH  14  15
ATOM     15  C   UNL     1      23.589   3.785  64.340  1.00  0.00    -0.003 C 
ATOM     16  C   UNL     1      23.967   3.059  65.630  1.00  0.00     0.004 C 
ENDBRANCH  14  15
ENDBRANCH  13  14
ENDBRANCH  12  13
ENDBRANCH  11  12
ENDBRANCH  10  11
ENDBRANCH   1  10
TORSDOF 12
ENDMDL
MODEL 8
REMARK VINA RESULT:    -5.415      3.069      6.792
REMARK INTER + INTRA:         -10.280
REMARK INTER:                  -9.012
REMARK INTRA:                  -1.269
REMARK UNBOUND:                -1.066
REMARK SMILES CCCCCCCCCCCCCC(=O)[O-]
REMARK SMILES IDX 8 1 9 2 10 3 11 4 12 5 13 6 14 7 15 8 16 9 7 10 6 11 5 12
REMARK SMILES IDX 4 13 3 14 2 15 1 16
REMARK H PARENT
REMARK Flexibility Score: inf
ROOT
ATOM      1  C   UNL     1      21.609   1.189  62.252  1.00  0.00     0.000 C 
ENDROOT
BRANCH   1   2
ATOM      2  C   UNL     1      21.130  -0.269  62.150  1.00  0.00     0.000 C 
BRANCH   2   3
ATOM      3  C   UNL     1      22.292  -1.265  62.013  1.00  0.00     0.000 C 
BRANCH   3   4
ATOM      4  C   UNL     1      22.080  -2.266  60.864  1.00  0.00     0.000 C 
BRANCH   4   5
ATOM      5  C   UNL     1      22.919  -3.544  61.033  1.00  0.00     0.006 C 
BRANCH   5   6
ATOM      6  C   UNL     1      24.071  -3.630  60.023  1.00  0.00     0.053 C 
BRANCH   6   7
ATOM      7  C   UNL     1      25.323  -3.056  60.607  1.00  0.00     0.041 C 
ATOM      8  O   UNL     1      26.180  -2.516  59.861  1.00  0.00    -0.550 OA
ATOM      9  O   UNL     1      25.561  -3.152  61.973  1.00  0.00    -0.550 OA
ENDBRANCH   6   7
ENDBRANCH   5   6
ENDBRANCH   4   5
ENDBRANCH   3   4
ENDBRANCH   2   3
ENDBRANCH   1   2
BRANCH   1  10
ATOM     10  C   UNL     1      21.595   1.715  63.703  1.00  0.00     0.000 C 
BRANCH  10  11
ATOM     11  C   UNL     1      22.073   3.173  63.839  1.00  0.00    -0.000 C 
BRANCH  11  12
ATOM     12  C   UNL     1      23.598   3.348  63.983  1.00  0.00    -0.000 C 
BRANCH  12  13
ATOM     13  C   UNL     1      24.299   3.954  62.753  1.00  0.00    -0.000 C 
BRANCH  13  14
ATOM     14  C   UNL     1      25.152   2.929  61.985  1.00  0.00    -0.000 C 
BRANCH  14  15
ATOM     15  C   UNL     1      25.674   1.801  62.890  1.00  0.00    -0.003 C 
ATOM     16  C   UNL     1      25.542   0.421  62.247  1.00  0.00     0.004 C 
ENDBRANCH  14  15
ENDBRANCH  13  14
ENDBRANCH  12  13
ENDBRANCH  11  12
ENDBRANCH  10  11
ENDBRANCH   1  10
TORSDOF 12
ENDMDL
MODEL 9
REMARK VINA RESULT:    -5.400      1.514      3.283
REMARK INTER + INTRA:         -10.255
REMARK INTER:                  -9.136
REMARK INTRA:                  -1.119
REMARK UNBOUND:                -1.066
REMARK SMILES CCCCCCCCCCCCCC(=O)[O-]
REMARK SMILES IDX 8 1 9 2 10 3 11 4 12 5 13 6 14 7 15 8 16 9 7 10 6 11 5 12
REMARK SMILES IDX 4 13 3 14 2 15 1 16
REMARK H PARENT
REMARK Flexibility Score: inf
ROOT
ATOM      1  C   UNL     1      21.023  -0.251  62.413  1.00  0.00     0.000 C 
ENDROOT
BRANCH   1   2
ATOM      2  C   UNL     1      21.369   1.172  62.883  1.00  0.00     0.000 C 
BRANCH   2   3
ATOM      3  C   UNL     1      22.769   1.619  62.434  1.00  0.00     0.000 C 
BRANCH   3   4
ATOM      4  C   UNL     1      22.941   3.148  62.465  1.00  0.00     0.000 C 
BRANCH   4   5
ATOM      5  C   UNL     1      24.415   3.575  62.541  1.00  0.00     0.006 C 
BRANCH   5   6
ATOM      6  C   UNL     1      25.331   2.442  63.025  1.00  0.00     0.053 C 
BRANCH   6   7
ATOM      7  C   UNL     1      25.836   2.730  64.403  1.00  0.00     0.041 C 
ATOM      8  O   UNL     1      25.341   3.672  65.075  1.00  0.00    -0.550 OA
ATOM      9  O   UNL     1      26.882   1.983  64.931  1.00  0.00    -0.550 OA
ENDBRANCH   6   7
ENDBRANCH   5   6
ENDBRANCH   4   5
ENDBRANCH   3   4
ENDBRANCH   2   3
ENDBRANCH   1   2
BRANCH   1  10
ATOM     10  C   UNL     1      22.267  -1.037  61.948  1.00  0.00     0.000 C 
BRANCH  10  11
ATOM     11  C   UNL     1      21.940  -2.226  61.025  1.00  0.00    -0.000 C 
BRANCH  11  12
ATOM     12  C   UNL     1      22.973  -3.370  61.044  1.00  0.00    -0.000 C 
BRANCH  12  13
ATOM     13  C   UNL     1      23.803  -3.470  62.339  1.00  0.00    -0.000 C 
BRANCH  13  14
ATOM     14  C   UNL     1      25.311  -3.293  62.097  1.00  0.00    -0.000 C 
BRANCH  14  15
ATOM     15  C   UNL     1      25.616  -2.233  61.026  1.00  0.00    -0.003 C 
ATOM     16  C   UNL     1      25.931  -0.863  61.625  1.00  0.00     0.004 C 
ENDBRANCH  14  15
ENDBRANCH  13  14
ENDBRANCH  12  13
ENDBRANCH  11  12
ENDBRANCH  10  11
ENDBRANCH   1  10
TORSDOF 12
ENDMDL
