MODEL 1
REMARK VINA RESULT:    -5.170      0.000      0.000
REMARK INTER + INTRA:         -11.720
REMARK INTER:                  -9.704
REMARK INTRA:                  -2.016
REMARK UNBOUND:                -2.016
REMARK SMILES CCCCCCCCC=CCCCCCCCC(=O)[O-]
REMARK SMILES IDX 10 1 9 2 11 3 12 4 13 5 14 6 15 7 16 8 17 9 18 10 19 11
REMARK SMILES IDX 20 12 8 13 7 14 6 15 5 16 4 17 3 18 2 19 1 20
REMARK H PARENT
REMARK Flexibility Score: inf
ROOT
ATOM      1  C   UNL     1       1.191 -36.148  20.369  1.00  0.00    -0.031 C 
ATOM      2  C   UNL     1       1.917 -36.079  19.236  1.00  0.00    -0.031 C 
ENDROOT
BRANCH   1   3
ATOM      3  C   UNL     1       0.752 -37.427  21.033  1.00  0.00     0.027 C 
BRANCH   3   4
ATOM      4  C   UNL     1      -0.477 -38.021  20.329  1.00  0.00     0.004 C 
BRANCH   4   5
ATOM      5  C   UNL     1      -1.790 -37.723  21.075  1.00  0.00     0.000 C 
BRANCH   5   6
ATOM      6  C   UNL     1      -2.337 -36.295  20.882  1.00  0.00     0.000 C 
BRANCH   6   7
ATOM      7  C   UNL     1      -2.574 -35.505  22.185  1.00  0.00     0.000 C 
BRANCH   7   8
ATOM      8  C   UNL     1      -1.578 -34.356  22.441  1.00  0.00     0.006 C 
BRANCH   8   9
ATOM      9  C   UNL     1      -2.172 -33.157  23.197  1.00  0.00     0.053 C 
BRANCH   9  10
ATOM     10  C   UNL     1      -1.320 -32.751  24.359  1.00  0.00     0.041 C 
ATOM     11  O   UNL     1      -1.635 -33.096  25.529  1.00  0.00    -0.550 OA
ATOM     12  O   UNL     1      -0.196 -31.961  24.154  1.00  0.00    -0.550 OA
ENDBRANCH   9  10
ENDBRANCH   8   9
ENDBRANCH   7   8
ENDBRANCH   6   7
ENDBRANCH   5   6
ENDBRANCH   4   5
ENDBRANCH   3   4
ENDBRANCH   1   3
BRANCH   2  13
ATOM     13  C   UNL     1       2.366 -37.268  18.419  1.00  0.00     0.027 C 
BRANCH  13  14
ATOM     14  C   UNL     1       3.574 -36.916  17.543  1.00  0.00     0.004 C 
BRANCH  14  15
ATOM     15  C   UNL     1       4.766 -36.418  18.375  1.00  0.00     0.000 C 
BRANCH  15  16
ATOM     16  C   UNL     1       5.711 -37.553  18.806  1.00  0.00     0.000 C 
BRANCH  16  17
ATOM     17  C   UNL     1       5.926 -37.633  20.332  1.00  0.00    -0.000 C 
BRANCH  17  18
ATOM     18  C   UNL     1       4.642 -38.025  21.079  1.00  0.00    -0.000 C 
BRANCH  18  19
ATOM     19  C   UNL     1       4.421 -37.129  22.302  1.00  0.00    -0.003 C 
ATOM     20  C   UNL     1       4.518 -35.653  21.930  1.00  0.00     0.004 C 
ENDBRANCH  18  19
ENDBRANCH  17  18
ENDBRANCH  16  17
ENDBRANCH  15  16
ENDBRANCH  14  15
ENDBRANCH  13  14
ENDBRANCH   2  13
TORSDOF 15
ENDMDL
MODEL 2
REMARK VINA RESULT:    -4.842      3.387      4.169
REMARK INTER + INTRA:         -11.104
REMARK INTER:                  -9.098
REMARK INTRA:                  -2.006
REMARK UNBOUND:                -2.016
REMARK SMILES CCCCCCCCC=CCCCCCCCC(=O)[O-]
REMARK SMILES IDX 10 1 9 2 11 3 12 4 13 5 14 6 15 7 16 8 17 9 18 10 19 11
REMARK SMILES IDX 20 12 8 13 7 14 6 15 5 16 4 17 3 18 2 19 1 20
REMARK H PARENT
REMARK Flexibility Score: inf
ROOT
ATOM      1  C   UNL     1       0.939 -37.534  20.586  1.00  0.00    -0.031 C 
ATOM      2  C   UNL     1       1.532 -37.791  19.404  1.00  0.00    -0.031 C 
ENDROOT
BRANCH   1   3
ATOM      3  C   UNL     1       0.736 -36.158  21.165  1.00  0.00     0.027 C 
BRANCH   3   4
ATOM      4  C   UNL     1      -0.606 -35.562  20.715  1.00  0.00     0.004 C 
BRANCH   4   5
ATOM      5  C   UNL     1      -1.610 -35.421  21.872  1.00  0.00     0.000 C 
BRANCH   5   6
ATOM      6  C   UNL     1      -2.922 -36.210  21.693  1.00  0.00     0.000 C 
BRANCH   6   7
ATOM      7  C   UNL     1      -2.753 -37.643  21.149  1.00  0.00     0.000 C 
BRANCH   7   8
ATOM      8  C   UNL     1      -3.357 -37.886  19.751  1.00  0.00     0.006 C 
BRANCH   8   9
ATOM      9  C   UNL     1      -3.590 -36.608  18.929  1.00  0.00     0.053 C 
BRANCH   9  10
ATOM     10  C   UNL     1      -4.296 -36.894  17.640  1.00  0.00     0.041 C 
ATOM     11  O   UNL     1      -4.177 -38.019  17.086  1.00  0.00    -0.550 OA
ATOM     12  O   UNL     1      -5.058 -35.905  17.032  1.00  0.00    -0.550 OA
ENDBRANCH   9  10
ENDBRANCH   8   9
ENDBRANCH   7   8
ENDBRANCH   6   7
ENDBRANCH   5   6
ENDBRANCH   4   5
ENDBRANCH   3   4
ENDBRANCH   1   3
BRANCH   2  13
ATOM     13  C   UNL     1       2.136 -36.750  18.490  1.00  0.00     0.027 C 
BRANCH  13  14
ATOM     14  C   UNL     1       3.379 -37.292  17.775  1.00  0.00     0.004 C 
BRANCH  14  15
ATOM     15  C   UNL     1       4.677 -36.915  18.507  1.00  0.00     0.000 C 
BRANCH  15  16
ATOM     16  C   UNL     1       5.151 -38.003  19.484  1.00  0.00     0.000 C 
BRANCH  16  17
ATOM     17  C   UNL     1       5.640 -37.448  20.839  1.00  0.00    -0.000 C 
BRANCH  17  18
ATOM     18  C   UNL     1       4.679 -37.791  21.988  1.00  0.00    -0.000 C 
BRANCH  18  19
ATOM     19  C   UNL     1       4.326 -36.542  22.802  1.00  0.00    -0.003 C 
ATOM     20  C   UNL     1       4.054 -35.348  21.891  1.00  0.00     0.004 C 
ENDBRANCH  18  19
ENDBRANCH  17  18
ENDBRANCH  16  17
ENDBRANCH  15  16
ENDBRANCH  14  15
ENDBRANCH  13  14
ENDBRANCH   2  13
TORSDOF 15
ENDMDL
MODEL 3
REMARK VINA RESULT:    -4.716      0.976      2.676
REMARK INTER + INTRA:         -10.867
REMARK INTER:                  -8.666
REMARK INTRA:                  -2.201
REMARK UNBOUND:                -2.016
REMARK SMILES CCCCCCCCC=CCCCCCCCC(=O)[O-]
REMARK SMILES IDX 10 1 9 2 11 3 12 4 13 5 14 6 15 7 16 8 17 9 18 10 19 11
REMARK SMILES IDX 20 12 8 13 7 14 6 15 5 16 4 17 3 18 2 19 1 20
REMARK H PARENT
REMARK Flexibility Score: inf
ROOT
ATOM      1  C   UNL     1       1.931 -35.589  21.512  1.00  0.00    -0.031 C 
ATOM      2  C   UNL     1       3.056 -35.262  22.178  1.00  0.00    -0.031 C 
ENDROOT
BRANCH   1   3
ATOM      3  C   UNL     1       1.329 -36.970  21.468  1.00  0.00     0.027 C 
BRANCH   3   4
ATOM      4  C   UNL     1       0.349 -37.108  20.294  1.00  0.00     0.004 C 
BRANCH   4   5
ATOM      5  C   UNL     1      -0.709 -35.991  20.269  1.00  0.00     0.000 C 
BRANCH   5   6
ATOM      6  C   UNL     1      -2.066 -36.369  20.895  1.00  0.00     0.000 C 
BRANCH   6   7
ATOM      7  C   UNL     1      -2.417 -35.619  22.196  1.00  0.00     0.000 C 
BRANCH   7   8
ATOM      8  C   UNL     1      -1.546 -34.381  22.491  1.00  0.00     0.006 C 
BRANCH   8   9
ATOM      9  C   UNL     1      -2.274 -33.258  23.244  1.00  0.00     0.053 C 
BRANCH   9  10
ATOM     10  C   UNL     1      -1.449 -32.712  24.369  1.00  0.00     0.041 C 
ATOM     11  O   UNL     1      -1.669 -33.079  25.553  1.00  0.00    -0.550 OA
ATOM     12  O   UNL     1      -0.459 -31.772  24.112  1.00  0.00    -0.550 OA
ENDBRANCH   9  10
ENDBRANCH   8   9
ENDBRANCH   7   8
ENDBRANCH   6   7
ENDBRANCH   5   6
ENDBRANCH   4   5
ENDBRANCH   3   4
ENDBRANCH   1   3
BRANCH   2  13
ATOM     13  C   UNL     1       3.924 -36.231  22.947  1.00  0.00     0.027 C 
BRANCH  13  14
ATOM     14  C   UNL     1       5.411 -35.994  22.659  1.00  0.00     0.004 C 
BRANCH  14  15
ATOM     15  C   UNL     1       5.827 -36.537  21.282  1.00  0.00     0.000 C 
BRANCH  15  16
ATOM     16  C   UNL     1       5.296 -37.955  21.013  1.00  0.00     0.000 C 
BRANCH  16  17
ATOM     17  C   UNL     1       4.368 -38.045  19.783  1.00  0.00    -0.000 C 
BRANCH  17  18
ATOM     18  C   UNL     1       4.897 -37.226  18.596  1.00  0.00    -0.000 C 
BRANCH  18  19
ATOM     19  C   UNL     1       3.830 -36.257  18.076  1.00  0.00    -0.003 C 
ATOM     20  C   UNL     1       2.645 -37.010  17.478  1.00  0.00     0.004 C 
ENDBRANCH  18  19
ENDBRANCH  17  18
ENDBRANCH  16  17
ENDBRANCH  15  16
ENDBRANCH  14  15
ENDBRANCH  13  14
ENDBRANCH   2  13
TORSDOF 15
ENDMDL
MODEL 4
REMARK VINA RESULT:    -4.356      2.340      6.821
REMARK INTER + INTRA:         -10.192
REMARK INTER:                  -8.621
REMARK INTRA:                  -1.570
REMARK UNBOUND:                -2.016
REMARK SMILES CCCCCCCCC=CCCCCCCCC(=O)[O-]
REMARK SMILES IDX 10 1 9 2 11 3 12 4 13 5 14 6 15 7 16 8 17 9 18 10 19 11
REMARK SMILES IDX 20 12 8 13 7 14 6 15 5 16 4 17 3 18 2 19 1 20
REMARK H PARENT
REMARK Flexibility Score: inf
ROOT
ATOM      1  C   UNL     1       1.474 -37.344  20.384  1.00  0.00    -0.031 C 
ATOM      2  C   UNL     1       0.369 -37.160  21.132  1.00  0.00    -0.031 C 
ENDROOT
BRANCH   1   3
ATOM      3  C   UNL     1       1.520 -38.123  19.094  1.00  0.00     0.027 C 
BRANCH   3   4
ATOM      4  C   UNL     1       2.369 -37.397  18.041  1.00  0.00     0.004 C 
BRANCH   4   5
ATOM      5  C   UNL     1       3.138 -36.198  18.623  1.00  0.00     0.000 C 
BRANCH   5   6
ATOM      6  C   UNL     1       4.666 -36.250  18.429  1.00  0.00     0.000 C 
BRANCH   6   7
ATOM      7  C   UNL     1       5.317 -37.613  18.739  1.00  0.00     0.000 C 
BRANCH   7   8
ATOM      8  C   UNL     1       5.286 -38.029  20.224  1.00  0.00     0.006 C 
BRANCH   8   9
ATOM      9  C   UNL     1       5.567 -36.884  21.209  1.00  0.00     0.053 C 
BRANCH   9  10
ATOM     10  C   UNL     1       4.519 -36.794  22.275  1.00  0.00     0.041 C 
ATOM     11  O   UNL     1       3.973 -35.690  22.536  1.00  0.00    -0.550 OA
ATOM     12  O   UNL     1       4.169 -37.924  23.003  1.00  0.00    -0.550 OA
ENDBRANCH   9  10
ENDBRANCH   8   9
ENDBRANCH   7   8
ENDBRANCH   6   7
ENDBRANCH   5   6
ENDBRANCH   4   5
ENDBRANCH   3   4
ENDBRANCH   1   3
BRANCH   2  13
ATOM     13  C   UNL     1      -0.992 -37.744  20.830  1.00  0.00     0.027 C 
BRANCH  13  14
ATOM     14  C   UNL     1      -2.113 -36.778  21.232  1.00  0.00     0.004 C 
BRANCH  14  15
ATOM     15  C   UNL     1      -1.590 -35.353  21.469  1.00  0.00     0.000 C 
BRANCH  15  16
ATOM     16  C   UNL     1      -2.123 -34.728  22.769  1.00  0.00     0.000 C 
BRANCH  16  17
ATOM     17  C   UNL     1      -1.841 -33.216  22.890  1.00  0.00    -0.000 C 
BRANCH  17  18
ATOM     18  C   UNL     1      -1.253 -32.843  24.260  1.00  0.00    -0.000 C 
BRANCH  18  19
ATOM     19  C   UNL     1      -0.113 -31.830  24.112  1.00  0.00    -0.003 C 
ATOM     20  C   UNL     1       1.245 -32.490  24.335  1.00  0.00     0.004 C 
ENDBRANCH  18  19
ENDBRANCH  17  18
ENDBRANCH  16  17
ENDBRANCH  15  16
ENDBRANCH  14  15
ENDBRANCH  13  14
ENDBRANCH   2  13
TORSDOF 15
ENDMDL
MODEL 5
REMARK VINA RESULT:    -4.301      3.028      7.324
REMARK INTER + INTRA:         -10.090
REMARK INTER:                  -8.481
REMARK INTRA:                  -1.609
REMARK UNBOUND:                -2.016
REMARK SMILES CCCCCCCCC=CCCCCCCCC(=O)[O-]
REMARK SMILES IDX 10 1 9 2 11 3 12 4 13 5 14 6 15 7 16 8 17 9 18 10 19 11
REMARK SMILES IDX 20 12 8 13 7 14 6 15 5 16 4 17 3 18 2 19 1 20
REMARK H PARENT
REMARK Flexibility Score: inf
ROOT
ATOM      1  C   UNL     1      -1.403 -32.423  23.814  1.00  0.00    -0.031 C 
ATOM      2  C   UNL     1      -2.183 -33.213  23.050  1.00  0.00    -0.031 C 
ENDROOT
BRANCH   1   3
ATOM      3  C   UNL     1      -0.183 -32.889  24.566  1.00  0.00     0.027 C 
BRANCH   3   4
ATOM      4  C   UNL     1       1.075 -32.146  24.091  1.00  0.00     0.004 C 
BRANCH   4   5
ATOM      5  C   UNL     1       2.313 -33.057  24.028  1.00  0.00     0.000 C 
BRANCH   5   6
ATOM      6  C   UNL     1       2.191 -34.254  23.064  1.00  0.00     0.000 C 
BRANCH   6   7
ATOM      7  C   UNL     1       3.476 -35.088  22.891  1.00  0.00     0.000 C 
BRANCH   7   8
ATOM      8  C   UNL     1       3.495 -36.006  21.653  1.00  0.00     0.006 C 
BRANCH   8   9
ATOM      9  C   UNL     1       2.126 -36.593  21.275  1.00  0.00     0.053 C 
BRANCH   9  10
ATOM     10  C   UNL     1       1.930 -36.645  19.792  1.00  0.00     0.041 C 
ATOM     11  O   UNL     1       2.333 -35.699  19.064  1.00  0.00    -0.550 OA
ATOM     12  O   UNL     1       1.270 -37.723  19.215  1.00  0.00    -0.550 OA
ENDBRANCH   9  10
ENDBRANCH   8   9
ENDBRANCH   7   8
ENDBRANCH   6   7
ENDBRANCH   5   6
ENDBRANCH   4   5
ENDBRANCH   3   4
ENDBRANCH   1   3
BRANCH   2  13
ATOM     13  C   UNL     1      -1.993 -34.700  22.861  1.00  0.00     0.027 C 
BRANCH  13  14
ATOM     14  C   UNL     1      -1.303 -35.008  21.527  1.00  0.00     0.004 C 
BRANCH  14  15
ATOM     15  C   UNL     1      -1.644 -36.415  21.011  1.00  0.00     0.000 C 
BRANCH  15  16
ATOM     16  C   UNL     1      -3.107 -36.810  21.273  1.00  0.00     0.000 C 
BRANCH  16  17
ATOM     17  C   UNL     1      -3.593 -37.993  20.408  1.00  0.00    -0.000 C 
BRANCH  17  18
ATOM     18  C   UNL     1      -3.127 -37.875  18.949  1.00  0.00    -0.000 C 
BRANCH  18  19
ATOM     19  C   UNL     1      -4.300 -37.545  18.021  1.00  0.00    -0.003 C 
ATOM     20  C   UNL     1      -4.368 -36.050  17.726  1.00  0.00     0.004 C 
ENDBRANCH  18  19
ENDBRANCH  17  18
ENDBRANCH  16  17
ENDBRANCH  15  16
ENDBRANCH  14  15
ENDBRANCH  13  14
ENDBRANCH   2  13
TORSDOF 15
ENDMDL
MODEL 6
REMARK VINA RESULT:    -4.145      1.603      4.532
REMARK INTER + INTRA:          -9.797
REMARK INTER:                  -7.629
REMARK INTRA:                  -2.168
REMARK UNBOUND:                -2.016
REMARK SMILES CCCCCCCCC=CCCCCCCCC(=O)[O-]
REMARK SMILES IDX 10 1 9 2 11 3 12 4 13 5 14 6 15 7 16 8 17 9 18 10 19 11
REMARK SMILES IDX 20 12 8 13 7 14 6 15 5 16 4 17 3 18 2 19 1 20
REMARK H PARENT
REMARK Flexibility Score: inf
ROOT
ATOM      1  C   UNL     1       5.160 -37.676  21.223  1.00  0.00    -0.031 C 
ATOM      2  C   UNL     1       4.840 -37.758  19.917  1.00  0.00    -0.031 C 
ENDROOT
BRANCH   1   3
ATOM      3  C   UNL     1       5.231 -36.394  22.012  1.00  0.00     0.027 C 
BRANCH   3   4
ATOM      4  C   UNL     1       3.891 -36.095  22.702  1.00  0.00     0.004 C 
BRANCH   4   5
ATOM      5  C   UNL     1       3.415 -34.650  22.471  1.00  0.00     0.000 C 
BRANCH   5   6
ATOM      6  C   UNL     1       2.162 -34.244  23.271  1.00  0.00     0.000 C 
BRANCH   6   7
ATOM      7  C   UNL     1       2.251 -32.875  23.976  1.00  0.00     0.000 C 
BRANCH   7   8
ATOM      8  C   UNL     1       0.894 -32.233  24.328  1.00  0.00     0.006 C 
BRANCH   8   9
ATOM      9  C   UNL     1      -0.325 -32.969  23.752  1.00  0.00     0.053 C 
BRANCH   9  10
ATOM     10  C   UNL     1      -1.587 -32.183  23.929  1.00  0.00     0.041 C 
ATOM     11  O   UNL     1      -1.544 -31.001  24.362  1.00  0.00    -0.550 OA
ATOM     12  O   UNL     1      -2.816 -32.768  23.649  1.00  0.00    -0.550 OA
ENDBRANCH   9  10
ENDBRANCH   8   9
ENDBRANCH   7   8
ENDBRANCH   6   7
ENDBRANCH   5   6
ENDBRANCH   4   5
ENDBRANCH   3   4
ENDBRANCH   1   3
BRANCH   2  13
ATOM     13  C   UNL     1       4.550 -36.579  19.017  1.00  0.00     0.027 C 
BRANCH  13  14
ATOM     14  C   UNL     1       3.154 -36.686  18.393  1.00  0.00     0.004 C 
BRANCH  14  15
ATOM     15  C   UNL     1       2.057 -36.174  19.340  1.00  0.00     0.000 C 
BRANCH  15  16
ATOM     16  C   UNL     1       1.249 -37.310  19.989  1.00  0.00     0.000 C 
BRANCH  16  17
ATOM     17  C   UNL     1       0.403 -36.855  21.197  1.00  0.00    -0.000 C 
BRANCH  17  18
ATOM     18  C   UNL     1      -0.361 -35.553  20.913  1.00  0.00    -0.000 C 
BRANCH  18  19
ATOM     19  C   UNL     1      -1.816 -35.654  21.381  1.00  0.00    -0.003 C 
ATOM     20  C   UNL     1      -2.649 -36.495  20.417  1.00  0.00     0.004 C 
ENDBRANCH  18  19
ENDBRANCH  17  18
ENDBRANCH  16  17
ENDBRANCH  15  16
ENDBRANCH  14  15
ENDBRANCH  13  14
ENDBRANCH   2  13
TORSDOF 15
ENDMDL
MODEL 7
REMARK VINA RESULT:    -4.085      3.222      6.029
REMARK INTER + INTRA:          -9.684
REMARK INTER:                  -7.664
REMARK INTRA:                  -2.020
REMARK UNBOUND:                -2.016
REMARK SMILES CCCCCCCCC=CCCCCCCCC(=O)[O-]
REMARK SMILES IDX 10 1 9 2 11 3 12 4 13 5 14 6 15 7 16 8 17 9 18 10 19 11
REMARK SMILES IDX 20 12 8 13 7 14 6 15 5 16 4 17 3 18 2 19 1 20
REMARK H PARENT
REMARK Flexibility Score: inf
ROOT
ATOM      1  C   UNL     1      -1.956 -33.511  23.639  1.00  0.00    -0.031 C 
ATOM      2  C   UNL     1      -1.304 -32.530  24.293  1.00  0.00    -0.031 C 
ENDROOT
BRANCH   1   3
ATOM      3  C   UNL     1      -1.457 -34.193  22.391  1.00  0.00     0.027 C 
BRANCH   3   4
ATOM      4  C   UNL     1      -2.282 -35.450  22.081  1.00  0.00     0.004 C 
BRANCH   4   5
ATOM      5  C   UNL     1      -1.546 -36.427  21.147  1.00  0.00     0.000 C 
BRANCH   5   6
ATOM      6  C   UNL     1      -0.036 -36.163  20.992  1.00  0.00     0.000 C 
BRANCH   6   7
ATOM      7  C   UNL     1       0.848 -37.425  20.946  1.00  0.00     0.000 C 
BRANCH   7   8
ATOM      8  C   UNL     1       1.706 -37.576  19.673  1.00  0.00     0.006 C 
BRANCH   8   9
ATOM      9  C   UNL     1       2.409 -36.285  19.226  1.00  0.00     0.053 C 
BRANCH   9  10
ATOM     10  C   UNL     1       3.276 -36.509  18.025  1.00  0.00     0.041 C 
ATOM     11  O   UNL     1       2.788 -36.995  16.971  1.00  0.00    -0.550 OA
ATOM     12  O   UNL     1       4.632 -36.211  18.082  1.00  0.00    -0.550 OA
ENDBRANCH   9  10
ENDBRANCH   8   9
ENDBRANCH   7   8
ENDBRANCH   6   7
ENDBRANCH   5   6
ENDBRANCH   4   5
ENDBRANCH   3   4
ENDBRANCH   1   3
BRANCH   2  13
ATOM     13  C   UNL     1       0.007 -31.918  23.856  1.00  0.00     0.027 C 
BRANCH  13  14
ATOM     14  C   UNL     1       1.181 -32.485  24.662  1.00  0.00     0.004 C 
BRANCH  14  15
ATOM     15  C   UNL     1       2.342 -32.928  23.757  1.00  0.00     0.000 C 
BRANCH  15  16
ATOM     16  C   UNL     1       2.176 -34.362  23.229  1.00  0.00     0.000 C 
BRANCH  16  17
ATOM     17  C   UNL     1       3.390 -34.868  22.420  1.00  0.00    -0.000 C 
BRANCH  17  18
ATOM     18  C   UNL     1       4.192 -35.933  23.184  1.00  0.00    -0.000 C 
BRANCH  18  19
ATOM     19  C   UNL     1       4.473 -37.151  22.298  1.00  0.00    -0.003 C 
ATOM     20  C   UNL     1       5.665 -36.902  21.378  1.00  0.00     0.004 C 
ENDBRANCH  18  19
ENDBRANCH  17  18
ENDBRANCH  16  17
ENDBRANCH  15  16
ENDBRANCH  14  15
ENDBRANCH  13  14
ENDBRANCH   2  13
TORSDOF 15
ENDMDL
MODEL 8
REMARK VINA RESULT:    -3.888      2.831      5.110
REMARK INTER + INTRA:          -9.314
REMARK INTER:                  -7.456
REMARK INTRA:                  -1.858
REMARK UNBOUND:                -2.016
REMARK SMILES CCCCCCCCC=CCCCCCCCC(=O)[O-]
REMARK SMILES IDX 10 1 9 2 11 3 12 4 13 5 14 6 15 7 16 8 17 9 18 10 19 11
REMARK SMILES IDX 20 12 8 13 7 14 6 15 5 16 4 17 3 18 2 19 1 20
REMARK H PARENT
REMARK Flexibility Score: inf
ROOT
ATOM      1  C   UNL     1       1.390 -32.266  24.381  1.00  0.00    -0.031 C 
ATOM      2  C   UNL     1       2.261 -33.240  24.057  1.00  0.00    -0.031 C 
ENDROOT
BRANCH   1   3
ATOM      3  C   UNL     1       0.089 -32.002  23.666  1.00  0.00     0.027 C 
BRANCH   3   4
ATOM      4  C   UNL     1      -1.056 -32.816  24.285  1.00  0.00     0.004 C 
BRANCH   4   5
ATOM      5  C   UNL     1      -2.147 -33.177  23.262  1.00  0.00     0.000 C 
BRANCH   5   6
ATOM      6  C   UNL     1      -2.185 -34.662  22.849  1.00  0.00     0.000 C 
BRANCH   6   7
ATOM      7  C   UNL     1      -1.281 -35.031  21.656  1.00  0.00     0.000 C 
BRANCH   7   8
ATOM      8  C   UNL     1      -1.151 -36.543  21.379  1.00  0.00     0.006 C 
BRANCH   8   9
ATOM      9  C   UNL     1      -1.796 -37.005  20.064  1.00  0.00     0.053 C 
BRANCH   9  10
ATOM     10  C   UNL     1      -3.221 -37.426  20.257  1.00  0.00     0.041 C 
ATOM     11  O   UNL     1      -3.743 -37.391  21.403  1.00  0.00    -0.550 OA
ATOM     12  O   UNL     1      -3.962 -37.889  19.177  1.00  0.00    -0.550 OA
ENDBRANCH   9  10
ENDBRANCH   8   9
ENDBRANCH   7   8
ENDBRANCH   6   7
ENDBRANCH   5   6
ENDBRANCH   4   5
ENDBRANCH   3   4
ENDBRANCH   1   3
BRANCH   2  13
ATOM     13  C   UNL     1       2.105 -34.194  22.895  1.00  0.00     0.027 C 
BRANCH  13  14
ATOM     14  C   UNL     1       3.256 -35.206  22.849  1.00  0.00     0.004 C 
BRANCH  14  15
ATOM     15  C   UNL     1       3.383 -35.873  21.470  1.00  0.00     0.000 C 
BRANCH  15  16
ATOM     16  C   UNL     1       2.534 -37.149  21.342  1.00  0.00     0.000 C 
BRANCH  16  17
ATOM     17  C   UNL     1       2.107 -37.466  19.893  1.00  0.00    -0.000 C 
BRANCH  17  18
ATOM     18  C   UNL     1       2.283 -36.259  18.959  1.00  0.00    -0.000 C 
BRANCH  18  19
ATOM     19  C   UNL     1       3.061 -36.647  17.698  1.00  0.00    -0.003 C 
ATOM     20  C   UNL     1       4.379 -37.331  18.050  1.00  0.00     0.004 C 
ENDBRANCH  18  19
ENDBRANCH  17  18
ENDBRANCH  16  17
ENDBRANCH  15  16
ENDBRANCH  14  15
ENDBRANCH  13  14
ENDBRANCH   2  13
TORSDOF 15
ENDMDL
