MODEL 1
REMARK VINA RESULT:    -5.326      0.000      0.000
REMARK INTER + INTRA:         -11.557
REMARK INTER:                 -10.307
REMARK INTRA:                  -1.250
REMARK UNBOUND:                -1.250
REMARK SMILES CCCCCCCCCCCCCCCCCC(=O)[O-]
REMARK SMILES IDX 10 1 11 2 12 3 13 4 14 5 15 6 16 7 17 8 18 9 19 10 20 11
REMARK SMILES IDX 9 12 8 13 7 14 6 15 5 16 4 17 3 18 2 19 1 20
REMARK H PARENT
REMARK Flexibility Score: inf
ROOT
ATOM      1  C   UNL     1      -8.825  -8.472  -4.945  1.00  0.00     0.000 C 
ENDROOT
BRANCH   1   2
ATOM      2  C   UNL     1      -9.339  -9.909  -5.137  1.00  0.00     0.000 C 
BRANCH   2   3
ATOM      3  C   UNL     1      -8.211 -10.921  -5.381  1.00  0.00     0.000 C 
BRANCH   3   4
ATOM      4  C   UNL     1      -6.840 -10.292  -5.109  1.00  0.00     0.000 C 
BRANCH   4   5
ATOM      5  C   UNL     1      -6.027 -10.163  -6.405  1.00  0.00     0.000 C 
BRANCH   5   6
ATOM      6  C   UNL     1      -4.986 -11.283  -6.576  1.00  0.00     0.000 C 
BRANCH   6   7
ATOM      7  C   UNL     1      -3.645 -11.045  -5.850  1.00  0.00     0.006 C 
BRANCH   7   8
ATOM      8  C   UNL     1      -2.765 -12.297  -5.709  1.00  0.00     0.053 C 
BRANCH   8   9
ATOM      9  C   UNL     1      -1.886 -12.231  -4.497  1.00  0.00     0.041 C 
ATOM     10  O   UNL     1      -2.394 -12.110  -3.352  1.00  0.00    -0.550 OA
ATOM     11  O   UNL     1      -0.507 -12.339  -4.631  1.00  0.00    -0.550 OA
ENDBRANCH   8   9
ENDBRANCH   7   8
ENDBRANCH   6   7
ENDBRANCH   5   6
ENDBRANCH   4   5
ENDBRANCH   3   4
ENDBRANCH   2   3
ENDBRANCH   1   2
BRANCH   1  12
ATOM     12  C   UNL     1      -9.728  -7.401  -5.592  1.00  0.00     0.000 C 
BRANCH  12  13
ATOM     13  C   UNL     1     -11.146  -7.931  -5.872  1.00  0.00    -0.000 C 
BRANCH  13  14
ATOM     14  C   UNL     1     -12.241  -6.914  -5.514  1.00  0.00    -0.000 C 
BRANCH  14  15
ATOM     15  C   UNL     1     -11.710  -5.474  -5.436  1.00  0.00    -0.000 C 
BRANCH  15  16
ATOM     16  C   UNL     1     -12.654  -4.503  -6.161  1.00  0.00    -0.000 C 
BRANCH  16  17
ATOM     17  C   UNL     1     -12.045  -3.939  -7.457  1.00  0.00    -0.000 C 
BRANCH  17  18
ATOM     18  C   UNL     1     -10.610  -4.439  -7.701  1.00  0.00    -0.000 C 
BRANCH  18  19
ATOM     19  C   UNL     1     -10.491  -5.285  -8.978  1.00  0.00    -0.003 C 
ATOM     20  C   UNL     1     -11.196  -4.651 -10.178  1.00  0.00     0.004 C 
ENDBRANCH  18  19
ENDBRANCH  17  18
ENDBRANCH  16  17
ENDBRANCH  15  16
ENDBRANCH  14  15
ENDBRANCH  13  14
ENDBRANCH  12  13
ENDBRANCH   1  12
TORSDOF 16
ENDMDL
MODEL 2
REMARK VINA RESULT:    -5.071      4.271      9.620
REMARK INTER + INTRA:         -11.064
REMARK INTER:                 -10.018
REMARK INTRA:                  -1.046
REMARK UNBOUND:                -1.250
REMARK SMILES CCCCCCCCCCCCCCCCCC(=O)[O-]
REMARK SMILES IDX 10 1 11 2 12 3 13 4 14 5 15 6 16 7 17 8 18 9 19 10 20 11
REMARK SMILES IDX 9 12 8 13 7 14 6 15 5 16 4 17 3 18 2 19 1 20
REMARK H PARENT
REMARK Flexibility Score: inf
ROOT
ATOM      1  C   UNL     1      -8.682  -8.468  -4.941  1.00  0.00     0.000 C 
ENDROOT
BRANCH   1   2
ATOM      2  C   UNL     1      -9.590  -7.351  -5.484  1.00  0.00     0.000 C 
BRANCH   2   3
ATOM      3  C   UNL     1     -10.963  -7.865  -5.939  1.00  0.00     0.000 C 
BRANCH   3   4
ATOM      4  C   UNL     1     -12.080  -6.910  -5.503  1.00  0.00     0.000 C 
BRANCH   4   5
ATOM      5  C   UNL     1     -11.502  -5.569  -5.027  1.00  0.00     0.000 C 
BRANCH   5   6
ATOM      6  C   UNL     1     -12.343  -4.360  -5.471  1.00  0.00     0.000 C 
BRANCH   6   7
ATOM      7  C   UNL     1     -12.341  -4.085  -6.989  1.00  0.00     0.006 C 
BRANCH   7   8
ATOM      8  C   UNL     1     -10.953  -4.133  -7.645  1.00  0.00     0.053 C 
BRANCH   8   9
ATOM      9  C   UNL     1     -11.040  -4.208  -9.138  1.00  0.00     0.041 C 
ATOM     10  O   UNL     1     -11.200  -3.158  -9.816  1.00  0.00    -0.550 OA
ATOM     11  O   UNL     1     -10.907  -5.431  -9.783  1.00  0.00    -0.550 OA
ENDBRANCH   8   9
ENDBRANCH   7   8
ENDBRANCH   6   7
ENDBRANCH   5   6
ENDBRANCH   4   5
ENDBRANCH   3   4
ENDBRANCH   2   3
ENDBRANCH   1   2
BRANCH   1  12
ATOM     12  C   UNL     1      -9.312  -9.874  -5.029  1.00  0.00     0.000 C 
BRANCH  12  13
ATOM     13  C   UNL     1      -8.291 -10.940  -5.466  1.00  0.00    -0.000 C 
BRANCH  13  14
ATOM     14  C   UNL     1      -6.837 -10.499  -5.240  1.00  0.00    -0.000 C 
BRANCH  14  15
ATOM     15  C   UNL     1      -6.060 -10.324  -6.555  1.00  0.00    -0.000 C 
BRANCH  15  16
ATOM     16  C   UNL     1      -4.887 -11.314  -6.632  1.00  0.00    -0.000 C 
BRANCH  16  17
ATOM     17  C   UNL     1      -3.702 -10.901  -5.742  1.00  0.00    -0.000 C 
BRANCH  17  18
ATOM     18  C   UNL     1      -2.805 -12.091  -5.362  1.00  0.00    -0.000 C 
BRANCH  18  19
ATOM     19  C   UNL     1      -2.344 -12.037  -3.897  1.00  0.00    -0.003 C 
ATOM     20  C   UNL     1      -2.332 -13.412  -3.227  1.00  0.00     0.004 C 
ENDBRANCH  18  19
ENDBRANCH  17  18
ENDBRANCH  16  17
ENDBRANCH  15  16
ENDBRANCH  14  15
ENDBRANCH  13  14
ENDBRANCH  12  13
ENDBRANCH   1  12
TORSDOF 16
ENDMDL
MODEL 3
REMARK VINA RESULT:    -4.946      1.178      2.541
REMARK INTER + INTRA:         -10.823
REMARK INTER:                  -9.664
REMARK INTRA:                  -1.159
REMARK UNBOUND:                -1.250
REMARK SMILES CCCCCCCCCCCCCCCCCC(=O)[O-]
REMARK SMILES IDX 10 1 11 2 12 3 13 4 14 5 15 6 16 7 17 8 18 9 19 10 20 11
REMARK SMILES IDX 9 12 8 13 7 14 6 15 5 16 4 17 3 18 2 19 1 20
REMARK H PARENT
REMARK Flexibility Score: inf
ROOT
ATOM      1  C   UNL     1      -7.877  -8.920  -5.153  1.00  0.00     0.000 C 
ENDROOT
BRANCH   1   2
ATOM      2  C   UNL     1      -7.730 -10.451  -5.178  1.00  0.00     0.000 C 
BRANCH   2   3
ATOM      3  C   UNL     1      -6.843 -10.949  -6.328  1.00  0.00     0.000 C 
BRANCH   3   4
ATOM      4  C   UNL     1      -5.443 -10.329  -6.250  1.00  0.00     0.000 C 
BRANCH   4   5
ATOM      5  C   UNL     1      -4.358 -11.409  -6.369  1.00  0.00     0.000 C 
BRANCH   5   6
ATOM      6  C   UNL     1      -3.104 -11.096  -5.533  1.00  0.00     0.000 C 
BRANCH   6   7
ATOM      7  C   UNL     1      -2.179 -12.301  -5.265  1.00  0.00     0.006 C 
BRANCH   7   8
ATOM      8  C   UNL     1      -2.435 -13.018  -3.930  1.00  0.00     0.053 C 
BRANCH   8   9
ATOM      9  C   UNL     1      -1.169 -13.240  -3.161  1.00  0.00     0.041 C 
ATOM     10  O   UNL     1      -1.215 -13.644  -1.969  1.00  0.00    -0.550 OA
ATOM     11  O   UNL     1       0.062 -13.036  -3.772  1.00  0.00    -0.550 OA
ENDBRANCH   8   9
ENDBRANCH   7   8
ENDBRANCH   6   7
ENDBRANCH   5   6
ENDBRANCH   4   5
ENDBRANCH   3   4
ENDBRANCH   2   3
ENDBRANCH   1   2
BRANCH   1  12
ATOM     12  C   UNL     1      -9.306  -8.431  -5.470  1.00  0.00     0.000 C 
BRANCH  12  13
ATOM     13  C   UNL     1      -9.493  -6.938  -5.148  1.00  0.00    -0.000 C 
BRANCH  13  14
ATOM     14  C   UNL     1      -9.324  -6.038  -6.383  1.00  0.00    -0.000 C 
BRANCH  14  15
ATOM     15  C   UNL     1     -10.298  -6.400  -7.516  1.00  0.00    -0.000 C 
BRANCH  15  16
ATOM     16  C   UNL     1     -10.979  -5.141  -8.074  1.00  0.00    -0.000 C 
BRANCH  16  17
ATOM     17  C   UNL     1     -11.382  -4.146  -6.972  1.00  0.00    -0.000 C 
BRANCH  17  18
ATOM     18  C   UNL     1     -12.766  -4.455  -6.375  1.00  0.00    -0.000 C 
BRANCH  18  19
ATOM     19  C   UNL     1     -12.678  -5.085  -4.977  1.00  0.00    -0.003 C 
ATOM     20  C   UNL     1     -13.036  -6.572  -4.972  1.00  0.00     0.004 C 
ENDBRANCH  18  19
ENDBRANCH  17  18
ENDBRANCH  16  17
ENDBRANCH  15  16
ENDBRANCH  14  15
ENDBRANCH  13  14
ENDBRANCH  12  13
ENDBRANCH   1  12
TORSDOF 16
ENDMDL
MODEL 4
REMARK VINA RESULT:    -4.942      0.939      2.193
REMARK INTER + INTRA:         -10.814
REMARK INTER:                  -9.912
REMARK INTRA:                  -0.901
REMARK UNBOUND:                -1.250
REMARK SMILES CCCCCCCCCCCCCCCCCC(=O)[O-]
REMARK SMILES IDX 10 1 11 2 12 3 13 4 14 5 15 6 16 7 17 8 18 9 19 10 20 11
REMARK SMILES IDX 9 12 8 13 7 14 6 15 5 16 4 17 3 18 2 19 1 20
REMARK H PARENT
REMARK Flexibility Score: inf
ROOT
ATOM      1  C   UNL     1      -8.344 -10.770  -5.504  1.00  0.00     0.000 C 
ENDROOT
BRANCH   1   2
ATOM      2  C   UNL     1      -6.922 -10.327  -5.116  1.00  0.00     0.000 C 
BRANCH   2   3
ATOM      3  C   UNL     1      -6.004 -10.133  -6.330  1.00  0.00     0.000 C 
BRANCH   3   4
ATOM      4  C   UNL     1      -5.804 -11.452  -7.085  1.00  0.00     0.000 C 
BRANCH   4   5
ATOM      5  C   UNL     1      -4.400 -12.021  -6.835  1.00  0.00     0.000 C 
BRANCH   5   6
ATOM      6  C   UNL     1      -3.599 -11.212  -5.800  1.00  0.00     0.000 C 
BRANCH   6   7
ATOM      7  C   UNL     1      -2.380 -11.944  -5.201  1.00  0.00     0.006 C 
BRANCH   7   8
ATOM      8  C   UNL     1      -2.480 -12.224  -3.693  1.00  0.00     0.053 C 
BRANCH   8   9
ATOM      9  C   UNL     1      -1.420 -13.173  -3.227  1.00  0.00     0.041 C 
ATOM     10  O   UNL     1      -0.377 -13.344  -3.913  1.00  0.00    -0.550 OA
ATOM     11  O   UNL     1      -1.566 -13.842  -2.018  1.00  0.00    -0.550 OA
ENDBRANCH   8   9
ENDBRANCH   7   8
ENDBRANCH   6   7
ENDBRANCH   5   6
ENDBRANCH   4   5
ENDBRANCH   3   4
ENDBRANCH   2   3
ENDBRANCH   1   2
BRANCH   1  12
ATOM     12  C   UNL     1      -9.434  -9.741  -5.135  1.00  0.00     0.000 C 
BRANCH  12  13
ATOM     13  C   UNL     1      -8.838  -8.369  -4.775  1.00  0.00    -0.000 C 
BRANCH  13  14
ATOM     14  C   UNL     1      -9.263  -7.262  -5.752  1.00  0.00    -0.000 C 
BRANCH  14  15
ATOM     15  C   UNL     1     -10.376  -6.366  -5.183  1.00  0.00    -0.000 C 
BRANCH  15  16
ATOM     16  C   UNL     1     -11.506  -6.182  -6.207  1.00  0.00    -0.000 C 
BRANCH  16  17
ATOM     17  C   UNL     1     -12.238  -4.838  -6.048  1.00  0.00    -0.000 C 
BRANCH  17  18
ATOM     18  C   UNL     1     -12.126  -3.951  -7.300  1.00  0.00    -0.000 C 
BRANCH  18  19
ATOM     19  C   UNL     1     -10.768  -4.096  -8.005  1.00  0.00    -0.003 C 
ATOM     20  C   UNL     1     -10.885  -4.719  -9.397  1.00  0.00     0.004 C 
ENDBRANCH  18  19
ENDBRANCH  17  18
ENDBRANCH  16  17
ENDBRANCH  15  16
ENDBRANCH  14  15
ENDBRANCH  13  14
ENDBRANCH  12  13
ENDBRANCH   1  12
TORSDOF 16
ENDMDL
MODEL 5
REMARK VINA RESULT:    -4.906      4.352      9.937
REMARK INTER + INTRA:         -10.745
REMARK INTER:                  -9.572
REMARK INTRA:                  -1.173
REMARK UNBOUND:                -1.250
REMARK SMILES CCCCCCCCCCCCCCCCCC(=O)[O-]
REMARK SMILES IDX 10 1 11 2 12 3 13 4 14 5 15 6 16 7 17 8 18 9 19 10 20 11
REMARK SMILES IDX 9 12 8 13 7 14 6 15 5 16 4 17 3 18 2 19 1 20
REMARK H PARENT
REMARK Flexibility Score: inf
ROOT
ATOM      1  C   UNL     1      -5.998 -10.408  -6.487  1.00  0.00     0.000 C 
ENDROOT
BRANCH   1   2
ATOM      2  C   UNL     1      -6.854 -10.005  -5.273  1.00  0.00     0.000 C 
BRANCH   2   3
ATOM      3  C   UNL     1      -8.225 -10.694  -5.253  1.00  0.00     0.000 C 
BRANCH   3   4
ATOM      4  C   UNL     1      -9.358  -9.663  -5.186  1.00  0.00     0.000 C 
BRANCH   4   5
ATOM      5  C   UNL     1      -8.802  -8.250  -4.950  1.00  0.00     0.000 C 
BRANCH   5   6
ATOM      6  C   UNL     1      -9.775  -7.141  -5.385  1.00  0.00     0.000 C 
BRANCH   6   7
ATOM      7  C   UNL     1      -9.331  -6.330  -6.620  1.00  0.00     0.006 C 
BRANCH   7   8
ATOM      8  C   UNL     1     -10.400  -6.196  -7.715  1.00  0.00     0.053 C 
BRANCH   8   9
ATOM      9  C   UNL     1     -10.519  -4.788  -8.214  1.00  0.00     0.041 C 
ATOM     10  O   UNL     1     -10.432  -4.544  -9.447  1.00  0.00    -0.550 OA
ATOM     11  O   UNL     1     -10.762  -3.751  -7.323  1.00  0.00    -0.550 OA
ENDBRANCH   8   9
ENDBRANCH   7   8
ENDBRANCH   6   7
ENDBRANCH   5   6
ENDBRANCH   4   5
ENDBRANCH   3   4
ENDBRANCH   2   3
ENDBRANCH   1   2
BRANCH   1  12
ATOM     12  C   UNL     1      -6.635 -11.517  -7.351  1.00  0.00     0.000 C 
BRANCH  12  13
ATOM     13  C   UNL     1      -5.681 -12.705  -7.565  1.00  0.00    -0.000 C 
BRANCH  13  14
ATOM     14  C   UNL     1      -4.278 -12.450  -6.995  1.00  0.00    -0.000 C 
BRANCH  14  15
ATOM     15  C   UNL     1      -3.395 -13.709  -7.010  1.00  0.00    -0.000 C 
BRANCH  15  16
ATOM     16  C   UNL     1      -2.533 -13.788  -5.740  1.00  0.00    -0.000 C 
BRANCH  16  17
ATOM     17  C   UNL     1      -2.123 -12.401  -5.214  1.00  0.00    -0.000 C 
BRANCH  17  18
ATOM     18  C   UNL     1      -2.460 -12.210  -3.725  1.00  0.00    -0.000 C 
BRANCH  18  19
ATOM     19  C   UNL     1      -2.215 -13.481  -2.898  1.00  0.00    -0.003 C 
ATOM     20  C   UNL     1      -0.758 -13.634  -2.460  1.00  0.00     0.004 C 
ENDBRANCH  18  19
ENDBRANCH  17  18
ENDBRANCH  16  17
ENDBRANCH  15  16
ENDBRANCH  14  15
ENDBRANCH  13  14
ENDBRANCH  12  13
ENDBRANCH   1  12
TORSDOF 16
ENDMDL
MODEL 6
REMARK VINA RESULT:    -4.812      2.553      3.480
REMARK INTER + INTRA:         -10.564
REMARK INTER:                  -9.088
REMARK INTRA:                  -1.476
REMARK UNBOUND:                -1.250
REMARK SMILES CCCCCCCCCCCCCCCCCC(=O)[O-]
REMARK SMILES IDX 10 1 11 2 12 3 13 4 14 5 15 6 16 7 17 8 18 9 19 10 20 11
REMARK SMILES IDX 9 12 8 13 7 14 6 15 5 16 4 17 3 18 2 19 1 20
REMARK H PARENT
REMARK Flexibility Score: inf
ROOT
ATOM      1  C   UNL     1      -8.690  -8.251  -4.907  1.00  0.00     0.000 C 
ENDROOT
BRANCH   1   2
ATOM      2  C   UNL     1      -9.408  -9.602  -5.075  1.00  0.00     0.000 C 
BRANCH   2   3
ATOM      3  C   UNL     1      -8.456 -10.741  -5.463  1.00  0.00     0.000 C 
BRANCH   3   4
ATOM      4  C   UNL     1      -6.997 -10.351  -5.204  1.00  0.00     0.000 C 
BRANCH   4   5
ATOM      5  C   UNL     1      -6.185 -10.363  -6.507  1.00  0.00     0.000 C 
BRANCH   5   6
ATOM      6  C   UNL     1      -4.741 -10.860  -6.312  1.00  0.00     0.000 C 
BRANCH   6   7
ATOM      7  C   UNL     1      -4.391 -12.161  -7.062  1.00  0.00     0.006 C 
BRANCH   7   8
ATOM      8  C   UNL     1      -5.567 -12.798  -7.819  1.00  0.00     0.053 C 
BRANCH   8   9
ATOM      9  C   UNL     1      -5.239 -13.046  -9.260  1.00  0.00     0.041 C 
ATOM     10  O   UNL     1      -4.198 -13.682  -9.571  1.00  0.00    -0.550 OA
ATOM     11  O   UNL     1      -6.101 -12.607 -10.257  1.00  0.00    -0.550 OA
ENDBRANCH   8   9
ENDBRANCH   7   8
ENDBRANCH   6   7
ENDBRANCH   5   6
ENDBRANCH   4   5
ENDBRANCH   3   4
ENDBRANCH   2   3
ENDBRANCH   1   2
BRANCH   1  12
ATOM     12  C   UNL     1      -9.596  -7.032  -5.176  1.00  0.00     0.000 C 
BRANCH  12  13
ATOM     13  C   UNL     1      -9.299  -6.378  -6.537  1.00  0.00    -0.000 C 
BRANCH  13  14
ATOM     14  C   UNL     1     -10.362  -6.704  -7.598  1.00  0.00    -0.000 C 
BRANCH  14  15
ATOM     15  C   UNL     1     -10.344  -5.718  -8.777  1.00  0.00    -0.000 C 
BRANCH  15  16
ATOM     16  C   UNL     1     -11.440  -4.653  -8.616  1.00  0.00    -0.000 C 
BRANCH  16  17
ATOM     17  C   UNL     1     -10.995  -3.473  -7.736  1.00  0.00    -0.000 C 
BRANCH  17  18
ATOM     18  C   UNL     1     -11.620  -3.514  -6.331  1.00  0.00    -0.000 C 
BRANCH  18  19
ATOM     19  C   UNL     1     -12.847  -4.435  -6.259  1.00  0.00    -0.003 C 
ATOM     20  C   UNL     1     -12.841  -5.337  -5.024  1.00  0.00     0.004 C 
ENDBRANCH  18  19
ENDBRANCH  17  18
ENDBRANCH  16  17
ENDBRANCH  15  16
ENDBRANCH  14  15
ENDBRANCH  13  14
ENDBRANCH  12  13
ENDBRANCH   1  12
TORSDOF 16
ENDMDL
MODEL 7
REMARK VINA RESULT:    -4.812      4.134      9.295
REMARK INTER + INTRA:         -10.562
REMARK INTER:                  -9.293
REMARK INTRA:                  -1.269
REMARK UNBOUND:                -1.250
REMARK SMILES CCCCCCCCCCCCCCCCCC(=O)[O-]
REMARK SMILES IDX 10 1 11 2 12 3 13 4 14 5 15 6 16 7 17 8 18 9 19 10 20 11
REMARK SMILES IDX 9 12 8 13 7 14 6 15 5 16 4 17 3 18 2 19 1 20
REMARK H PARENT
REMARK Flexibility Score: inf
ROOT
ATOM      1  C   UNL     1      -9.196  -8.954  -4.762  1.00  0.00     0.000 C 
ENDROOT
BRANCH   1   2
ATOM      2  C   UNL     1     -10.012  -7.887  -5.511  1.00  0.00     0.000 C 
BRANCH   2   3
ATOM      3  C   UNL     1      -9.335  -6.509  -5.513  1.00  0.00     0.000 C 
BRANCH   3   4
ATOM      4  C   UNL     1      -9.329  -5.901  -6.920  1.00  0.00     0.000 C 
BRANCH   4   5
ATOM      5  C   UNL     1     -10.748  -5.853  -7.504  1.00  0.00     0.000 C 
BRANCH   5   6
ATOM      6  C   UNL     1     -11.276  -4.419  -7.685  1.00  0.00     0.000 C 
BRANCH   6   7
ATOM      7  C   UNL     1     -12.387  -4.003  -6.699  1.00  0.00     0.006 C 
BRANCH   7   8
ATOM      8  C   UNL     1     -12.958  -5.154  -5.856  1.00  0.00     0.053 C 
BRANCH   8   9
ATOM      9  C   UNL     1     -12.585  -5.030  -4.411  1.00  0.00     0.041 C 
ATOM     10  O   UNL     1     -13.349  -5.486  -3.519  1.00  0.00    -0.550 OA
ATOM     11  O   UNL     1     -11.378  -4.445  -4.050  1.00  0.00    -0.550 OA
ENDBRANCH   8   9
ENDBRANCH   7   8
ENDBRANCH   6   7
ENDBRANCH   5   6
ENDBRANCH   4   5
ENDBRANCH   3   4
ENDBRANCH   2   3
ENDBRANCH   1   2
BRANCH   1  12
ATOM     12  C   UNL     1      -9.551 -10.401  -5.167  1.00  0.00     0.000 C 
BRANCH  12  13
ATOM     13  C   UNL     1      -8.301 -11.233  -5.500  1.00  0.00    -0.000 C 
BRANCH  13  14
ATOM     14  C   UNL     1      -6.993 -10.517  -5.126  1.00  0.00    -0.000 C 
BRANCH  14  15
ATOM     15  C   UNL     1      -6.073 -10.295  -6.337  1.00  0.00    -0.000 C 
BRANCH  15  16
ATOM     16  C   UNL     1      -5.656 -11.636  -6.960  1.00  0.00    -0.000 C 
BRANCH  16  17
ATOM     17  C   UNL     1      -4.133 -11.850  -6.944  1.00  0.00    -0.000 C 
BRANCH  17  18
ATOM     18  C   UNL     1      -3.444 -11.107  -5.786  1.00  0.00    -0.000 C 
BRANCH  18  19
ATOM     19  C   UNL     1      -2.307 -11.926  -5.156  1.00  0.00    -0.003 C 
ATOM     20  C   UNL     1      -2.563 -12.264  -3.686  1.00  0.00     0.004 C 
ENDBRANCH  18  19
ENDBRANCH  17  18
ENDBRANCH  16  17
ENDBRANCH  15  16
ENDBRANCH  14  15
ENDBRANCH  13  14
ENDBRANCH  12  13
ENDBRANCH   1  12
TORSDOF 16
ENDMDL
MODEL 8
REMARK VINA RESULT:    -4.691      2.027      4.360
REMARK INTER + INTRA:         -10.330
REMARK INTER:                  -8.494
REMARK INTRA:                  -1.835
REMARK UNBOUND:                -1.250
REMARK SMILES CCCCCCCCCCCCCCCCCC(=O)[O-]
REMARK SMILES IDX 10 1 11 2 12 3 13 4 14 5 15 6 16 7 17 8 18 9 19 10 20 11
REMARK SMILES IDX 9 12 8 13 7 14 6 15 5 16 4 17 3 18 2 19 1 20
REMARK H PARENT
REMARK Flexibility Score: inf
ROOT
ATOM      1  C   UNL     1     -10.107  -6.316  -7.711  1.00  0.00     0.000 C 
ENDROOT
BRANCH   1   2
ATOM      2  C   UNL     1      -9.236  -5.828  -6.540  1.00  0.00     0.000 C 
BRANCH   2   3
ATOM      3  C   UNL     1      -9.539  -6.558  -5.225  1.00  0.00     0.000 C 
BRANCH   3   4
ATOM      4  C   UNL     1      -9.837  -8.041  -5.474  1.00  0.00     0.000 C 
BRANCH   4   5
ATOM      5  C   UNL     1      -8.864  -8.935  -4.691  1.00  0.00     0.000 C 
BRANCH   5   6
ATOM      6  C   UNL     1      -8.530 -10.246  -5.425  1.00  0.00     0.000 C 
BRANCH   6   7
ATOM      7  C   UNL     1      -7.024 -10.548  -5.569  1.00  0.00     0.006 C 
BRANCH   7   8
ATOM      8  C   UNL     1      -6.666 -11.458  -6.754  1.00  0.00     0.053 C 
BRANCH   8   9
ATOM      9  C   UNL     1      -5.184 -11.601  -6.924  1.00  0.00     0.041 C 
ATOM     10  O   UNL     1      -4.713 -12.563  -7.586  1.00  0.00    -0.550 OA
ATOM     11  O   UNL     1      -4.326 -10.652  -6.384  1.00  0.00    -0.550 OA
ENDBRANCH   8   9
ENDBRANCH   7   8
ENDBRANCH   6   7
ENDBRANCH   5   6
ENDBRANCH   4   5
ENDBRANCH   3   4
ENDBRANCH   2   3
ENDBRANCH   1   2
BRANCH   1  12
ATOM     12  C   UNL     1     -11.200  -5.311  -8.129  1.00  0.00     0.000 C 
BRANCH  12  13
ATOM     13  C   UNL     1     -10.975  -3.919  -7.512  1.00  0.00    -0.000 C 
BRANCH  13  14
ATOM     14  C   UNL     1     -11.982  -3.593  -6.398  1.00  0.00    -0.000 C 
BRANCH  14  15
ATOM     15  C   UNL     1     -12.818  -4.814  -5.981  1.00  0.00    -0.000 C 
BRANCH  15  16
ATOM     16  C   UNL     1     -12.761  -5.022  -4.459  1.00  0.00    -0.000 C 
BRANCH  16  17
ATOM     17  C   UNL     1     -13.479  -6.305  -4.009  1.00  0.00    -0.000 C 
BRANCH  17  18
ATOM     18  C   UNL     1     -13.415  -7.421  -5.066  1.00  0.00    -0.000 C 
BRANCH  18  19
ATOM     19  C   UNL     1     -13.995  -8.749  -4.557  1.00  0.00    -0.003 C 
ATOM     20  C   UNL     1     -13.135  -9.956  -4.934  1.00  0.00     0.004 C 
ENDBRANCH  18  19
ENDBRANCH  17  18
ENDBRANCH  16  17
ENDBRANCH  15  16
ENDBRANCH  14  15
ENDBRANCH  13  14
ENDBRANCH  12  13
ENDBRANCH   1  12
TORSDOF 16
ENDMDL
MODEL 9
REMARK VINA RESULT:    -4.568      4.291      8.459
REMARK INTER + INTRA:         -10.090
REMARK INTER:                  -8.250
REMARK INTRA:                  -1.840
REMARK UNBOUND:                -1.250
REMARK SMILES CCCCCCCCCCCCCCCCCC(=O)[O-]
REMARK SMILES IDX 10 1 11 2 12 3 13 4 14 5 15 6 16 7 17 8 18 9 19 10 20 11
REMARK SMILES IDX 9 12 8 13 7 14 6 15 5 16 4 17 3 18 2 19 1 20
REMARK H PARENT
REMARK Flexibility Score: inf
ROOT
ATOM      1  C   UNL     1     -11.621  -9.560  -6.232  1.00  0.00     0.000 C 
ENDROOT
BRANCH   1   2
ATOM      2  C   UNL     1     -11.500  -8.029  -6.324  1.00  0.00     0.000 C 
BRANCH   2   3
ATOM      3  C   UNL     1     -10.249  -7.485  -5.621  1.00  0.00     0.000 C 
BRANCH   3   4
ATOM      4  C   UNL     1     -10.428  -6.010  -5.244  1.00  0.00     0.000 C 
BRANCH   4   5
ATOM      5  C   UNL     1     -11.895  -5.579  -5.389  1.00  0.00     0.000 C 
BRANCH   5   6
ATOM      6  C   UNL     1     -12.051  -4.156  -5.952  1.00  0.00     0.000 C 
BRANCH   6   7
ATOM      7  C   UNL     1     -11.075  -3.794  -7.092  1.00  0.00     0.006 C 
BRANCH   7   8
ATOM      8  C   UNL     1     -11.656  -3.957  -8.505  1.00  0.00     0.053 C 
BRANCH   8   9
ATOM      9  C   UNL     1     -10.837  -4.890  -9.344  1.00  0.00     0.041 C 
ATOM     10  O   UNL     1     -10.321  -5.916  -8.828  1.00  0.00    -0.550 OA
ATOM     11  O   UNL     1     -10.675  -4.645 -10.701  1.00  0.00    -0.550 OA
ENDBRANCH   8   9
ENDBRANCH   7   8
ENDBRANCH   6   7
ENDBRANCH   5   6
ENDBRANCH   4   5
ENDBRANCH   3   4
ENDBRANCH   2   3
ENDBRANCH   1   2
BRANCH   1  12
ATOM     12  C   UNL     1     -12.624 -10.038  -5.161  1.00  0.00     0.000 C 
BRANCH  12  13
ATOM     13  C   UNL     1     -12.334 -11.477  -4.697  1.00  0.00    -0.000 C 
BRANCH  13  14
ATOM     14  C   UNL     1     -11.789 -12.366  -5.825  1.00  0.00    -0.000 C 
BRANCH  14  15
ATOM     15  C   UNL     1     -10.374 -12.891  -5.533  1.00  0.00    -0.000 C 
BRANCH  15  16
ATOM     16  C   UNL     1      -9.486 -12.793  -6.784  1.00  0.00    -0.000 C 
BRANCH  16  17
ATOM     17  C   UNL     1      -8.220 -11.953  -6.548  1.00  0.00    -0.000 C 
BRANCH  17  18
ATOM     18  C   UNL     1      -8.332 -11.050  -5.307  1.00  0.00    -0.000 C 
BRANCH  18  19
ATOM     19  C   UNL     1      -7.278  -9.932  -5.295  1.00  0.00    -0.003 C 
ATOM     20  C   UNL     1      -6.016 -10.297  -6.078  1.00  0.00     0.004 C 
ENDBRANCH  18  19
ENDBRANCH  17  18
ENDBRANCH  16  17
ENDBRANCH  15  16
ENDBRANCH  14  15
ENDBRANCH  13  14
ENDBRANCH  12  13
ENDBRANCH   1  12
TORSDOF 16
ENDMDL
