MODEL 1
REMARK VINA RESULT:    -5.676      0.000      0.000
REMARK INTER + INTRA:         -11.259
REMARK INTER:                 -10.322
REMARK INTRA:                  -0.937
REMARK UNBOUND:                -0.937
REMARK SMILES CCCCCCCCCCCCCCCC(=O)[O-]
REMARK SMILES IDX 9 1 10 2 11 3 12 4 13 5 14 6 15 7 16 8 17 9 18 10 8 11 7 12
REMARK SMILES IDX 6 13 5 14 4 15 3 16 2 17 1 18
REMARK H PARENT
REMARK Flexibility Score: inf
ROOT
ATOM      1  C   UNL     1      25.786 -11.365  16.491  1.00  0.00     0.000 C 
ENDROOT
BRANCH   1   2
ATOM      2  C   UNL     1      26.939 -10.973  15.554  1.00  0.00     0.000 C 
BRANCH   2   3
ATOM      3  C   UNL     1      28.310 -11.045  16.242  1.00  0.00     0.000 C 
BRANCH   3   4
ATOM      4  C   UNL     1      29.406 -10.439  15.354  1.00  0.00     0.000 C 
BRANCH   4   5
ATOM      5  C   UNL     1      30.506  -9.735  16.179  1.00  0.00     0.000 C 
BRANCH   5   6
ATOM      6  C   UNL     1      30.001  -9.170  17.521  1.00  0.00     0.006 C 
BRANCH   6   7
ATOM      7  C   UNL     1      29.608  -7.687  17.468  1.00  0.00     0.053 C 
BRANCH   7   8
ATOM      8  C   UNL     1      28.190  -7.467  17.903  1.00  0.00     0.041 C 
ATOM      9  O   UNL     1      27.650  -6.339  17.751  1.00  0.00    -0.550 OA
ATOM     10  O   UNL     1      27.459  -8.508  18.462  1.00  0.00    -0.550 OA
ENDBRANCH   7   8
ENDBRANCH   6   7
ENDBRANCH   5   6
ENDBRANCH   4   5
ENDBRANCH   3   4
ENDBRANCH   2   3
ENDBRANCH   1   2
BRANCH   1  11
ATOM     11  C   UNL     1      24.443 -11.498  15.756  1.00  0.00     0.000 C 
BRANCH  11  12
ATOM     12  C   UNL     1      23.553 -12.552  16.423  1.00  0.00    -0.000 C 
BRANCH  12  13
ATOM     13  C   UNL     1      23.890 -12.692  17.916  1.00  0.00    -0.000 C 
BRANCH  13  14
ATOM     14  C   UNL     1      22.663 -12.499  18.822  1.00  0.00    -0.000 C 
BRANCH  14  15
ATOM     15  C   UNL     1      22.984 -12.723  20.308  1.00  0.00    -0.000 C 
BRANCH  15  16
ATOM     16  C   UNL     1      22.256 -11.699  21.186  1.00  0.00    -0.000 C 
BRANCH  16  17
ATOM     17  C   UNL     1      23.247 -10.718  21.824  1.00  0.00    -0.003 C 
ATOM     18  C   UNL     1      24.046  -9.970  20.761  1.00  0.00     0.004 C 
ENDBRANCH  16  17
ENDBRANCH  15  16
ENDBRANCH  14  15
ENDBRANCH  13  14
ENDBRANCH  12  13
ENDBRANCH  11  12
ENDBRANCH   1  11
TORSDOF 14
ENDMDL
MODEL 2
REMARK VINA RESULT:    -5.671      1.912      2.394
REMARK INTER + INTRA:         -11.249
REMARK INTER:                 -10.069
REMARK INTRA:                  -1.180
REMARK UNBOUND:                -0.937
REMARK SMILES CCCCCCCCCCCCCCCC(=O)[O-]
REMARK SMILES IDX 9 1 10 2 11 3 12 4 13 5 14 6 15 7 16 8 17 9 18 10 8 11 7 12
REMARK SMILES IDX 6 13 5 14 4 15 3 16 2 17 1 18
REMARK H PARENT
REMARK Flexibility Score: inf
ROOT
ATOM      1  C   UNL     1      25.857 -11.309  17.165  1.00  0.00     0.000 C 
ENDROOT
BRANCH   1   2
ATOM      2  C   UNL     1      25.724 -10.022  17.993  1.00  0.00     0.000 C 
BRANCH   2   3
ATOM      3  C   UNL     1      26.978  -9.727  18.832  1.00  0.00     0.000 C 
BRANCH   3   4
ATOM      4  C   UNL     1      27.757  -8.535  18.258  1.00  0.00     0.000 C 
BRANCH   4   5
ATOM      5  C   UNL     1      28.792  -8.969  17.197  1.00  0.00     0.000 C 
BRANCH   5   6
ATOM      6  C   UNL     1      28.358  -8.657  15.752  1.00  0.00     0.006 C 
BRANCH   6   7
ATOM      7  C   UNL     1      28.536  -7.186  15.348  1.00  0.00     0.053 C 
BRANCH   7   8
ATOM      8  C   UNL     1      29.979  -6.781  15.328  1.00  0.00     0.041 C 
ATOM      9  O   UNL     1      30.601  -6.715  14.235  1.00  0.00    -0.550 OA
ATOM     10  O   UNL     1      30.633  -6.461  16.511  1.00  0.00    -0.550 OA
ENDBRANCH   7   8
ENDBRANCH   6   7
ENDBRANCH   5   6
ENDBRANCH   4   5
ENDBRANCH   3   4
ENDBRANCH   2   3
ENDBRANCH   1   2
BRANCH   1  11
ATOM     11  C   UNL     1      24.696 -11.501  16.177  1.00  0.00     0.000 C 
BRANCH  11  12
ATOM     12  C   UNL     1      23.654 -12.475  16.736  1.00  0.00    -0.000 C 
BRANCH  12  13
ATOM     13  C   UNL     1      24.207 -13.235  17.951  1.00  0.00    -0.000 C 
BRANCH  13  14
ATOM     14  C   UNL     1      23.182 -13.356  19.091  1.00  0.00    -0.000 C 
BRANCH  14  15
ATOM     15  C   UNL     1      22.804 -11.995  19.694  1.00  0.00    -0.000 C 
BRANCH  15  16
ATOM     16  C   UNL     1      22.551 -12.114  21.202  1.00  0.00    -0.000 C 
BRANCH  16  17
ATOM     17  C   UNL     1      22.990 -10.842  21.936  1.00  0.00    -0.003 C 
ATOM     18  C   UNL     1      23.885  -9.977  21.054  1.00  0.00     0.004 C 
ENDBRANCH  16  17
ENDBRANCH  15  16
ENDBRANCH  14  15
ENDBRANCH  13  14
ENDBRANCH  12  13
ENDBRANCH  11  12
ENDBRANCH   1  11
TORSDOF 14
ENDMDL
MODEL 3
REMARK VINA RESULT:    -5.658      2.009      2.744
REMARK INTER + INTRA:         -11.226
REMARK INTER:                 -10.068
REMARK INTRA:                  -1.158
REMARK UNBOUND:                -0.937
REMARK SMILES CCCCCCCCCCCCCCCC(=O)[O-]
REMARK SMILES IDX 9 1 10 2 11 3 12 4 13 5 14 6 15 7 16 8 17 9 18 10 8 11 7 12
REMARK SMILES IDX 6 13 5 14 4 15 3 16 2 17 1 18
REMARK H PARENT
REMARK Flexibility Score: inf
ROOT
ATOM      1  C   UNL     1      26.787 -11.388  16.803  1.00  0.00     0.000 C 
ENDROOT
BRANCH   1   2
ATOM      2  C   UNL     1      27.572 -10.689  17.924  1.00  0.00     0.000 C 
BRANCH   2   3
ATOM      3  C   UNL     1      26.924  -9.368  18.364  1.00  0.00     0.000 C 
BRANCH   3   4
ATOM      4  C   UNL     1      27.936  -8.214  18.320  1.00  0.00     0.000 C 
BRANCH   4   5
ATOM      5  C   UNL     1      28.276  -7.790  16.874  1.00  0.00     0.000 C 
BRANCH   5   6
ATOM      6  C   UNL     1      29.780  -7.869  16.549  1.00  0.00     0.006 C 
BRANCH   6   7
ATOM      7  C   UNL     1      30.622  -8.554  17.635  1.00  0.00     0.053 C 
BRANCH   7   8
ATOM      8  C   UNL     1      31.454  -9.670  17.078  1.00  0.00     0.041 C 
ATOM      9  O   UNL     1      32.710  -9.609  17.135  1.00  0.00    -0.550 OA
ATOM     10  O   UNL     1      30.845 -10.782  16.512  1.00  0.00    -0.550 OA
ENDBRANCH   7   8
ENDBRANCH   6   7
ENDBRANCH   5   6
ENDBRANCH   4   5
ENDBRANCH   3   4
ENDBRANCH   2   3
ENDBRANCH   1   2
BRANCH   1  11
ATOM     11  C   UNL     1      25.344 -10.874  16.681  1.00  0.00     0.000 C 
BRANCH  11  12
ATOM     12  C   UNL     1      24.513 -11.781  15.765  1.00  0.00    -0.000 C 
BRANCH  12  13
ATOM     13  C   UNL     1      23.516 -12.619  16.580  1.00  0.00    -0.000 C 
BRANCH  13  14
ATOM     14  C   UNL     1      23.747 -12.507  18.096  1.00  0.00    -0.000 C 
BRANCH  14  15
ATOM     15  C   UNL     1      22.441 -12.591  18.901  1.00  0.00    -0.000 C 
BRANCH  15  16
ATOM     16  C   UNL     1      22.709 -12.410  20.399  1.00  0.00    -0.000 C 
BRANCH  16  17
ATOM     17  C   UNL     1      23.108 -10.964  20.717  1.00  0.00    -0.003 C 
ATOM     18  C   UNL     1      23.120 -10.713  22.221  1.00  0.00     0.004 C 
ENDBRANCH  16  17
ENDBRANCH  15  16
ENDBRANCH  14  15
ENDBRANCH  13  14
ENDBRANCH  12  13
ENDBRANCH  11  12
ENDBRANCH   1  11
TORSDOF 14
ENDMDL
MODEL 4
REMARK VINA RESULT:    -5.651      2.290      7.038
REMARK INTER + INTRA:         -11.212
REMARK INTER:                  -9.910
REMARK INTRA:                  -1.302
REMARK UNBOUND:                -0.937
REMARK SMILES CCCCCCCCCCCCCCCC(=O)[O-]
REMARK SMILES IDX 9 1 10 2 11 3 12 4 13 5 14 6 15 7 16 8 17 9 18 10 8 11 7 12
REMARK SMILES IDX 6 13 5 14 4 15 3 16 2 17 1 18
REMARK H PARENT
REMARK Flexibility Score: inf
ROOT
ATOM      1  C   UNL     1      25.834  -9.908  17.771  1.00  0.00     0.000 C 
ENDROOT
BRANCH   1   2
ATOM      2  C   UNL     1      25.772 -11.368  17.297  1.00  0.00     0.000 C 
BRANCH   2   3
ATOM      3  C   UNL     1      24.759 -11.578  16.161  1.00  0.00     0.000 C 
BRANCH   3   4
ATOM      4  C   UNL     1      23.707 -12.628  16.546  1.00  0.00     0.000 C 
BRANCH   4   5
ATOM      5  C   UNL     1      23.748 -12.972  18.051  1.00  0.00     0.000 C 
BRANCH   5   6
ATOM      6  C   UNL     1      22.559 -12.397  18.845  1.00  0.00     0.006 C 
BRANCH   6   7
ATOM      7  C   UNL     1      22.678 -12.572  20.366  1.00  0.00     0.053 C 
BRANCH   7   8
ATOM      8  C   UNL     1      23.044 -11.290  21.051  1.00  0.00     0.041 C 
ATOM      9  O   UNL     1      23.436 -10.302  20.375  1.00  0.00    -0.550 OA
ATOM     10  O   UNL     1      22.939 -11.178  22.432  1.00  0.00    -0.550 OA
ENDBRANCH   7   8
ENDBRANCH   6   7
ENDBRANCH   5   6
ENDBRANCH   4   5
ENDBRANCH   3   4
ENDBRANCH   2   3
ENDBRANCH   1   2
BRANCH   1  11
ATOM     11  C   UNL     1      26.885  -9.684  18.870  1.00  0.00     0.000 C 
BRANCH  11  12
ATOM     12  C   UNL     1      28.278  -9.483  18.265  1.00  0.00    -0.000 C 
BRANCH  12  13
ATOM     13  C   UNL     1      28.258  -8.383  17.192  1.00  0.00    -0.000 C 
BRANCH  13  14
ATOM     14  C   UNL     1      28.875  -8.843  15.860  1.00  0.00    -0.000 C 
BRANCH  14  15
ATOM     15  C   UNL     1      28.993 -10.372  15.760  1.00  0.00    -0.000 C 
BRANCH  15  16
ATOM     16  C   UNL     1      30.397 -10.840  16.159  1.00  0.00    -0.000 C 
BRANCH  16  17
ATOM     17  C   UNL     1      31.428  -9.725  15.955  1.00  0.00    -0.003 C 
ATOM     18  C   UNL     1      32.221  -9.467  17.233  1.00  0.00     0.004 C 
ENDBRANCH  16  17
ENDBRANCH  15  16
ENDBRANCH  14  15
ENDBRANCH  13  14
ENDBRANCH  12  13
ENDBRANCH  11  12
ENDBRANCH   1  11
TORSDOF 14
ENDMDL
MODEL 5
REMARK VINA RESULT:    -5.619      1.424      1.807
REMARK INTER + INTRA:         -11.155
REMARK INTER:                  -9.979
REMARK INTRA:                  -1.176
REMARK UNBOUND:                -0.937
REMARK SMILES CCCCCCCCCCCCCCCC(=O)[O-]
REMARK SMILES IDX 9 1 10 2 11 3 12 4 13 5 14 6 15 7 16 8 17 9 18 10 8 11 7 12
REMARK SMILES IDX 6 13 5 14 4 15 3 16 2 17 1 18
REMARK H PARENT
REMARK Flexibility Score: inf
ROOT
ATOM      1  C   UNL     1      25.394 -10.909  17.157  1.00  0.00     0.000 C 
ENDROOT
BRANCH   1   2
ATOM      2  C   UNL     1      26.795 -10.445  16.728  1.00  0.00     0.000 C 
BRANCH   2   3
ATOM      3  C   UNL     1      27.084 -10.730  15.247  1.00  0.00     0.000 C 
BRANCH   3   4
ATOM      4  C   UNL     1      28.581 -10.980  15.015  1.00  0.00     0.000 C 
BRANCH   4   5
ATOM      5  C   UNL     1      29.360 -11.136  16.340  1.00  0.00     0.000 C 
BRANCH   5   6
ATOM      6  C   UNL     1      30.484 -10.097  16.518  1.00  0.00     0.006 C 
BRANCH   6   7
ATOM      7  C   UNL     1      30.146  -8.706  15.962  1.00  0.00     0.053 C 
BRANCH   7   8
ATOM      8  C   UNL     1      30.675  -7.610  16.837  1.00  0.00     0.041 C 
ATOM      9  O   UNL     1      31.779  -7.065  16.569  1.00  0.00    -0.550 OA
ATOM     10  O   UNL     1      29.945  -7.177  17.937  1.00  0.00    -0.550 OA
ENDBRANCH   7   8
ENDBRANCH   6   7
ENDBRANCH   5   6
ENDBRANCH   4   5
ENDBRANCH   3   4
ENDBRANCH   2   3
ENDBRANCH   1   2
BRANCH   1  11
ATOM     11  C   UNL     1      24.612 -11.571  16.011  1.00  0.00     0.000 C 
BRANCH  11  12
ATOM     12  C   UNL     1      23.623 -12.610  16.549  1.00  0.00    -0.000 C 
BRANCH  12  13
ATOM     13  C   UNL     1      23.912 -12.933  18.023  1.00  0.00    -0.000 C 
BRANCH  13  14
ATOM     14  C   UNL     1      22.633 -13.035  18.870  1.00  0.00    -0.000 C 
BRANCH  14  15
ATOM     15  C   UNL     1      22.738 -12.265  20.196  1.00  0.00    -0.000 C 
BRANCH  15  16
ATOM     16  C   UNL     1      23.156 -10.810  19.953  1.00  0.00    -0.000 C 
BRANCH  16  17
ATOM     17  C   UNL     1      23.841 -10.220  21.191  1.00  0.00    -0.003 C 
ATOM     18  C   UNL     1      23.097 -10.601  22.467  1.00  0.00     0.004 C 
ENDBRANCH  16  17
ENDBRANCH  15  16
ENDBRANCH  14  15
ENDBRANCH  13  14
ENDBRANCH  12  13
ENDBRANCH  11  12
ENDBRANCH   1  11
TORSDOF 14
ENDMDL
MODEL 6
REMARK VINA RESULT:    -5.600      2.588      2.974
REMARK INTER + INTRA:         -11.120
REMARK INTER:                 -10.173
REMARK INTRA:                  -0.948
REMARK UNBOUND:                -0.937
REMARK SMILES CCCCCCCCCCCCCCCC(=O)[O-]
REMARK SMILES IDX 9 1 10 2 11 3 12 4 13 5 14 6 15 7 16 8 17 9 18 10 8 11 7 12
REMARK SMILES IDX 6 13 5 14 4 15 3 16 2 17 1 18
REMARK H PARENT
REMARK Flexibility Score: inf
ROOT
ATOM      1  C   UNL     1      26.658 -11.089  15.295  1.00  0.00     0.000 C 
ENDROOT
BRANCH   1   2
ATOM      2  C   UNL     1      27.505 -11.277  16.563  1.00  0.00     0.000 C 
BRANCH   2   3
ATOM      3  C   UNL     1      28.202  -9.981  17.004  1.00  0.00     0.000 C 
BRANCH   3   4
ATOM      4  C   UNL     1      28.600  -9.127  15.792  1.00  0.00     0.000 C 
BRANCH   4   5
ATOM      5  C   UNL     1      30.092  -9.287  15.427  1.00  0.00     0.000 C 
BRANCH   5   6
ATOM      6  C   UNL     1      30.898 -10.085  16.470  1.00  0.00     0.006 C 
BRANCH   6   7
ATOM      7  C   UNL     1      31.862  -9.230  17.305  1.00  0.00     0.053 C 
BRANCH   7   8
ATOM      8  C   UNL     1      33.286  -9.403  16.868  1.00  0.00     0.041 C 
ATOM      9  O   UNL     1      34.184  -9.633  17.720  1.00  0.00    -0.550 OA
ATOM     10  O   UNL     1      33.620  -9.326  15.522  1.00  0.00    -0.550 OA
ENDBRANCH   7   8
ENDBRANCH   6   7
ENDBRANCH   5   6
ENDBRANCH   4   5
ENDBRANCH   3   4
ENDBRANCH   2   3
ENDBRANCH   1   2
BRANCH   1  11
ATOM     11  C   UNL     1      25.150 -11.055  15.588  1.00  0.00     0.000 C 
BRANCH  11  12
ATOM     12  C   UNL     1      24.859 -11.503  17.025  1.00  0.00    -0.000 C 
BRANCH  12  13
ATOM     13  C   UNL     1      23.658 -12.460  17.070  1.00  0.00    -0.000 C 
BRANCH  13  14
ATOM     14  C   UNL     1      23.406 -13.028  18.476  1.00  0.00    -0.000 C 
BRANCH  14  15
ATOM     15  C   UNL     1      22.490 -12.129  19.321  1.00  0.00    -0.000 C 
BRANCH  15  16
ATOM     16  C   UNL     1      22.662 -12.422  20.816  1.00  0.00    -0.000 C 
BRANCH  16  17
ATOM     17  C   UNL     1      22.973 -11.139  21.596  1.00  0.00    -0.003 C 
ATOM     18  C   UNL     1      23.730 -10.137  20.730  1.00  0.00     0.004 C 
ENDBRANCH  16  17
ENDBRANCH  15  16
ENDBRANCH  14  15
ENDBRANCH  13  14
ENDBRANCH  12  13
ENDBRANCH  11  12
ENDBRANCH   1  11
TORSDOF 14
ENDMDL
MODEL 7
REMARK VINA RESULT:    -5.530      1.962      6.638
REMARK INTER + INTRA:         -10.993
REMARK INTER:                  -9.502
REMARK INTRA:                  -1.491
REMARK UNBOUND:                -0.937
REMARK SMILES CCCCCCCCCCCCCCCC(=O)[O-]
REMARK SMILES IDX 9 1 10 2 11 3 12 4 13 5 14 6 15 7 16 8 17 9 18 10 8 11 7 12
REMARK SMILES IDX 6 13 5 14 4 15 3 16 2 17 1 18
REMARK H PARENT
REMARK Flexibility Score: inf
ROOT
ATOM      1  C   UNL     1      25.364 -10.384  17.361  1.00  0.00     0.000 C 
ENDROOT
BRANCH   1   2
ATOM      2  C   UNL     1      24.991 -11.341  16.219  1.00  0.00     0.000 C 
BRANCH   2   3
ATOM      3  C   UNL     1      23.898 -12.343  16.621  1.00  0.00     0.000 C 
BRANCH   3   4
ATOM      4  C   UNL     1      24.188 -12.952  18.000  1.00  0.00     0.000 C 
BRANCH   4   5
ATOM      5  C   UNL     1      22.900 -13.176  18.823  1.00  0.00     0.000 C 
BRANCH   5   6
ATOM      6  C   UNL     1      22.362 -11.893  19.483  1.00  0.00     0.006 C 
BRANCH   6   7
ATOM      7  C   UNL     1      22.555 -11.842  21.006  1.00  0.00     0.053 C 
BRANCH   7   8
ATOM      8  C   UNL     1      23.334 -10.634  21.432  1.00  0.00     0.041 C 
ATOM      9  O   UNL     1      23.358 -10.292  22.643  1.00  0.00    -0.550 OA
ATOM     10  O   UNL     1      24.047  -9.895  20.496  1.00  0.00    -0.550 OA
ENDBRANCH   7   8
ENDBRANCH   6   7
ENDBRANCH   5   6
ENDBRANCH   4   5
ENDBRANCH   3   4
ENDBRANCH   2   3
ENDBRANCH   1   2
BRANCH   1  11
ATOM     11  C   UNL     1      26.880 -10.308  17.600  1.00  0.00     0.000 C 
BRANCH  11  12
ATOM     12  C   UNL     1      27.578 -11.583  17.115  1.00  0.00    -0.000 C 
BRANCH  12  13
ATOM     13  C   UNL     1      28.771 -11.247  16.207  1.00  0.00    -0.000 C 
BRANCH  13  14
ATOM     14  C   UNL     1      28.973  -9.733  16.032  1.00  0.00    -0.000 C 
BRANCH  14  15
ATOM     15  C   UNL     1      30.277  -9.232  16.671  1.00  0.00    -0.000 C 
BRANCH  15  16
ATOM     16  C   UNL     1      30.002  -8.090  17.656  1.00  0.00    -0.000 C 
BRANCH  16  17
ATOM     17  C   UNL     1      28.845  -7.210  17.169  1.00  0.00    -0.003 C 
ATOM     18  C   UNL     1      28.198  -6.457  18.327  1.00  0.00     0.004 C 
ENDBRANCH  16  17
ENDBRANCH  15  16
ENDBRANCH  14  15
ENDBRANCH  13  14
ENDBRANCH  12  13
ENDBRANCH  11  12
ENDBRANCH   1  11
TORSDOF 14
ENDMDL
MODEL 8
REMARK VINA RESULT:    -5.409      2.392      7.603
REMARK INTER + INTRA:         -10.773
REMARK INTER:                  -9.849
REMARK INTRA:                  -0.924
REMARK UNBOUND:                -0.937
REMARK SMILES CCCCCCCCCCCCCCCC(=O)[O-]
REMARK SMILES IDX 9 1 10 2 11 3 12 4 13 5 14 6 15 7 16 8 17 9 18 10 8 11 7 12
REMARK SMILES IDX 6 13 5 14 4 15 3 16 2 17 1 18
REMARK H PARENT
REMARK Flexibility Score: inf
ROOT
ATOM      1  C   UNL     1      27.014 -10.530  17.019  1.00  0.00     0.000 C 
ENDROOT
BRANCH   1   2
ATOM      2  C   UNL     1      25.692 -11.188  17.441  1.00  0.00     0.000 C 
BRANCH   2   3
ATOM      3  C   UNL     1      24.760 -11.459  16.250  1.00  0.00     0.000 C 
BRANCH   3   4
ATOM      4  C   UNL     1      23.770 -12.588  16.569  1.00  0.00     0.000 C 
BRANCH   4   5
ATOM      5  C   UNL     1      23.764 -12.954  18.070  1.00  0.00     0.000 C 
BRANCH   5   6
ATOM      6  C   UNL     1      22.559 -12.377  18.838  1.00  0.00     0.006 C 
BRANCH   6   7
ATOM      7  C   UNL     1      22.649 -12.545  20.362  1.00  0.00     0.053 C 
BRANCH   7   8
ATOM      8  C   UNL     1      23.021 -11.264  21.046  1.00  0.00     0.041 C 
ATOM      9  O   UNL     1      22.882 -11.150  22.292  1.00  0.00    -0.550 OA
ATOM     10  O   UNL     1      23.537 -10.203  20.313  1.00  0.00    -0.550 OA
ENDBRANCH   7   8
ENDBRANCH   6   7
ENDBRANCH   5   6
ENDBRANCH   4   5
ENDBRANCH   3   4
ENDBRANCH   2   3
ENDBRANCH   1   2
BRANCH   1  11
ATOM     11  C   UNL     1      27.135 -10.364  15.496  1.00  0.00     0.000 C 
BRANCH  11  12
ATOM     12  C   UNL     1      28.412 -11.028  14.969  1.00  0.00    -0.000 C 
BRANCH  12  13
ATOM     13  C   UNL     1      29.611 -10.073  15.072  1.00  0.00    -0.000 C 
BRANCH  13  14
ATOM     14  C   UNL     1      30.671 -10.559  16.074  1.00  0.00    -0.000 C 
BRANCH  14  15
ATOM     15  C   UNL     1      30.966  -9.524  17.171  1.00  0.00    -0.000 C 
BRANCH  15  16
ATOM     16  C   UNL     1      32.476  -9.360  17.378  1.00  0.00    -0.000 C 
BRANCH  16  17
ATOM     17  C   UNL     1      33.141  -8.765  16.132  1.00  0.00    -0.003 C 
ATOM     18  C   UNL     1      34.539  -9.339  15.925  1.00  0.00     0.004 C 
ENDBRANCH  16  17
ENDBRANCH  15  16
ENDBRANCH  14  15
ENDBRANCH  13  14
ENDBRANCH  12  13
ENDBRANCH  11  12
ENDBRANCH   1  11
TORSDOF 14
ENDMDL
MODEL 9
REMARK VINA RESULT:    -5.346      2.095      6.840
REMARK INTER + INTRA:         -10.659
REMARK INTER:                  -9.346
REMARK INTRA:                  -1.312
REMARK UNBOUND:                -0.937
REMARK SMILES CCCCCCCCCCCCCCCC(=O)[O-]
REMARK SMILES IDX 9 1 10 2 11 3 12 4 13 5 14 6 15 7 16 8 17 9 18 10 8 11 7 12
REMARK SMILES IDX 6 13 5 14 4 15 3 16 2 17 1 18
REMARK H PARENT
REMARK Flexibility Score: inf
ROOT
ATOM      1  C   UNL     1      28.006 -11.087  14.966  1.00  0.00     0.000 C 
ENDROOT
BRANCH   1   2
ATOM      2  C   UNL     1      26.752 -10.344  15.451  1.00  0.00     0.000 C 
BRANCH   2   3
ATOM      3  C   UNL     1      25.826 -11.236  16.293  1.00  0.00     0.000 C 
BRANCH   3   4
ATOM      4  C   UNL     1      24.461 -11.412  15.612  1.00  0.00     0.000 C 
BRANCH   4   5
ATOM      5  C   UNL     1      23.619 -12.529  16.268  1.00  0.00     0.000 C 
BRANCH   5   6
ATOM      6  C   UNL     1      23.878 -12.686  17.778  1.00  0.00     0.006 C 
BRANCH   6   7
ATOM      7  C   UNL     1      22.629 -12.497  18.652  1.00  0.00     0.053 C 
BRANCH   7   8
ATOM      8  C   UNL     1      22.937 -11.753  19.916  1.00  0.00     0.041 C 
ATOM      9  O   UNL     1      22.413 -12.110  21.004  1.00  0.00    -0.550 OA
ATOM     10  O   UNL     1      23.814 -10.675  19.899  1.00  0.00    -0.550 OA
ENDBRANCH   7   8
ENDBRANCH   6   7
ENDBRANCH   5   6
ENDBRANCH   4   5
ENDBRANCH   3   4
ENDBRANCH   2   3
ENDBRANCH   1   2
BRANCH   1  11
ATOM     11  C   UNL     1      29.120 -11.126  16.025  1.00  0.00     0.000 C 
BRANCH  11  12
ATOM     12  C   UNL     1      30.400 -10.465  15.501  1.00  0.00    -0.000 C 
BRANCH  12  13
ATOM     13  C   UNL     1      31.234  -9.892  16.656  1.00  0.00    -0.000 C 
BRANCH  13  14
ATOM     14  C   UNL     1      30.827  -8.456  17.027  1.00  0.00    -0.000 C 
BRANCH  14  15
ATOM     15  C   UNL     1      30.154  -7.714  15.862  1.00  0.00    -0.000 C 
BRANCH  15  16
ATOM     16  C   UNL     1      28.693  -7.386  16.192  1.00  0.00    -0.000 C 
BRANCH  16  17
ATOM     17  C   UNL     1      28.485  -7.268  17.706  1.00  0.00    -0.003 C 
ATOM     18  C   UNL     1      27.643  -8.423  18.239  1.00  0.00     0.004 C 
ENDBRANCH  16  17
ENDBRANCH  15  16
ENDBRANCH  14  15
ENDBRANCH  13  14
ENDBRANCH  12  13
ENDBRANCH  11  12
ENDBRANCH   1  11
TORSDOF 14
ENDMDL
