MODEL 1
REMARK VINA RESULT:    -5.362      0.000      0.000
REMARK INTER + INTRA:         -11.023
REMARK INTER:                  -9.750
REMARK INTRA:                  -1.273
REMARK UNBOUND:                -1.273
REMARK SMILES CCCCCCCCCCCCCCCC(=O)[O-]
REMARK SMILES IDX 9 1 10 2 11 3 12 4 13 5 14 6 15 7 16 8 17 9 18 10 8 11 7 12
REMARK SMILES IDX 6 13 5 14 4 15 3 16 2 17 1 18
REMARK H PARENT
REMARK Flexibility Score: inf
ROOT
ATOM      1  C   UNL     1       4.288  44.560  10.845  1.00  0.00     0.000 C 
ENDROOT
BRANCH   1   2
ATOM      2  C   UNL     1       3.737  43.820   9.615  1.00  0.00     0.000 C 
BRANCH   2   3
ATOM      3  C   UNL     1       2.597  42.844   9.960  1.00  0.00     0.000 C 
BRANCH   3   4
ATOM      4  C   UNL     1       1.663  43.301  11.095  1.00  0.00     0.000 C 
BRANCH   4   5
ATOM      5  C   UNL     1       1.658  42.339  12.293  1.00  0.00     0.000 C 
BRANCH   5   6
ATOM      6  C   UNL     1       2.714  41.238  12.119  1.00  0.00     0.006 C 
BRANCH   6   7
ATOM      7  C   UNL     1       2.304  39.927  12.802  1.00  0.00     0.053 C 
BRANCH   7   8
ATOM      8  C   UNL     1       3.345  38.863  12.634  1.00  0.00     0.041 C 
ATOM      9  O   UNL     1       4.555  39.116  12.880  1.00  0.00    -0.550 OA
ATOM     10  O   UNL     1       2.986  37.602  12.175  1.00  0.00    -0.550 OA
ENDBRANCH   7   8
ENDBRANCH   6   7
ENDBRANCH   5   6
ENDBRANCH   4   5
ENDBRANCH   3   4
ENDBRANCH   2   3
ENDBRANCH   1   2
BRANCH   1  11
ATOM     11  C   UNL     1       4.248  46.088  10.684  1.00  0.00     0.000 C 
BRANCH  11  12
ATOM     12  C   UNL     1       2.915  46.592  10.103  1.00  0.00    -0.000 C 
BRANCH  12  13
ATOM     13  C   UNL     1       2.973  48.087   9.723  1.00  0.00    -0.000 C 
BRANCH  13  14
ATOM     14  C   UNL     1       3.543  48.984  10.835  1.00  0.00    -0.000 C 
BRANCH  14  15
ATOM     15  C   UNL     1       4.331  50.187  10.291  1.00  0.00    -0.000 C 
BRANCH  15  16
ATOM     16  C   UNL     1       5.853  50.023  10.486  1.00  0.00    -0.000 C 
BRANCH  16  17
ATOM     17  C   UNL     1       6.587  49.548   9.221  1.00  0.00    -0.003 C 
ATOM     18  C   UNL     1       6.803  48.037   9.187  1.00  0.00     0.004 C 
ENDBRANCH  16  17
ENDBRANCH  15  16
ENDBRANCH  14  15
ENDBRANCH  13  14
ENDBRANCH  12  13
ENDBRANCH  11  12
ENDBRANCH   1  11
TORSDOF 14
ENDMDL
MODEL 2
REMARK VINA RESULT:    -5.327      1.992      3.510
REMARK INTER + INTRA:         -10.960
REMARK INTER:                  -8.760
REMARK INTRA:                  -2.200
REMARK UNBOUND:                -1.273
REMARK SMILES CCCCCCCCCCCCCCCC(=O)[O-]
REMARK SMILES IDX 9 1 10 2 11 3 12 4 13 5 14 6 15 7 16 8 17 9 18 10 8 11 7 12
REMARK SMILES IDX 6 13 5 14 4 15 3 16 2 17 1 18
REMARK H PARENT
REMARK Flexibility Score: inf
ROOT
ATOM      1  C   UNL     1       3.301  47.941   7.508  1.00  0.00     0.000 C 
ENDROOT
BRANCH   1   2
ATOM      2  C   UNL     1       1.947  47.404   7.999  1.00  0.00     0.000 C 
BRANCH   2   3
ATOM      3  C   UNL     1       2.075  46.476   9.221  1.00  0.00     0.000 C 
BRANCH   3   4
ATOM      4  C   UNL     1       3.462  45.836   9.416  1.00  0.00     0.000 C 
BRANCH   4   5
ATOM      5  C   UNL     1       3.830  45.639  10.895  1.00  0.00     0.000 C 
BRANCH   5   6
ATOM      6  C   UNL     1       4.159  44.169  11.189  1.00  0.00     0.006 C 
BRANCH   6   7
ATOM      7  C   UNL     1       3.200  43.206  10.476  1.00  0.00     0.053 C 
BRANCH   7   8
ATOM      8  C   UNL     1       2.389  42.407  11.449  1.00  0.00     0.041 C 
ATOM      9  O   UNL     1       2.773  41.260  11.802  1.00  0.00    -0.550 OA
ATOM     10  O   UNL     1       1.193  42.914  11.942  1.00  0.00    -0.550 OA
ENDBRANCH   7   8
ENDBRANCH   6   7
ENDBRANCH   5   6
ENDBRANCH   4   5
ENDBRANCH   3   4
ENDBRANCH   2   3
ENDBRANCH   1   2
BRANCH   1  11
ATOM     11  C   UNL     1       3.277  49.455   7.247  1.00  0.00     0.000 C 
BRANCH  11  12
ATOM     12  C   UNL     1       2.302  50.206   8.171  1.00  0.00    -0.000 C 
BRANCH  12  13
ATOM     13  C   UNL     1       3.020  50.856   9.372  1.00  0.00    -0.000 C 
BRANCH  13  14
ATOM     14  C   UNL     1       3.094  49.948  10.612  1.00  0.00    -0.000 C 
BRANCH  14  15
ATOM     15  C   UNL     1       4.421  49.177  10.713  1.00  0.00    -0.000 C 
BRANCH  15  16
ATOM     16  C   UNL     1       5.620  50.012  10.217  1.00  0.00    -0.000 C 
BRANCH  16  17
ATOM     17  C   UNL     1       6.427  49.328   9.101  1.00  0.00    -0.003 C 
ATOM     18  C   UNL     1       6.622  47.832   9.334  1.00  0.00     0.004 C 
ENDBRANCH  16  17
ENDBRANCH  15  16
ENDBRANCH  14  15
ENDBRANCH  13  14
ENDBRANCH  12  13
ENDBRANCH  11  12
ENDBRANCH   1  11
TORSDOF 14
ENDMDL
MODEL 3
REMARK VINA RESULT:    -5.294      1.244      2.123
REMARK INTER + INTRA:         -10.899
REMARK INTER:                  -9.410
REMARK INTRA:                  -1.489
REMARK UNBOUND:                -1.273
REMARK SMILES CCCCCCCCCCCCCCCC(=O)[O-]
REMARK SMILES IDX 9 1 10 2 11 3 12 4 13 5 14 6 15 7 16 8 17 9 18 10 8 11 7 12
REMARK SMILES IDX 6 13 5 14 4 15 3 16 2 17 1 18
REMARK H PARENT
REMARK Flexibility Score: inf
ROOT
ATOM      1  C   UNL     1       2.614  46.801   9.771  1.00  0.00     0.000 C 
ENDROOT
BRANCH   1   2
ATOM      2  C   UNL     1       4.075  46.394  10.024  1.00  0.00     0.000 C 
BRANCH   2   3
ATOM      3  C   UNL     1       4.208  45.009  10.684  1.00  0.00     0.000 C 
BRANCH   3   4
ATOM      4  C   UNL     1       3.861  43.815   9.776  1.00  0.00     0.000 C 
BRANCH   4   5
ATOM      5  C   UNL     1       2.802  42.884  10.387  1.00  0.00     0.000 C 
BRANCH   5   6
ATOM      6  C   UNL     1       3.244  42.381  11.768  1.00  0.00     0.006 C 
BRANCH   6   7
ATOM      7  C   UNL     1       2.805  40.933  12.027  1.00  0.00     0.053 C 
BRANCH   7   8
ATOM      8  C   UNL     1       3.909  40.115  12.623  1.00  0.00     0.041 C 
ATOM      9  O   UNL     1       5.031  40.639  12.856  1.00  0.00    -0.550 OA
ATOM     10  O   UNL     1       3.711  38.766  12.891  1.00  0.00    -0.550 OA
ENDBRANCH   7   8
ENDBRANCH   6   7
ENDBRANCH   5   6
ENDBRANCH   4   5
ENDBRANCH   3   4
ENDBRANCH   2   3
ENDBRANCH   1   2
BRANCH   1  11
ATOM     11  C   UNL     1       2.337  47.128   8.296  1.00  0.00     0.000 C 
BRANCH  11  12
ATOM     12  C   UNL     1       3.451  47.974   7.653  1.00  0.00    -0.000 C 
BRANCH  12  13
ATOM     13  C   UNL     1       3.109  49.479   7.645  1.00  0.00    -0.000 C 
BRANCH  13  14
ATOM     14  C   UNL     1       4.191  50.361   8.292  1.00  0.00    -0.000 C 
BRANCH  14  15
ATOM     15  C   UNL     1       4.395  50.060   9.786  1.00  0.00    -0.000 C 
BRANCH  15  16
ATOM     16  C   UNL     1       5.866  49.736  10.119  1.00  0.00    -0.000 C 
BRANCH  16  17
ATOM     17  C   UNL     1       6.604  48.994   8.991  1.00  0.00    -0.003 C 
ATOM     18  C   UNL     1       7.256  47.696   9.456  1.00  0.00     0.004 C 
ENDBRANCH  16  17
ENDBRANCH  15  16
ENDBRANCH  14  15
ENDBRANCH  13  14
ENDBRANCH  12  13
ENDBRANCH  11  12
ENDBRANCH   1  11
TORSDOF 14
ENDMDL
MODEL 4
REMARK VINA RESULT:    -5.201      2.231      5.014
REMARK INTER + INTRA:         -10.730
REMARK INTER:                  -8.507
REMARK INTRA:                  -2.224
REMARK UNBOUND:                -1.273
REMARK SMILES CCCCCCCCCCCCCCCC(=O)[O-]
REMARK SMILES IDX 9 1 10 2 11 3 12 4 13 5 14 6 15 7 16 8 17 9 18 10 8 11 7 12
REMARK SMILES IDX 6 13 5 14 4 15 3 16 2 17 1 18
REMARK H PARENT
REMARK Flexibility Score: inf
ROOT
ATOM      1  C   UNL     1       5.318  49.715  10.181  1.00  0.00     0.000 C 
ENDROOT
BRANCH   1   2
ATOM      2  C   UNL     1       6.225  49.091   9.108  1.00  0.00     0.000 C 
BRANCH   2   3
ATOM      3  C   UNL     1       6.209  47.551   9.127  1.00  0.00     0.000 C 
BRANCH   3   4
ATOM      4  C   UNL     1       5.068  46.918   9.945  1.00  0.00     0.000 C 
BRANCH   4   5
ATOM      5  C   UNL     1       4.550  45.605   9.338  1.00  0.00     0.000 C 
BRANCH   5   6
ATOM      6  C   UNL     1       4.209  44.588  10.436  1.00  0.00     0.006 C 
BRANCH   6   7
ATOM      7  C   UNL     1       3.417  43.391   9.894  1.00  0.00     0.053 C 
BRANCH   7   8
ATOM      8  C   UNL     1       2.570  42.759  10.955  1.00  0.00     0.041 C 
ATOM      9  O   UNL     1       1.420  43.211  11.201  1.00  0.00    -0.550 OA
ATOM     10  O   UNL     1       3.061  41.690  11.695  1.00  0.00    -0.550 OA
ENDBRANCH   7   8
ENDBRANCH   6   7
ENDBRANCH   5   6
ENDBRANCH   4   5
ENDBRANCH   3   4
ENDBRANCH   2   3
ENDBRANCH   1   2
BRANCH   1  11
ATOM     11  C   UNL     1       4.087  50.412   9.582  1.00  0.00     0.000 C 
BRANCH  11  12
ATOM     12  C   UNL     1       4.202  50.626   8.062  1.00  0.00    -0.000 C 
BRANCH  12  13
ATOM     13  C   UNL     1       3.020  49.999   7.294  1.00  0.00    -0.000 C 
BRANCH  13  14
ATOM     14  C   UNL     1       2.918  48.473   7.458  1.00  0.00    -0.000 C 
BRANCH  14  15
ATOM     15  C   UNL     1       1.500  48.002   7.820  1.00  0.00    -0.000 C 
BRANCH  15  16
ATOM     16  C   UNL     1       1.342  47.736   9.332  1.00  0.00    -0.000 C 
BRANCH  16  17
ATOM     17  C   UNL     1       0.954  46.285   9.664  1.00  0.00    -0.003 C 
ATOM     18  C   UNL     1       0.609  45.461   8.427  1.00  0.00     0.004 C 
ENDBRANCH  16  17
ENDBRANCH  15  16
ENDBRANCH  14  15
ENDBRANCH  13  14
ENDBRANCH  12  13
ENDBRANCH  11  12
ENDBRANCH   1  11
TORSDOF 14
ENDMDL
MODEL 5
REMARK VINA RESULT:    -5.199      1.793      3.975
REMARK INTER + INTRA:         -10.728
REMARK INTER:                  -8.758
REMARK INTRA:                  -1.969
REMARK UNBOUND:                -1.273
REMARK SMILES CCCCCCCCCCCCCCCC(=O)[O-]
REMARK SMILES IDX 9 1 10 2 11 3 12 4 13 5 14 6 15 7 16 8 17 9 18 10 8 11 7 12
REMARK SMILES IDX 6 13 5 14 4 15 3 16 2 17 1 18
REMARK H PARENT
REMARK Flexibility Score: inf
ROOT
ATOM      1  C   UNL     1       6.414  47.370   9.354  1.00  0.00     0.000 C 
ENDROOT
BRANCH   1   2
ATOM      2  C   UNL     1       4.982  46.837   9.179  1.00  0.00     0.000 C 
BRANCH   2   3
ATOM      3  C   UNL     1       4.363  46.333  10.496  1.00  0.00     0.000 C 
BRANCH   3   4
ATOM      4  C   UNL     1       4.398  44.806  10.693  1.00  0.00     0.000 C 
BRANCH   4   5
ATOM      5  C   UNL     1       3.937  44.029   9.450  1.00  0.00     0.000 C 
BRANCH   5   6
ATOM      6  C   UNL     1       2.674  43.210   9.751  1.00  0.00     0.006 C 
BRANCH   6   7
ATOM      7  C   UNL     1       2.093  43.525  11.136  1.00  0.00     0.053 C 
BRANCH   7   8
ATOM      8  C   UNL     1       2.003  42.299  11.993  1.00  0.00     0.041 C 
ATOM      9  O   UNL     1       1.010  42.127  12.750  1.00  0.00    -0.550 OA
ATOM     10  O   UNL     1       3.029  41.363  11.981  1.00  0.00    -0.550 OA
ENDBRANCH   7   8
ENDBRANCH   6   7
ENDBRANCH   5   6
ENDBRANCH   4   5
ENDBRANCH   3   4
ENDBRANCH   2   3
ENDBRANCH   1   2
BRANCH   1  11
ATOM     11  C   UNL     1       6.467  48.902   9.457  1.00  0.00     0.000 C 
BRANCH  11  12
ATOM     12  C   UNL     1       5.170  49.578   8.976  1.00  0.00    -0.000 C 
BRANCH  12  13
ATOM     13  C   UNL     1       4.490  50.396  10.094  1.00  0.00    -0.000 C 
BRANCH  13  14
ATOM     14  C   UNL     1       3.064  49.923  10.423  1.00  0.00    -0.000 C 
BRANCH  14  15
ATOM     15  C   UNL     1       2.257  49.534   9.174  1.00  0.00    -0.000 C 
BRANCH  15  16
ATOM     16  C   UNL     1       1.516  48.193   9.352  1.00  0.00    -0.000 C 
BRANCH  16  17
ATOM     17  C   UNL     1       1.472  47.340   8.073  1.00  0.00    -0.003 C 
ATOM     18  C   UNL     1       0.742  46.013   8.263  1.00  0.00     0.004 C 
ENDBRANCH  16  17
ENDBRANCH  15  16
ENDBRANCH  14  15
ENDBRANCH  13  14
ENDBRANCH  12  13
ENDBRANCH  11  12
ENDBRANCH   1  11
TORSDOF 14
ENDMDL
MODEL 6
REMARK VINA RESULT:    -5.183      2.107      3.634
REMARK INTER + INTRA:         -10.698
REMARK INTER:                  -8.420
REMARK INTRA:                  -2.279
REMARK UNBOUND:                -1.273
REMARK SMILES CCCCCCCCCCCCCCCC(=O)[O-]
REMARK SMILES IDX 9 1 10 2 11 3 12 4 13 5 14 6 15 7 16 8 17 9 18 10 8 11 7 12
REMARK SMILES IDX 6 13 5 14 4 15 3 16 2 17 1 18
REMARK H PARENT
REMARK Flexibility Score: inf
ROOT
ATOM      1  C   UNL     1       4.513  46.536  10.286  1.00  0.00     0.000 C 
ENDROOT
BRANCH   1   2
ATOM      2  C   UNL     1       2.994  46.769  10.336  1.00  0.00     0.000 C 
BRANCH   2   3
ATOM      3  C   UNL     1       2.319  46.638   8.958  1.00  0.00     0.000 C 
BRANCH   3   4
ATOM      4  C   UNL     1       1.114  45.681   8.907  1.00  0.00     0.000 C 
BRANCH   4   5
ATOM      5  C   UNL     1       1.256  44.485   9.861  1.00  0.00     0.000 C 
BRANCH   5   6
ATOM      6  C   UNL     1       2.017  43.333   9.189  1.00  0.00     0.006 C 
BRANCH   6   7
ATOM      7  C   UNL     1       3.392  43.095   9.827  1.00  0.00     0.053 C 
BRANCH   7   8
ATOM      8  C   UNL     1       3.282  42.795  11.291  1.00  0.00     0.041 C 
ATOM      9  O   UNL     1       2.735  41.728  11.679  1.00  0.00    -0.550 OA
ATOM     10  O   UNL     1       3.752  43.708  12.227  1.00  0.00    -0.550 OA
ENDBRANCH   7   8
ENDBRANCH   6   7
ENDBRANCH   5   6
ENDBRANCH   4   5
ENDBRANCH   3   4
ENDBRANCH   2   3
ENDBRANCH   1   2
BRANCH   1  11
ATOM     11  C   UNL     1       5.152  47.079   8.999  1.00  0.00     0.000 C 
BRANCH  11  12
ATOM     12  C   UNL     1       6.528  47.726   9.242  1.00  0.00    -0.000 C 
BRANCH  12  13
ATOM     13  C   UNL     1       6.491  49.258   9.058  1.00  0.00    -0.000 C 
BRANCH  13  14
ATOM     14  C   UNL     1       5.797  50.002  10.212  1.00  0.00    -0.000 C 
BRANCH  14  15
ATOM     15  C   UNL     1       4.681  50.944   9.733  1.00  0.00    -0.000 C 
BRANCH  15  16
ATOM     16  C   UNL     1       3.276  50.356   9.979  1.00  0.00    -0.000 C 
BRANCH  16  17
ATOM     17  C   UNL     1       2.397  50.314   8.717  1.00  0.00    -0.003 C 
ATOM     18  C   UNL     1       3.171  49.916   7.463  1.00  0.00     0.004 C 
ENDBRANCH  16  17
ENDBRANCH  15  16
ENDBRANCH  14  15
ENDBRANCH  13  14
ENDBRANCH  12  13
ENDBRANCH  11  12
ENDBRANCH   1  11
TORSDOF 14
ENDMDL
MODEL 7
REMARK VINA RESULT:    -5.129      3.592      4.366
REMARK INTER + INTRA:         -10.598
REMARK INTER:                  -8.500
REMARK INTRA:                  -2.098
REMARK UNBOUND:                -1.273
REMARK SMILES CCCCCCCCCCCCCCCC(=O)[O-]
REMARK SMILES IDX 9 1 10 2 11 3 12 4 13 5 14 6 15 7 16 8 17 9 18 10 8 11 7 12
REMARK SMILES IDX 6 13 5 14 4 15 3 16 2 17 1 18
REMARK H PARENT
REMARK Flexibility Score: inf
ROOT
ATOM      1  C   UNL     1       4.323  44.814   9.926  1.00  0.00     0.000 C 
ENDROOT
BRANCH   1   2
ATOM      2  C   UNL     1       4.120  44.608  11.436  1.00  0.00     0.000 C 
BRANCH   2   3
ATOM      3  C   UNL     1       3.303  43.345  11.766  1.00  0.00     0.000 C 
BRANCH   3   4
ATOM      4  C   UNL     1       2.002  43.177  10.959  1.00  0.00     0.000 C 
BRANCH   4   5
ATOM      5  C   UNL     1       0.896  44.150  11.394  1.00  0.00     0.000 C 
BRANCH   5   6
ATOM      6  C   UNL     1       0.373  44.957  10.197  1.00  0.00     0.006 C 
BRANCH   6   7
ATOM      7  C   UNL     1       0.752  44.318   8.855  1.00  0.00     0.053 C 
BRANCH   7   8
ATOM      8  C   UNL     1       0.196  45.087   7.696  1.00  0.00     0.041 C 
ATOM      9  O   UNL     1       0.152  46.345   7.733  1.00  0.00    -0.550 OA
ATOM     10  O   UNL     1      -0.303  44.413   6.587  1.00  0.00    -0.550 OA
ENDBRANCH   7   8
ENDBRANCH   6   7
ENDBRANCH   5   6
ENDBRANCH   4   5
ENDBRANCH   3   4
ENDBRANCH   2   3
ENDBRANCH   1   2
BRANCH   1  11
ATOM     11  C   UNL     1       3.779  46.165   9.436  1.00  0.00     0.000 C 
BRANCH  11  12
ATOM     12  C   UNL     1       3.477  47.141  10.587  1.00  0.00    -0.000 C 
BRANCH  12  13
ATOM     13  C   UNL     1       3.023  48.524  10.075  1.00  0.00    -0.000 C 
BRANCH  13  14
ATOM     14  C   UNL     1       4.001  49.661  10.422  1.00  0.00    -0.000 C 
BRANCH  14  15
ATOM     15  C   UNL     1       4.515  50.409   9.182  1.00  0.00    -0.000 C 
BRANCH  15  16
ATOM     16  C   UNL     1       5.774  49.748   8.582  1.00  0.00    -0.000 C 
BRANCH  16  17
ATOM     17  C   UNL     1       6.682  49.087   9.633  1.00  0.00    -0.003 C 
ATOM     18  C   UNL     1       7.064  47.654   9.276  1.00  0.00     0.004 C 
ENDBRANCH  16  17
ENDBRANCH  15  16
ENDBRANCH  14  15
ENDBRANCH  13  14
ENDBRANCH  12  13
ENDBRANCH  11  12
ENDBRANCH   1  11
TORSDOF 14
ENDMDL
MODEL 8
REMARK VINA RESULT:    -5.115      2.619      3.781
REMARK INTER + INTRA:         -10.573
REMARK INTER:                  -8.656
REMARK INTRA:                  -1.917
REMARK UNBOUND:                -1.273
REMARK SMILES CCCCCCCCCCCCCCCC(=O)[O-]
REMARK SMILES IDX 9 1 10 2 11 3 12 4 13 5 14 6 15 7 16 8 17 9 18 10 8 11 7 12
REMARK SMILES IDX 6 13 5 14 4 15 3 16 2 17 1 18
REMARK H PARENT
REMARK Flexibility Score: inf
ROOT
ATOM      1  C   UNL     1       2.172  47.430   8.132  1.00  0.00     0.000 C 
ENDROOT
BRANCH   1   2
ATOM      2  C   UNL     1       1.959  47.015   9.597  1.00  0.00     0.000 C 
BRANCH   2   3
ATOM      3  C   UNL     1       0.621  46.289   9.828  1.00  0.00     0.000 C 
BRANCH   3   4
ATOM      4  C   UNL     1       0.733  44.776  10.094  1.00  0.00     0.000 C 
BRANCH   4   5
ATOM      5  C   UNL     1       1.193  43.983   8.861  1.00  0.00     0.000 C 
BRANCH   5   6
ATOM      6  C   UNL     1       2.312  42.998   9.227  1.00  0.00     0.006 C 
BRANCH   6   7
ATOM      7  C   UNL     1       3.631  43.711   9.552  1.00  0.00     0.053 C 
BRANCH   7   8
ATOM      8  C   UNL     1       3.903  43.733  11.025  1.00  0.00     0.041 C 
ATOM      9  O   UNL     1       3.845  42.669  11.696  1.00  0.00    -0.550 OA
ATOM     10  O   UNL     1       4.190  44.934  11.663  1.00  0.00    -0.550 OA
ENDBRANCH   7   8
ENDBRANCH   6   7
ENDBRANCH   5   6
ENDBRANCH   4   5
ENDBRANCH   3   4
ENDBRANCH   2   3
ENDBRANCH   1   2
BRANCH   1  11
ATOM     11  C   UNL     1       2.108  48.953   7.934  1.00  0.00     0.000 C 
BRANCH  11  12
ATOM     12  C   UNL     1       3.422  49.540   7.389  1.00  0.00    -0.000 C 
BRANCH  12  13
ATOM     13  C   UNL     1       4.003  50.627   8.317  1.00  0.00    -0.000 C 
BRANCH  13  14
ATOM     14  C   UNL     1       3.736  50.371   9.811  1.00  0.00    -0.000 C 
BRANCH  14  15
ATOM     15  C   UNL     1       4.757  49.413  10.447  1.00  0.00    -0.000 C 
BRANCH  15  16
ATOM     16  C   UNL     1       6.161  49.559   9.823  1.00  0.00    -0.000 C 
BRANCH  16  17
ATOM     17  C   UNL     1       6.746  48.233   9.309  1.00  0.00    -0.003 C 
ATOM     18  C   UNL     1       5.722  47.102   9.273  1.00  0.00     0.004 C 
ENDBRANCH  16  17
ENDBRANCH  15  16
ENDBRANCH  14  15
ENDBRANCH  13  14
ENDBRANCH  12  13
ENDBRANCH  11  12
ENDBRANCH   1  11
TORSDOF 14
ENDMDL
MODEL 9
REMARK VINA RESULT:    -5.051      2.199      3.941
REMARK INTER + INTRA:         -10.457
REMARK INTER:                  -8.400
REMARK INTRA:                  -2.058
REMARK UNBOUND:                -1.273
REMARK SMILES CCCCCCCCCCCCCCCC(=O)[O-]
REMARK SMILES IDX 9 1 10 2 11 3 12 4 13 5 14 6 15 7 16 8 17 9 18 10 8 11 7 12
REMARK SMILES IDX 6 13 5 14 4 15 3 16 2 17 1 18
REMARK H PARENT
REMARK Flexibility Score: inf
ROOT
ATOM      1  C   UNL     1       2.663  48.186   7.565  1.00  0.00     0.000 C 
ENDROOT
BRANCH   1   2
ATOM      2  C   UNL     1       1.340  47.454   7.841  1.00  0.00     0.000 C 
BRANCH   2   3
ATOM      3  C   UNL     1       0.937  47.479   9.327  1.00  0.00     0.000 C 
BRANCH   3   4
ATOM      4  C   UNL     1       0.865  46.100  10.009  1.00  0.00     0.000 C 
BRANCH   4   5
ATOM      5  C   UNL     1       0.881  44.934   9.009  1.00  0.00     0.000 C 
BRANCH   5   6
ATOM      6  C   UNL     1       1.449  43.663   9.655  1.00  0.00     0.006 C 
BRANCH   6   7
ATOM      7  C   UNL     1       1.464  43.747  11.187  1.00  0.00     0.053 C 
BRANCH   7   8
ATOM      8  C   UNL     1       2.628  43.010  11.774  1.00  0.00     0.041 C 
ATOM      9  O   UNL     1       3.641  43.642  12.176  1.00  0.00    -0.550 OA
ATOM     10  O   UNL     1       2.610  41.622  11.848  1.00  0.00    -0.550 OA
ENDBRANCH   7   8
ENDBRANCH   6   7
ENDBRANCH   5   6
ENDBRANCH   4   5
ENDBRANCH   3   4
ENDBRANCH   2   3
ENDBRANCH   1   2
BRANCH   1  11
ATOM     11  C   UNL     1       2.503  49.715   7.556  1.00  0.00     0.000 C 
BRANCH  11  12
ATOM     12  C   UNL     1       3.708  50.445   8.177  1.00  0.00    -0.000 C 
BRANCH  12  13
ATOM     13  C   UNL     1       3.836  50.174   9.691  1.00  0.00    -0.000 C 
BRANCH  13  14
ATOM     14  C   UNL     1       5.236  49.696  10.116  1.00  0.00    -0.000 C 
BRANCH  14  15
ATOM     15  C   UNL     1       5.981  48.952   8.995  1.00  0.00    -0.000 C 
BRANCH  15  16
ATOM     16  C   UNL     1       6.195  47.461   9.328  1.00  0.00    -0.000 C 
BRANCH  16  17
ATOM     17  C   UNL     1       4.981  46.802  10.005  1.00  0.00    -0.003 C 
ATOM     18  C   UNL     1       4.502  45.545   9.283  1.00  0.00     0.004 C 
ENDBRANCH  16  17
ENDBRANCH  15  16
ENDBRANCH  14  15
ENDBRANCH  13  14
ENDBRANCH  12  13
ENDBRANCH  11  12
ENDBRANCH   1  11
TORSDOF 14
ENDMDL
