MODEL 1
REMARK VINA RESULT:    -3.887      0.000      0.000
REMARK INTER + INTRA:          -7.782
REMARK INTER:                  -7.068
REMARK INTRA:                  -0.715
REMARK UNBOUND:                -0.715
REMARK SMILES CCCCCCCCCCCCCCCC(=O)[O-]
REMARK SMILES IDX 9 1 10 2 11 3 12 4 13 5 14 6 15 7 16 8 17 9 18 10 8 11 7 12
REMARK SMILES IDX 6 13 5 14 4 15 3 16 2 17 1 18
REMARK H PARENT
REMARK Flexibility Score: inf
ROOT
ATOM      1  C   UNL     1      16.872  -6.181  11.940  1.00  0.00     0.000 C 
ENDROOT
BRANCH   1   2
ATOM      2  C   UNL     1      17.058  -5.674  13.378  1.00  0.00     0.000 C 
BRANCH   2   3
ATOM      3  C   UNL     1      16.010  -4.605  13.723  1.00  0.00     0.000 C 
BRANCH   3   4
ATOM      4  C   UNL     1      16.021  -4.213  15.211  1.00  0.00     0.000 C 
BRANCH   4   5
ATOM      5  C   UNL     1      15.548  -2.779  15.515  1.00  0.00     0.000 C 
BRANCH   5   6
ATOM      6  C   UNL     1      15.517  -1.825  14.306  1.00  0.00     0.006 C 
BRANCH   6   7
ATOM      7  C   UNL     1      16.350  -0.544  14.499  1.00  0.00     0.053 C 
BRANCH   7   8
ATOM      8  C   UNL     1      17.125  -0.546  15.782  1.00  0.00     0.041 C 
ATOM      9  O   UNL     1      16.681   0.065  16.791  1.00  0.00    -0.550 OA
ATOM     10  O   UNL     1      18.317  -1.252  15.877  1.00  0.00    -0.550 OA
ENDBRANCH   7   8
ENDBRANCH   6   7
ENDBRANCH   5   6
ENDBRANCH   4   5
ENDBRANCH   3   4
ENDBRANCH   2   3
ENDBRANCH   1   2
BRANCH   1  11
ATOM     11  C   UNL     1      15.517  -5.780  11.330  1.00  0.00     0.000 C 
BRANCH  11  12
ATOM     12  C   UNL     1      15.361  -6.074   9.826  1.00  0.00    -0.000 C 
BRANCH  12  13
ATOM     13  C   UNL     1      16.475  -6.979   9.273  1.00  0.00    -0.000 C 
BRANCH  13  14
ATOM     14  C   UNL     1      17.168  -6.387   8.032  1.00  0.00    -0.000 C 
BRANCH  14  15
ATOM     15  C   UNL     1      18.344  -5.438   8.329  1.00  0.00    -0.000 C 
BRANCH  15  16
ATOM     16  C   UNL     1      18.279  -4.132   7.519  1.00  0.00    -0.000 C 
BRANCH  16  17
ATOM     17  C   UNL     1      19.661  -3.672   7.031  1.00  0.00    -0.003 C 
ATOM     18  C   UNL     1      20.307  -2.652   7.968  1.00  0.00     0.004 C 
ENDBRANCH  16  17
ENDBRANCH  15  16
ENDBRANCH  14  15
ENDBRANCH  13  14
ENDBRANCH  12  13
ENDBRANCH  11  12
ENDBRANCH   1  11
TORSDOF 14
ENDMDL
MODEL 2
REMARK VINA RESULT:    -3.856      3.336      5.477
REMARK INTER + INTRA:          -7.727
REMARK INTER:                  -6.843
REMARK INTRA:                  -0.883
REMARK UNBOUND:                -0.715
REMARK SMILES CCCCCCCCCCCCCCCC(=O)[O-]
REMARK SMILES IDX 9 1 10 2 11 3 12 4 13 5 14 6 15 7 16 8 17 9 18 10 8 11 7 12
REMARK SMILES IDX 6 13 5 14 4 15 3 16 2 17 1 18
REMARK H PARENT
REMARK Flexibility Score: inf
ROOT
ATOM      1  C   UNL     1      16.299  -0.724  14.512  1.00  0.00     0.000 C 
ENDROOT
BRANCH   1   2
ATOM      2  C   UNL     1      17.255  -0.924  15.698  1.00  0.00     0.000 C 
BRANCH   2   3
ATOM      3  C   UNL     1      16.697  -0.268  16.969  1.00  0.00     0.000 C 
BRANCH   3   4
ATOM      4  C   UNL     1      15.347   0.436  16.737  1.00  0.00     0.000 C 
BRANCH   4   5
ATOM      5  C   UNL     1      15.259   1.878  17.271  1.00  0.00     0.000 C 
BRANCH   5   6
ATOM      6  C   UNL     1      14.877   2.946  16.228  1.00  0.00     0.006 C 
BRANCH   6   7
ATOM      7  C   UNL     1      15.736   2.909  14.951  1.00  0.00     0.053 C 
BRANCH   7   8
ATOM      8  C   UNL     1      16.018   4.276  14.405  1.00  0.00     0.041 C 
ATOM      9  O   UNL     1      15.159   5.192  14.513  1.00  0.00    -0.550 OA
ATOM     10  O   UNL     1      17.242   4.550  13.809  1.00  0.00    -0.550 OA
ENDBRANCH   7   8
ENDBRANCH   6   7
ENDBRANCH   5   6
ENDBRANCH   4   5
ENDBRANCH   3   4
ENDBRANCH   2   3
ENDBRANCH   1   2
BRANCH   1  11
ATOM     11  C   UNL     1      15.494  -1.990  14.166  1.00  0.00     0.000 C 
BRANCH  11  12
ATOM     12  C   UNL     1      16.119  -3.315  14.641  1.00  0.00    -0.000 C 
BRANCH  12  13
ATOM     13  C   UNL     1      15.742  -4.510  13.750  1.00  0.00    -0.000 C 
BRANCH  13  14
ATOM     14  C   UNL     1      16.901  -5.506  13.557  1.00  0.00    -0.000 C 
BRANCH  14  15
ATOM     15  C   UNL     1      17.128  -5.974  12.108  1.00  0.00    -0.000 C 
BRANCH  15  16
ATOM     16  C   UNL     1      15.974  -6.837  11.570  1.00  0.00    -0.000 C 
BRANCH  16  17
ATOM     17  C   UNL     1      15.163  -6.121  10.479  1.00  0.00    -0.003 C 
ATOM     18  C   UNL     1      13.993  -6.962   9.969  1.00  0.00     0.004 C 
ENDBRANCH  16  17
ENDBRANCH  15  16
ENDBRANCH  14  15
ENDBRANCH  13  14
ENDBRANCH  12  13
ENDBRANCH  11  12
ENDBRANCH   1  11
TORSDOF 14
ENDMDL
MODEL 3
REMARK VINA RESULT:    -3.774      7.657     10.797
REMARK INTER + INTRA:          -7.578
REMARK INTER:                  -6.933
REMARK INTRA:                  -0.644
REMARK UNBOUND:                -0.715
REMARK SMILES CCCCCCCCCCCCCCCC(=O)[O-]
REMARK SMILES IDX 9 1 10 2 11 3 12 4 13 5 14 6 15 7 16 8 17 9 18 10 8 11 7 12
REMARK SMILES IDX 6 13 5 14 4 15 3 16 2 17 1 18
REMARK H PARENT
REMARK Flexibility Score: inf
ROOT
ATOM      1  C   UNL     1      14.942   6.249  13.870  1.00  0.00     0.000 C 
ENDROOT
BRANCH   1   2
ATOM      2  C   UNL     1      16.319   5.753  14.338  1.00  0.00     0.000 C 
BRANCH   2   3
ATOM      3  C   UNL     1      16.470   4.245  14.094  1.00  0.00     0.000 C 
BRANCH   3   4
ATOM      4  C   UNL     1      15.696   3.392  15.117  1.00  0.00     0.000 C 
BRANCH   4   5
ATOM      5  C   UNL     1      15.730   1.873  14.864  1.00  0.00     0.000 C 
BRANCH   5   6
ATOM      6  C   UNL     1      15.762   0.994  16.128  1.00  0.00     0.006 C 
BRANCH   6   7
ATOM      7  C   UNL     1      15.241  -0.438  15.908  1.00  0.00     0.053 C 
BRANCH   7   8
ATOM      8  C   UNL     1      16.108  -1.233  14.980  1.00  0.00     0.041 C 
ATOM      9  O   UNL     1      15.639  -1.680  13.900  1.00  0.00    -0.550 OA
ATOM     10  O   UNL     1      17.445  -1.451  15.290  1.00  0.00    -0.550 OA
ENDBRANCH   7   8
ENDBRANCH   6   7
ENDBRANCH   5   6
ENDBRANCH   4   5
ENDBRANCH   3   4
ENDBRANCH   2   3
ENDBRANCH   1   2
BRANCH   1  11
ATOM     11  C   UNL     1      15.030   7.398  12.848  1.00  0.00     0.000 C 
BRANCH  11  12
ATOM     12  C   UNL     1      16.441   7.679  12.297  1.00  0.00    -0.000 C 
BRANCH  12  13
ATOM     13  C   UNL     1      16.727   9.180  12.119  1.00  0.00    -0.000 C 
BRANCH  13  14
ATOM     14  C   UNL     1      17.524   9.492  10.839  1.00  0.00    -0.000 C 
BRANCH  14  15
ATOM     15  C   UNL     1      18.178   8.273  10.161  1.00  0.00    -0.000 C 
BRANCH  15  16
ATOM     16  C   UNL     1      18.847   8.621   8.821  1.00  0.00    -0.000 C 
BRANCH  16  17
ATOM     17  C   UNL     1      19.841   9.786   8.945  1.00  0.00    -0.003 C 
ATOM     18  C   UNL     1      20.108  10.477   7.608  1.00  0.00     0.004 C 
ENDBRANCH  16  17
ENDBRANCH  15  16
ENDBRANCH  14  15
ENDBRANCH  13  14
ENDBRANCH  12  13
ENDBRANCH  11  12
ENDBRANCH   1  11
TORSDOF 14
ENDMDL
MODEL 4
REMARK VINA RESULT:    -3.722     13.953     16.969
REMARK INTER + INTRA:          -7.483
REMARK INTER:                  -6.325
REMARK INTRA:                  -1.158
REMARK UNBOUND:                -0.715
REMARK SMILES CCCCCCCCCCCCCCCC(=O)[O-]
REMARK SMILES IDX 9 1 10 2 11 3 12 4 13 5 14 6 15 7 16 8 17 9 18 10 8 11 7 12
REMARK SMILES IDX 6 13 5 14 4 15 3 16 2 17 1 18
REMARK H PARENT
REMARK Flexibility Score: inf
ROOT
ATOM      1  C   UNL     1      23.732  11.214   5.809  1.00  0.00     0.000 C 
ENDROOT
BRANCH   1   2
ATOM      2  C   UNL     1      22.270  10.846   6.103  1.00  0.00     0.000 C 
BRANCH   2   3
ATOM      3  C   UNL     1      22.039  10.682   7.612  1.00  0.00     0.000 C 
BRANCH   3   4
ATOM      4  C   UNL     1      21.218  11.833   8.221  1.00  0.00     0.000 C 
BRANCH   4   5
ATOM      5  C   UNL     1      20.196  11.413   9.294  1.00  0.00     0.000 C 
BRANCH   5   6
ATOM      6  C   UNL     1      19.037  10.530   8.793  1.00  0.00     0.006 C 
BRANCH   6   7
ATOM      7  C   UNL     1      18.097  10.038   9.909  1.00  0.00     0.053 C 
BRANCH   7   8
ATOM      8  C   UNL     1      18.149   8.552  10.094  1.00  0.00     0.041 C 
ATOM      9  O   UNL     1      18.833   7.839   9.313  1.00  0.00    -0.550 OA
ATOM     10  O   UNL     1      17.473   7.957  11.152  1.00  0.00    -0.550 OA
ENDBRANCH   7   8
ENDBRANCH   6   7
ENDBRANCH   5   6
ENDBRANCH   4   5
ENDBRANCH   3   4
ENDBRANCH   2   3
ENDBRANCH   1   2
BRANCH   1  11
ATOM     11  C   UNL     1      24.324  10.431   4.622  1.00  0.00     0.000 C 
BRANCH  11  12
ATOM     12  C   UNL     1      25.390   9.383   4.993  1.00  0.00    -0.000 C 
BRANCH  12  13
ATOM     13  C   UNL     1      25.886   9.519   6.443  1.00  0.00    -0.000 C 
BRANCH  13  14
ATOM     14  C   UNL     1      27.304  10.111   6.540  1.00  0.00    -0.000 C 
BRANCH  14  15
ATOM     15  C   UNL     1      27.370  11.649   6.590  1.00  0.00    -0.000 C 
BRANCH  15  16
ATOM     16  C   UNL     1      27.708  12.279   5.228  1.00  0.00    -0.000 C 
BRANCH  16  17
ATOM     17  C   UNL     1      28.507  11.329   4.322  1.00  0.00    -0.003 C 
ATOM     18  C   UNL     1      29.889  11.876   3.968  1.00  0.00     0.004 C 
ENDBRANCH  16  17
ENDBRANCH  15  16
ENDBRANCH  14  15
ENDBRANCH  13  14
ENDBRANCH  12  13
ENDBRANCH  11  12
ENDBRANCH   1  11
TORSDOF 14
ENDMDL
MODEL 5
REMARK VINA RESULT:    -3.696     14.101     17.591
REMARK INTER + INTRA:          -7.437
REMARK INTER:                  -6.357
REMARK INTRA:                  -1.080
REMARK UNBOUND:                -0.715
REMARK SMILES CCCCCCCCCCCCCCCC(=O)[O-]
REMARK SMILES IDX 9 1 10 2 11 3 12 4 13 5 14 6 15 7 16 8 17 9 18 10 8 11 7 12
REMARK SMILES IDX 6 13 5 14 4 15 3 16 2 17 1 18
REMARK H PARENT
REMARK Flexibility Score: inf
ROOT
ATOM      1  C   UNL     1      21.085  11.622   8.175  1.00  0.00     0.000 C 
ENDROOT
BRANCH   1   2
ATOM      2  C   UNL     1      22.117  10.551   7.792  1.00  0.00     0.000 C 
BRANCH   2   3
ATOM      3  C   UNL     1      22.518  10.679   6.315  1.00  0.00     0.000 C 
BRANCH   3   4
ATOM      4  C   UNL     1      24.032  10.511   6.089  1.00  0.00     0.000 C 
BRANCH   4   5
ATOM      5  C   UNL     1      24.671  11.542   5.140  1.00  0.00     0.000 C 
BRANCH   5   6
ATOM      6  C   UNL     1      26.006  11.114   4.502  1.00  0.00     0.006 C 
BRANCH   6   7
ATOM      7  C   UNL     1      27.093  10.728   5.523  1.00  0.00     0.053 C 
BRANCH   7   8
ATOM      8  C   UNL     1      27.962  11.887   5.906  1.00  0.00     0.041 C 
ATOM      9  O   UNL     1      27.778  12.483   7.002  1.00  0.00    -0.550 OA
ATOM     10  O   UNL     1      28.999  12.287   5.073  1.00  0.00    -0.550 OA
ENDBRANCH   7   8
ENDBRANCH   6   7
ENDBRANCH   5   6
ENDBRANCH   4   5
ENDBRANCH   3   4
ENDBRANCH   2   3
ENDBRANCH   1   2
BRANCH   1  11
ATOM     11  C   UNL     1      19.740  11.028   8.632  1.00  0.00     0.000 C 
BRANCH  11  12
ATOM     12  C   UNL     1      19.797   9.564   9.109  1.00  0.00    -0.000 C 
BRANCH  12  13
ATOM     13  C   UNL     1      18.447   8.839   8.982  1.00  0.00    -0.000 C 
BRANCH  13  14
ATOM     14  C   UNL     1      18.033   8.112  10.275  1.00  0.00    -0.000 C 
BRANCH  14  15
ATOM     15  C   UNL     1      17.319   8.990  11.320  1.00  0.00    -0.000 C 
BRANCH  15  16
ATOM     16  C   UNL     1      16.472  10.106  10.686  1.00  0.00    -0.000 C 
BRANCH  16  17
ATOM     17  C   UNL     1      16.726  11.477  11.333  1.00  0.00    -0.003 C 
ATOM     18  C   UNL     1      18.094  11.565  12.008  1.00  0.00     0.004 C 
ENDBRANCH  16  17
ENDBRANCH  15  16
ENDBRANCH  14  15
ENDBRANCH  13  14
ENDBRANCH  12  13
ENDBRANCH  11  12
ENDBRANCH   1  11
TORSDOF 14
ENDMDL
MODEL 6
REMARK VINA RESULT:    -3.618      7.365     10.901
REMARK INTER + INTRA:          -7.294
REMARK INTER:                  -5.483
REMARK INTRA:                  -1.811
REMARK UNBOUND:                -0.715
REMARK SMILES CCCCCCCCCCCCCCCC(=O)[O-]
REMARK SMILES IDX 9 1 10 2 11 3 12 4 13 5 14 6 15 7 16 8 17 9 18 10 8 11 7 12
REMARK SMILES IDX 6 13 5 14 4 15 3 16 2 17 1 18
REMARK H PARENT
REMARK Flexibility Score: inf
ROOT
ATOM      1  C   UNL     1      25.392   2.106   5.609  1.00  0.00     0.000 C 
ENDROOT
BRANCH   1   2
ATOM      2  C   UNL     1      24.359   3.033   6.268  1.00  0.00     0.000 C 
BRANCH   2   3
ATOM      3  C   UNL     1      23.012   2.963   5.533  1.00  0.00     0.000 C 
BRANCH   3   4
ATOM      4  C   UNL     1      22.013   2.002   6.204  1.00  0.00     0.000 C 
BRANCH   4   5
ATOM      5  C   UNL     1      20.960   1.389   5.261  1.00  0.00     0.000 C 
BRANCH   5   6
ATOM      6  C   UNL     1      20.661   2.202   3.987  1.00  0.00     0.006 C 
BRANCH   6   7
ATOM      7  C   UNL     1      19.232   2.774   3.931  1.00  0.00     0.053 C 
BRANCH   7   8
ATOM      8  C   UNL     1      19.074   4.016   4.756  1.00  0.00     0.041 C 
ATOM      9  O   UNL     1      18.014   4.214   5.406  1.00  0.00    -0.550 OA
ATOM     10  O   UNL     1      20.111   4.936   4.837  1.00  0.00    -0.550 OA
ENDBRANCH   7   8
ENDBRANCH   6   7
ENDBRANCH   5   6
ENDBRANCH   4   5
ENDBRANCH   3   4
ENDBRANCH   2   3
ENDBRANCH   1   2
BRANCH   1  11
ATOM     11  C   UNL     1      25.931   1.028   6.567  1.00  0.00     0.000 C 
BRANCH  11  12
ATOM     12  C   UNL     1      25.103  -0.270   6.628  1.00  0.00    -0.000 C 
BRANCH  12  13
ATOM     13  C   UNL     1      24.468  -0.640   5.277  1.00  0.00    -0.000 C 
BRANCH  13  14
ATOM     14  C   UNL     1      23.367  -1.709   5.404  1.00  0.00    -0.000 C 
BRANCH  14  15
ATOM     15  C   UNL     1      22.754  -1.854   6.810  1.00  0.00    -0.000 C 
BRANCH  15  16
ATOM     16  C   UNL     1      21.216  -1.859   6.794  1.00  0.00    -0.000 C 
BRANCH  16  17
ATOM     17  C   UNL     1      20.618  -2.566   8.020  1.00  0.00    -0.003 C 
ATOM     18  C   UNL     1      21.663  -3.344   8.819  1.00  0.00     0.004 C 
ENDBRANCH  16  17
ENDBRANCH  15  16
ENDBRANCH  14  15
ENDBRANCH  13  14
ENDBRANCH  12  13
ENDBRANCH  11  12
ENDBRANCH   1  11
TORSDOF 14
ENDMDL
MODEL 7
REMARK VINA RESULT:    -3.612      9.820     11.856
REMARK INTER + INTRA:          -7.283
REMARK INTER:                  -4.870
REMARK INTRA:                  -2.413
REMARK UNBOUND:                -0.715
REMARK SMILES CCCCCCCCCCCCCCCC(=O)[O-]
REMARK SMILES IDX 9 1 10 2 11 3 12 4 13 5 14 6 15 7 16 8 17 9 18 10 8 11 7 12
REMARK SMILES IDX 6 13 5 14 4 15 3 16 2 17 1 18
REMARK H PARENT
REMARK Flexibility Score: inf
ROOT
ATOM      1  C   UNL     1      20.577   2.602   2.251  1.00  0.00     0.000 C 
ENDROOT
BRANCH   1   2
ATOM      2  C   UNL     1      19.646   2.022   3.325  1.00  0.00     0.000 C 
BRANCH   2   3
ATOM      3  C   UNL     1      19.760   2.815   4.636  1.00  0.00     0.000 C 
BRANCH   3   4
ATOM      4  C   UNL     1      19.984   4.321   4.407  1.00  0.00     0.000 C 
BRANCH   4   5
ATOM      5  C   UNL     1      18.728   5.201   4.554  1.00  0.00     0.000 C 
BRANCH   5   6
ATOM      6  C   UNL     1      17.434   4.448   4.919  1.00  0.00     0.006 C 
BRANCH   6   7
ATOM      7  C   UNL     1      16.475   4.241   3.733  1.00  0.00     0.053 C 
BRANCH   7   8
ATOM      8  C   UNL     1      15.811   2.897   3.754  1.00  0.00     0.041 C 
ATOM      9  O   UNL     1      14.857   2.673   4.546  1.00  0.00    -0.550 OA
ATOM     10  O   UNL     1      16.220   1.903   2.874  1.00  0.00    -0.550 OA
ENDBRANCH   7   8
ENDBRANCH   6   7
ENDBRANCH   5   6
ENDBRANCH   4   5
ENDBRANCH   3   4
ENDBRANCH   2   3
ENDBRANCH   1   2
BRANCH   1  11
ATOM     11  C   UNL     1      21.974   1.953   2.250  1.00  0.00     0.000 C 
BRANCH  11  12
ATOM     12  C   UNL     1      23.138   2.900   2.596  1.00  0.00    -0.000 C 
BRANCH  12  13
ATOM     13  C   UNL     1      23.933   2.448   3.833  1.00  0.00    -0.000 C 
BRANCH  13  14
ATOM     14  C   UNL     1      23.421   3.082   5.139  1.00  0.00    -0.000 C 
BRANCH  14  15
ATOM     15  C   UNL     1      22.951   2.083   6.212  1.00  0.00    -0.000 C 
BRANCH  15  16
ATOM     16  C   UNL     1      23.105   0.617   5.773  1.00  0.00    -0.000 C 
BRANCH  16  17
ATOM     17  C   UNL     1      21.754  -0.105   5.649  1.00  0.00    -0.003 C 
ATOM     18  C   UNL     1      21.675  -0.997   4.411  1.00  0.00     0.004 C 
ENDBRANCH  16  17
ENDBRANCH  15  16
ENDBRANCH  14  15
ENDBRANCH  13  14
ENDBRANCH  12  13
ENDBRANCH  11  12
ENDBRANCH   1  11
TORSDOF 14
ENDMDL
MODEL 8
REMARK VINA RESULT:    -3.585      4.814      7.413
REMARK INTER + INTRA:          -7.234
REMARK INTER:                  -4.753
REMARK INTRA:                  -2.481
REMARK UNBOUND:                -0.715
REMARK SMILES CCCCCCCCCCCCCCCC(=O)[O-]
REMARK SMILES IDX 9 1 10 2 11 3 12 4 13 5 14 6 15 7 16 8 17 9 18 10 8 11 7 12
REMARK SMILES IDX 6 13 5 14 4 15 3 16 2 17 1 18
REMARK H PARENT
REMARK Flexibility Score: inf
ROOT
ATOM      1  C   UNL     1      16.388  -0.412  14.484  1.00  0.00     0.000 C 
ENDROOT
BRANCH   1   2
ATOM      2  C   UNL     1      16.115   0.694  15.514  1.00  0.00     0.000 C 
BRANCH   2   3
ATOM      3  C   UNL     1      14.911   0.334  16.398  1.00  0.00     0.000 C 
BRANCH   3   4
ATOM      4  C   UNL     1      15.272   0.241  17.892  1.00  0.00     0.000 C 
BRANCH   4   5
ATOM      5  C   UNL     1      16.208   1.349  18.411  1.00  0.00     0.000 C 
BRANCH   5   6
ATOM      6  C   UNL     1      17.582   0.869  18.917  1.00  0.00     0.006 C 
BRANCH   6   7
ATOM      7  C   UNL     1      17.912  -0.588  18.545  1.00  0.00     0.053 C 
BRANCH   7   8
ATOM      8  C   UNL     1      19.096  -0.698  17.632  1.00  0.00     0.041 C 
ATOM      9  O   UNL     1      19.001  -1.323  16.543  1.00  0.00    -0.550 OA
ATOM     10  O   UNL     1      20.293  -0.078  17.966  1.00  0.00    -0.550 OA
ENDBRANCH   7   8
ENDBRANCH   6   7
ENDBRANCH   5   6
ENDBRANCH   4   5
ENDBRANCH   3   4
ENDBRANCH   2   3
ENDBRANCH   1   2
BRANCH   1  11
ATOM     11  C   UNL     1      15.367  -1.563  14.549  1.00  0.00     0.000 C 
BRANCH  11  12
ATOM     12  C   UNL     1      15.959  -2.976  14.388  1.00  0.00    -0.000 C 
BRANCH  12  13
ATOM     13  C   UNL     1      15.627  -3.904  15.568  1.00  0.00    -0.000 C 
BRANCH  13  14
ATOM     14  C   UNL     1      16.062  -3.328  16.927  1.00  0.00    -0.000 C 
BRANCH  14  15
ATOM     15  C   UNL     1      14.977  -3.335  18.020  1.00  0.00    -0.000 C 
BRANCH  15  16
ATOM     16  C   UNL     1      13.567  -3.589  17.461  1.00  0.00    -0.000 C 
BRANCH  16  17
ATOM     17  C   UNL     1      12.578  -2.471  17.827  1.00  0.00    -0.003 C 
ATOM     18  C   UNL     1      12.054  -1.724  16.601  1.00  0.00     0.004 C 
ENDBRANCH  16  17
ENDBRANCH  15  16
ENDBRANCH  14  15
ENDBRANCH  13  14
ENDBRANCH  12  13
ENDBRANCH  11  12
ENDBRANCH   1  11
TORSDOF 14
ENDMDL
MODEL 9
REMARK VINA RESULT:    -3.584     10.267     11.717
REMARK INTER + INTRA:          -7.232
REMARK INTER:                  -5.023
REMARK INTRA:                  -2.209
REMARK UNBOUND:                -0.715
REMARK SMILES CCCCCCCCCCCCCCCC(=O)[O-]
REMARK SMILES IDX 9 1 10 2 11 3 12 4 13 5 14 6 15 7 16 8 17 9 18 10 8 11 7 12
REMARK SMILES IDX 6 13 5 14 4 15 3 16 2 17 1 18
REMARK H PARENT
REMARK Flexibility Score: inf
ROOT
ATOM      1  C   UNL     1      25.701   2.193   5.566  1.00  0.00     0.000 C 
ENDROOT
BRANCH   1   2
ATOM      2  C   UNL     1      25.902   0.693   5.825  1.00  0.00     0.000 C 
BRANCH   2   3
ATOM      3  C   UNL     1      24.989   0.205   6.960  1.00  0.00     0.000 C 
BRANCH   3   4
ATOM      4  C   UNL     1      25.645  -0.884   7.830  1.00  0.00     0.000 C 
BRANCH   4   5
ATOM      5  C   UNL     1      26.913  -0.443   8.586  1.00  0.00     0.000 C 
BRANCH   5   6
ATOM      6  C   UNL     1      26.753   0.810   9.468  1.00  0.00     0.006 C 
BRANCH   6   7
ATOM      7  C   UNL     1      27.902   1.826   9.326  1.00  0.00     0.053 C 
BRANCH   7   8
ATOM      8  C   UNL     1      28.730   1.940  10.570  1.00  0.00     0.041 C 
ATOM      9  O   UNL     1      28.619   1.082  11.486  1.00  0.00    -0.550 OA
ATOM     10  O   UNL     1      29.650   2.971  10.703  1.00  0.00    -0.550 OA
ENDBRANCH   7   8
ENDBRANCH   6   7
ENDBRANCH   5   6
ENDBRANCH   4   5
ENDBRANCH   3   4
ENDBRANCH   2   3
ENDBRANCH   1   2
BRANCH   1  11
ATOM     11  C   UNL     1      24.475   2.772   6.296  1.00  0.00     0.000 C 
BRANCH  11  12
ATOM     12  C   UNL     1      23.250   3.047   5.405  1.00  0.00    -0.000 C 
BRANCH  12  13
ATOM     13  C   UNL     1      21.938   2.517   6.008  1.00  0.00    -0.000 C 
BRANCH  13  14
ATOM     14  C   UNL     1      21.634   1.063   5.602  1.00  0.00    -0.000 C 
BRANCH  14  15
ATOM     15  C   UNL     1      21.836   0.745   4.108  1.00  0.00    -0.000 C 
BRANCH  15  16
ATOM     16  C   UNL     1      22.831  -0.404   3.870  1.00  0.00    -0.000 C 
BRANCH  16  17
ATOM     17  C   UNL     1      23.957  -0.015   2.900  1.00  0.00    -0.003 C 
ATOM     18  C   UNL     1      23.692   1.314   2.194  1.00  0.00     0.004 C 
ENDBRANCH  16  17
ENDBRANCH  15  16
ENDBRANCH  14  15
ENDBRANCH  13  14
ENDBRANCH  12  13
ENDBRANCH  11  12
ENDBRANCH   1  11
TORSDOF 14
ENDMDL
