MODEL 1
REMARK VINA RESULT:    -3.265      0.000      0.000
REMARK INTER + INTRA:          -3.455
REMARK INTER:                  -3.455
REMARK INTRA:                   0.000
REMARK UNBOUND:                 0.000
REMARK SMILES O=c1ccc2cc(O)c(O)cc2o1
REMARK SMILES IDX 4 1 3 2 2 3 1 4 13 5 12 6 11 7 9 8 7 9 6 10 5 11 8 12 10 14
REMARK H PARENT 8 13 10 15
REMARK Flexibility Score: inf
ROOT
ATOM      1  C   UNL     1      -9.319  -6.580 121.135  1.00  0.00     0.019 A 
ATOM      2  C   UNL     1     -10.035  -7.658 121.655  1.00  0.00     0.094 A 
ATOM      3  C   UNL     1      -9.494  -8.944 121.554  1.00  0.00     0.336 A 
ATOM      4  O   UNL     1     -10.125  -9.929 122.018  1.00  0.00    -0.246 OA
ATOM      5  O   UNL     1      -8.312  -9.133 120.971  1.00  0.00    -0.423 OA
ATOM      6  C   UNL     1      -7.597  -8.134 120.463  1.00  0.00     0.142 A 
ATOM      7  C   UNL     1      -6.362  -8.393 119.861  1.00  0.00     0.098 A 
ATOM      8  C   UNL     1      -5.603  -7.342 119.323  1.00  0.00     0.161 A 
ATOM      9  C   UNL     1      -6.084  -6.026 119.387  1.00  0.00     0.158 A 
ATOM     10  C   UNL     1      -7.322  -5.759 119.990  1.00  0.00     0.062 A 
ATOM     11  C   UNL     1      -8.081  -6.809 120.528  1.00  0.00     0.022 A 
ENDROOT
BRANCH   9  12
ATOM     12  O   UNL     1      -5.323  -4.988 118.851  1.00  0.00    -0.504 OA
ATOM     13  H   UNL     1      -4.331  -4.907 119.040  1.00  0.00     0.293 HD
ENDBRANCH   9  12
BRANCH   8  14
ATOM     14  O   UNL     1      -4.371  -7.598 118.723  1.00  0.00    -0.504 OA
ATOM     15  H   UNL     1      -4.025  -8.543 118.606  1.00  0.00     0.293 HD
ENDBRANCH   8  14
TORSDOF 2
ENDMDL
MODEL 2
REMARK VINA RESULT:    -3.251      2.449      3.859
REMARK INTER + INTRA:          -3.441
REMARK INTER:                  -3.441
REMARK INTRA:                   0.000
REMARK UNBOUND:                 0.000
REMARK SMILES O=c1ccc2cc(O)c(O)cc2o1
REMARK SMILES IDX 4 1 3 2 2 3 1 4 13 5 12 6 11 7 9 8 7 9 6 10 5 11 8 12 10 14
REMARK H PARENT 8 13 10 15
REMARK Flexibility Score: inf
ROOT
ATOM      1  C   UNL     1      -6.755  -4.312 120.237  1.00  0.00     0.019 A 
ATOM      2  C   UNL     1      -7.097  -3.524 121.335  1.00  0.00     0.094 A 
ATOM      3  C   UNL     1      -7.772  -4.113 122.409  1.00  0.00     0.336 A 
ATOM      4  O   UNL     1      -8.090  -3.419 123.410  1.00  0.00    -0.246 OA
ATOM      5  O   UNL     1      -8.080  -5.408 122.381  1.00  0.00    -0.423 OA
ATOM      6  C   UNL     1      -7.772  -6.195 121.354  1.00  0.00     0.142 A 
ATOM      7  C   UNL     1      -8.123  -7.548 121.380  1.00  0.00     0.098 A 
ATOM      8  C   UNL     1      -7.801  -8.383 120.299  1.00  0.00     0.161 A 
ATOM      9  C   UNL     1      -7.124  -7.860 119.187  1.00  0.00     0.158 A 
ATOM     10  C   UNL     1      -6.770  -6.504 119.155  1.00  0.00     0.062 A 
ATOM     11  C   UNL     1      -7.092  -5.668 120.235  1.00  0.00     0.022 A 
ENDROOT
BRANCH   9  12
ATOM     12  O   UNL     1      -6.807  -8.697 118.118  1.00  0.00    -0.504 OA
ATOM     13  H   UNL     1      -5.879  -8.707 117.712  1.00  0.00     0.293 HD
ENDBRANCH   9  12
BRANCH   8  14
ATOM     14  O   UNL     1      -8.148  -9.733 120.324  1.00  0.00    -0.504 OA
ATOM     15  H   UNL     1      -8.739 -10.115 121.052  1.00  0.00     0.293 HD
ENDBRANCH   8  14
TORSDOF 2
ENDMDL
MODEL 3
REMARK VINA RESULT:    -3.244      1.971      3.174
REMARK INTER + INTRA:          -3.434
REMARK INTER:                  -3.434
REMARK INTRA:                   0.000
REMARK UNBOUND:                 0.000
REMARK SMILES O=c1ccc2cc(O)c(O)cc2o1
REMARK SMILES IDX 4 1 3 2 2 3 1 4 13 5 12 6 11 7 9 8 7 9 6 10 5 11 8 12 10 14
REMARK H PARENT 8 13 10 15
REMARK Flexibility Score: inf
ROOT
ATOM      1  C   UNL     1      -9.423  -7.031 121.283  1.00  0.00     0.019 A 
ATOM      2  C   UNL     1      -9.979  -5.768 121.485  1.00  0.00     0.094 A 
ATOM      3  C   UNL     1      -9.276  -4.640 121.049  1.00  0.00     0.336 A 
ATOM      4  O   UNL     1      -9.761  -3.491 121.223  1.00  0.00    -0.246 OA
ATOM      5  O   UNL     1      -8.095  -4.773 120.449  1.00  0.00    -0.423 OA
ATOM      6  C   UNL     1      -7.530  -5.958 120.236  1.00  0.00     0.142 A 
ATOM      7  C   UNL     1      -6.287  -6.036 119.602  1.00  0.00     0.098 A 
ATOM      8  C   UNL     1      -5.686  -7.283 119.374  1.00  0.00     0.161 A 
ATOM      9  C   UNL     1      -6.332  -8.458 119.785  1.00  0.00     0.158 A 
ATOM     10  C   UNL     1      -7.580  -8.387 120.422  1.00  0.00     0.062 A 
ATOM     11  C   UNL     1      -8.181  -7.140 120.650  1.00  0.00     0.022 A 
ENDROOT
BRANCH   9  12
ATOM     12  O   UNL     1      -5.729  -9.693 119.555  1.00  0.00    -0.504 OA
ATOM     13  H   UNL     1      -6.207 -10.563 119.760  1.00  0.00     0.293 HD
ENDBRANCH   9  12
BRANCH   8  14
ATOM     14  O   UNL     1      -4.447  -7.363 118.740  1.00  0.00    -0.504 OA
ATOM     15  H   UNL     1      -3.582  -7.380 119.267  1.00  0.00     0.293 HD
ENDBRANCH   8  14
TORSDOF 2
ENDMDL
MODEL 4
REMARK VINA RESULT:    -3.229      2.197      3.500
REMARK INTER + INTRA:          -3.418
REMARK INTER:                  -3.418
REMARK INTRA:                   0.000
REMARK UNBOUND:                 0.000
REMARK SMILES O=c1ccc2cc(O)c(O)cc2o1
REMARK SMILES IDX 4 1 3 2 2 3 1 4 13 5 12 6 11 7 9 8 7 9 6 10 5 11 8 12 10 14
REMARK H PARENT 8 13 10 15
REMARK Flexibility Score: inf
ROOT
ATOM      1  C   UNL     1      -4.817 -10.241 120.145  1.00  0.00     0.019 A 
ATOM      2  C   UNL     1      -5.217 -11.403 120.803  1.00  0.00     0.094 A 
ATOM      3  C   UNL     1      -6.489 -11.451 121.382  1.00  0.00     0.336 A 
ATOM      4  O   UNL     1      -6.869 -12.491 121.980  1.00  0.00    -0.246 OA
ATOM      5  O   UNL     1      -7.304 -10.401 121.305  1.00  0.00    -0.423 OA
ATOM      6  C   UNL     1      -6.962  -9.274 120.687  1.00  0.00     0.142 A 
ATOM      7  C   UNL     1      -7.859  -8.203 120.638  1.00  0.00     0.098 A 
ATOM      8  C   UNL     1      -7.504  -7.011 119.988  1.00  0.00     0.161 A 
ATOM      9  C   UNL     1      -6.243  -6.891 119.384  1.00  0.00     0.158 A 
ATOM     10  C   UNL     1      -5.339  -7.962 119.430  1.00  0.00     0.062 A 
ATOM     11  C   UNL     1      -5.693  -9.153 120.080  1.00  0.00     0.022 A 
ENDROOT
BRANCH   9  12
ATOM     12  O   UNL     1      -5.899  -5.705 118.740  1.00  0.00    -0.504 OA
ATOM     13  H   UNL     1      -6.398  -5.384 117.919  1.00  0.00     0.293 HD
ENDBRANCH   9  12
BRANCH   8  14
ATOM     14  O   UNL     1      -8.398  -5.943 119.937  1.00  0.00    -0.504 OA
ATOM     15  H   UNL     1      -8.102  -5.017 119.652  1.00  0.00     0.293 HD
ENDBRANCH   8  14
TORSDOF 2
ENDMDL
MODEL 5
REMARK VINA RESULT:    -3.207      2.385      2.940
REMARK INTER + INTRA:          -3.395
REMARK INTER:                  -3.395
REMARK INTRA:                   0.000
REMARK UNBOUND:                 0.000
REMARK SMILES O=c1ccc2cc(O)c(O)cc2o1
REMARK SMILES IDX 4 1 3 2 2 3 1 4 13 5 12 6 11 7 9 8 7 9 6 10 5 11 8 12 10 14
REMARK H PARENT 8 13 10 15
REMARK Flexibility Score: inf
ROOT
ATOM      1  C   UNL     1      -8.184 -10.032 121.550  1.00  0.00     0.019 A 
ATOM      2  C   UNL     1      -7.842 -11.040 122.451  1.00  0.00     0.094 A 
ATOM      3  C   UNL     1      -6.491 -11.343 122.650  1.00  0.00     0.336 A 
ATOM      4  O   UNL     1      -6.163 -12.249 123.459  1.00  0.00    -0.246 OA
ATOM      5  O   UNL     1      -5.548 -10.677 121.988  1.00  0.00    -0.423 OA
ATOM      6  C   UNL     1      -5.830  -9.708 121.121  1.00  0.00     0.142 A 
ATOM      7  C   UNL     1      -4.796  -9.044 120.454  1.00  0.00     0.098 A 
ATOM      8  C   UNL     1      -5.088  -8.022 119.538  1.00  0.00     0.161 A 
ATOM      9  C   UNL     1      -6.421  -7.664 119.287  1.00  0.00     0.158 A 
ATOM     10  C   UNL     1      -7.462  -8.327 119.953  1.00  0.00     0.062 A 
ATOM     11  C   UNL     1      -7.172  -9.349 120.869  1.00  0.00     0.022 A 
ENDROOT
BRANCH   9  12
ATOM     12  O   UNL     1      -6.702  -6.648 118.377  1.00  0.00    -0.504 OA
ATOM     13  H   UNL     1      -7.540  -6.083 118.455  1.00  0.00     0.293 HD
ENDBRANCH   9  12
BRANCH   8  14
ATOM     14  O   UNL     1      -4.059  -7.357 118.873  1.00  0.00    -0.504 OA
ATOM     15  H   UNL     1      -3.289  -6.934 119.377  1.00  0.00     0.293 HD
ENDBRANCH   8  14
TORSDOF 2
ENDMDL
MODEL 6
REMARK VINA RESULT:    -3.179      2.026      4.191
REMARK INTER + INTRA:          -3.365
REMARK INTER:                  -3.365
REMARK INTRA:                   0.000
REMARK UNBOUND:                 0.000
REMARK SMILES O=c1ccc2cc(O)c(O)cc2o1
REMARK SMILES IDX 4 1 3 2 2 3 1 4 13 5 12 6 11 7 9 8 7 9 6 10 5 11 8 12 10 14
REMARK H PARENT 8 13 10 15
REMARK Flexibility Score: inf
ROOT
ATOM      1  C   UNL     1      -7.999  -5.337 122.531  1.00  0.00     0.019 A 
ATOM      2  C   UNL     1      -7.579  -4.008 122.473  1.00  0.00     0.094 A 
ATOM      3  C   UNL     1      -6.900  -3.560 121.336  1.00  0.00     0.336 A 
ATOM      4  O   UNL     1      -6.513  -2.365 121.265  1.00  0.00    -0.246 OA
ATOM      5  O   UNL     1      -6.659  -4.391 120.324  1.00  0.00    -0.423 OA
ATOM      6  C   UNL     1      -7.043  -5.665 120.338  1.00  0.00     0.142 A 
ATOM      7  C   UNL     1      -6.761  -6.493 119.247  1.00  0.00     0.098 A 
ATOM      8  C   UNL     1      -7.163  -7.837 119.256  1.00  0.00     0.161 A 
ATOM      9  C   UNL     1      -7.849  -8.356 120.365  1.00  0.00     0.158 A 
ATOM     10  C   UNL     1      -8.134  -7.531 121.463  1.00  0.00     0.062 A 
ATOM     11  C   UNL     1      -7.733  -6.187 121.454  1.00  0.00     0.022 A 
ENDROOT
BRANCH   9  12
ATOM     12  O   UNL     1      -8.245  -9.692 120.366  1.00  0.00    -0.504 OA
ATOM     13  H   UNL     1      -9.125  -9.984 119.957  1.00  0.00     0.293 HD
ENDBRANCH   9  12
BRANCH   8  14
ATOM     14  O   UNL     1      -6.884  -8.663 118.169  1.00  0.00    -0.504 OA
ATOM     15  H   UNL     1      -6.996  -9.668 118.224  1.00  0.00     0.293 HD
ENDBRANCH   8  14
TORSDOF 2
ENDMDL
MODEL 7
REMARK VINA RESULT:    -3.163     21.876     22.733
REMARK INTER + INTRA:          -3.348
REMARK INTER:                  -3.348
REMARK INTRA:                   0.000
REMARK UNBOUND:                 0.000
REMARK SMILES O=c1ccc2cc(O)c(O)cc2o1
REMARK SMILES IDX 4 1 3 2 2 3 1 4 13 5 12 6 11 7 9 8 7 9 6 10 5 11 8 12 10 14
REMARK H PARENT 8 13 10 15
REMARK Flexibility Score: inf
ROOT
ATOM      1  C   UNL     1       6.655  -2.762 135.567  1.00  0.00     0.019 A 
ATOM      2  C   UNL     1       7.732  -2.004 135.108  1.00  0.00     0.094 A 
ATOM      3  C   UNL     1       9.031  -2.483 135.302  1.00  0.00     0.336 A 
ATOM      4  O   UNL     1      10.016  -1.813 134.895  1.00  0.00    -0.246 OA
ATOM      5  O   UNL     1       9.235  -3.646 135.917  1.00  0.00    -0.423 OA
ATOM      6  C   UNL     1       8.237  -4.401 136.370  1.00  0.00     0.142 A 
ATOM      7  C   UNL     1       8.511  -5.613 137.009  1.00  0.00     0.098 A 
ATOM      8  C   UNL     1       7.462  -6.413 137.489  1.00  0.00     0.161 A 
ATOM      9  C   UNL     1       6.133  -5.995 137.329  1.00  0.00     0.158 A 
ATOM     10  C   UNL     1       5.851  -4.779 136.689  1.00  0.00     0.062 A 
ATOM     11  C   UNL     1       6.899  -3.980 136.209  1.00  0.00     0.022 A 
ENDROOT
BRANCH   9  12
ATOM     12  O   UNL     1       5.097  -6.795 137.808  1.00  0.00    -0.504 OA
ATOM     13  H   UNL     1       5.271  -7.555 138.455  1.00  0.00     0.293 HD
ENDBRANCH   9  12
BRANCH   8  14
ATOM     14  O   UNL     1       7.734  -7.623 138.124  1.00  0.00    -0.504 OA
ATOM     15  H   UNL     1       8.222  -8.373 137.650  1.00  0.00     0.293 HD
ENDBRANCH   8  14
TORSDOF 2
ENDMDL
MODEL 8
REMARK VINA RESULT:    -3.145      2.512      4.613
REMARK INTER + INTRA:          -3.328
REMARK INTER:                  -3.328
REMARK INTRA:                   0.000
REMARK UNBOUND:                 0.000
REMARK SMILES O=c1ccc2cc(O)c(O)cc2o1
REMARK SMILES IDX 4 1 3 2 2 3 1 4 13 5 12 6 11 7 9 8 7 9 6 10 5 11 8 12 10 14
REMARK H PARENT 8 13 10 15
REMARK Flexibility Score: inf
ROOT
ATOM      1  C   UNL     1      -5.423  -7.880 119.373  1.00  0.00     0.019 A 
ATOM      2  C   UNL     1      -6.213  -6.731 119.370  1.00  0.00     0.094 A 
ATOM      3  C   UNL     1      -7.432  -6.745 120.056  1.00  0.00     0.336 A 
ATOM      4  O   UNL     1      -8.160  -5.718 120.065  1.00  0.00    -0.246 OA
ATOM      5  O   UNL     1      -7.829  -7.839 120.701  1.00  0.00    -0.423 OA
ATOM      6  C   UNL     1      -7.106  -8.955 120.730  1.00  0.00     0.142 A 
ATOM      7  C   UNL     1      -7.575 -10.075 121.424  1.00  0.00     0.098 A 
ATOM      8  C   UNL     1      -6.816 -11.255 121.457  1.00  0.00     0.161 A 
ATOM      9  C   UNL     1      -5.583 -11.314 120.792  1.00  0.00     0.158 A 
ATOM     10  C   UNL     1      -5.107 -10.195 120.094  1.00  0.00     0.062 A 
ATOM     11  C   UNL     1      -5.865  -9.015 120.060  1.00  0.00     0.022 A 
ENDROOT
BRANCH   9  12
ATOM     12  O   UNL     1      -4.835 -12.490 120.830  1.00  0.00    -0.504 OA
ATOM     13  H   UNL     1      -3.889 -12.504 121.191  1.00  0.00     0.293 HD
ENDBRANCH   9  12
BRANCH   8  14
ATOM     14  O   UNL     1      -7.281 -12.372 122.150  1.00  0.00    -0.504 OA
ATOM     15  H   UNL     1      -7.922 -12.283 122.929  1.00  0.00     0.293 HD
ENDBRANCH   8  14
TORSDOF 2
ENDMDL
MODEL 9
REMARK VINA RESULT:    -3.098     21.528     22.138
REMARK INTER + INTRA:          -3.279
REMARK INTER:                  -3.279
REMARK INTRA:                   0.000
REMARK UNBOUND:                 0.000
REMARK SMILES O=c1ccc2cc(O)c(O)cc2o1
REMARK SMILES IDX 4 1 3 2 2 3 1 4 13 5 12 6 11 7 9 8 7 9 6 10 5 11 8 12 10 14
REMARK H PARENT 8 13 10 15
REMARK Flexibility Score: inf
ROOT
ATOM      1  C   UNL     1       5.708  -9.570 136.590  1.00  0.00     0.019 A 
ATOM      2  C   UNL     1       6.203 -10.688 135.920  1.00  0.00     0.094 A 
ATOM      3  C   UNL     1       7.492 -10.640 135.379  1.00  0.00     0.336 A 
ATOM      4  O   UNL     1       7.956 -11.639 134.771  1.00  0.00    -0.246 OA
ATOM      5  O   UNL     1       8.233  -9.541 135.504  1.00  0.00    -0.423 OA
ATOM      6  C   UNL     1       7.800  -8.453 136.135  1.00  0.00     0.142 A 
ATOM      7  C   UNL     1       8.623  -7.327 136.234  1.00  0.00     0.098 A 
ATOM      8  C   UNL     1       8.171  -6.177 136.899  1.00  0.00     0.161 A 
ATOM      9  C   UNL     1       6.889  -6.154 137.466  1.00  0.00     0.158 A 
ATOM     10  C   UNL     1       6.058  -7.280 137.370  1.00  0.00     0.062 A 
ATOM     11  C   UNL     1       6.509  -8.430 136.706  1.00  0.00     0.022 A 
ENDROOT
BRANCH   9  12
ATOM     12  O   UNL     1       6.448  -5.007 138.125  1.00  0.00    -0.504 OA
ATOM     13  H   UNL     1       5.633  -5.023 138.727  1.00  0.00     0.293 HD
ENDBRANCH   9  12
BRANCH   8  14
ATOM     14  O   UNL     1       8.991  -5.054 137.000  1.00  0.00    -0.504 OA
ATOM     15  H   UNL     1       8.842  -4.351 137.713  1.00  0.00     0.293 HD
ENDBRANCH   8  14
TORSDOF 2
ENDMDL
