MODEL 1
REMARK VINA RESULT:    -4.024      0.000      0.000
REMARK INTER + INTRA:          -9.246
REMARK INTER:                  -7.787
REMARK INTRA:                  -1.459
REMARK UNBOUND:                -1.459
REMARK SMILES CCCCCCCCCCCCCCCCCC(=O)[O-]
REMARK SMILES IDX 10 1 11 2 12 3 13 4 14 5 15 6 16 7 17 8 18 9 19 10 20 11
REMARK SMILES IDX 9 12 8 13 7 14 6 15 5 16 4 17 3 18 2 19 1 20
REMARK H PARENT
REMARK Flexibility Score: inf
ROOT
ATOM      1  C   UNL     1      -4.318   7.981  -8.548  1.00  0.00     0.000 C 
ENDROOT
BRANCH   1   2
ATOM      2  C   UNL     1      -4.297   9.478  -8.894  1.00  0.00     0.000 C 
BRANCH   2   3
ATOM      3  C   UNL     1      -5.709  10.084  -8.976  1.00  0.00     0.000 C 
BRANCH   3   4
ATOM      4  C   UNL     1      -6.650   9.535  -7.892  1.00  0.00     0.000 C 
BRANCH   4   5
ATOM      5  C   UNL     1      -8.129   9.596  -8.309  1.00  0.00     0.000 C 
BRANCH   5   6
ATOM      6  C   UNL     1      -8.423   8.793  -9.590  1.00  0.00     0.000 C 
BRANCH   6   7
ATOM      7  C   UNL     1      -8.815   7.322  -9.355  1.00  0.00     0.006 C 
BRANCH   7   8
ATOM      8  C   UNL     1      -7.635   6.356  -9.522  1.00  0.00     0.053 C 
BRANCH   8   9
ATOM      9  C   UNL     1      -7.308   5.701  -8.218  1.00  0.00     0.041 C 
ATOM     10  O   UNL     1      -7.875   6.080  -7.159  1.00  0.00    -0.550 OA
ATOM     11  O   UNL     1      -6.414   4.639  -8.177  1.00  0.00    -0.550 OA
ENDBRANCH   8   9
ENDBRANCH   7   8
ENDBRANCH   6   7
ENDBRANCH   5   6
ENDBRANCH   4   5
ENDBRANCH   3   4
ENDBRANCH   2   3
ENDBRANCH   1   2
BRANCH   1  12
ATOM     12  C   UNL     1      -3.582   7.671  -7.232  1.00  0.00     0.000 C 
BRANCH  12  13
ATOM     13  C   UNL     1      -4.421   6.804  -6.280  1.00  0.00    -0.000 C 
BRANCH  13  14
ATOM     14  C   UNL     1      -3.755   5.452  -5.972  1.00  0.00    -0.000 C 
BRANCH  14  15
ATOM     15  C   UNL     1      -3.392   5.293  -4.485  1.00  0.00    -0.000 C 
BRANCH  15  16
ATOM     16  C   UNL     1      -2.492   4.083  -4.163  1.00  0.00    -0.000 C 
BRANCH  16  17
ATOM     17  C   UNL     1      -2.785   3.387  -2.819  1.00  0.00    -0.000 C 
BRANCH  17  18
ATOM     18  C   UNL     1      -1.617   2.568  -2.243  1.00  0.00    -0.000 C 
BRANCH  18  19
ATOM     19  C   UNL     1      -0.808   1.842  -3.327  1.00  0.00    -0.003 C 
ATOM     20  C   UNL     1      -1.274   0.397  -3.486  1.00  0.00     0.004 C 
ENDBRANCH  18  19
ENDBRANCH  17  18
ENDBRANCH  16  17
ENDBRANCH  15  16
ENDBRANCH  14  15
ENDBRANCH  13  14
ENDBRANCH  12  13
ENDBRANCH   1  12
TORSDOF 16
ENDMDL
MODEL 2
REMARK VINA RESULT:    -4.015      1.038      1.860
REMARK INTER + INTRA:          -9.230
REMARK INTER:                  -7.839
REMARK INTRA:                  -1.391
REMARK UNBOUND:                -1.459
REMARK SMILES CCCCCCCCCCCCCCCCCC(=O)[O-]
REMARK SMILES IDX 10 1 11 2 12 3 13 4 14 5 15 6 16 7 17 8 18 9 19 10 20 11
REMARK SMILES IDX 9 12 8 13 7 14 6 15 5 16 4 17 3 18 2 19 1 20
REMARK H PARENT
REMARK Flexibility Score: inf
ROOT
ATOM      1  C   UNL     1      -3.690   7.877  -7.455  1.00  0.00     0.000 C 
ENDROOT
BRANCH   1   2
ATOM      2  C   UNL     1      -4.572   7.748  -8.707  1.00  0.00     0.000 C 
BRANCH   2   3
ATOM      3  C   UNL     1      -4.887   9.110  -9.349  1.00  0.00     0.000 C 
BRANCH   3   4
ATOM      4  C   UNL     1      -5.817   9.970  -8.479  1.00  0.00     0.000 C 
BRANCH   4   5
ATOM      5  C   UNL     1      -6.961   9.154  -7.852  1.00  0.00     0.000 C 
BRANCH   5   6
ATOM      6  C   UNL     1      -8.081   8.827  -8.856  1.00  0.00     0.000 C 
BRANCH   6   7
ATOM      7  C   UNL     1      -8.450   7.335  -8.950  1.00  0.00     0.006 C 
BRANCH   7   8
ATOM      8  C   UNL     1      -7.803   6.488  -7.847  1.00  0.00     0.053 C 
BRANCH   8   9
ATOM      9  C   UNL     1      -7.372   5.163  -8.391  1.00  0.00     0.041 C 
ATOM     10  O   UNL     1      -6.216   4.725  -8.150  1.00  0.00    -0.550 OA
ATOM     11  O   UNL     1      -8.262   4.389  -9.124  1.00  0.00    -0.550 OA
ENDBRANCH   8   9
ENDBRANCH   7   8
ENDBRANCH   6   7
ENDBRANCH   5   6
ENDBRANCH   4   5
ENDBRANCH   3   4
ENDBRANCH   2   3
ENDBRANCH   1   2
BRANCH   1  12
ATOM     12  C   UNL     1      -4.306   7.184  -6.227  1.00  0.00     0.000 C 
BRANCH  12  13
ATOM     13  C   UNL     1      -3.758   5.763  -6.017  1.00  0.00    -0.000 C 
BRANCH  13  14
ATOM     14  C   UNL     1      -3.448   5.463  -4.542  1.00  0.00    -0.000 C 
BRANCH  14  15
ATOM     15  C   UNL     1      -2.638   4.167  -4.356  1.00  0.00    -0.000 C 
BRANCH  15  16
ATOM     16  C   UNL     1      -3.039   3.321  -3.131  1.00  0.00    -0.000 C 
BRANCH  16  17
ATOM     17  C   UNL     1      -2.053   2.195  -2.761  1.00  0.00    -0.000 C 
BRANCH  17  18
ATOM     18  C   UNL     1      -0.628   2.667  -2.422  1.00  0.00    -0.000 C 
BRANCH  18  19
ATOM     19  C   UNL     1      -0.510   3.234  -1.001  1.00  0.00    -0.003 C 
ATOM     20  C   UNL     1      -0.249   4.738  -1.028  1.00  0.00     0.004 C 
ENDBRANCH  18  19
ENDBRANCH  17  18
ENDBRANCH  16  17
ENDBRANCH  15  16
ENDBRANCH  14  15
ENDBRANCH  13  14
ENDBRANCH  12  13
ENDBRANCH   1  12
TORSDOF 16
ENDMDL
MODEL 3
REMARK VINA RESULT:    -3.853      2.802      7.589
REMARK INTER + INTRA:          -8.916
REMARK INTER:                  -7.571
REMARK INTRA:                  -1.345
REMARK UNBOUND:                -1.459
REMARK SMILES CCCCCCCCCCCCCCCCCC(=O)[O-]
REMARK SMILES IDX 10 1 11 2 12 3 13 4 14 5 15 6 16 7 17 8 18 9 19 10 20 11
REMARK SMILES IDX 9 12 8 13 7 14 6 15 5 16 4 17 3 18 2 19 1 20
REMARK H PARENT
REMARK Flexibility Score: inf
ROOT
ATOM      1  C   UNL     1      -3.997   8.014  -8.553  1.00  0.00     0.000 C 
ENDROOT
BRANCH   1   2
ATOM      2  C   UNL     1      -3.551   7.829  -7.094  1.00  0.00     0.000 C 
BRANCH   2   3
ATOM      3  C   UNL     1      -4.515   6.940  -6.290  1.00  0.00     0.000 C 
BRANCH   3   4
ATOM      4  C   UNL     1      -3.920   5.558  -5.977  1.00  0.00     0.000 C 
BRANCH   4   5
ATOM      5  C   UNL     1      -3.358   5.467  -4.548  1.00  0.00     0.000 C 
BRANCH   5   6
ATOM      6  C   UNL     1      -2.575   4.166  -4.295  1.00  0.00     0.000 C 
BRANCH   6   7
ATOM      7  C   UNL     1      -2.971   3.411  -3.013  1.00  0.00     0.006 C 
BRANCH   7   8
ATOM      8  C   UNL     1      -1.766   2.821  -2.269  1.00  0.00     0.053 C 
BRANCH   8   9
ATOM      9  C   UNL     1      -1.195   1.669  -3.033  1.00  0.00     0.041 C 
ATOM     10  O   UNL     1      -0.052   1.758  -3.554  1.00  0.00    -0.550 OA
ATOM     11  O   UNL     1      -1.903   0.478  -3.128  1.00  0.00    -0.550 OA
ENDBRANCH   8   9
ENDBRANCH   7   8
ENDBRANCH   6   7
ENDBRANCH   5   6
ENDBRANCH   4   5
ENDBRANCH   3   4
ENDBRANCH   2   3
ENDBRANCH   1   2
BRANCH   1  12
ATOM     12  C   UNL     1      -4.306   9.483  -8.892  1.00  0.00     0.000 C 
BRANCH  12  13
ATOM     13  C   UNL     1      -5.767   9.691  -9.321  1.00  0.00    -0.000 C 
BRANCH  13  14
ATOM     14  C   UNL     1      -6.756   9.483  -8.163  1.00  0.00    -0.000 C 
BRANCH  14  15
ATOM     15  C   UNL     1      -7.804   8.397  -8.464  1.00  0.00    -0.000 C 
BRANCH  15  16
ATOM     16  C   UNL     1      -7.567   7.051  -7.749  1.00  0.00    -0.000 C 
BRANCH  16  17
ATOM     17  C   UNL     1      -7.223   5.868  -8.677  1.00  0.00    -0.000 C 
BRANCH  17  18
ATOM     18  C   UNL     1      -8.322   5.495  -9.687  1.00  0.00    -0.000 C 
BRANCH  18  19
ATOM     19  C   UNL     1      -8.980   4.142  -9.378  1.00  0.00    -0.003 C 
ATOM     20  C   UNL     1      -9.866   4.233  -8.139  1.00  0.00     0.004 C 
ENDBRANCH  18  19
ENDBRANCH  17  18
ENDBRANCH  16  17
ENDBRANCH  15  16
ENDBRANCH  14  15
ENDBRANCH  13  14
ENDBRANCH  12  13
ENDBRANCH   1  12
TORSDOF 16
ENDMDL
MODEL 4
REMARK VINA RESULT:    -3.830      1.001      1.485
REMARK INTER + INTRA:          -8.872
REMARK INTER:                  -7.433
REMARK INTRA:                  -1.439
REMARK UNBOUND:                -1.459
REMARK SMILES CCCCCCCCCCCCCCCCCC(=O)[O-]
REMARK SMILES IDX 10 1 11 2 12 3 13 4 14 5 15 6 16 7 17 8 18 9 19 10 20 11
REMARK SMILES IDX 9 12 8 13 7 14 6 15 5 16 4 17 3 18 2 19 1 20
REMARK H PARENT
REMARK Flexibility Score: inf
ROOT
ATOM      1  C   UNL     1      -5.871   7.899  -6.766  1.00  0.00     0.000 C 
ENDROOT
BRANCH   1   2
ATOM      2  C   UNL     1      -6.698   9.071  -7.318  1.00  0.00     0.000 C 
BRANCH   2   3
ATOM      3  C   UNL     1      -6.158   9.594  -8.660  1.00  0.00     0.000 C 
BRANCH   3   4
ATOM      4  C   UNL     1      -7.265   9.765  -9.713  1.00  0.00     0.000 C 
BRANCH   4   5
ATOM      5  C   UNL     1      -8.646   9.330  -9.193  1.00  0.00     0.000 C 
BRANCH   5   6
ATOM      6  C   UNL     1      -9.228   8.134  -9.969  1.00  0.00     0.000 C 
BRANCH   6   7
ATOM      7  C   UNL     1      -9.231   6.802  -9.196  1.00  0.00     0.006 C 
BRANCH   7   8
ATOM      8  C   UNL     1      -7.991   5.944  -9.479  1.00  0.00     0.053 C 
BRANCH   8   9
ATOM      9  C   UNL     1      -7.579   5.200  -8.249  1.00  0.00     0.041 C 
ATOM     10  O   UNL     1      -8.398   5.030  -7.307  1.00  0.00    -0.550 OA
ATOM     11  O   UNL     1      -6.306   4.652  -8.161  1.00  0.00    -0.550 OA
ENDBRANCH   8   9
ENDBRANCH   7   8
ENDBRANCH   6   7
ENDBRANCH   5   6
ENDBRANCH   4   5
ENDBRANCH   3   4
ENDBRANCH   2   3
ENDBRANCH   1   2
BRANCH   1  12
ATOM     12  C   UNL     1      -4.480   7.801  -7.417  1.00  0.00     0.000 C 
BRANCH  12  13
ATOM     13  C   UNL     1      -3.435   7.177  -6.478  1.00  0.00    -0.000 C 
BRANCH  13  14
ATOM     14  C   UNL     1      -3.857   5.789  -5.967  1.00  0.00    -0.000 C 
BRANCH  14  15
ATOM     15  C   UNL     1      -3.420   5.532  -4.514  1.00  0.00    -0.000 C 
BRANCH  15  16
ATOM     16  C   UNL     1      -2.620   4.232  -4.297  1.00  0.00    -0.000 C 
BRANCH  16  17
ATOM     17  C   UNL     1      -3.117   3.343  -3.139  1.00  0.00    -0.000 C 
BRANCH  17  18
ATOM     18  C   UNL     1      -2.086   2.332  -2.607  1.00  0.00    -0.000 C 
BRANCH  18  19
ATOM     19  C   UNL     1      -0.680   2.934  -2.469  1.00  0.00    -0.003 C 
ATOM     20  C   UNL     1      -0.464   3.513  -1.074  1.00  0.00     0.004 C 
ENDBRANCH  18  19
ENDBRANCH  17  18
ENDBRANCH  16  17
ENDBRANCH  15  16
ENDBRANCH  14  15
ENDBRANCH  13  14
ENDBRANCH  12  13
ENDBRANCH   1  12
TORSDOF 16
ENDMDL
MODEL 5
REMARK VINA RESULT:    -3.777      2.837      7.758
REMARK INTER + INTRA:          -8.769
REMARK INTER:                  -6.654
REMARK INTRA:                  -2.115
REMARK UNBOUND:                -1.459
REMARK SMILES CCCCCCCCCCCCCCCCCC(=O)[O-]
REMARK SMILES IDX 10 1 11 2 12 3 13 4 14 5 15 6 16 7 17 8 18 9 19 10 20 11
REMARK SMILES IDX 9 12 8 13 7 14 6 15 5 16 4 17 3 18 2 19 1 20
REMARK H PARENT
REMARK Flexibility Score: inf
ROOT
ATOM      1  C   UNL     1      -6.591   5.611  -8.811  1.00  0.00     0.000 C 
ENDROOT
BRANCH   1   2
ATOM      2  C   UNL     1      -5.833   5.472  -7.481  1.00  0.00     0.000 C 
BRANCH   2   3
ATOM      3  C   UNL     1      -5.923   6.740  -6.615  1.00  0.00     0.000 C 
BRANCH   3   4
ATOM      4  C   UNL     1      -4.563   7.146  -6.025  1.00  0.00     0.000 C 
BRANCH   4   5
ATOM      5  C   UNL     1      -3.590   5.960  -5.911  1.00  0.00     0.000 C 
BRANCH   5   6
ATOM      6  C   UNL     1      -3.463   5.427  -4.472  1.00  0.00     0.000 C 
BRANCH   6   7
ATOM      7  C   UNL     1      -2.606   4.156  -4.328  1.00  0.00     0.006 C 
BRANCH   7   8
ATOM      8  C   UNL     1      -2.870   3.403  -3.017  1.00  0.00     0.053 C 
BRANCH   8   9
ATOM      9  C   UNL     1      -1.613   2.757  -2.524  1.00  0.00     0.041 C 
ATOM     10  O   UNL     1      -1.226   1.666  -3.019  1.00  0.00    -0.550 OA
ATOM     11  O   UNL     1      -0.844   3.384  -1.553  1.00  0.00    -0.550 OA
ENDBRANCH   8   9
ENDBRANCH   7   8
ENDBRANCH   6   7
ENDBRANCH   5   6
ENDBRANCH   4   5
ENDBRANCH   3   4
ENDBRANCH   2   3
ENDBRANCH   1   2
BRANCH   1  12
ATOM     12  C   UNL     1      -8.080   5.246  -8.681  1.00  0.00     0.000 C 
BRANCH  12  13
ATOM     13  C   UNL     1      -9.003   6.455  -8.902  1.00  0.00    -0.000 C 
BRANCH  13  14
ATOM     14  C   UNL     1      -8.589   7.296 -10.122  1.00  0.00    -0.000 C 
BRANCH  14  15
ATOM     15  C   UNL     1      -8.404   8.786  -9.782  1.00  0.00    -0.000 C 
BRANCH  15  16
ATOM     16  C   UNL     1      -8.013   9.074  -8.319  1.00  0.00    -0.000 C 
BRANCH  16  17
ATOM     17  C   UNL     1      -6.793   9.999  -8.137  1.00  0.00    -0.000 C 
BRANCH  17  18
ATOM     18  C   UNL     1      -5.840  10.061  -9.344  1.00  0.00    -0.000 C 
BRANCH  18  19
ATOM     19  C   UNL     1      -4.424   9.570  -9.010  1.00  0.00    -0.003 C 
ATOM     20  C   UNL     1      -4.176   8.176  -9.580  1.00  0.00     0.004 C 
ENDBRANCH  18  19
ENDBRANCH  17  18
ENDBRANCH  16  17
ENDBRANCH  15  16
ENDBRANCH  14  15
ENDBRANCH  13  14
ENDBRANCH  12  13
ENDBRANCH   1  12
TORSDOF 16
ENDMDL
MODEL 6
REMARK VINA RESULT:    -3.733      2.911      7.995
REMARK INTER + INTRA:          -8.684
REMARK INTER:                  -7.181
REMARK INTRA:                  -1.503
REMARK UNBOUND:                -1.459
REMARK SMILES CCCCCCCCCCCCCCCCCC(=O)[O-]
REMARK SMILES IDX 10 1 11 2 12 3 13 4 14 5 15 6 16 7 17 8 18 9 19 10 20 11
REMARK SMILES IDX 9 12 8 13 7 14 6 15 5 16 4 17 3 18 2 19 1 20
REMARK H PARENT
REMARK Flexibility Score: inf
ROOT
ATOM      1  C   UNL     1      -3.344   7.567  -7.543  1.00  0.00     0.000 C 
ENDROOT
BRANCH   1   2
ATOM      2  C   UNL     1      -4.224   7.092  -6.377  1.00  0.00     0.000 C 
BRANCH   2   3
ATOM      3  C   UNL     1      -3.931   5.638  -5.970  1.00  0.00     0.000 C 
BRANCH   3   4
ATOM      4  C   UNL     1      -3.382   5.526  -4.539  1.00  0.00     0.000 C 
BRANCH   4   5
ATOM      5  C   UNL     1      -2.587   4.228  -4.312  1.00  0.00     0.000 C 
BRANCH   5   6
ATOM      6  C   UNL     1      -2.991   3.498  -3.018  1.00  0.00     0.000 C 
BRANCH   6   7
ATOM      7  C   UNL     1      -1.827   2.838  -2.257  1.00  0.00     0.006 C 
BRANCH   7   8
ATOM      8  C   UNL     1      -0.709   2.345  -3.185  1.00  0.00     0.053 C 
BRANCH   8   9
ATOM      9  C   UNL     1      -0.693   0.850  -3.232  1.00  0.00     0.041 C 
ATOM     10  O   UNL     1      -1.772   0.207  -3.326  1.00  0.00    -0.550 OA
ATOM     11  O   UNL     1       0.516   0.166  -3.222  1.00  0.00    -0.550 OA
ENDBRANCH   8   9
ENDBRANCH   7   8
ENDBRANCH   6   7
ENDBRANCH   5   6
ENDBRANCH   4   5
ENDBRANCH   3   4
ENDBRANCH   2   3
ENDBRANCH   1   2
BRANCH   1  12
ATOM     12  C   UNL     1      -3.757   8.954  -8.066  1.00  0.00     0.000 C 
BRANCH  12  13
ATOM     13  C   UNL     1      -4.361   8.894  -9.478  1.00  0.00    -0.000 C 
BRANCH  13  14
ATOM     14  C   UNL     1      -5.226  10.124  -9.802  1.00  0.00    -0.000 C 
BRANCH  14  15
ATOM     15  C   UNL     1      -6.724   9.788  -9.906  1.00  0.00    -0.000 C 
BRANCH  15  16
ATOM     16  C   UNL     1      -7.514   9.930  -8.590  1.00  0.00    -0.000 C 
BRANCH  16  17
ATOM     17  C   UNL     1      -7.489   8.690  -7.674  1.00  0.00    -0.000 C 
BRANCH  17  18
ATOM     18  C   UNL     1      -7.763   7.352  -8.385  1.00  0.00    -0.000 C 
BRANCH  18  19
ATOM     19  C   UNL     1      -7.698   6.149  -7.434  1.00  0.00    -0.003 C 
ATOM     20  C   UNL     1      -6.823   5.039  -8.011  1.00  0.00     0.004 C 
ENDBRANCH  18  19
ENDBRANCH  17  18
ENDBRANCH  16  17
ENDBRANCH  15  16
ENDBRANCH  14  15
ENDBRANCH  13  14
ENDBRANCH  12  13
ENDBRANCH   1  12
TORSDOF 16
ENDMDL
MODEL 7
REMARK VINA RESULT:    -3.611      3.007      7.749
REMARK INTER + INTRA:          -8.449
REMARK INTER:                  -6.676
REMARK INTRA:                  -1.772
REMARK UNBOUND:                -1.459
REMARK SMILES CCCCCCCCCCCCCCCCCC(=O)[O-]
REMARK SMILES IDX 10 1 11 2 12 3 13 4 14 5 15 6 16 7 17 8 18 9 19 10 20 11
REMARK SMILES IDX 9 12 8 13 7 14 6 15 5 16 4 17 3 18 2 19 1 20
REMARK H PARENT
REMARK Flexibility Score: inf
ROOT
ATOM      1  C   UNL     1      -5.949   8.091  -6.782  1.00  0.00     0.000 C 
ENDROOT
BRANCH   1   2
ATOM      2  C   UNL     1      -4.607   8.215  -7.521  1.00  0.00     0.000 C 
BRANCH   2   3
ATOM      3  C   UNL     1      -3.607   7.119  -7.117  1.00  0.00     0.000 C 
BRANCH   3   4
ATOM      4  C   UNL     1      -4.259   6.003  -6.286  1.00  0.00     0.000 C 
BRANCH   4   5
ATOM      5  C   UNL     1      -3.643   5.876  -4.883  1.00  0.00     0.000 C 
BRANCH   5   6
ATOM      6  C   UNL     1      -2.992   4.502  -4.638  1.00  0.00     0.000 C 
BRANCH   6   7
ATOM      7  C   UNL     1      -2.949   4.060  -3.163  1.00  0.00     0.006 C 
BRANCH   7   8
ATOM      8  C   UNL     1      -2.624   2.570  -2.995  1.00  0.00     0.053 C 
BRANCH   8   9
ATOM      9  C   UNL     1      -1.202   2.392  -2.566  1.00  0.00     0.041 C 
ATOM     10  O   UNL     1      -0.522   1.429  -3.009  1.00  0.00    -0.550 OA
ATOM     11  O   UNL     1      -0.612   3.315  -1.712  1.00  0.00    -0.550 OA
ENDBRANCH   8   9
ENDBRANCH   7   8
ENDBRANCH   6   7
ENDBRANCH   5   6
ENDBRANCH   4   5
ENDBRANCH   3   4
ENDBRANCH   2   3
ENDBRANCH   1   2
BRANCH   1  12
ATOM     12  C   UNL     1      -7.010   9.068  -7.318  1.00  0.00     0.000 C 
BRANCH  12  13
ATOM     13  C   UNL     1      -6.495   9.903  -8.501  1.00  0.00    -0.000 C 
BRANCH  13  14
ATOM     14  C   UNL     1      -7.383   9.768  -9.749  1.00  0.00    -0.000 C 
BRANCH  14  15
ATOM     15  C   UNL     1      -8.831   9.371  -9.408  1.00  0.00    -0.000 C 
BRANCH  15  16
ATOM     16  C   UNL     1      -9.342   8.105 -10.125  1.00  0.00    -0.000 C 
BRANCH  16  17
ATOM     17  C   UNL     1      -9.265   6.807  -9.297  1.00  0.00    -0.000 C 
BRANCH  17  18
ATOM     18  C   UNL     1      -8.034   5.928  -9.583  1.00  0.00    -0.000 C 
BRANCH  18  19
ATOM     19  C   UNL     1      -7.447   5.296  -8.313  1.00  0.00    -0.003 C 
ATOM     20  C   UNL     1      -8.401   5.446  -7.132  1.00  0.00     0.004 C 
ENDBRANCH  18  19
ENDBRANCH  17  18
ENDBRANCH  16  17
ENDBRANCH  15  16
ENDBRANCH  14  15
ENDBRANCH  13  14
ENDBRANCH  12  13
ENDBRANCH   1  12
TORSDOF 16
ENDMDL
MODEL 8
REMARK VINA RESULT:    -3.539      2.965      7.547
REMARK INTER + INTRA:          -8.309
REMARK INTER:                  -7.232
REMARK INTRA:                  -1.077
REMARK UNBOUND:                -1.459
REMARK SMILES CCCCCCCCCCCCCCCCCC(=O)[O-]
REMARK SMILES IDX 10 1 11 2 12 3 13 4 14 5 15 6 16 7 17 8 18 9 19 10 20 11
REMARK SMILES IDX 9 12 8 13 7 14 6 15 5 16 4 17 3 18 2 19 1 20
REMARK H PARENT
REMARK Flexibility Score: inf
ROOT
ATOM      1  C   UNL     1      -5.823   7.858  -6.887  1.00  0.00     0.000 C 
ENDROOT
BRANCH   1   2
ATOM      2  C   UNL     1      -4.387   7.966  -7.422  1.00  0.00     0.000 C 
BRANCH   2   3
ATOM      3  C   UNL     1      -3.405   7.057  -6.663  1.00  0.00     0.000 C 
BRANCH   3   4
ATOM      4  C   UNL     1      -4.121   5.991  -5.819  1.00  0.00     0.000 C 
BRANCH   4   5
ATOM      5  C   UNL     1      -3.414   5.726  -4.479  1.00  0.00     0.000 C 
BRANCH   5   6
ATOM      6  C   UNL     1      -2.699   4.362  -4.440  1.00  0.00     0.000 C 
BRANCH   6   7
ATOM      7  C   UNL     1      -3.013   3.504  -3.201  1.00  0.00     0.006 C 
BRANCH   7   8
ATOM      8  C   UNL     1      -1.752   3.050  -2.453  1.00  0.00     0.053 C 
BRANCH   8   9
ATOM      9  C   UNL     1      -1.150   1.855  -3.121  1.00  0.00     0.041 C 
ATOM     10  O   UNL     1      -0.070   1.963  -3.759  1.00  0.00    -0.550 OA
ATOM     11  O   UNL     1      -1.757   0.611  -3.000  1.00  0.00    -0.550 OA
ENDBRANCH   8   9
ENDBRANCH   7   8
ENDBRANCH   6   7
ENDBRANCH   5   6
ENDBRANCH   4   5
ENDBRANCH   3   4
ENDBRANCH   2   3
ENDBRANCH   1   2
BRANCH   1  12
ATOM     12  C   UNL     1      -6.735   8.979  -7.418  1.00  0.00     0.000 C 
BRANCH  12  13
ATOM     13  C   UNL     1      -7.861   8.443  -8.318  1.00  0.00    -0.000 C 
BRANCH  13  14
ATOM     14  C   UNL     1      -7.392   8.191  -9.760  1.00  0.00    -0.000 C 
BRANCH  14  15
ATOM     15  C   UNL     1      -7.183   6.697 -10.065  1.00  0.00    -0.000 C 
BRANCH  15  16
ATOM     16  C   UNL     1      -8.473   5.851 -10.082  1.00  0.00    -0.000 C 
BRANCH  16  17
ATOM     17  C   UNL     1      -8.397   4.526  -9.299  1.00  0.00    -0.000 C 
BRANCH  17  18
ATOM     18  C   UNL     1      -9.550   4.291  -8.307  1.00  0.00    -0.000 C 
BRANCH  18  19
ATOM     19  C   UNL     1      -9.195   4.711  -6.873  1.00  0.00    -0.003 C 
ATOM     20  C   UNL     1      -9.624   3.646  -5.867  1.00  0.00     0.004 C 
ENDBRANCH  18  19
ENDBRANCH  17  18
ENDBRANCH  16  17
ENDBRANCH  15  16
ENDBRANCH  14  15
ENDBRANCH  13  14
ENDBRANCH  12  13
ENDBRANCH   1  12
TORSDOF 16
ENDMDL
MODEL 9
REMARK VINA RESULT:    -3.384      1.011      2.947
REMARK INTER + INTRA:          -8.008
REMARK INTER:                  -6.864
REMARK INTRA:                  -1.143
REMARK UNBOUND:                -1.459
REMARK SMILES CCCCCCCCCCCCCCCCCC(=O)[O-]
REMARK SMILES IDX 10 1 11 2 12 3 13 4 14 5 15 6 16 7 17 8 18 9 19 10 20 11
REMARK SMILES IDX 9 12 8 13 7 14 6 15 5 16 4 17 3 18 2 19 1 20
REMARK H PARENT
REMARK Flexibility Score: inf
ROOT
ATOM      1  C   UNL     1      -3.744   5.717  -6.078  1.00  0.00     0.000 C 
ENDROOT
BRANCH   1   2
ATOM      2  C   UNL     1      -3.982   7.205  -6.379  1.00  0.00     0.000 C 
BRANCH   2   3
ATOM      3  C   UNL     1      -3.395   7.634  -7.735  1.00  0.00     0.000 C 
BRANCH   3   4
ATOM      4  C   UNL     1      -3.925   9.000  -8.200  1.00  0.00     0.000 C 
BRANCH   4   5
ATOM      5  C   UNL     1      -5.277   8.893  -8.926  1.00  0.00     0.000 C 
BRANCH   5   6
ATOM      6  C   UNL     1      -6.475   9.188  -8.005  1.00  0.00     0.000 C 
BRANCH   6   7
ATOM      7  C   UNL     1      -7.393   7.982  -7.732  1.00  0.00     0.006 C 
BRANCH   7   8
ATOM      8  C   UNL     1      -7.129   6.803  -8.678  1.00  0.00     0.053 C 
BRANCH   8   9
ATOM      9  C   UNL     1      -7.273   5.506  -7.947  1.00  0.00     0.041 C 
ATOM     10  O   UNL     1      -6.364   4.637  -8.013  1.00  0.00    -0.550 OA
ATOM     11  O   UNL     1      -8.389   5.275  -7.153  1.00  0.00    -0.550 OA
ENDBRANCH   8   9
ENDBRANCH   7   8
ENDBRANCH   6   7
ENDBRANCH   5   6
ENDBRANCH   4   5
ENDBRANCH   3   4
ENDBRANCH   2   3
ENDBRANCH   1   2
BRANCH   1  12
ATOM     12  C   UNL     1      -3.451   5.457  -4.590  1.00  0.00     0.000 C 
BRANCH  12  13
ATOM     13  C   UNL     1      -2.607   4.192  -4.370  1.00  0.00    -0.000 C 
BRANCH  13  14
ATOM     14  C   UNL     1      -2.928   3.493  -3.038  1.00  0.00    -0.000 C 
BRANCH  14  15
ATOM     15  C   UNL     1      -1.690   2.848  -2.391  1.00  0.00    -0.000 C 
BRANCH  15  16
ATOM     16  C   UNL     1      -0.711   2.186  -3.381  1.00  0.00    -0.000 C 
BRANCH  16  17
ATOM     17  C   UNL     1      -0.804   0.649  -3.466  1.00  0.00    -0.000 C 
BRANCH  17  18
ATOM     18  C   UNL     1      -2.187   0.063  -3.132  1.00  0.00    -0.000 C 
BRANCH  18  19
ATOM     19  C   UNL     1      -2.378  -1.359  -3.676  1.00  0.00    -0.003 C 
ATOM     20  C   UNL     1      -1.523  -1.592  -4.918  1.00  0.00     0.004 C 
ENDBRANCH  18  19
ENDBRANCH  17  18
ENDBRANCH  16  17
ENDBRANCH  15  16
ENDBRANCH  14  15
ENDBRANCH  13  14
ENDBRANCH  12  13
ENDBRANCH   1  12
TORSDOF 16
ENDMDL
