MODEL 1
REMARK VINA RESULT:    -5.767      0.000      0.000
REMARK INTER + INTRA:         -14.965
REMARK INTER:                 -13.185
REMARK INTRA:                  -1.781
REMARK UNBOUND:                -1.781
REMARK SMILES CCCCCCCCCCCCCCCCCCCCCCCC(=O)[O-]
REMARK SMILES IDX 13 1 14 2 15 3 16 4 17 5 18 6 19 7 20 8 21 9 22 10 23 11
REMARK SMILES IDX 24 12 25 13 26 14 12 15 11 16 10 17 9 18 8 19 7 20 6 21 5 22
REMARK SMILES IDX 4 23 3 24 2 25 1 26
REMARK H PARENT
REMARK Flexibility Score: inf
ROOT
ATOM      1  C   UNL     1      23.315  13.098   8.361  1.00  0.00     0.000 C 
ENDROOT
BRANCH   1   2
ATOM      2  C   UNL     1      24.336  14.245   8.307  1.00  0.00     0.000 C 
BRANCH   2   3
ATOM      3  C   UNL     1      25.664  13.832   7.645  1.00  0.00     0.000 C 
BRANCH   3   4
ATOM      4  C   UNL     1      26.897  14.010   8.556  1.00  0.00     0.000 C 
BRANCH   4   5
ATOM      5  C   UNL     1      27.026  15.448   9.092  1.00  0.00     0.000 C 
BRANCH   5   6
ATOM      6  C   UNL     1      26.974  16.505   7.978  1.00  0.00     0.000 C 
BRANCH   6   7
ATOM      7  C   UNL     1      26.862  17.939   8.520  1.00  0.00     0.000 C 
BRANCH   7   8
ATOM      8  C   UNL     1      25.992  18.808   7.599  1.00  0.00     0.000 C 
BRANCH   8   9
ATOM      9  C   UNL     1      24.683  18.114   7.189  1.00  0.00     0.000 C 
BRANCH   9  10
ATOM     10  C   UNL     1      23.979  18.816   6.014  1.00  0.00     0.006 C 
BRANCH  10  11
ATOM     11  C   UNL     1      22.705  19.550   6.456  1.00  0.00     0.053 C 
BRANCH  11  12
ATOM     12  C   UNL     1      22.435  20.753   5.604  1.00  0.00     0.041 C 
ATOM     13  O   UNL     1      22.927  21.871   5.909  1.00  0.00    -0.550 OA
ATOM     14  O   UNL     1      21.663  20.629   4.455  1.00  0.00    -0.550 OA
ENDBRANCH  11  12
ENDBRANCH  10  11
ENDBRANCH   9  10
ENDBRANCH   8   9
ENDBRANCH   7   8
ENDBRANCH   6   7
ENDBRANCH   5   6
ENDBRANCH   4   5
ENDBRANCH   3   4
ENDBRANCH   2   3
ENDBRANCH   1   2
BRANCH   1  15
ATOM     15  C   UNL     1      22.986  12.647   9.795  1.00  0.00     0.000 C 
BRANCH  15  16
ATOM     16  C   UNL     1      23.920  13.190  10.892  1.00  0.00     0.000 C 
BRANCH  16  17
ATOM     17  C   UNL     1      24.845  12.113  11.489  1.00  0.00     0.000 C 
BRANCH  17  18
ATOM     18  C   UNL     1      24.766  12.068  13.023  1.00  0.00    -0.000 C 
BRANCH  18  19
ATOM     19  C   UNL     1      25.558  10.888  13.613  1.00  0.00    -0.000 C 
BRANCH  19  20
ATOM     20  C   UNL     1      24.677   9.666  13.927  1.00  0.00    -0.000 C 
BRANCH  20  21
ATOM     21  C   UNL     1      23.225   9.758  13.423  1.00  0.00    -0.000 C 
BRANCH  21  22
ATOM     22  C   UNL     1      22.750   8.473  12.722  1.00  0.00    -0.000 C 
BRANCH  22  23
ATOM     23  C   UNL     1      21.218   8.413  12.587  1.00  0.00    -0.000 C 
BRANCH  23  24
ATOM     24  C   UNL     1      20.555   9.791  12.756  1.00  0.00    -0.000 C 
BRANCH  24  25
ATOM     25  C   UNL     1      19.265   9.726  13.589  1.00  0.00    -0.003 C 
ATOM     26  C   UNL     1      19.183   8.469  14.456  1.00  0.00     0.004 C 
ENDBRANCH  24  25
ENDBRANCH  23  24
ENDBRANCH  22  23
ENDBRANCH  21  22
ENDBRANCH  20  21
ENDBRANCH  19  20
ENDBRANCH  18  19
ENDBRANCH  17  18
ENDBRANCH  16  17
ENDBRANCH  15  16
ENDBRANCH   1  15
TORSDOF 22
ENDMDL
MODEL 2
REMARK VINA RESULT:    -5.717      2.513      5.067
REMARK INTER + INTRA:         -14.851
REMARK INTER:                 -13.493
REMARK INTRA:                  -1.358
REMARK UNBOUND:                -1.781
REMARK SMILES CCCCCCCCCCCCCCCCCCCCCCCC(=O)[O-]
REMARK SMILES IDX 13 1 14 2 15 3 16 4 17 5 18 6 19 7 20 8 21 9 22 10 23 11
REMARK SMILES IDX 24 12 25 13 26 14 12 15 11 16 10 17 9 18 8 19 7 20 6 21 5 22
REMARK SMILES IDX 4 23 3 24 2 25 1 26
REMARK H PARENT
REMARK Flexibility Score: inf
ROOT
ATOM      1  C   UNL     1      26.806  17.669   8.121  1.00  0.00     0.000 C 
ENDROOT
BRANCH   1   2
ATOM      2  C   UNL     1      26.337  18.860   7.270  1.00  0.00     0.000 C 
BRANCH   2   3
ATOM      3  C   UNL     1      24.804  19.012   7.248  1.00  0.00     0.000 C 
BRANCH   3   4
ATOM      4  C   UNL     1      24.190  18.940   5.834  1.00  0.00     0.000 C 
BRANCH   4   5
ATOM      5  C   UNL     1      22.662  19.126   5.849  1.00  0.00     0.000 C 
BRANCH   5   6
ATOM      6  C   UNL     1      22.236  20.583   5.607  1.00  0.00     0.000 C 
BRANCH   6   7
ATOM      7  C   UNL     1      22.871  21.189   4.345  1.00  0.00     0.000 C 
BRANCH   7   8
ATOM      8  C   UNL     1      23.770  22.382   4.702  1.00  0.00     0.000 C 
BRANCH   8   9
ATOM      9  C   UNL     1      23.692  22.760   6.190  1.00  0.00     0.000 C 
BRANCH   9  10
ATOM     10  C   UNL     1      24.937  23.524   6.677  1.00  0.00     0.006 C 
BRANCH  10  11
ATOM     11  C   UNL     1      24.594  24.565   7.753  1.00  0.00     0.053 C 
BRANCH  11  12
ATOM     12  C   UNL     1      24.848  25.962   7.273  1.00  0.00     0.041 C 
ATOM     13  O   UNL     1      23.957  26.845   7.390  1.00  0.00    -0.550 OA
ATOM     14  O   UNL     1      26.081  26.294   6.725  1.00  0.00    -0.550 OA
ENDBRANCH  11  12
ENDBRANCH  10  11
ENDBRANCH   9  10
ENDBRANCH   8   9
ENDBRANCH   7   8
ENDBRANCH   6   7
ENDBRANCH   5   6
ENDBRANCH   4   5
ENDBRANCH   3   4
ENDBRANCH   2   3
ENDBRANCH   1   2
BRANCH   1  15
ATOM     15  C   UNL     1      25.917  16.422   7.961  1.00  0.00     0.000 C 
BRANCH  15  16
ATOM     16  C   UNL     1      26.666  15.079   7.900  1.00  0.00     0.000 C 
BRANCH  16  17
ATOM     17  C   UNL     1      25.728  13.868   7.753  1.00  0.00     0.000 C 
BRANCH  17  18
ATOM     18  C   UNL     1      24.735  13.758   8.921  1.00  0.00    -0.000 C 
BRANCH  18  19
ATOM     19  C   UNL     1      23.386  13.159   8.486  1.00  0.00    -0.000 C 
BRANCH  19  20
ATOM     20  C   UNL     1      22.353  13.106   9.626  1.00  0.00    -0.000 C 
BRANCH  20  21
ATOM     21  C   UNL     1      22.607  12.022  10.690  1.00  0.00    -0.000 C 
BRANCH  21  22
ATOM     22  C   UNL     1      21.420  11.059  10.862  1.00  0.00    -0.000 C 
BRANCH  22  23
ATOM     23  C   UNL     1      21.836   9.726  11.508  1.00  0.00    -0.000 C 
BRANCH  23  24
ATOM     24  C   UNL     1      21.353   9.598  12.963  1.00  0.00    -0.000 C 
BRANCH  24  25
ATOM     25  C   UNL     1      19.841   9.829  13.105  1.00  0.00    -0.003 C 
ATOM     26  C   UNL     1      19.179   8.840  14.066  1.00  0.00     0.004 C 
ENDBRANCH  24  25
ENDBRANCH  23  24
ENDBRANCH  22  23
ENDBRANCH  21  22
ENDBRANCH  20  21
ENDBRANCH  19  20
ENDBRANCH  18  19
ENDBRANCH  17  18
ENDBRANCH  16  17
ENDBRANCH  15  16
ENDBRANCH   1  15
TORSDOF 22
ENDMDL
MODEL 3
REMARK VINA RESULT:    -5.702      1.833      3.037
REMARK INTER + INTRA:         -14.816
REMARK INTER:                 -13.179
REMARK INTRA:                  -1.638
REMARK UNBOUND:                -1.781
REMARK SMILES CCCCCCCCCCCCCCCCCCCCCCCC(=O)[O-]
REMARK SMILES IDX 13 1 14 2 15 3 16 4 17 5 18 6 19 7 20 8 21 9 22 10 23 11
REMARK SMILES IDX 24 12 25 13 26 14 12 15 11 16 10 17 9 18 8 19 7 20 6 21 5 22
REMARK SMILES IDX 4 23 3 24 2 25 1 26
REMARK H PARENT
REMARK Flexibility Score: inf
ROOT
ATOM      1  C   UNL     1      25.944  14.032   8.111  1.00  0.00     0.000 C 
ENDROOT
BRANCH   1   2
ATOM      2  C   UNL     1      26.749  15.138   8.811  1.00  0.00     0.000 C 
BRANCH   2   3
ATOM      3  C   UNL     1      27.099  16.307   7.872  1.00  0.00     0.000 C 
BRANCH   3   4
ATOM      4  C   UNL     1      26.629  17.683   8.387  1.00  0.00     0.000 C 
BRANCH   4   5
ATOM      5  C   UNL     1      25.840  18.468   7.323  1.00  0.00     0.000 C 
BRANCH   5   6
ATOM      6  C   UNL     1      24.422  17.917   7.106  1.00  0.00     0.000 C 
BRANCH   6   7
ATOM      7  C   UNL     1      23.591  18.770   6.134  1.00  0.00     0.000 C 
BRANCH   7   8
ATOM      8  C   UNL     1      24.407  19.964   5.617  1.00  0.00     0.000 C 
BRANCH   8   9
ATOM      9  C   UNL     1      23.615  21.282   5.646  1.00  0.00     0.000 C 
BRANCH   9  10
ATOM     10  C   UNL     1      23.886  22.167   4.416  1.00  0.00     0.006 C 
BRANCH  10  11
ATOM     11  C   UNL     1      25.371  22.180   4.028  1.00  0.00     0.053 C 
BRANCH  11  12
ATOM     12  C   UNL     1      26.088  23.354   4.622  1.00  0.00     0.041 C 
ATOM     13  O   UNL     1      26.588  23.275   5.775  1.00  0.00    -0.550 OA
ATOM     14  O   UNL     1      26.229  24.525   3.887  1.00  0.00    -0.550 OA
ENDBRANCH  11  12
ENDBRANCH  10  11
ENDBRANCH   9  10
ENDBRANCH   8   9
ENDBRANCH   7   8
ENDBRANCH   6   7
ENDBRANCH   5   6
ENDBRANCH   4   5
ENDBRANCH   3   4
ENDBRANCH   2   3
ENDBRANCH   1   2
BRANCH   1  15
ATOM     15  C   UNL     1      24.426  14.287   8.122  1.00  0.00     0.000 C 
BRANCH  15  16
ATOM     16  C   UNL     1      23.563  13.133   8.664  1.00  0.00     0.000 C 
BRANCH  16  17
ATOM     17  C   UNL     1      23.079  13.364  10.107  1.00  0.00     0.000 C 
BRANCH  17  18
ATOM     18  C   UNL     1      24.026  12.738  11.144  1.00  0.00    -0.000 C 
BRANCH  18  19
ATOM     19  C   UNL     1      23.501  11.394  11.676  1.00  0.00    -0.000 C 
BRANCH  19  20
ATOM     20  C   UNL     1      24.121  10.996  13.028  1.00  0.00    -0.000 C 
BRANCH  20  21
ATOM     21  C   UNL     1      23.549   9.713  13.659  1.00  0.00    -0.000 C 
BRANCH  21  22
ATOM     22  C   UNL     1      22.871   8.789  12.631  1.00  0.00    -0.000 C 
BRANCH  22  23
ATOM     23  C   UNL     1      21.410   8.476  13.000  1.00  0.00    -0.000 C 
BRANCH  23  24
ATOM     24  C   UNL     1      20.455   9.635  12.666  1.00  0.00    -0.000 C 
BRANCH  24  25
ATOM     25  C   UNL     1      19.304   9.761  13.676  1.00  0.00    -0.003 C 
ATOM     26  C   UNL     1      19.131   8.507  14.535  1.00  0.00     0.004 C 
ENDBRANCH  24  25
ENDBRANCH  23  24
ENDBRANCH  22  23
ENDBRANCH  21  22
ENDBRANCH  20  21
ENDBRANCH  19  20
ENDBRANCH  18  19
ENDBRANCH  17  18
ENDBRANCH  16  17
ENDBRANCH  15  16
ENDBRANCH   1  15
TORSDOF 22
ENDMDL
MODEL 4
REMARK VINA RESULT:    -5.669      1.742      3.284
REMARK INTER + INTRA:         -14.741
REMARK INTER:                 -13.465
REMARK INTRA:                  -1.277
REMARK UNBOUND:                -1.781
REMARK SMILES CCCCCCCCCCCCCCCCCCCCCCCC(=O)[O-]
REMARK SMILES IDX 13 1 14 2 15 3 16 4 17 5 18 6 19 7 20 8 21 9 22 10 23 11
REMARK SMILES IDX 24 12 25 13 26 14 12 15 11 16 10 17 9 18 8 19 7 20 6 21 5 22
REMARK SMILES IDX 4 23 3 24 2 25 1 26
REMARK H PARENT
REMARK Flexibility Score: inf
ROOT
ATOM      1  C   UNL     1      25.907  16.004   7.744  1.00  0.00     0.000 C 
ENDROOT
BRANCH   1   2
ATOM      2  C   UNL     1      26.961  16.841   8.487  1.00  0.00     0.000 C 
BRANCH   2   3
ATOM      3  C   UNL     1      26.715  18.356   8.363  1.00  0.00     0.000 C 
BRANCH   3   4
ATOM      4  C   UNL     1      26.618  18.855   6.906  1.00  0.00     0.000 C 
BRANCH   4   5
ATOM      5  C   UNL     1      27.377  20.177   6.688  1.00  0.00     0.000 C 
BRANCH   5   6
ATOM      6  C   UNL     1      26.447  21.400   6.660  1.00  0.00     0.000 C 
BRANCH   6   7
ATOM      7  C   UNL     1      26.820  22.410   5.563  1.00  0.00     0.000 C 
BRANCH   7   8
ATOM      8  C   UNL     1      25.600  22.755   4.697  1.00  0.00     0.000 C 
BRANCH   8   9
ATOM      9  C   UNL     1      24.765  21.517   4.328  1.00  0.00     0.000 C 
BRANCH   9  10
ATOM     10  C   UNL     1      23.251  21.753   4.483  1.00  0.00     0.006 C 
BRANCH  10  11
ATOM     11  C   UNL     1      22.783  21.579   5.935  1.00  0.00     0.053 C 
BRANCH  11  12
ATOM     12  C   UNL     1      22.062  20.280   6.133  1.00  0.00     0.041 C 
ATOM     13  O   UNL     1      21.479  20.037   7.223  1.00  0.00    -0.550 OA
ATOM     14  O   UNL     1      22.008  19.352   5.100  1.00  0.00    -0.550 OA
ENDBRANCH  11  12
ENDBRANCH  10  11
ENDBRANCH   9  10
ENDBRANCH   8   9
ENDBRANCH   7   8
ENDBRANCH   6   7
ENDBRANCH   5   6
ENDBRANCH   4   5
ENDBRANCH   3   4
ENDBRANCH   2   3
ENDBRANCH   1   2
BRANCH   1  15
ATOM     15  C   UNL     1      26.284  14.516   7.629  1.00  0.00     0.000 C 
BRANCH  15  16
ATOM     16  C   UNL     1      25.422  13.548   8.459  1.00  0.00     0.000 C 
BRANCH  16  17
ATOM     17  C   UNL     1      25.833  13.489   9.942  1.00  0.00     0.000 C 
BRANCH  17  18
ATOM     18  C   UNL     1      24.811  12.722  10.797  1.00  0.00    -0.000 C 
BRANCH  18  19
ATOM     19  C   UNL     1      25.479  11.940  11.941  1.00  0.00    -0.000 C 
BRANCH  19  20
ATOM     20  C   UNL     1      24.478  11.456  13.005  1.00  0.00    -0.000 C 
BRANCH  20  21
ATOM     21  C   UNL     1      23.296  10.631  12.466  1.00  0.00    -0.000 C 
BRANCH  21  22
ATOM     22  C   UNL     1      22.788   9.580  13.470  1.00  0.00    -0.000 C 
BRANCH  22  23
ATOM     23  C   UNL     1      21.477   8.919  13.012  1.00  0.00    -0.000 C 
BRANCH  23  24
ATOM     24  C   UNL     1      20.366   9.944  12.727  1.00  0.00    -0.000 C 
BRANCH  24  25
ATOM     25  C   UNL     1      19.180   9.814  13.695  1.00  0.00    -0.003 C 
ATOM     26  C   UNL     1      19.182   8.489  14.458  1.00  0.00     0.004 C 
ENDBRANCH  24  25
ENDBRANCH  23  24
ENDBRANCH  22  23
ENDBRANCH  21  22
ENDBRANCH  20  21
ENDBRANCH  19  20
ENDBRANCH  18  19
ENDBRANCH  17  18
ENDBRANCH  16  17
ENDBRANCH  15  16
ENDBRANCH   1  15
TORSDOF 22
ENDMDL
MODEL 5
REMARK VINA RESULT:    -5.652      1.346      2.172
REMARK INTER + INTRA:         -14.702
REMARK INTER:                 -13.399
REMARK INTRA:                  -1.303
REMARK UNBOUND:                -1.781
REMARK SMILES CCCCCCCCCCCCCCCCCCCCCCCC(=O)[O-]
REMARK SMILES IDX 13 1 14 2 15 3 16 4 17 5 18 6 19 7 20 8 21 9 22 10 23 11
REMARK SMILES IDX 24 12 25 13 26 14 12 15 11 16 10 17 9 18 8 19 7 20 6 21 5 22
REMARK SMILES IDX 4 23 3 24 2 25 1 26
REMARK H PARENT
REMARK Flexibility Score: inf
ROOT
ATOM      1  C   UNL     1      25.564  13.692   8.376  1.00  0.00     0.000 C 
ENDROOT
BRANCH   1   2
ATOM      2  C   UNL     1      25.969  15.051   7.783  1.00  0.00     0.000 C 
BRANCH   2   3
ATOM      3  C   UNL     1      27.458  15.379   8.003  1.00  0.00     0.000 C 
BRANCH   3   4
ATOM      4  C   UNL     1      27.779  16.887   7.950  1.00  0.00     0.000 C 
BRANCH   4   5
ATOM      5  C   UNL     1      26.614  17.752   8.465  1.00  0.00     0.000 C 
BRANCH   5   6
ATOM      6  C   UNL     1      26.025  18.666   7.380  1.00  0.00     0.000 C 
BRANCH   6   7
ATOM      7  C   UNL     1      24.554  18.352   7.067  1.00  0.00     0.000 C 
BRANCH   7   8
ATOM      8  C   UNL     1      24.068  19.153   5.849  1.00  0.00     0.000 C 
BRANCH   8   9
ATOM      9  C   UNL     1      22.569  19.486   5.918  1.00  0.00     0.000 C 
BRANCH   9  10
ATOM     10  C   UNL     1      22.300  20.996   6.060  1.00  0.00     0.006 C 
BRANCH  10  11
ATOM     11  C   UNL     1      23.236  21.836   5.180  1.00  0.00     0.053 C 
BRANCH  11  12
ATOM     12  C   UNL     1      24.109  22.736   6.002  1.00  0.00     0.041 C 
ATOM     13  O   UNL     1      23.594  23.579   6.783  1.00  0.00    -0.550 OA
ATOM     14  O   UNL     1      25.491  22.621   5.926  1.00  0.00    -0.550 OA
ENDBRANCH  11  12
ENDBRANCH  10  11
ENDBRANCH   9  10
ENDBRANCH   8   9
ENDBRANCH   7   8
ENDBRANCH   6   7
ENDBRANCH   5   6
ENDBRANCH   4   5
ENDBRANCH   3   4
ENDBRANCH   2   3
ENDBRANCH   1   2
BRANCH   1  15
ATOM     15  C   UNL     1      26.312  13.351   9.678  1.00  0.00     0.000 C 
BRANCH  15  16
ATOM     16  C   UNL     1      25.447  12.744  10.798  1.00  0.00     0.000 C 
BRANCH  16  17
ATOM     17  C   UNL     1      26.273  12.011  11.871  1.00  0.00     0.000 C 
BRANCH  17  18
ATOM     18  C   UNL     1      25.423  11.623  13.091  1.00  0.00    -0.000 C 
BRANCH  18  19
ATOM     19  C   UNL     1      25.893  10.307  13.734  1.00  0.00    -0.000 C 
BRANCH  19  20
ATOM     20  C   UNL     1      24.730   9.388  14.148  1.00  0.00    -0.000 C 
BRANCH  20  21
ATOM     21  C   UNL     1      23.362   9.747  13.537  1.00  0.00    -0.000 C 
BRANCH  21  22
ATOM     22  C   UNL     1      22.813   8.650  12.608  1.00  0.00    -0.000 C 
BRANCH  22  23
ATOM     23  C   UNL     1      21.292   8.468  12.754  1.00  0.00    -0.000 C 
BRANCH  23  24
ATOM     24  C   UNL     1      20.527   9.801  12.677  1.00  0.00    -0.000 C 
BRANCH  24  25
ATOM     25  C   UNL     1      19.292   9.826  13.590  1.00  0.00    -0.003 C 
ATOM     26  C   UNL     1      19.178   8.577  14.465  1.00  0.00     0.004 C 
ENDBRANCH  24  25
ENDBRANCH  23  24
ENDBRANCH  22  23
ENDBRANCH  21  22
ENDBRANCH  20  21
ENDBRANCH  19  20
ENDBRANCH  18  19
ENDBRANCH  17  18
ENDBRANCH  16  17
ENDBRANCH  15  16
ENDBRANCH   1  15
TORSDOF 22
ENDMDL
MODEL 6
REMARK VINA RESULT:    -5.612      4.733     11.787
REMARK INTER + INTRA:         -14.609
REMARK INTER:                 -12.692
REMARK INTRA:                  -1.918
REMARK UNBOUND:                -1.781
REMARK SMILES CCCCCCCCCCCCCCCCCCCCCCCC(=O)[O-]
REMARK SMILES IDX 13 1 14 2 15 3 16 4 17 5 18 6 19 7 20 8 21 9 22 10 23 11
REMARK SMILES IDX 24 12 25 13 26 14 12 15 11 16 10 17 9 18 8 19 7 20 6 21 5 22
REMARK SMILES IDX 4 23 3 24 2 25 1 26
REMARK H PARENT
REMARK Flexibility Score: inf
ROOT
ATOM      1  C   UNL     1      26.250  19.075   7.893  1.00  0.00     0.000 C 
ENDROOT
BRANCH   1   2
ATOM      2  C   UNL     1      26.645  17.750   8.566  1.00  0.00     0.000 C 
BRANCH   2   3
ATOM      3  C   UNL     1      26.023  16.522   7.874  1.00  0.00     0.000 C 
BRANCH   3   4
ATOM      4  C   UNL     1      26.853  15.230   8.034  1.00  0.00     0.000 C 
BRANCH   4   5
ATOM      5  C   UNL     1      26.045  13.968   7.681  1.00  0.00     0.000 C 
BRANCH   5   6
ATOM      6  C   UNL     1      24.761  13.832   8.515  1.00  0.00     0.000 C 
BRANCH   6   7
ATOM      7  C   UNL     1      24.993  13.124   9.859  1.00  0.00     0.000 C 
BRANCH   7   8
ATOM      8  C   UNL     1      23.694  13.061  10.677  1.00  0.00     0.000 C 
BRANCH   8   9
ATOM      9  C   UNL     1      22.508  12.513   9.866  1.00  0.00     0.000 C 
BRANCH   9  10
ATOM     10  C   UNL     1      21.634  11.536  10.675  1.00  0.00     0.006 C 
BRANCH  10  11
ATOM     11  C   UNL     1      22.464  10.688  11.650  1.00  0.00     0.053 C 
BRANCH  11  12
ATOM     12  C   UNL     1      21.594   9.822  12.509  1.00  0.00     0.041 C 
ATOM     13  O   UNL     1      22.073   8.802  13.072  1.00  0.00    -0.550 OA
ATOM     14  O   UNL     1      20.262  10.159  12.711  1.00  0.00    -0.550 OA
ENDBRANCH  11  12
ENDBRANCH  10  11
ENDBRANCH   9  10
ENDBRANCH   8   9
ENDBRANCH   7   8
ENDBRANCH   6   7
ENDBRANCH   5   6
ENDBRANCH   4   5
ENDBRANCH   3   4
ENDBRANCH   2   3
ENDBRANCH   1   2
BRANCH   1  15
ATOM     15  C   UNL     1      26.584  19.116   6.391  1.00  0.00     0.000 C 
BRANCH  15  16
ATOM     16  C   UNL     1      25.398  19.418   5.457  1.00  0.00     0.000 C 
BRANCH  16  17
ATOM     17  C   UNL     1      24.030  19.143   6.106  1.00  0.00     0.000 C 
BRANCH  17  18
ATOM     18  C   UNL     1      23.017  20.263   5.820  1.00  0.00    -0.000 C 
BRANCH  18  19
ATOM     19  C   UNL     1      23.258  20.933   4.457  1.00  0.00    -0.000 C 
BRANCH  19  20
ATOM     20  C   UNL     1      23.753  22.386   4.578  1.00  0.00    -0.000 C 
BRANCH  20  21
ATOM     21  C   UNL     1      23.729  22.970   6.004  1.00  0.00    -0.000 C 
BRANCH  21  22
ATOM     22  C   UNL     1      25.133  23.116   6.616  1.00  0.00    -0.000 C 
BRANCH  22  23
ATOM     23  C   UNL     1      26.075  23.947   5.727  1.00  0.00    -0.000 C 
BRANCH  23  24
ATOM     24  C   UNL     1      25.877  25.461   5.910  1.00  0.00    -0.000 C 
BRANCH  24  25
ATOM     25  C   UNL     1      25.537  25.841   7.360  1.00  0.00    -0.003 C 
ATOM     26  C   UNL     1      24.348  26.798   7.457  1.00  0.00     0.004 C 
ENDBRANCH  24  25
ENDBRANCH  23  24
ENDBRANCH  22  23
ENDBRANCH  21  22
ENDBRANCH  20  21
ENDBRANCH  19  20
ENDBRANCH  18  19
ENDBRANCH  17  18
ENDBRANCH  16  17
ENDBRANCH  15  16
ENDBRANCH   1  15
TORSDOF 22
ENDMDL
MODEL 7
REMARK VINA RESULT:    -5.607      3.202      6.315
REMARK INTER + INTRA:         -14.599
REMARK INTER:                 -12.839
REMARK INTRA:                  -1.760
REMARK UNBOUND:                -1.781
REMARK SMILES CCCCCCCCCCCCCCCCCCCCCCCC(=O)[O-]
REMARK SMILES IDX 13 1 14 2 15 3 16 4 17 5 18 6 19 7 20 8 21 9 22 10 23 11
REMARK SMILES IDX 24 12 25 13 26 14 12 15 11 16 10 17 9 18 8 19 7 20 6 21 5 22
REMARK SMILES IDX 4 23 3 24 2 25 1 26
REMARK H PARENT
REMARK Flexibility Score: inf
ROOT
ATOM      1  C   UNL     1      25.684  19.518   6.582  1.00  0.00     0.000 C 
ENDROOT
BRANCH   1   2
ATOM      2  C   UNL     1      24.271  18.921   6.479  1.00  0.00     0.000 C 
BRANCH   2   3
ATOM      3  C   UNL     1      23.369  19.687   5.493  1.00  0.00     0.000 C 
BRANCH   3   4
ATOM      4  C   UNL     1      22.653  20.902   6.118  1.00  0.00     0.000 C 
BRANCH   4   5
ATOM      5  C   UNL     1      23.273  22.240   5.673  1.00  0.00     0.000 C 
BRANCH   5   6
ATOM      6  C   UNL     1      23.904  22.167   4.274  1.00  0.00     0.000 C 
BRANCH   6   7
ATOM      7  C   UNL     1      25.247  22.910   4.184  1.00  0.00     0.000 C 
BRANCH   7   8
ATOM      8  C   UNL     1      25.772  23.265   5.583  1.00  0.00     0.000 C 
BRANCH   8   9
ATOM      9  C   UNL     1      26.358  24.684   5.656  1.00  0.00     0.000 C 
BRANCH   9  10
ATOM     10  C   UNL     1      25.479  25.650   6.472  1.00  0.00     0.006 C 
BRANCH  10  11
ATOM     11  C   UNL     1      24.818  24.957   7.672  1.00  0.00     0.053 C 
BRANCH  11  12
ATOM     12  C   UNL     1      24.895  25.799   8.909  1.00  0.00     0.041 C 
ATOM     13  O   UNL     1      25.658  26.801   8.949  1.00  0.00    -0.550 OA
ATOM     14  O   UNL     1      24.100  25.494  10.007  1.00  0.00    -0.550 OA
ENDBRANCH  11  12
ENDBRANCH  10  11
ENDBRANCH   9  10
ENDBRANCH   8   9
ENDBRANCH   7   8
ENDBRANCH   6   7
ENDBRANCH   5   6
ENDBRANCH   4   5
ENDBRANCH   3   4
ENDBRANCH   2   3
ENDBRANCH   1   2
BRANCH   1  15
ATOM     15  C   UNL     1      26.617  18.713   7.504  1.00  0.00     0.000 C 
BRANCH  15  16
ATOM     16  C   UNL     1      26.187  17.259   7.775  1.00  0.00     0.000 C 
BRANCH  16  17
ATOM     17  C   UNL     1      27.375  16.287   7.888  1.00  0.00     0.000 C 
BRANCH  17  18
ATOM     18  C   UNL     1      26.986  14.973   8.584  1.00  0.00    -0.000 C 
BRANCH  18  19
ATOM     19  C   UNL     1      25.794  14.282   7.899  1.00  0.00    -0.000 C 
BRANCH  19  20
ATOM     20  C   UNL     1      24.958  13.424   8.865  1.00  0.00    -0.000 C 
BRANCH  20  21
ATOM     21  C   UNL     1      23.520  13.126   8.400  1.00  0.00    -0.000 C 
BRANCH  21  22
ATOM     22  C   UNL     1      22.452  13.673   9.363  1.00  0.00    -0.000 C 
BRANCH  22  23
ATOM     23  C   UNL     1      22.251  12.767  10.590  1.00  0.00    -0.000 C 
BRANCH  23  24
ATOM     24  C   UNL     1      21.853  11.331  10.205  1.00  0.00    -0.000 C 
BRANCH  24  25
ATOM     25  C   UNL     1      20.911  10.685  11.233  1.00  0.00    -0.003 C 
ATOM     26  C   UNL     1      21.568   9.532  11.994  1.00  0.00     0.004 C 
ENDBRANCH  24  25
ENDBRANCH  23  24
ENDBRANCH  22  23
ENDBRANCH  21  22
ENDBRANCH  20  21
ENDBRANCH  19  20
ENDBRANCH  18  19
ENDBRANCH  17  18
ENDBRANCH  16  17
ENDBRANCH  15  16
ENDBRANCH   1  15
TORSDOF 22
ENDMDL
MODEL 8
REMARK VINA RESULT:    -5.578      3.325      7.263
REMARK INTER + INTRA:         -14.533
REMARK INTER:                 -11.920
REMARK INTRA:                  -2.612
REMARK UNBOUND:                -1.781
REMARK SMILES CCCCCCCCCCCCCCCCCCCCCCCC(=O)[O-]
REMARK SMILES IDX 13 1 14 2 15 3 16 4 17 5 18 6 19 7 20 8 21 9 22 10 23 11
REMARK SMILES IDX 24 12 25 13 26 14 12 15 11 16 10 17 9 18 8 19 7 20 6 21 5 22
REMARK SMILES IDX 4 23 3 24 2 25 1 26
REMARK H PARENT
REMARK Flexibility Score: inf
ROOT
ATOM      1  C   UNL     1      22.558  19.599   6.790  1.00  0.00     0.000 C 
ENDROOT
BRANCH   1   2
ATOM      2  C   UNL     1      22.149  20.709   5.809  1.00  0.00     0.000 C 
BRANCH   2   3
ATOM      3  C   UNL     1      23.155  21.876   5.774  1.00  0.00     0.000 C 
BRANCH   3   4
ATOM      4  C   UNL     1      23.658  22.223   4.357  1.00  0.00     0.000 C 
BRANCH   4   5
ATOM      5  C   UNL     1      24.975  21.504   4.011  1.00  0.00     0.000 C 
BRANCH   5   6
ATOM      6  C   UNL     1      26.107  21.826   4.999  1.00  0.00     0.000 C 
BRANCH   6   7
ATOM      7  C   UNL     1      26.997  22.988   4.530  1.00  0.00     0.000 C 
BRANCH   7   8
ATOM      8  C   UNL     1      26.840  24.206   5.453  1.00  0.00     0.000 C 
BRANCH   8   9
ATOM      9  C   UNL     1      25.748  25.177   4.974  1.00  0.00     0.000 C 
BRANCH   9  10
ATOM     10  C   UNL     1      24.649  25.405   6.028  1.00  0.00     0.006 C 
BRANCH  10  11
ATOM     11  C   UNL     1      24.990  24.743   7.371  1.00  0.00     0.053 C 
BRANCH  11  12
ATOM     12  C   UNL     1      24.941  25.726   8.501  1.00  0.00     0.041 C 
ATOM     13  O   UNL     1      25.429  26.879   8.361  1.00  0.00    -0.550 OA
ATOM     14  O   UNL     1      24.328  25.378   9.698  1.00  0.00    -0.550 OA
ENDBRANCH  11  12
ENDBRANCH  10  11
ENDBRANCH   9  10
ENDBRANCH   8   9
ENDBRANCH   7   8
ENDBRANCH   6   7
ENDBRANCH   5   6
ENDBRANCH   4   5
ENDBRANCH   3   4
ENDBRANCH   2   3
ENDBRANCH   1   2
BRANCH   1  15
ATOM     15  C   UNL     1      23.622  18.646   6.217  1.00  0.00     0.000 C 
BRANCH  15  16
ATOM     16  C   UNL     1      24.682  18.157   7.221  1.00  0.00     0.000 C 
BRANCH  16  17
ATOM     17  C   UNL     1      26.043  18.857   7.054  1.00  0.00     0.000 C 
BRANCH  17  18
ATOM     18  C   UNL     1      27.117  18.266   7.980  1.00  0.00    -0.000 C 
BRANCH  18  19
ATOM     19  C   UNL     1      26.772  16.838   8.437  1.00  0.00    -0.000 C 
BRANCH  19  20
ATOM     20  C   UNL     1      27.398  15.751   7.546  1.00  0.00    -0.000 C 
BRANCH  20  21
ATOM     21  C   UNL     1      26.642  14.409   7.520  1.00  0.00    -0.000 C 
BRANCH  21  22
ATOM     22  C   UNL     1      25.193  14.527   8.025  1.00  0.00    -0.000 C 
BRANCH  22  23
ATOM     23  C   UNL     1      24.792  13.349   8.931  1.00  0.00    -0.000 C 
BRANCH  23  24
ATOM     24  C   UNL     1      23.304  12.982   8.798  1.00  0.00    -0.000 C 
BRANCH  24  25
ATOM     25  C   UNL     1      22.583  12.942  10.155  1.00  0.00    -0.003 C 
ATOM     26  C   UNL     1      21.843  11.625  10.393  1.00  0.00     0.004 C 
ENDBRANCH  24  25
ENDBRANCH  23  24
ENDBRANCH  22  23
ENDBRANCH  21  22
ENDBRANCH  20  21
ENDBRANCH  19  20
ENDBRANCH  18  19
ENDBRANCH  17  18
ENDBRANCH  16  17
ENDBRANCH  15  16
ENDBRANCH   1  15
TORSDOF 22
ENDMDL
MODEL 9
REMARK VINA RESULT:    -5.554      2.382      5.091
REMARK INTER + INTRA:         -14.479
REMARK INTER:                 -12.307
REMARK INTRA:                  -2.172
REMARK UNBOUND:                -1.781
REMARK SMILES CCCCCCCCCCCCCCCCCCCCCCCC(=O)[O-]
REMARK SMILES IDX 13 1 14 2 15 3 16 4 17 5 18 6 19 7 20 8 21 9 22 10 23 11
REMARK SMILES IDX 24 12 25 13 26 14 12 15 11 16 10 17 9 18 8 19 7 20 6 21 5 22
REMARK SMILES IDX 4 23 3 24 2 25 1 26
REMARK H PARENT
REMARK Flexibility Score: inf
ROOT
ATOM      1  C   UNL     1      26.381  18.082   8.195  1.00  0.00     0.000 C 
ENDROOT
BRANCH   1   2
ATOM      2  C   UNL     1      27.855  18.380   7.876  1.00  0.00     0.000 C 
BRANCH   2   3
ATOM      3  C   UNL     1      28.100  19.858   7.515  1.00  0.00     0.000 C 
BRANCH   3   4
ATOM      4  C   UNL     1      26.898  20.540   6.829  1.00  0.00     0.000 C 
BRANCH   4   5
ATOM      5  C   UNL     1      26.908  20.347   5.302  1.00  0.00     0.000 C 
BRANCH   5   6
ATOM      6  C   UNL     1      25.526  19.979   4.738  1.00  0.00     0.000 C 
BRANCH   6   7
ATOM      7  C   UNL     1      24.435  19.927   5.819  1.00  0.00     0.000 C 
BRANCH   7   8
ATOM      8  C   UNL     1      23.249  20.829   5.445  1.00  0.00     0.000 C 
BRANCH   8   9
ATOM      9  C   UNL     1      23.674  22.277   5.150  1.00  0.00     0.000 C 
BRANCH   9  10
ATOM     10  C   UNL     1      23.627  23.177   6.398  1.00  0.00     0.006 C 
BRANCH  10  11
ATOM     11  C   UNL     1      24.991  23.813   6.704  1.00  0.00     0.053 C 
BRANCH  11  12
ATOM     12  C   UNL     1      25.005  25.276   6.380  1.00  0.00     0.041 C 
ATOM     13  O   UNL     1      23.926  25.889   6.165  1.00  0.00    -0.550 OA
ATOM     14  O   UNL     1      26.210  25.967   6.346  1.00  0.00    -0.550 OA
ENDBRANCH  11  12
ENDBRANCH  10  11
ENDBRANCH   9  10
ENDBRANCH   8   9
ENDBRANCH   7   8
ENDBRANCH   6   7
ENDBRANCH   5   6
ENDBRANCH   4   5
ENDBRANCH   3   4
ENDBRANCH   2   3
ENDBRANCH   1   2
BRANCH   1  15
ATOM     15  C   UNL     1      25.950  16.660   7.793  1.00  0.00     0.000 C 
BRANCH  15  16
ATOM     16  C   UNL     1      27.097  15.657   7.576  1.00  0.00     0.000 C 
BRANCH  16  17
ATOM     17  C   UNL     1      26.682  14.197   7.832  1.00  0.00     0.000 C 
BRANCH  17  18
ATOM     18  C   UNL     1      26.601  13.871   9.333  1.00  0.00    -0.000 C 
BRANCH  18  19
ATOM     19  C   UNL     1      25.276  13.187   9.710  1.00  0.00    -0.000 C 
BRANCH  19  20
ATOM     20  C   UNL     1      24.089  13.652   8.846  1.00  0.00    -0.000 C 
BRANCH  20  21
ATOM     21  C   UNL     1      22.859  12.725   8.871  1.00  0.00    -0.000 C 
BRANCH  21  22
ATOM     22  C   UNL     1      22.408  12.364  10.298  1.00  0.00    -0.000 C 
BRANCH  22  23
ATOM     23  C   UNL     1      21.637  11.034  10.348  1.00  0.00    -0.000 C 
BRANCH  23  24
ATOM     24  C   UNL     1      21.434  10.522  11.785  1.00  0.00    -0.000 C 
BRANCH  24  25
ATOM     25  C   UNL     1      22.623   9.689  12.288  1.00  0.00    -0.003 C 
ATOM     26  C   UNL     1      23.557  10.482  13.203  1.00  0.00     0.004 C 
ENDBRANCH  24  25
ENDBRANCH  23  24
ENDBRANCH  22  23
ENDBRANCH  21  22
ENDBRANCH  20  21
ENDBRANCH  19  20
ENDBRANCH  18  19
ENDBRANCH  17  18
ENDBRANCH  16  17
ENDBRANCH  15  16
ENDBRANCH   1  15
TORSDOF 22
ENDMDL
