MODEL 1
REMARK VINA RESULT:    21.392      0.000      0.000
REMARK INTER + INTRA:          23.684
REMARK INTER:                  23.268
REMARK INTRA:                   0.416
REMARK UNBOUND:                 0.416
REMARK SMILES C[C@H]1[C@H](C)CC[C@]2(C(=O)[O-])CC[C@@]3(C)C(=CC[C@H]4[C@@]5(C)CC[C@@H](O)C(C)(C)[C@H]5CC[C@]43C)[C@H]12
REMARK SMILES IDX 7 1 6 2 11 3 33 4 5 5 12 6 15 7 2 8 3 9 13 10 16 11 1 12
REMARK SMILES IDX 4 13 14 14 31 15 17 16 18 17 30 18 32 19 19 20 29 21 28 22
REMARK SMILES IDX 21 23 20 24 25 25 22 26 23 27 26 28 27 29 8 30 9 31 10 32
REMARK SMILES IDX 24 33
REMARK H PARENT 24 34
REMARK Flexibility Score: inf
ROOT
ATOM      1  C   UNL     1       8.743  -7.375  12.376  1.00  0.00     0.017 C 
ATOM      2  C   UNL     1       9.342  -6.239  13.277  1.00  0.00     0.014 C 
ATOM      3  C   UNL     1       9.385  -7.318  10.938  1.00  0.00     0.014 C 
ATOM      4  C   UNL     1       7.190  -7.211  12.316  1.00  0.00     0.030 C 
ATOM      5  C   UNL     1       8.411  -5.712  14.401  1.00  0.00     0.004 C 
ATOM      6  C   UNL     1       8.380  -7.136   9.769  1.00  0.00     0.013 C 
ATOM      7  C   UNL     1       6.863  -5.980  11.441  1.00  0.00    -0.063 C 
ATOM      8  C   UNL     1       6.512  -7.290  13.742  1.00  0.00    -0.003 C 
ATOM      9  C   UNL     1       7.430  -6.778  14.903  1.00  0.00    -0.011 C 
ATOM     10  C   UNL     1       7.253  -6.043   9.967  1.00  0.00    -0.006 C 
ATOM     11  C   UNL     1       6.197  -4.902  11.891  1.00  0.00    -0.027 C 
ATOM     12  C   UNL     1       6.014  -8.716  14.074  1.00  0.00     0.008 C 
ATOM     13  C   UNL     1       6.609  -6.241  16.095  1.00  0.00     0.008 C 
ATOM     14  C   UNL     1       5.967  -6.591   9.267  1.00  0.00     0.017 C 
ATOM     15  C   UNL     1       7.678  -4.582   9.404  1.00  0.00    -0.020 C 
ATOM     16  C   UNL     1       5.943  -3.662  11.103  1.00  0.00     0.032 C 
ATOM     17  C   UNL     1       6.524  -3.537   9.656  1.00  0.00     0.006 C 
ATOM     18  C   UNL     1       8.895  -4.018  10.157  1.00  0.00     0.008 C 
ATOM     19  C   UNL     1       8.044  -4.718   7.879  1.00  0.00     0.012 C 
ATOM     20  C   UNL     1       6.829  -1.993   9.204  1.00  0.00    -0.025 C 
ATOM     21  C   UNL     1       9.366  -2.623   9.713  1.00  0.00     0.005 C 
ATOM     22  C   UNL     1       8.379  -1.687   8.937  1.00  0.00     0.003 C 
ATOM     23  C   UNL     1       6.250  -0.909  10.194  1.00  0.00     0.010 C 
ATOM     24  C   UNL     1       6.032  -1.789   7.876  1.00  0.00     0.012 C 
ATOM     25  C   UNL     1       8.822  -0.160   9.109  1.00  0.00    -0.006 C 
ATOM     26  C   UNL     1       7.289  -0.385  11.210  1.00  0.00     0.033 C 
ATOM     27  C   UNL     1       8.457   0.376  10.542  1.00  0.00     0.120 C 
ATOM     28  C   UNL     1      10.353  -0.008   8.839  1.00  0.00     0.014 C 
ATOM     29  C   UNL     1       8.160   0.749   8.036  1.00  0.00     0.014 C 
ENDROOT
BRANCH   1  30
ATOM     30  C   UNL     1       9.061  -8.766  12.930  1.00  0.00     0.048 C 
ATOM     31  O   UNL     1       8.279  -9.749  12.767  1.00  0.00    -0.550 OA
ATOM     32  O   UNL     1      10.273  -8.957  13.599  1.00  0.00    -0.550 OA
ENDBRANCH   1  30
BRANCH  27  33
ATOM     33  O   UNL     1       9.575   0.331  11.394  1.00  0.00    -0.393 OA
ATOM     34  H   UNL     1       9.242   0.413  12.323  1.00  0.00     0.210 HD
ENDBRANCH  27  33
TORSDOF 2
ENDMDL
MODEL 2
REMARK VINA RESULT:    23.161      2.091      7.536
REMARK INTER + INTRA:          25.608
REMARK INTER:                  25.667
REMARK INTRA:                  -0.059
REMARK UNBOUND:                 0.416
REMARK SMILES C[C@H]1[C@H](C)CC[C@]2(C(=O)[O-])CC[C@@]3(C)C(=CC[C@H]4[C@@]5(C)CC[C@@H](O)C(C)(C)[C@H]5CC[C@]43C)[C@H]12
REMARK SMILES IDX 7 1 6 2 11 3 33 4 5 5 12 6 15 7 2 8 3 9 13 10 16 11 1 12
REMARK SMILES IDX 4 13 14 14 31 15 17 16 18 17 30 18 32 19 19 20 29 21 28 22
REMARK SMILES IDX 21 23 20 24 25 25 22 26 23 27 26 28 27 29 8 30 9 31 10 32
REMARK SMILES IDX 24 33
REMARK H PARENT 24 34
REMARK Flexibility Score: inf
ROOT
ATOM      1  C   UNL     1       7.165  -3.498   9.864  1.00  0.00     0.017 C 
ATOM      2  C   UNL     1       7.492  -3.177  11.365  1.00  0.00     0.014 C 
ATOM      3  C   UNL     1       5.875  -4.400   9.775  1.00  0.00     0.014 C 
ATOM      4  C   UNL     1       8.401  -4.200   9.214  1.00  0.00     0.030 C 
ATOM      5  C   UNL     1       8.989  -2.928  11.688  1.00  0.00     0.004 C 
ATOM      6  C   UNL     1       6.068  -5.765   9.060  1.00  0.00     0.013 C 
ATOM      7  C   UNL     1       8.498  -5.636   9.777  1.00  0.00    -0.063 C 
ATOM      8  C   UNL     1       9.706  -3.310   9.265  1.00  0.00    -0.003 C 
ATOM      9  C   UNL     1       9.760  -2.346  10.498  1.00  0.00    -0.011 C 
ATOM     10  C   UNL     1       7.356  -6.596   9.454  1.00  0.00    -0.006 C 
ATOM     11  C   UNL     1       9.557  -6.096  10.465  1.00  0.00    -0.027 C 
ATOM     12  C   UNL     1       9.906  -2.493   7.967  1.00  0.00     0.008 C 
ATOM     13  C   UNL     1      11.211  -2.008  10.904  1.00  0.00     0.008 C 
ATOM     14  C   UNL     1       7.838  -7.321   8.155  1.00  0.00     0.017 C 
ATOM     15  C   UNL     1       7.094  -7.636  10.671  1.00  0.00    -0.020 C 
ATOM     16  C   UNL     1       9.648  -7.443  11.098  1.00  0.00     0.032 C 
ATOM     17  C   UNL     1       8.420  -8.410  11.030  1.00  0.00     0.006 C 
ATOM     18  C   UNL     1       6.700  -6.903  11.965  1.00  0.00     0.008 C 
ATOM     19  C   UNL     1       5.923  -8.605  10.261  1.00  0.00     0.012 C 
ATOM     20  C   UNL     1       8.336  -9.451  12.291  1.00  0.00    -0.025 C 
ATOM     21  C   UNL     1       6.450  -7.799  13.190  1.00  0.00     0.005 C 
ATOM     22  C   UNL     1       7.045  -9.247  13.219  1.00  0.00     0.003 C 
ATOM     23  C   UNL     1       9.628  -9.466  13.197  1.00  0.00     0.010 C 
ATOM     24  C   UNL     1       8.282 -10.873  11.647  1.00  0.00     0.012 C 
ATOM     25  C   UNL     1       7.194  -9.748  14.730  1.00  0.00    -0.006 C 
ATOM     26  C   UNL     1       9.509  -8.575  14.454  1.00  0.00     0.033 C 
ATOM     27  C   UNL     1       8.419  -9.058  15.437  1.00  0.00     0.120 C 
ATOM     28  C   UNL     1       5.876  -9.474  15.523  1.00  0.00     0.014 C 
ATOM     29  C   UNL     1       7.361 -11.292  14.804  1.00  0.00     0.014 C 
ENDROOT
BRANCH   1  30
ATOM     30  C   UNL     1       6.854  -2.230   9.067  1.00  0.00     0.048 C 
ATOM     31  O   UNL     1       6.344  -2.272   7.908  1.00  0.00    -0.550 OA
ATOM     32  O   UNL     1       7.107  -0.990   9.660  1.00  0.00    -0.550 OA
ENDBRANCH   1  30
BRANCH  27  33
ATOM     33  O   UNL     1       7.997  -7.968  16.218  1.00  0.00    -0.393 OA
ATOM     34  H   UNL     1       8.134  -7.147  15.680  1.00  0.00     0.210 HD
ENDBRANCH  27  33
TORSDOF 2
ENDMDL
