MODEL 1
REMARK VINA RESULT:    -3.304      0.000      0.000
REMARK INTER + INTRA:          -6.294
REMARK INTER:                  -5.235
REMARK INTRA:                  -1.059
REMARK UNBOUND:                -1.059
REMARK SMILES CCCCCCCCCCCC(=O)[O-]
REMARK SMILES IDX 7 1 8 2 9 3 10 4 11 5 12 6 13 7 14 8 6 9 5 10 4 11 3 12 2 13
REMARK SMILES IDX 1 14
REMARK H PARENT
REMARK Flexibility Score: inf
ROOT
ATOM      1  C   UNL     1      44.124  32.413   4.599  1.00  0.00     0.000 C 
ENDROOT
BRANCH   1   2
ATOM      2  C   UNL     1      43.770  33.032   3.238  1.00  0.00     0.000 C 
BRANCH   2   3
ATOM      3  C   UNL     1      43.549  31.977   2.144  1.00  0.00     0.000 C 
BRANCH   3   4
ATOM      4  C   UNL     1      42.442  32.413   1.176  1.00  0.00     0.006 C 
BRANCH   4   5
ATOM      5  C   UNL     1      43.022  32.790  -0.190  1.00  0.00     0.053 C 
BRANCH   5   6
ATOM      6  C   UNL     1      41.958  32.749  -1.240  1.00  0.00     0.041 C 
ATOM      7  O   UNL     1      41.200  33.739  -1.413  1.00  0.00    -0.550 OA
ATOM      8  O   UNL     1      41.771  31.599  -1.997  1.00  0.00    -0.550 OA
ENDBRANCH   5   6
ENDBRANCH   4   5
ENDBRANCH   3   4
ENDBRANCH   2   3
ENDBRANCH   1   2
BRANCH   1   9
ATOM      9  C   UNL     1      44.125  30.874   4.565  1.00  0.00     0.000 C 
BRANCH   9  10
ATOM     10  C   UNL     1      42.949  30.266   5.348  1.00  0.00    -0.000 C 
BRANCH  10  11
ATOM     11  C   UNL     1      41.918  29.586   4.431  1.00  0.00    -0.000 C 
BRANCH  11  12
ATOM     12  C   UNL     1      40.473  29.790   4.913  1.00  0.00    -0.000 C 
BRANCH  12  13
ATOM     13  C   UNL     1      39.675  30.744   4.010  1.00  0.00    -0.003 C 
ATOM     14  C   UNL     1      40.211  32.169   4.111  1.00  0.00     0.004 C 
ENDBRANCH  12  13
ENDBRANCH  11  12
ENDBRANCH  10  11
ENDBRANCH   9  10
ENDBRANCH   1   9
TORSDOF 10
ENDMDL
MODEL 2
REMARK VINA RESULT:    -3.295      1.572      2.452
REMARK INTER + INTRA:          -6.281
REMARK INTER:                  -5.728
REMARK INTRA:                  -0.553
REMARK UNBOUND:                -1.059
REMARK SMILES CCCCCCCCCCCC(=O)[O-]
REMARK SMILES IDX 7 1 8 2 9 3 10 4 11 5 12 6 13 7 14 8 6 9 5 10 4 11 3 12 2 13
REMARK SMILES IDX 1 14
REMARK H PARENT
REMARK Flexibility Score: inf
ROOT
ATOM      1  C   UNL     1      43.792  31.894   3.399  1.00  0.00     0.000 C 
ENDROOT
BRANCH   1   2
ATOM      2  C   UNL     1      43.072  31.938   2.041  1.00  0.00     0.000 C 
BRANCH   2   3
ATOM      3  C   UNL     1      43.963  32.481   0.913  1.00  0.00     0.000 C 
BRANCH   3   4
ATOM      4  C   UNL     1      43.144  33.320  -0.076  1.00  0.00     0.006 C 
BRANCH   4   5
ATOM      5  C   UNL     1      41.657  32.961  -0.003  1.00  0.00     0.053 C 
BRANCH   5   6
ATOM      6  C   UNL     1      41.157  32.528  -1.344  1.00  0.00     0.041 C 
ATOM      7  O   UNL     1      40.029  32.909  -1.753  1.00  0.00    -0.550 OA
ATOM      8  O   UNL     1      41.915  31.664  -2.125  1.00  0.00    -0.550 OA
ENDBRANCH   5   6
ENDBRANCH   4   5
ENDBRANCH   3   4
ENDBRANCH   2   3
ENDBRANCH   1   2
BRANCH   1   9
ATOM      9  C   UNL     1      43.251  30.785   4.318  1.00  0.00     0.000 C 
BRANCH   9  10
ATOM     10  C   UNL     1      41.849  30.305   3.903  1.00  0.00    -0.000 C 
BRANCH  10  11
ATOM     11  C   UNL     1      41.139  29.522   5.020  1.00  0.00    -0.000 C 
BRANCH  11  12
ATOM     12  C   UNL     1      42.105  29.062   6.125  1.00  0.00    -0.000 C 
BRANCH  12  13
ATOM     13  C   UNL     1      42.287  27.536   6.154  1.00  0.00    -0.003 C 
ATOM     14  C   UNL     1      41.295  26.885   7.113  1.00  0.00     0.004 C 
ENDBRANCH  12  13
ENDBRANCH  11  12
ENDBRANCH  10  11
ENDBRANCH   9  10
ENDBRANCH   1   9
TORSDOF 10
ENDMDL
MODEL 3
REMARK VINA RESULT:    -3.287     18.337     20.503
REMARK INTER + INTRA:          -6.268
REMARK INTER:                  -5.829
REMARK INTRA:                  -0.438
REMARK UNBOUND:                -1.059
REMARK SMILES CCCCCCCCCCCC(=O)[O-]
REMARK SMILES IDX 7 1 8 2 9 3 10 4 11 5 12 6 13 7 14 8 6 9 5 10 4 11 3 12 2 13
REMARK SMILES IDX 1 14
REMARK H PARENT
REMARK Flexibility Score: inf
ROOT
ATOM      1  C   UNL     1      25.178  41.764   3.497  1.00  0.00     0.000 C 
ENDROOT
BRANCH   1   2
ATOM      2  C   UNL     1      23.934  41.884   4.393  1.00  0.00     0.000 C 
BRANCH   2   3
ATOM      3  C   UNL     1      24.281  42.250   5.844  1.00  0.00     0.000 C 
BRANCH   3   4
ATOM      4  C   UNL     1      24.312  43.772   6.034  1.00  0.00     0.006 C 
BRANCH   4   5
ATOM      5  C   UNL     1      25.590  44.209   6.757  1.00  0.00     0.053 C 
BRANCH   5   6
ATOM      6  C   UNL     1      26.170  45.424   6.106  1.00  0.00     0.041 C 
ATOM      7  O   UNL     1      25.445  46.168   5.393  1.00  0.00    -0.550 OA
ATOM      8  O   UNL     1      27.522  45.710   6.244  1.00  0.00    -0.550 OA
ENDBRANCH   5   6
ENDBRANCH   4   5
ENDBRANCH   3   4
ENDBRANCH   2   3
ENDBRANCH   1   2
BRANCH   1   9
ATOM      9  C   UNL     1      24.981  40.761   2.347  1.00  0.00     0.000 C 
BRANCH   9  10
ATOM     10  C   UNL     1      26.284  40.036   1.968  1.00  0.00    -0.000 C 
BRANCH  10  11
ATOM     11  C   UNL     1      26.083  39.019   0.830  1.00  0.00    -0.000 C 
BRANCH  11  12
ATOM     12  C   UNL     1      25.117  39.528  -0.253  1.00  0.00    -0.000 C 
BRANCH  12  13
ATOM     13  C   UNL     1      25.848  40.080  -1.487  1.00  0.00    -0.003 C 
ATOM     14  C   UNL     1      27.230  39.450  -1.632  1.00  0.00     0.004 C 
ENDBRANCH  12  13
ENDBRANCH  11  12
ENDBRANCH  10  11
ENDBRANCH   9  10
ENDBRANCH   1   9
TORSDOF 10
ENDMDL
MODEL 4
REMARK VINA RESULT:    -3.285     18.447     19.864
REMARK INTER + INTRA:          -6.264
REMARK INTER:                  -5.671
REMARK INTRA:                  -0.593
REMARK UNBOUND:                -1.059
REMARK SMILES CCCCCCCCCCCC(=O)[O-]
REMARK SMILES IDX 7 1 8 2 9 3 10 4 11 5 12 6 13 7 14 8 6 9 5 10 4 11 3 12 2 13
REMARK SMILES IDX 1 14
REMARK H PARENT
REMARK Flexibility Score: inf
ROOT
ATOM      1  C   UNL     1      25.790  41.728   3.233  1.00  0.00     0.000 C 
ENDROOT
BRANCH   1   2
ATOM      2  C   UNL     1      24.368  41.145   3.249  1.00  0.00     0.000 C 
BRANCH   2   3
ATOM      3  C   UNL     1      24.141  40.101   2.145  1.00  0.00     0.000 C 
BRANCH   3   4
ATOM      4  C   UNL     1      25.343  40.040   1.193  1.00  0.00     0.006 C 
BRANCH   4   5
ATOM      5  C   UNL     1      24.943  39.447  -0.161  1.00  0.00     0.053 C 
BRANCH   5   6
ATOM      6  C   UNL     1      26.057  39.595  -1.147  1.00  0.00     0.041 C 
ATOM      7  O   UNL     1      27.074  38.857  -1.069  1.00  0.00    -0.550 OA
ATOM      8  O   UNL     1      25.997  40.581  -2.123  1.00  0.00    -0.550 OA
ENDBRANCH   5   6
ENDBRANCH   4   5
ENDBRANCH   3   4
ENDBRANCH   2   3
ENDBRANCH   1   2
BRANCH   1   9
ATOM      9  C   UNL     1      25.915  43.001   4.089  1.00  0.00     0.000 C 
BRANCH   9  10
ATOM     10  C   UNL     1      25.032  42.955   5.347  1.00  0.00    -0.000 C 
BRANCH  10  11
ATOM     11  C   UNL     1      25.164  44.224   6.207  1.00  0.00    -0.000 C 
BRANCH  11  12
ATOM     12  C   UNL     1      25.852  45.376   5.457  1.00  0.00    -0.000 C 
BRANCH  12  13
ATOM     13  C   UNL     1      26.943  46.062   6.296  1.00  0.00    -0.003 C 
ATOM     14  C   UNL     1      28.166  45.162   6.443  1.00  0.00     0.004 C 
ENDBRANCH  12  13
ENDBRANCH  11  12
ENDBRANCH  10  11
ENDBRANCH   9  10
ENDBRANCH   1   9
TORSDOF 10
ENDMDL
MODEL 5
REMARK VINA RESULT:    -3.271     18.066     20.198
REMARK INTER + INTRA:          -6.243
REMARK INTER:                  -5.753
REMARK INTRA:                  -0.489
REMARK UNBOUND:                -1.059
REMARK SMILES CCCCCCCCCCCC(=O)[O-]
REMARK SMILES IDX 7 1 8 2 9 3 10 4 11 5 12 6 13 7 14 8 6 9 5 10 4 11 3 12 2 13
REMARK SMILES IDX 1 14
REMARK H PARENT
REMARK Flexibility Score: inf
ROOT
ATOM      1  C   UNL     1      25.719  41.427   3.206  1.00  0.00     0.000 C 
ENDROOT
BRANCH   1   2
ATOM      2  C   UNL     1      25.910  42.824   3.818  1.00  0.00     0.000 C 
BRANCH   2   3
ATOM      3  C   UNL     1      27.385  43.249   3.880  1.00  0.00     0.000 C 
BRANCH   3   4
ATOM      4  C   UNL     1      27.676  44.034   5.166  1.00  0.00     0.006 C 
BRANCH   4   5
ATOM      5  C   UNL     1      26.379  44.534   5.809  1.00  0.00     0.053 C 
BRANCH   5   6
ATOM      6  C   UNL     1      26.423  46.019   5.988  1.00  0.00     0.041 C 
ATOM      7  O   UNL     1      27.230  46.535   6.805  1.00  0.00    -0.550 OA
ATOM      8  O   UNL     1      25.539  46.830   5.288  1.00  0.00    -0.550 OA
ENDBRANCH   5   6
ENDBRANCH   4   5
ENDBRANCH   3   4
ENDBRANCH   2   3
ENDBRANCH   1   2
BRANCH   1   9
ATOM      9  C   UNL     1      24.260  41.154   2.802  1.00  0.00     0.000 C 
BRANCH   9  10
ATOM     10  C   UNL     1      24.147  40.161   1.632  1.00  0.00    -0.000 C 
BRANCH  10  11
ATOM     11  C   UNL     1      25.471  40.001   0.864  1.00  0.00    -0.000 C 
BRANCH  11  12
ATOM     12  C   UNL     1      25.255  39.668  -0.621  1.00  0.00    -0.000 C 
BRANCH  12  13
ATOM     13  C   UNL     1      26.555  39.259  -1.331  1.00  0.00    -0.003 C 
ATOM     14  C   UNL     1      27.709  39.146  -0.339  1.00  0.00     0.004 C 
ENDBRANCH  12  13
ENDBRANCH  11  12
ENDBRANCH  10  11
ENDBRANCH   9  10
ENDBRANCH   1   9
TORSDOF 10
ENDMDL
MODEL 6
REMARK VINA RESULT:    -3.267      3.596      5.834
REMARK INTER + INTRA:          -6.236
REMARK INTER:                  -5.447
REMARK INTRA:                  -0.789
REMARK UNBOUND:                -1.059
REMARK SMILES CCCCCCCCCCCC(=O)[O-]
REMARK SMILES IDX 7 1 8 2 9 3 10 4 11 5 12 6 13 7 14 8 6 9 5 10 4 11 3 12 2 13
REMARK SMILES IDX 1 14
REMARK H PARENT
REMARK Flexibility Score: inf
ROOT
ATOM      1  C   UNL     1      42.613  32.472   1.192  1.00  0.00     0.000 C 
ENDROOT
BRANCH   1   2
ATOM      2  C   UNL     1      43.902  32.119   1.951  1.00  0.00     0.000 C 
BRANCH   2   3
ATOM      3  C   UNL     1      43.633  31.346   3.252  1.00  0.00     0.000 C 
BRANCH   3   4
ATOM      4  C   UNL     1      42.127  31.173   3.484  1.00  0.00     0.006 C 
BRANCH   4   5
ATOM      5  C   UNL     1      41.830  29.851   4.199  1.00  0.00     0.053 C 
BRANCH   5   6
ATOM      6  C   UNL     1      42.231  29.932   5.637  1.00  0.00     0.041 C 
ATOM      7  O   UNL     1      41.597  30.676   6.431  1.00  0.00    -0.550 OA
ATOM      8  O   UNL     1      43.337  29.225   6.093  1.00  0.00    -0.550 OA
ENDBRANCH   5   6
ENDBRANCH   4   5
ENDBRANCH   3   4
ENDBRANCH   2   3
ENDBRANCH   1   2
BRANCH   1   9
ATOM      9  C   UNL     1      42.892  33.074  -0.197  1.00  0.00     0.000 C 
BRANCH   9  10
ATOM     10  C   UNL     1      42.002  32.464  -1.293  1.00  0.00    -0.000 C 
BRANCH  10  11
ATOM     11  C   UNL     1      40.915  33.439  -1.780  1.00  0.00    -0.000 C 
BRANCH  11  12
ATOM     12  C   UNL     1      39.567  33.221  -1.072  1.00  0.00    -0.000 C 
BRANCH  12  13
ATOM     13  C   UNL     1      39.253  34.322  -0.047  1.00  0.00    -0.003 C 
ATOM     14  C   UNL     1      39.171  33.748   1.365  1.00  0.00     0.004 C 
ENDBRANCH  12  13
ENDBRANCH  11  12
ENDBRANCH  10  11
ENDBRANCH   9  10
ENDBRANCH   1   9
TORSDOF 10
ENDMDL
MODEL 7
REMARK VINA RESULT:    -3.263     18.118     20.271
REMARK INTER + INTRA:          -6.229
REMARK INTER:                  -5.293
REMARK INTRA:                  -0.936
REMARK UNBOUND:                -1.059
REMARK SMILES CCCCCCCCCCCC(=O)[O-]
REMARK SMILES IDX 7 1 8 2 9 3 10 4 11 5 12 6 13 7 14 8 6 9 5 10 4 11 3 12 2 13
REMARK SMILES IDX 1 14
REMARK H PARENT
REMARK Flexibility Score: inf
ROOT
ATOM      1  C   UNL     1      26.377  41.158   3.470  1.00  0.00     0.000 C 
ENDROOT
BRANCH   1   2
ATOM      2  C   UNL     1      27.252  42.360   3.861  1.00  0.00     0.000 C 
BRANCH   2   3
ATOM      3  C   UNL     1      26.454  43.669   3.960  1.00  0.00     0.000 C 
BRANCH   3   4
ATOM      4  C   UNL     1      26.558  44.270   5.368  1.00  0.00     0.006 C 
BRANCH   4   5
ATOM      5  C   UNL     1      25.175  44.404   6.012  1.00  0.00     0.053 C 
BRANCH   5   6
ATOM      6  C   UNL     1      25.018  43.416   7.124  1.00  0.00     0.041 C 
ATOM      7  O   UNL     1      24.903  42.189   6.870  1.00  0.00    -0.550 OA
ATOM      8  O   UNL     1      24.949  43.855   8.440  1.00  0.00    -0.550 OA
ENDBRANCH   5   6
ENDBRANCH   4   5
ENDBRANCH   3   4
ENDBRANCH   2   3
ENDBRANCH   1   2
BRANCH   1   9
ATOM      9  C   UNL     1      24.878  41.505   3.437  1.00  0.00     0.000 C 
BRANCH   9  10
ATOM     10  C   UNL     1      24.136  40.808   2.284  1.00  0.00    -0.000 C 
BRANCH  10  11
ATOM     11  C   UNL     1      24.970  39.689   1.637  1.00  0.00    -0.000 C 
BRANCH  11  12
ATOM     12  C   UNL     1      24.747  39.588   0.119  1.00  0.00    -0.000 C 
BRANCH  12  13
ATOM     13  C   UNL     1      26.048  39.752  -0.684  1.00  0.00    -0.003 C 
ATOM     14  C   UNL     1      27.263  39.388   0.164  1.00  0.00     0.004 C 
ENDBRANCH  12  13
ENDBRANCH  11  12
ENDBRANCH  10  11
ENDBRANCH   9  10
ENDBRANCH   1   9
TORSDOF 10
ENDMDL
MODEL 8
REMARK VINA RESULT:    -3.199     17.126     19.341
REMARK INTER + INTRA:          -6.128
REMARK INTER:                  -4.942
REMARK INTRA:                  -1.186
REMARK UNBOUND:                -1.059
REMARK SMILES CCCCCCCCCCCC(=O)[O-]
REMARK SMILES IDX 7 1 8 2 9 3 10 4 11 5 12 6 13 7 14 8 6 9 5 10 4 11 3 12 2 13
REMARK SMILES IDX 1 14
REMARK H PARENT
REMARK Flexibility Score: inf
ROOT
ATOM      1  C   UNL     1      24.182  39.161   0.141  1.00  0.00     0.000 C 
ENDROOT
BRANCH   1   2
ATOM      2  C   UNL     1      24.082  39.317   1.668  1.00  0.00     0.000 C 
BRANCH   2   3
ATOM      3  C   UNL     1      24.232  40.776   2.127  1.00  0.00     0.000 C 
BRANCH   3   4
ATOM      4  C   UNL     1      24.930  40.852   3.491  1.00  0.00     0.006 C 
BRANCH   4   5
ATOM      5  C   UNL     1      24.293  41.929   4.374  1.00  0.00     0.053 C 
BRANCH   5   6
ATOM      6  C   UNL     1      25.310  42.953   4.766  1.00  0.00     0.041 C 
ATOM      7  O   UNL     1      25.347  43.389   5.947  1.00  0.00    -0.550 OA
ATOM      8  O   UNL     1      26.187  43.463   3.817  1.00  0.00    -0.550 OA
ENDBRANCH   5   6
ENDBRANCH   4   5
ENDBRANCH   3   4
ENDBRANCH   2   3
ENDBRANCH   1   2
BRANCH   1   9
ATOM      9  C   UNL     1      25.392  39.905  -0.450  1.00  0.00     0.000 C 
BRANCH   9  10
ATOM     10  C   UNL     1      26.461  38.947  -1.002  1.00  0.00    -0.000 C 
BRANCH  10  11
ATOM     11  C   UNL     1      27.854  39.210  -0.402  1.00  0.00    -0.000 C 
BRANCH  11  12
ATOM     12  C   UNL     1      27.842  39.220   1.135  1.00  0.00    -0.000 C 
BRANCH  12  13
ATOM     13  C   UNL     1      27.868  37.806   1.737  1.00  0.00    -0.003 C 
ATOM     14  C   UNL     1      27.039  37.741   3.017  1.00  0.00     0.004 C 
ENDBRANCH  12  13
ENDBRANCH  11  12
ENDBRANCH  10  11
ENDBRANCH   9  10
ENDBRANCH   1   9
TORSDOF 10
ENDMDL
MODEL 9
REMARK VINA RESULT:    -3.163     18.240     19.936
REMARK INTER + INTRA:          -6.071
REMARK INTER:                  -5.409
REMARK INTRA:                  -0.662
REMARK UNBOUND:                -1.059
REMARK SMILES CCCCCCCCCCCC(=O)[O-]
REMARK SMILES IDX 7 1 8 2 9 3 10 4 11 5 12 6 13 7 14 8 6 9 5 10 4 11 3 12 2 13
REMARK SMILES IDX 1 14
REMARK H PARENT
REMARK Flexibility Score: inf
ROOT
ATOM      1  C   UNL     1      25.504  41.355   3.986  1.00  0.00     0.000 C 
ENDROOT
BRANCH   1   2
ATOM      2  C   UNL     1      25.519  41.035   2.483  1.00  0.00     0.000 C 
BRANCH   2   3
ATOM      3  C   UNL     1      24.169  40.508   1.974  1.00  0.00     0.000 C 
BRANCH   3   4
ATOM      4  C   UNL     1      24.346  39.712   0.674  1.00  0.00     0.006 C 
BRANCH   4   5
ATOM      5  C   UNL     1      25.820  39.380   0.429  1.00  0.00     0.053 C 
BRANCH   5   6
ATOM      6  C   UNL     1      26.135  39.440  -1.032  1.00  0.00     0.041 C 
ATOM      7  O   UNL     1      25.717  40.400  -1.731  1.00  0.00    -0.550 OA
ATOM      8  O   UNL     1      26.847  38.410  -1.633  1.00  0.00    -0.550 OA
ENDBRANCH   5   6
ENDBRANCH   4   5
ENDBRANCH   3   4
ENDBRANCH   2   3
ENDBRANCH   1   2
BRANCH   1   9
ATOM      9  C   UNL     1      24.078  41.491   4.547  1.00  0.00     0.000 C 
BRANCH   9  10
ATOM     10  C   UNL     1      23.929  42.691   5.497  1.00  0.00    -0.000 C 
BRANCH  10  11
ATOM     11  C   UNL     1      25.092  43.691   5.372  1.00  0.00    -0.000 C 
BRANCH  11  12
ATOM     12  C   UNL     1      25.620  44.157   6.739  1.00  0.00    -0.000 C 
BRANCH  12  13
ATOM     13  C   UNL     1      24.746  43.675   7.907  1.00  0.00    -0.003 C 
ATOM     14  C   UNL     1      25.545  43.632   9.207  1.00  0.00     0.004 C 
ENDBRANCH  12  13
ENDBRANCH  11  12
ENDBRANCH  10  11
ENDBRANCH   9  10
ENDBRANCH   1   9
TORSDOF 10
ENDMDL
