MODEL 1
REMARK VINA RESULT:    -6.095      0.000      0.000
REMARK INTER + INTRA:          -6.984
REMARK INTER:                  -7.342
REMARK INTRA:                   0.358
REMARK UNBOUND:                 0.358
REMARK SMILES O=c1c(O)c(-c2ccc(O)c(O)c2)oc2cc(O)cc(O)c12
REMARK SMILES IDX 5 1 3 2 2 3 1 4 22 5 20 6 19 7 17 8 16 9 15 10 14 11 6 12
REMARK SMILES IDX 7 13 8 14 9 15 13 16 11 17 10 18 12 20 4 22 21 24 18 26
REMARK H PARENT 10 19 12 21 4 23 21 25 18 27
REMARK Flexibility Score: inf
ROOT
ATOM      1  C   UNL     1     101.784 136.806  59.746  1.00  0.00     0.180 A 
ATOM      2  C   UNL     1     101.003 137.973  59.724  1.00  0.00     0.208 A 
ATOM      3  C   UNL     1      99.603 137.857  59.741  1.00  0.00     0.238 A 
ATOM      4  O   UNL     1      98.911 138.906  59.776  1.00  0.00    -0.285 OA
ATOM      5  C   UNL     1      99.004 136.575  59.764  1.00  0.00     0.111 A 
ATOM      6  C   UNL     1      97.596 136.338  59.744  1.00  0.00     0.134 A 
ATOM      7  C   UNL     1      97.113 135.033  59.903  1.00  0.00     0.093 A 
ATOM      8  C   UNL     1      97.984 133.951  60.016  1.00  0.00     0.123 A 
ATOM      9  C   UNL     1      99.363 134.164  59.977  1.00  0.00     0.094 A 
ATOM     10  C   UNL     1      99.875 135.459  59.857  1.00  0.00     0.146 A 
ATOM     11  O   UNL     1     101.193 135.620  59.834  1.00  0.00    -0.452 OA
ENDROOT
BRANCH   1  12
ATOM     12  C   UNL     1     103.264 136.846  59.704  1.00  0.00     0.025 A 
ATOM     13  C   UNL     1     103.976 137.990  60.107  1.00  0.00     0.016 A 
ATOM     14  C   UNL     1     105.371 138.014  60.036  1.00  0.00     0.051 A 
ATOM     15  C   UNL     1     106.074 136.904  59.551  1.00  0.00     0.157 A 
ATOM     16  C   UNL     1     103.972 135.744  59.200  1.00  0.00     0.062 A 
ATOM     17  C   UNL     1     105.370 135.764  59.128  1.00  0.00     0.158 A 
BRANCH  15  18
ATOM     18  O   UNL     1     107.467 136.931  59.484  1.00  0.00    -0.504 OA
ATOM     19  H   UNL     1     107.955 137.505  58.807  1.00  0.00     0.293 HD
ENDBRANCH  15  18
BRANCH  17  20
ATOM     20  O   UNL     1     106.039 134.646  58.634  1.00  0.00    -0.504 OA
ATOM     21  H   UNL     1     105.683 133.705  58.759  1.00  0.00     0.293 HD
ENDBRANCH  17  20
ENDBRANCH   1  12
BRANCH   2  22
ATOM     22  O   UNL     1     101.615 139.230  59.722  1.00  0.00    -0.502 OA
ATOM     23  H   UNL     1     101.947 139.675  60.569  1.00  0.00     0.293 HD
ENDBRANCH   2  22
BRANCH   6  24
ATOM     24  O   UNL     1      96.640 137.338  59.545  1.00  0.00    -0.507 OA
ATOM     25  H   UNL     1      96.676 138.031  58.813  1.00  0.00     0.293 HD
ENDBRANCH   6  24
BRANCH   8  26
ATOM     26  O   UNL     1      97.469 132.665  60.156  1.00  0.00    -0.508 OA
ATOM     27  H   UNL     1      97.501 132.174  61.042  1.00  0.00     0.293 HD
ENDBRANCH   8  26
TORSDOF 6
ENDMDL
MODEL 2
REMARK VINA RESULT:    -6.088      6.184     10.479
REMARK INTER + INTRA:          -6.976
REMARK INTER:                  -6.655
REMARK INTRA:                  -0.322
REMARK UNBOUND:                 0.358
REMARK SMILES O=c1c(O)c(-c2ccc(O)c(O)c2)oc2cc(O)cc(O)c12
REMARK SMILES IDX 5 1 3 2 2 3 1 4 22 5 20 6 19 7 17 8 16 9 15 10 14 11 6 12
REMARK SMILES IDX 7 13 8 14 9 15 13 16 11 17 10 18 12 20 4 22 21 24 18 26
REMARK H PARENT 10 19 12 21 4 23 21 25 18 27
REMARK Flexibility Score: inf
ROOT
ATOM      1  C   UNL     1     108.537 139.498  56.751  1.00  0.00     0.180 A 
ATOM      2  C   UNL     1     109.839 139.934  57.047  1.00  0.00     0.208 A 
ATOM      3  C   UNL     1     110.445 140.887  56.211  1.00  0.00     0.238 A 
ATOM      4  O   UNL     1     111.590 141.314  56.512  1.00  0.00    -0.285 OA
ATOM      5  C   UNL     1     109.747 141.378  55.082  1.00  0.00     0.111 A 
ATOM      6  C   UNL     1     110.278 142.315  54.146  1.00  0.00     0.134 A 
ATOM      7  C   UNL     1     109.452 142.832  53.139  1.00  0.00     0.093 A 
ATOM      8  C   UNL     1     108.135 142.397  52.997  1.00  0.00     0.123 A 
ATOM      9  C   UNL     1     107.623 141.437  53.871  1.00  0.00     0.094 A 
ATOM     10  C   UNL     1     108.412 140.931  54.907  1.00  0.00     0.146 A 
ATOM     11  O   UNL     1     107.884 140.027  55.723  1.00  0.00    -0.452 OA
ENDROOT
BRANCH   1  12
ATOM     12  C   UNL     1     107.842 138.479  57.569  1.00  0.00     0.025 A 
ATOM     13  C   UNL     1     107.102 138.837  58.711  1.00  0.00     0.016 A 
ATOM     14  C   UNL     1     106.474 137.855  59.482  1.00  0.00     0.051 A 
ATOM     15  C   UNL     1     106.586 136.503  59.134  1.00  0.00     0.157 A 
ATOM     16  C   UNL     1     107.967 137.120  57.237  1.00  0.00     0.062 A 
ATOM     17  C   UNL     1     107.339 136.135  58.006  1.00  0.00     0.158 A 
BRANCH  15  18
ATOM     18  O   UNL     1     105.956 135.526  59.904  1.00  0.00    -0.504 OA
ATOM     19  H   UNL     1     105.457 134.754  59.479  1.00  0.00     0.293 HD
ENDBRANCH  15  18
BRANCH  17  20
ATOM     20  O   UNL     1     107.476 134.797  57.636  1.00  0.00    -0.504 OA
ATOM     21  H   UNL     1     108.224 134.480  57.031  1.00  0.00     0.293 HD
ENDBRANCH  17  20
ENDBRANCH   1  12
BRANCH   2  22
ATOM     22  O   UNL     1     110.503 139.453  58.179  1.00  0.00    -0.502 OA
ATOM     23  H   UNL     1     110.663 140.022  59.000  1.00  0.00     0.293 HD
ENDBRANCH   2  22
BRANCH   6  24
ATOM     24  O   UNL     1     111.608 142.747  54.143  1.00  0.00    -0.507 OA
ATOM     25  H   UNL     1     112.409 142.144  54.262  1.00  0.00     0.293 HD
ENDBRANCH   6  24
BRANCH   8  26
ATOM     26  O   UNL     1     107.345 142.920  51.975  1.00  0.00    -0.508 OA
ATOM     27  H   UNL     1     106.334 142.852  51.998  1.00  0.00     0.293 HD
ENDBRANCH   8  26
TORSDOF 6
ENDMDL
MODEL 3
REMARK VINA RESULT:    -5.831      5.997     11.018
REMARK INTER + INTRA:          -6.667
REMARK INTER:                  -6.337
REMARK INTRA:                  -0.330
REMARK UNBOUND:                 0.358
REMARK SMILES O=c1c(O)c(-c2ccc(O)c(O)c2)oc2cc(O)cc(O)c12
REMARK SMILES IDX 5 1 3 2 2 3 1 4 22 5 20 6 19 7 17 8 16 9 15 10 14 11 6 12
REMARK SMILES IDX 7 13 8 14 9 15 13 16 11 17 10 18 12 20 4 22 21 24 18 26
REMARK H PARENT 10 19 12 21 4 23 21 25 18 27
REMARK Flexibility Score: inf
ROOT
ATOM      1  C   UNL     1     108.872 139.452  57.129  1.00  0.00     0.180 A 
ATOM      2  C   UNL     1     108.451 140.233  56.039  1.00  0.00     0.208 A 
ATOM      3  C   UNL     1     109.325 141.201  55.517  1.00  0.00     0.238 A 
ATOM      4  O   UNL     1     108.963 141.859  54.507  1.00  0.00    -0.285 OA
ATOM      5  C   UNL     1     110.600 141.386  56.101  1.00  0.00     0.111 A 
ATOM      6  C   UNL     1     111.551 142.364  55.679  1.00  0.00     0.134 A 
ATOM      7  C   UNL     1     112.833 142.371  56.244  1.00  0.00     0.093 A 
ATOM      8  C   UNL     1     113.176 141.480  57.259  1.00  0.00     0.123 A 
ATOM      9  C   UNL     1     112.236 140.558  57.721  1.00  0.00     0.094 A 
ATOM     10  C   UNL     1     110.961 140.503  57.152  1.00  0.00     0.146 A 
ATOM     11  O   UNL     1     110.099 139.605  57.613  1.00  0.00    -0.452 OA
ENDROOT
BRANCH   1  12
ATOM     12  C   UNL     1     107.999 138.430  57.750  1.00  0.00     0.025 A 
ATOM     13  C   UNL     1     107.067 138.772  58.746  1.00  0.00     0.016 A 
ATOM     14  C   UNL     1     106.270 137.787  59.336  1.00  0.00     0.051 A 
ATOM     15  C   UNL     1     106.402 136.446  58.950  1.00  0.00     0.157 A 
ATOM     16  C   UNL     1     108.141 137.082  57.382  1.00  0.00     0.062 A 
ATOM     17  C   UNL     1     107.344 136.093  57.969  1.00  0.00     0.158 A 
BRANCH  15  18
ATOM     18  O   UNL     1     105.603 135.466  59.539  1.00  0.00    -0.504 OA
ATOM     19  H   UNL     1     104.598 135.453  59.412  1.00  0.00     0.293 HD
ENDBRANCH  15  18
BRANCH  17  20
ATOM     20  O   UNL     1     107.504 134.767  57.568  1.00  0.00    -0.504 OA
ATOM     21  H   UNL     1     106.739 134.224  57.186  1.00  0.00     0.293 HD
ENDBRANCH  17  20
ENDBRANCH   1  12
BRANCH   2  22
ATOM     22  O   UNL     1     107.196 140.019  55.463  1.00  0.00    -0.502 OA
ATOM     23  H   UNL     1     106.615 139.225  55.701  1.00  0.00     0.293 HD
ENDBRANCH   2  22
BRANCH   6  24
ATOM     24  O   UNL     1     111.279 143.360  54.736  1.00  0.00    -0.507 OA
ATOM     25  H   UNL     1     111.797 144.220  54.642  1.00  0.00     0.293 HD
ENDBRANCH   6  24
BRANCH   8  26
ATOM     26  O   UNL     1     114.456 141.525  57.809  1.00  0.00    -0.508 OA
ATOM     27  H   UNL     1     115.191 142.088  57.397  1.00  0.00     0.293 HD
ENDBRANCH   8  26
TORSDOF 6
ENDMDL
MODEL 4
REMARK VINA RESULT:    -5.805      9.452     12.319
REMARK INTER + INTRA:          -6.635
REMARK INTER:                  -6.335
REMARK INTRA:                  -0.300
REMARK UNBOUND:                 0.358
REMARK SMILES O=c1c(O)c(-c2ccc(O)c(O)c2)oc2cc(O)cc(O)c12
REMARK SMILES IDX 5 1 3 2 2 3 1 4 22 5 20 6 19 7 17 8 16 9 15 10 14 11 6 12
REMARK SMILES IDX 7 13 8 14 9 15 13 16 11 17 10 18 12 20 4 22 21 24 18 26
REMARK H PARENT 10 19 12 21 4 23 21 25 18 27
REMARK Flexibility Score: inf
ROOT
ATOM      1  C   UNL     1     110.030 141.967  52.781  1.00  0.00     0.180 A 
ATOM      2  C   UNL     1     110.542 141.853  54.085  1.00  0.00     0.208 A 
ATOM      3  C   UNL     1     109.653 141.634  55.149  1.00  0.00     0.238 A 
ATOM      4  O   UNL     1     110.122 141.478  56.306  1.00  0.00    -0.285 OA
ATOM      5  C   UNL     1     108.262 141.548  54.898  1.00  0.00     0.111 A 
ATOM      6  C   UNL     1     107.267 141.367  55.905  1.00  0.00     0.134 A 
ATOM      7  C   UNL     1     105.932 141.165  55.530  1.00  0.00     0.093 A 
ATOM      8  C   UNL     1     105.549 141.201  54.190  1.00  0.00     0.123 A 
ATOM      9  C   UNL     1     106.504 141.436  53.201  1.00  0.00     0.094 A 
ATOM     10  C   UNL     1     107.849 141.605  53.542  1.00  0.00     0.146 A 
ATOM     11  O   UNL     1     108.728 141.817  52.570  1.00  0.00    -0.452 OA
ENDROOT
BRANCH   1  12
ATOM     12  C   UNL     1     110.902 142.223  51.612  1.00  0.00     0.025 A 
ATOM     13  C   UNL     1     111.035 143.514  51.068  1.00  0.00     0.016 A 
ATOM     14  C   UNL     1     111.844 143.728  49.949  1.00  0.00     0.051 A 
ATOM     15  C   UNL     1     112.520 142.657  49.350  1.00  0.00     0.157 A 
ATOM     16  C   UNL     1     111.565 141.151  50.995  1.00  0.00     0.062 A 
ATOM     17  C   UNL     1     112.378 141.362  49.874  1.00  0.00     0.158 A 
BRANCH  15  18
ATOM     18  O   UNL     1     113.329 142.875  48.234  1.00  0.00    -0.504 OA
ATOM     19  H   UNL     1     113.567 142.126  47.596  1.00  0.00     0.293 HD
ENDBRANCH  15  18
BRANCH  17  20
ATOM     20  O   UNL     1     113.031 140.274  49.297  1.00  0.00    -0.504 OA
ATOM     21  H   UNL     1     113.942 139.963  49.614  1.00  0.00     0.293 HD
ENDBRANCH  17  20
ENDBRANCH   1  12
BRANCH   2  22
ATOM     22  O   UNL     1     111.920 141.919  54.308  1.00  0.00    -0.502 OA
ATOM     23  H   UNL     1     112.332 141.772  55.221  1.00  0.00     0.293 HD
ENDBRANCH   2  22
BRANCH   6  24
ATOM     24  O   UNL     1     107.530 141.406  57.278  1.00  0.00    -0.507 OA
ATOM     25  H   UNL     1     107.370 140.641  57.916  1.00  0.00     0.293 HD
ENDBRANCH   6  24
BRANCH   8  26
ATOM     26  O   UNL     1     104.210 141.012  53.853  1.00  0.00    -0.508 OA
ATOM     27  H   UNL     1     103.924 140.829  52.898  1.00  0.00     0.293 HD
ENDBRANCH   8  26
TORSDOF 6
ENDMDL
MODEL 5
REMARK VINA RESULT:    -5.741      6.520      9.828
REMARK INTER + INTRA:          -6.558
REMARK INTER:                  -6.348
REMARK INTRA:                  -0.209
REMARK UNBOUND:                 0.358
REMARK SMILES O=c1c(O)c(-c2ccc(O)c(O)c2)oc2cc(O)cc(O)c12
REMARK SMILES IDX 5 1 3 2 2 3 1 4 22 5 20 6 19 7 17 8 16 9 15 10 14 11 6 12
REMARK SMILES IDX 7 13 8 14 9 15 13 16 11 17 10 18 12 20 4 22 21 24 18 26
REMARK H PARENT 10 19 12 21 4 23 21 25 18 27
REMARK Flexibility Score: inf
ROOT
ATOM      1  C   UNL     1     107.572 139.726  56.743  1.00  0.00     0.180 A 
ATOM      2  C   UNL     1     106.663 140.753  56.434  1.00  0.00     0.208 A 
ATOM      3  C   UNL     1     106.943 141.609  55.356  1.00  0.00     0.238 A 
ATOM      4  O   UNL     1     106.100 142.491  55.050  1.00  0.00    -0.285 OA
ATOM      5  C   UNL     1     108.135 141.437  54.612  1.00  0.00     0.111 A 
ATOM      6  C   UNL     1     108.539 142.270  53.526  1.00  0.00     0.134 A 
ATOM      7  C   UNL     1     109.673 141.928  52.777  1.00  0.00     0.093 A 
ATOM      8  C   UNL     1     110.452 140.823  53.116  1.00  0.00     0.123 A 
ATOM      9  C   UNL     1     110.100 140.036  54.213  1.00  0.00     0.094 A 
ATOM     10  C   UNL     1     108.954 140.330  54.956  1.00  0.00     0.146 A 
ATOM     11  O   UNL     1     108.648 139.550  55.986  1.00  0.00    -0.452 OA
ENDROOT
BRANCH   1  12
ATOM     12  C   UNL     1     107.359 138.801  57.879  1.00  0.00     0.025 A 
ATOM     13  C   UNL     1     107.391 139.256  59.209  1.00  0.00     0.016 A 
ATOM     14  C   UNL     1     107.211 138.360  60.266  1.00  0.00     0.051 A 
ATOM     15  C   UNL     1     107.010 136.997  60.012  1.00  0.00     0.157 A 
ATOM     16  C   UNL     1     107.177 137.431  57.631  1.00  0.00     0.062 A 
ATOM     17  C   UNL     1     106.996 136.531  58.687  1.00  0.00     0.158 A 
BRANCH  15  18
ATOM     18  O   UNL     1     106.829 136.106  61.070  1.00  0.00    -0.504 OA
ATOM     19  H   UNL     1     105.959 135.603  61.197  1.00  0.00     0.293 HD
ENDBRANCH  15  18
BRANCH  17  20
ATOM     20  O   UNL     1     106.805 135.179  58.400  1.00  0.00    -0.504 OA
ATOM     21  H   UNL     1     107.324 134.706  57.670  1.00  0.00     0.293 HD
ENDBRANCH  17  20
ENDBRANCH   1  12
BRANCH   2  22
ATOM     22  O   UNL     1     105.482 140.892  57.167  1.00  0.00    -0.502 OA
ATOM     23  H   UNL     1     104.609 141.180  56.744  1.00  0.00     0.293 HD
ENDBRANCH   2  22
BRANCH   6  24
ATOM     24  O   UNL     1     107.883 143.449  53.161  1.00  0.00    -0.507 OA
ATOM     25  H   UNL     1     107.827 143.809  52.220  1.00  0.00     0.293 HD
ENDBRANCH   6  24
BRANCH   8  26
ATOM     26  O   UNL     1     111.583 140.521  52.359  1.00  0.00    -0.508 OA
ATOM     27  H   UNL     1     111.701 139.616  51.919  1.00  0.00     0.293 HD
ENDBRANCH   8  26
TORSDOF 6
ENDMDL
MODEL 6
REMARK VINA RESULT:    -5.735      8.456     11.218
REMARK INTER + INTRA:          -6.550
REMARK INTER:                  -6.248
REMARK INTRA:                  -0.302
REMARK UNBOUND:                 0.358
REMARK SMILES O=c1c(O)c(-c2ccc(O)c(O)c2)oc2cc(O)cc(O)c12
REMARK SMILES IDX 5 1 3 2 2 3 1 4 22 5 20 6 19 7 17 8 16 9 15 10 14 11 6 12
REMARK SMILES IDX 7 13 8 14 9 15 13 16 11 17 10 18 12 20 4 22 21 24 18 26
REMARK H PARENT 10 19 12 21 4 23 21 25 18 27
REMARK Flexibility Score: inf
ROOT
ATOM      1  C   UNL     1     108.984 140.322  55.727  1.00  0.00     0.180 A 
ATOM      2  C   UNL     1     107.726 140.751  55.271  1.00  0.00     0.208 A 
ATOM      3  C   UNL     1     107.657 141.569  54.131  1.00  0.00     0.238 A 
ATOM      4  O   UNL     1     106.525 141.905  53.696  1.00  0.00    -0.285 OA
ATOM      5  C   UNL     1     108.847 141.960  53.473  1.00  0.00     0.111 A 
ATOM      6  C   UNL     1     108.898 142.818  52.333  1.00  0.00     0.134 A 
ATOM      7  C   UNL     1     110.121 143.033  51.684  1.00  0.00     0.093 A 
ATOM      8  C   UNL     1     111.301 142.474  52.170  1.00  0.00     0.123 A 
ATOM      9  C   UNL     1     111.273 141.681  53.318  1.00  0.00     0.094 A 
ATOM     10  C   UNL     1     110.063 141.420  53.966  1.00  0.00     0.146 A 
ATOM     11  O   UNL     1     110.077 140.652  55.049  1.00  0.00    -0.452 OA
ENDROOT
BRANCH   1  12
ATOM     12  C   UNL     1     109.139 139.480  56.935  1.00  0.00     0.025 A 
ATOM     13  C   UNL     1     109.500 140.038  58.174  1.00  0.00     0.016 A 
ATOM     14  C   UNL     1     109.665 139.221  59.296  1.00  0.00     0.051 A 
ATOM     15  C   UNL     1     109.485 137.836  59.194  1.00  0.00     0.157 A 
ATOM     16  C   UNL     1     108.980 138.089  56.834  1.00  0.00     0.062 A 
ATOM     17  C   UNL     1     109.143 137.267  57.956  1.00  0.00     0.158 A 
BRANCH  15  18
ATOM     18  O   UNL     1     109.647 137.023  60.316  1.00  0.00    -0.504 OA
ATOM     19  H   UNL     1     108.923 136.382  60.617  1.00  0.00     0.293 HD
ENDBRANCH  15  18
BRANCH  17  20
ATOM     20  O   UNL     1     108.963 135.891  57.819  1.00  0.00    -0.504 OA
ATOM     21  H   UNL     1     109.175 135.244  58.569  1.00  0.00     0.293 HD
ENDBRANCH  17  20
ENDBRANCH   1  12
BRANCH   2  22
ATOM     22  O   UNL     1     106.561 140.336  55.923  1.00  0.00    -0.502 OA
ATOM     23  H   UNL     1     106.119 140.884  56.649  1.00  0.00     0.293 HD
ENDBRANCH   2  22
BRANCH   6  24
ATOM     24  O   UNL     1     107.791 143.500  51.820  1.00  0.00    -0.507 OA
ATOM     25  H   UNL     1     107.152 144.055  52.369  1.00  0.00     0.293 HD
ENDBRANCH   6  24
BRANCH   8  26
ATOM     26  O   UNL     1     112.503 142.721  51.508  1.00  0.00    -0.508 OA
ATOM     27  H   UNL     1     112.542 142.827  50.501  1.00  0.00     0.293 HD
ENDBRANCH   8  26
TORSDOF 6
ENDMDL
MODEL 7
REMARK VINA RESULT:    -5.721      7.960      9.496
REMARK INTER + INTRA:          -6.533
REMARK INTER:                  -6.223
REMARK INTRA:                  -0.310
REMARK UNBOUND:                 0.358
REMARK SMILES O=c1c(O)c(-c2ccc(O)c(O)c2)oc2cc(O)cc(O)c12
REMARK SMILES IDX 5 1 3 2 2 3 1 4 22 5 20 6 19 7 17 8 16 9 15 10 14 11 6 12
REMARK SMILES IDX 7 13 8 14 9 15 13 16 11 17 10 18 12 20 4 22 21 24 18 26
REMARK H PARENT 10 19 12 21 4 23 21 25 18 27
REMARK Flexibility Score: inf
ROOT
ATOM      1  C   UNL     1     108.074 140.209  56.059  1.00  0.00     0.180 A 
ATOM      2  C   UNL     1     108.962 140.569  55.031  1.00  0.00     0.208 A 
ATOM      3  C   UNL     1     108.487 141.348  53.963  1.00  0.00     0.238 A 
ATOM      4  O   UNL     1     109.299 141.713  53.074  1.00  0.00    -0.285 OA
ATOM      5  C   UNL     1     107.128 141.741  53.928  1.00  0.00     0.111 A 
ATOM      6  C   UNL     1     106.530 142.497  52.875  1.00  0.00     0.134 A 
ATOM      7  C   UNL     1     105.208 142.942  53.009  1.00  0.00     0.093 A 
ATOM      8  C   UNL     1     104.445 142.605  54.125  1.00  0.00     0.123 A 
ATOM      9  C   UNL     1     105.001 141.817  55.133  1.00  0.00     0.094 A 
ATOM     10  C   UNL     1     106.327 141.388  55.045  1.00  0.00     0.146 A 
ATOM     11  O   UNL     1     106.822 140.648  56.031  1.00  0.00    -0.452 OA
ENDROOT
BRANCH   1  12
ATOM     12  C   UNL     1     108.494 139.369  57.204  1.00  0.00     0.025 A 
ATOM     13  C   UNL     1     108.907 139.944  58.419  1.00  0.00     0.016 A 
ATOM     14  C   UNL     1     109.321 139.133  59.479  1.00  0.00     0.051 A 
ATOM     15  C   UNL     1     109.342 137.739  59.337  1.00  0.00     0.157 A 
ATOM     16  C   UNL     1     108.536 137.973  57.060  1.00  0.00     0.062 A 
ATOM     17  C   UNL     1     108.949 137.157  58.120  1.00  0.00     0.158 A 
BRANCH  15  18
ATOM     18  O   UNL     1     109.754 136.933  60.398  1.00  0.00    -0.504 OA
ATOM     19  H   UNL     1     110.669 137.036  60.819  1.00  0.00     0.293 HD
ENDBRANCH  15  18
BRANCH  17  20
ATOM     20  O   UNL     1     108.966 135.774  57.944  1.00  0.00    -0.504 OA
ATOM     21  H   UNL     1     109.814 135.271  57.714  1.00  0.00     0.293 HD
ENDBRANCH  17  20
ENDBRANCH   1  12
BRANCH   2  22
ATOM     22  O   UNL     1     110.305 140.188  55.095  1.00  0.00    -0.502 OA
ATOM     23  H   UNL     1     110.961 140.609  55.741  1.00  0.00     0.293 HD
ENDBRANCH   2  22
BRANCH   6  24
ATOM     24  O   UNL     1     107.176 142.811  51.676  1.00  0.00    -0.507 OA
ATOM     25  H   UNL     1     107.922 142.270  51.266  1.00  0.00     0.293 HD
ENDBRANCH   6  24
BRANCH   8  26
ATOM     26  O   UNL     1     103.128 143.051  54.218  1.00  0.00    -0.508 OA
ATOM     27  H   UNL     1     102.903 143.964  54.596  1.00  0.00     0.293 HD
ENDBRANCH   8  26
TORSDOF 6
ENDMDL
MODEL 8
REMARK VINA RESULT:    -5.535      9.343     12.355
REMARK INTER + INTRA:          -6.310
REMARK INTER:                  -6.022
REMARK INTRA:                  -0.288
REMARK UNBOUND:                 0.358
REMARK SMILES O=c1c(O)c(-c2ccc(O)c(O)c2)oc2cc(O)cc(O)c12
REMARK SMILES IDX 5 1 3 2 2 3 1 4 22 5 20 6 19 7 17 8 16 9 15 10 14 11 6 12
REMARK SMILES IDX 7 13 8 14 9 15 13 16 11 17 10 18 12 20 4 22 21 24 18 26
REMARK H PARENT 10 19 12 21 4 23 21 25 18 27
REMARK Flexibility Score: inf
ROOT
ATOM      1  C   UNL     1     110.387 141.571  52.816  1.00  0.00     0.180 A 
ATOM      2  C   UNL     1     109.158 142.248  52.885  1.00  0.00     0.208 A 
ATOM      3  C   UNL     1     108.209 141.843  53.838  1.00  0.00     0.238 A 
ATOM      4  O   UNL     1     107.133 142.488  53.931  1.00  0.00    -0.285 OA
ATOM      5  C   UNL     1     108.495 140.757  54.698  1.00  0.00     0.111 A 
ATOM      6  C   UNL     1     107.594 140.236  55.674  1.00  0.00     0.134 A 
ATOM      7  C   UNL     1     108.031 139.243  56.560  1.00  0.00     0.093 A 
ATOM      8  C   UNL     1     109.314 138.707  56.463  1.00  0.00     0.123 A 
ATOM      9  C   UNL     1     110.185 139.167  55.475  1.00  0.00     0.094 A 
ATOM     10  C   UNL     1     109.789 140.182  54.600  1.00  0.00     0.146 A 
ATOM     11  O   UNL     1     110.651 140.598  53.680  1.00  0.00    -0.452 OA
ENDROOT
BRANCH   1  12
ATOM     12  C   UNL     1     111.426 141.923  51.822  1.00  0.00     0.025 A 
ATOM     13  C   UNL     1     112.265 143.037  52.004  1.00  0.00     0.016 A 
ATOM     14  C   UNL     1     113.223 143.364  51.041  1.00  0.00     0.051 A 
ATOM     15  C   UNL     1     113.349 142.594  49.878  1.00  0.00     0.157 A 
ATOM     16  C   UNL     1     111.543 141.167  50.645  1.00  0.00     0.062 A 
ATOM     17  C   UNL     1     112.503 141.491  49.679  1.00  0.00     0.158 A 
BRANCH  15  18
ATOM     18  O   UNL     1     114.309 142.922  48.921  1.00  0.00    -0.504 OA
ATOM     19  H   UNL     1     114.447 142.356  48.092  1.00  0.00     0.293 HD
ENDBRANCH  15  18
BRANCH  17  20
ATOM     20  O   UNL     1     112.598 140.708  48.529  1.00  0.00    -0.504 OA
ATOM     21  H   UNL     1     111.792 140.499  47.952  1.00  0.00     0.293 HD
ENDBRANCH  17  20
ENDBRANCH   1  12
BRANCH   2  22
ATOM     22  O   UNL     1     108.903 143.333  52.041  1.00  0.00    -0.502 OA
ATOM     23  H   UNL     1     109.556 144.098  51.925  1.00  0.00     0.293 HD
ENDBRANCH   2  22
BRANCH   6  24
ATOM     24  O   UNL     1     106.259 140.637  55.796  1.00  0.00    -0.507 OA
ATOM     25  H   UNL     1     105.732 140.626  56.656  1.00  0.00     0.293 HD
ENDBRANCH   6  24
BRANCH   8  26
ATOM     26  O   UNL     1     109.711 137.709  57.351  1.00  0.00    -0.508 OA
ATOM     27  H   UNL     1     110.452 137.862  58.025  1.00  0.00     0.293 HD
ENDBRANCH   8  26
TORSDOF 6
ENDMDL
MODEL 9
REMARK VINA RESULT:    -5.530      6.382      9.616
REMARK INTER + INTRA:          -6.303
REMARK INTER:                  -5.990
REMARK INTRA:                  -0.313
REMARK UNBOUND:                 0.358
REMARK SMILES O=c1c(O)c(-c2ccc(O)c(O)c2)oc2cc(O)cc(O)c12
REMARK SMILES IDX 5 1 3 2 2 3 1 4 22 5 20 6 19 7 17 8 16 9 15 10 14 11 6 12
REMARK SMILES IDX 7 13 8 14 9 15 13 16 11 17 10 18 12 20 4 22 21 24 18 26
REMARK H PARENT 10 19 12 21 4 23 21 25 18 27
REMARK Flexibility Score: inf
ROOT
ATOM      1  C   UNL     1     107.985 140.283  55.685  1.00  0.00     0.180 A 
ATOM      2  C   UNL     1     108.905 139.223  55.746  1.00  0.00     0.208 A 
ATOM      3  C   UNL     1     108.940 138.418  56.896  1.00  0.00     0.238 A 
ATOM      4  O   UNL     1     109.728 137.437  56.923  1.00  0.00    -0.285 OA
ATOM      5  C   UNL     1     108.067 138.692  57.975  1.00  0.00     0.111 A 
ATOM      6  C   UNL     1     108.043 137.966  59.204  1.00  0.00     0.134 A 
ATOM      7  C   UNL     1     107.049 138.241  60.151  1.00  0.00     0.093 A 
ATOM      8  C   UNL     1     106.118 139.258  59.942  1.00  0.00     0.123 A 
ATOM      9  C   UNL     1     106.168 140.014  58.771  1.00  0.00     0.094 A 
ATOM     10  C   UNL     1     107.126 139.739  57.792  1.00  0.00     0.146 A 
ATOM     11  O   UNL     1     107.134 140.475  56.687  1.00  0.00    -0.452 OA
ENDROOT
BRANCH   1  12
ATOM     12  C   UNL     1     107.905 141.191  54.519  1.00  0.00     0.025 A 
ATOM     13  C   UNL     1     108.808 142.258  54.358  1.00  0.00     0.016 A 
ATOM     14  C   UNL     1     108.698 143.117  53.262  1.00  0.00     0.051 A 
ATOM     15  C   UNL     1     107.680 142.933  52.318  1.00  0.00     0.157 A 
ATOM     16  C   UNL     1     106.874 141.024  53.580  1.00  0.00     0.062 A 
ATOM     17  C   UNL     1     106.762 141.882  52.480  1.00  0.00     0.158 A 
BRANCH  15  18
ATOM     18  O   UNL     1     107.575 143.791  51.223  1.00  0.00    -0.504 OA
ATOM     19  H   UNL     1     108.393 144.209  50.796  1.00  0.00     0.293 HD
ENDBRANCH  15  18
BRANCH  17  20
ATOM     20  O   UNL     1     105.732 141.676  51.562  1.00  0.00    -0.504 OA
ATOM     21  H   UNL     1     104.844 142.159  51.632  1.00  0.00     0.293 HD
ENDBRANCH  17  20
ENDBRANCH   1  12
BRANCH   2  22
ATOM     22  O   UNL     1     109.744 138.956  54.661  1.00  0.00    -0.502 OA
ATOM     23  H   UNL     1     110.697 138.635  54.775  1.00  0.00     0.293 HD
ENDBRANCH   2  22
BRANCH   6  24
ATOM     24  O   UNL     1     108.984 136.991  59.552  1.00  0.00    -0.507 OA
ATOM     25  H   UNL     1     108.771 136.137  60.045  1.00  0.00     0.293 HD
ENDBRANCH   6  24
BRANCH   8  26
ATOM     26  O   UNL     1     105.152 139.516  60.913  1.00  0.00    -0.508 OA
ATOM     27  H   UNL     1     105.166 139.050  61.813  1.00  0.00     0.293 HD
ENDBRANCH   8  26
TORSDOF 6
ENDMDL
