MODEL 1
REMARK VINA RESULT:    24.484      0.000      0.000
REMARK INTER + INTRA:          28.463
REMARK INTER:                  28.778
REMARK INTRA:                  -0.315
REMARK UNBOUND:                -0.315
REMARK SMILES O=c1cc(-c2ccc(O)c(O)c2)oc2cc(O)cc(O)c12
REMARK SMILES IDX 4 1 3 2 2 3 1 4 21 5 19 6 18 7 16 8 15 9 14 10 13 11 5 12
REMARK SMILES IDX 6 13 7 14 8 15 12 16 10 17 9 18 11 20 20 22 17 24
REMARK H PARENT 9 19 11 21 20 23 17 25
REMARK Flexibility Score: inf
ROOT
ATOM      1  C   UNL     1      10.533  26.610  13.408  1.00  0.00     0.138 A 
ATOM      2  C   UNL     1      10.543  25.664  12.373  1.00  0.00     0.100 A 
ATOM      3  C   UNL     1      11.708  25.464  11.631  1.00  0.00     0.197 A 
ATOM      4  O   UNL     1      11.704  24.565  10.751  1.00  0.00    -0.289 OA
ATOM      5  C   UNL     1      12.860  26.239  11.909  1.00  0.00     0.107 A 
ATOM      6  C   UNL     1      14.091  26.151  11.191  1.00  0.00     0.134 A 
ATOM      7  C   UNL     1      15.199  26.885  11.630  1.00  0.00     0.093 A 
ATOM      8  C   UNL     1      15.104  27.749  12.723  1.00  0.00     0.123 A 
ATOM      9  C   UNL     1      13.892  27.883  13.397  1.00  0.00     0.094 A 
ATOM     10  C   UNL     1      12.778  27.139  13.005  1.00  0.00     0.146 A 
ATOM     11  O   UNL     1      11.644  27.285  13.684  1.00  0.00    -0.456 OA
ENDROOT
BRANCH   1  12
ATOM     12  C   UNL     1       9.321  26.863  14.227  1.00  0.00     0.021 A 
ATOM     13  C   UNL     1       8.249  25.957  14.172  1.00  0.00     0.016 A 
ATOM     14  C   UNL     1       7.100  26.168  14.939  1.00  0.00     0.051 A 
ATOM     15  C   UNL     1       7.006  27.279  15.781  1.00  0.00     0.157 A 
ATOM     16  C   UNL     1       9.228  27.974  15.088  1.00  0.00     0.062 A 
ATOM     17  C   UNL     1       8.076  28.185  15.861  1.00  0.00     0.158 A 
BRANCH  15  18
ATOM     18  O   UNL     1       5.847  27.464  16.533  1.00  0.00    -0.504 OA
ATOM     19  H   UNL     1       5.793  28.144  17.282  1.00  0.00     0.293 HD
ENDBRANCH  15  18
BRANCH  17  20
ATOM     20  O   UNL     1       7.993  29.289  16.708  1.00  0.00    -0.504 OA
ATOM     21  H   UNL     1       8.635  30.070  16.628  1.00  0.00     0.293 HD
ENDBRANCH  17  20
ENDBRANCH   1  12
BRANCH   6  22
ATOM     22  O   UNL     1      14.268  25.383  10.036  1.00  0.00    -0.507 OA
ATOM     23  H   UNL     1      15.057  24.779   9.861  1.00  0.00     0.293 HD
ENDBRANCH   6  22
BRANCH   8  24
ATOM     24  O   UNL     1      16.209  28.487  13.144  1.00  0.00    -0.508 OA
ATOM     25  H   UNL     1      16.393  29.416  12.785  1.00  0.00     0.293 HD
ENDBRANCH   8  24
TORSDOF 5
ENDMDL
