MODEL 1
REMARK VINA RESULT:    -4.279      0.000      0.000
REMARK INTER + INTRA:          -8.291
REMARK INTER:                  -6.780
REMARK INTRA:                  -1.511
REMARK UNBOUND:                -1.511
REMARK SMILES CCCCCCCCCCCC(=O)[O-]
REMARK SMILES IDX 7 1 8 2 9 3 10 4 11 5 12 6 13 7 14 8 6 9 5 10 4 11 3 12 2 13
REMARK SMILES IDX 1 14
REMARK H PARENT
REMARK Flexibility Score: inf
ROOT
ATOM      1  C   UNL     1      -4.498   8.735  24.883  1.00  0.00     0.000 C 
ENDROOT
BRANCH   1   2
ATOM      2  C   UNL     1      -3.173   9.112  25.570  1.00  0.00     0.000 C 
BRANCH   2   3
ATOM      3  C   UNL     1      -2.795  10.602  25.489  1.00  0.00     0.000 C 
BRANCH   3   4
ATOM      4  C   UNL     1      -1.298  10.830  25.230  1.00  0.00     0.006 C 
BRANCH   4   5
ATOM      5  C   UNL     1      -0.483   9.587  25.600  1.00  0.00     0.053 C 
BRANCH   5   6
ATOM      6  C   UNL     1       0.705   9.452  24.702  1.00  0.00     0.041 C 
ATOM      7  O   UNL     1       0.552   9.153  23.489  1.00  0.00    -0.550 OA
ATOM      8  O   UNL     1       1.986   9.607  25.216  1.00  0.00    -0.550 OA
ENDBRANCH   5   6
ENDBRANCH   4   5
ENDBRANCH   3   4
ENDBRANCH   2   3
ENDBRANCH   1   2
BRANCH   1   9
ATOM      9  C   UNL     1      -4.301   8.191  23.458  1.00  0.00     0.000 C 
BRANCH   9  10
ATOM     10  C   UNL     1      -2.818   8.081  23.068  1.00  0.00    -0.000 C 
BRANCH  10  11
ATOM     11  C   UNL     1      -2.509   8.737  21.713  1.00  0.00    -0.000 C 
BRANCH  11  12
ATOM     12  C   UNL     1      -3.520   9.850  21.400  1.00  0.00    -0.000 C 
BRANCH  12  13
ATOM     13  C   UNL     1      -3.020  11.239  21.827  1.00  0.00    -0.003 C 
ATOM     14  C   UNL     1      -4.154  12.169  22.258  1.00  0.00     0.004 C 
ENDBRANCH  12  13
ENDBRANCH  11  12
ENDBRANCH  10  11
ENDBRANCH   9  10
ENDBRANCH   1   9
TORSDOF 10
ENDMDL
MODEL 2
REMARK VINA RESULT:    -4.253      2.032      2.716
REMARK INTER + INTRA:          -8.250
REMARK INTER:                  -6.922
REMARK INTRA:                  -1.329
REMARK UNBOUND:                -1.511
REMARK SMILES CCCCCCCCCCCC(=O)[O-]
REMARK SMILES IDX 7 1 8 2 9 3 10 4 11 5 12 6 13 7 14 8 6 9 5 10 4 11 3 12 2 13
REMARK SMILES IDX 1 14
REMARK H PARENT
REMARK Flexibility Score: inf
ROOT
ATOM      1  C   UNL     1      -0.800   9.522  24.247  1.00  0.00     0.000 C 
ENDROOT
BRANCH   1   2
ATOM      2  C   UNL     1      -2.154   9.399  24.968  1.00  0.00     0.000 C 
BRANCH   2   3
ATOM      3  C   UNL     1      -2.706  10.712  25.552  1.00  0.00     0.000 C 
BRANCH   3   4
ATOM      4  C   UNL     1      -1.953  11.955  25.053  1.00  0.00     0.006 C 
BRANCH   4   5
ATOM      5  C   UNL     1      -1.622  12.897  26.214  1.00  0.00     0.053 C 
BRANCH   5   6
ATOM      6  C   UNL     1      -0.143  12.957  26.434  1.00  0.00     0.041 C 
ATOM      7  O   UNL     1       0.522  11.896  26.560  1.00  0.00    -0.550 OA
ATOM      8  O   UNL     1       0.492  14.187  26.553  1.00  0.00    -0.550 OA
ENDBRANCH   5   6
ENDBRANCH   4   5
ENDBRANCH   3   4
ENDBRANCH   2   3
ENDBRANCH   1   2
BRANCH   1   9
ATOM      9  C   UNL     1      -0.792   8.847  22.865  1.00  0.00     0.000 C 
BRANCH   9  10
ATOM     10  C   UNL     1      -2.191   8.380  22.429  1.00  0.00    -0.000 C 
BRANCH  10  11
ATOM     11  C   UNL     1      -2.623   8.977  21.080  1.00  0.00    -0.000 C 
BRANCH  11  12
ATOM     12  C   UNL     1      -3.761   9.991  21.270  1.00  0.00    -0.000 C 
BRANCH  12  13
ATOM     13  C   UNL     1      -3.248  11.399  21.611  1.00  0.00    -0.003 C 
ATOM     14  C   UNL     1      -4.337  12.301  22.190  1.00  0.00     0.004 C 
ENDBRANCH  12  13
ENDBRANCH  11  12
ENDBRANCH  10  11
ENDBRANCH   9  10
ENDBRANCH   1   9
TORSDOF 10
ENDMDL
MODEL 3
REMARK VINA RESULT:    -4.215      1.814      3.350
REMARK INTER + INTRA:          -8.191
REMARK INTER:                  -6.634
REMARK INTRA:                  -1.557
REMARK UNBOUND:                -1.511
REMARK SMILES CCCCCCCCCCCC(=O)[O-]
REMARK SMILES IDX 7 1 8 2 9 3 10 4 11 5 12 6 13 7 14 8 6 9 5 10 4 11 3 12 2 13
REMARK SMILES IDX 1 14
REMARK H PARENT
REMARK Flexibility Score: inf
ROOT
ATOM      1  C   UNL     1      -3.227  11.244  21.622  1.00  0.00     0.000 C 
ENDROOT
BRANCH   1   2
ATOM      2  C   UNL     1      -3.454  11.951  22.970  1.00  0.00     0.000 C 
BRANCH   2   3
ATOM      3  C   UNL     1      -4.086  11.078  24.068  1.00  0.00     0.000 C 
BRANCH   3   4
ATOM      4  C   UNL     1      -3.370  11.202  25.422  1.00  0.00     0.006 C 
BRANCH   4   5
ATOM      5  C   UNL     1      -2.064  11.990  25.280  1.00  0.00     0.053 C 
BRANCH   5   6
ATOM      6  C   UNL     1      -1.116  11.635  26.381  1.00  0.00     0.041 C 
ATOM      7  O   UNL     1      -1.517  11.588  27.573  1.00  0.00    -0.550 OA
ATOM      8  O   UNL     1       0.224  11.406  26.096  1.00  0.00    -0.550 OA
ENDBRANCH   5   6
ENDBRANCH   4   5
ENDBRANCH   3   4
ENDBRANCH   2   3
ENDBRANCH   1   2
BRANCH   1   9
ATOM      9  C   UNL     1      -4.167  10.045  21.409  1.00  0.00     0.000 C 
BRANCH   9  10
ATOM     10  C   UNL     1      -3.446   8.834  20.793  1.00  0.00    -0.000 C 
BRANCH  10  11
ATOM     11  C   UNL     1      -2.147   8.476  21.532  1.00  0.00    -0.000 C 
BRANCH  11  12
ATOM     12  C   UNL     1      -2.450   7.861  22.906  1.00  0.00    -0.000 C 
BRANCH  12  13
ATOM     13  C   UNL     1      -1.565   8.439  24.021  1.00  0.00    -0.003 C 
ATOM     14  C   UNL     1      -0.295   9.101  23.486  1.00  0.00     0.004 C 
ENDBRANCH  12  13
ENDBRANCH  11  12
ENDBRANCH  10  11
ENDBRANCH   9  10
ENDBRANCH   1   9
TORSDOF 10
ENDMDL
MODEL 4
REMARK VINA RESULT:    -4.169      2.781      4.325
REMARK INTER + INTRA:          -8.117
REMARK INTER:                  -7.595
REMARK INTRA:                  -0.522
REMARK UNBOUND:                -1.511
REMARK SMILES CCCCCCCCCCCC(=O)[O-]
REMARK SMILES IDX 7 1 8 2 9 3 10 4 11 5 12 6 13 7 14 8 6 9 5 10 4 11 3 12 2 13
REMARK SMILES IDX 1 14
REMARK H PARENT
REMARK Flexibility Score: inf
ROOT
ATOM      1  C   UNL     1      -0.106  10.775  25.758  1.00  0.00     0.000 C 
ENDROOT
BRANCH   1   2
ATOM      2  C   UNL     1       1.410  10.732  25.492  1.00  0.00     0.000 C 
BRANCH   2   3
ATOM      3  C   UNL     1       2.012   9.320  25.372  1.00  0.00     0.000 C 
BRANCH   3   4
ATOM      4  C   UNL     1       3.283   9.135  26.214  1.00  0.00     0.006 C 
BRANCH   4   5
ATOM      5  C   UNL     1       3.844   7.719  26.057  1.00  0.00     0.053 C 
BRANCH   5   6
ATOM      6  C   UNL     1       4.089   7.100  27.397  1.00  0.00     0.041 C 
ATOM      7  O   UNL     1       5.117   7.403  28.057  1.00  0.00    -0.550 OA
ATOM      8  O   UNL     1       3.207   6.149  27.895  1.00  0.00    -0.550 OA
ENDBRANCH   5   6
ENDBRANCH   4   5
ENDBRANCH   3   4
ENDBRANCH   2   3
ENDBRANCH   1   2
BRANCH   1   9
ATOM      9  C   UNL     1      -0.752   9.380  25.774  1.00  0.00     0.000 C 
BRANCH   9  10
ATOM     10  C   UNL     1      -1.731   9.169  24.607  1.00  0.00    -0.000 C 
BRANCH  10  11
ATOM     11  C   UNL     1      -1.021   9.051  23.249  1.00  0.00    -0.000 C 
BRANCH  11  12
ATOM     12  C   UNL     1      -1.938   8.395  22.207  1.00  0.00    -0.000 C 
BRANCH  12  13
ATOM     13  C   UNL     1      -2.857   9.408  21.506  1.00  0.00    -0.003 C 
ATOM     14  C   UNL     1      -3.833   8.747  20.533  1.00  0.00     0.004 C 
ENDBRANCH  12  13
ENDBRANCH  11  12
ENDBRANCH  10  11
ENDBRANCH   9  10
ENDBRANCH   1   9
TORSDOF 10
ENDMDL
MODEL 5
REMARK VINA RESULT:    -4.135      1.407      2.534
REMARK INTER + INTRA:          -8.063
REMARK INTER:                  -6.919
REMARK INTRA:                  -1.143
REMARK UNBOUND:                -1.511
REMARK SMILES CCCCCCCCCCCC(=O)[O-]
REMARK SMILES IDX 7 1 8 2 9 3 10 4 11 5 12 6 13 7 14 8 6 9 5 10 4 11 3 12 2 13
REMARK SMILES IDX 1 14
REMARK H PARENT
REMARK Flexibility Score: inf
ROOT
ATOM      1  C   UNL     1      -3.845  11.099  24.342  1.00  0.00     0.000 C 
ENDROOT
BRANCH   1   2
ATOM      2  C   UNL     1      -2.881  10.609  25.436  1.00  0.00     0.000 C 
BRANCH   2   3
ATOM      3  C   UNL     1      -2.552   9.106  25.392  1.00  0.00     0.000 C 
BRANCH   3   4
ATOM      4  C   UNL     1      -1.071   8.806  25.674  1.00  0.00     0.006 C 
BRANCH   4   5
ATOM      5  C   UNL     1      -0.164   9.565  24.702  1.00  0.00     0.053 C 
BRANCH   5   6
ATOM      6  C   UNL     1       1.067  10.048  25.403  1.00  0.00     0.041 C 
ATOM      7  O   UNL     1       1.100  11.202  25.903  1.00  0.00    -0.550 OA
ATOM      8  O   UNL     1       2.196   9.240  25.458  1.00  0.00    -0.550 OA
ENDBRANCH   5   6
ENDBRANCH   4   5
ENDBRANCH   3   4
ENDBRANCH   2   3
ENDBRANCH   1   2
BRANCH   1   9
ATOM      9  C   UNL     1      -3.122  11.772  23.162  1.00  0.00     0.000 C 
BRANCH   9  10
ATOM     10  C   UNL     1      -3.680  11.331  21.799  1.00  0.00    -0.000 C 
BRANCH  10  11
ATOM     11  C   UNL     1      -4.506  10.038  21.885  1.00  0.00    -0.000 C 
BRANCH  11  12
ATOM     12  C   UNL     1      -4.100   9.055  20.778  1.00  0.00    -0.000 C 
BRANCH  12  13
ATOM     13  C   UNL     1      -2.576   8.958  20.602  1.00  0.00    -0.003 C 
ATOM     14  C   UNL     1      -1.893   8.223  21.756  1.00  0.00     0.004 C 
ENDBRANCH  12  13
ENDBRANCH  11  12
ENDBRANCH  10  11
ENDBRANCH   9  10
ENDBRANCH   1   9
TORSDOF 10
ENDMDL
MODEL 6
REMARK VINA RESULT:    -4.088      8.270      9.989
REMARK INTER + INTRA:          -7.988
REMARK INTER:                  -6.756
REMARK INTRA:                  -1.232
REMARK UNBOUND:                -1.511
REMARK SMILES CCCCCCCCCCCC(=O)[O-]
REMARK SMILES IDX 7 1 8 2 9 3 10 4 11 5 12 6 13 7 14 8 6 9 5 10 4 11 3 12 2 13
REMARK SMILES IDX 1 14
REMARK H PARENT
REMARK Flexibility Score: inf
ROOT
ATOM      1  C   UNL     1       4.836  18.953  23.661  1.00  0.00     0.000 C 
ENDROOT
BRANCH   1   2
ATOM      2  C   UNL     1       4.081  17.665  23.291  1.00  0.00     0.000 C 
BRANCH   2   3
ATOM      3  C   UNL     1       2.994  17.233  24.293  1.00  0.00     0.000 C 
BRANCH   3   4
ATOM      4  C   UNL     1       2.162  16.039  23.800  1.00  0.00     0.006 C 
BRANCH   4   5
ATOM      5  C   UNL     1       1.954  15.016  24.920  1.00  0.00     0.053 C 
BRANCH   5   6
ATOM      6  C   UNL     1       2.824  13.818  24.704  1.00  0.00     0.041 C 
ATOM      7  O   UNL     1       3.842  13.898  23.968  1.00  0.00    -0.550 OA
ATOM      8  O   UNL     1       2.481  12.599  25.274  1.00  0.00    -0.550 OA
ENDBRANCH   5   6
ENDBRANCH   4   5
ENDBRANCH   3   4
ENDBRANCH   2   3
ENDBRANCH   1   2
BRANCH   1   9
ATOM      9  C   UNL     1       3.957  20.212  23.567  1.00  0.00     0.000 C 
BRANCH   9  10
ATOM     10  C   UNL     1       3.306  20.375  22.184  1.00  0.00    -0.000 C 
BRANCH  10  11
ATOM     11  C   UNL     1       1.795  20.641  22.266  1.00  0.00    -0.000 C 
BRANCH  11  12
ATOM     12  C   UNL     1       1.302  20.560  23.718  1.00  0.00    -0.000 C 
BRANCH  12  13
ATOM     13  C   UNL     1       0.118  19.596  23.889  1.00  0.00    -0.003 C 
ATOM     14  C   UNL     1      -0.276  18.906  22.583  1.00  0.00     0.004 C 
ENDBRANCH  12  13
ENDBRANCH  11  12
ENDBRANCH  10  11
ENDBRANCH   9  10
ENDBRANCH   1   9
TORSDOF 10
ENDMDL
MODEL 7
REMARK VINA RESULT:    -3.992      2.726      3.753
REMARK INTER + INTRA:          -7.836
REMARK INTER:                  -6.584
REMARK INTRA:                  -1.252
REMARK UNBOUND:                -1.511
REMARK SMILES CCCCCCCCCCCC(=O)[O-]
REMARK SMILES IDX 7 1 8 2 9 3 10 4 11 5 12 6 13 7 14 8 6 9 5 10 4 11 3 12 2 13
REMARK SMILES IDX 1 14
REMARK H PARENT
REMARK Flexibility Score: inf
ROOT
ATOM      1  C   UNL     1      -3.222  11.845  23.170  1.00  0.00     0.000 C 
ENDROOT
BRANCH   1   2
ATOM      2  C   UNL     1      -3.765  10.893  24.250  1.00  0.00     0.000 C 
BRANCH   2   3
ATOM      3  C   UNL     1      -2.855  10.710  25.479  1.00  0.00     0.000 C 
BRANCH   3   4
ATOM      4  C   UNL     1      -2.919   9.294  26.069  1.00  0.00     0.006 C 
BRANCH   4   5
ATOM      5  C   UNL     1      -2.142   9.213  27.386  1.00  0.00     0.053 C 
BRANCH   5   6
ATOM      6  C   UNL     1      -2.683  10.195  28.376  1.00  0.00     0.041 C 
ATOM      7  O   UNL     1      -3.872  10.099  28.779  1.00  0.00    -0.550 OA
ATOM      8  O   UNL     1      -1.890  11.248  28.815  1.00  0.00    -0.550 OA
ENDBRANCH   5   6
ENDBRANCH   4   5
ENDBRANCH   3   4
ENDBRANCH   2   3
ENDBRANCH   1   2
BRANCH   1   9
ATOM      9  C   UNL     1      -3.518  11.362  21.740  1.00  0.00     0.000 C 
BRANCH   9  10
ATOM     10  C   UNL     1      -4.565  10.236  21.703  1.00  0.00    -0.000 C 
BRANCH  10  11
ATOM     11  C   UNL     1      -4.064   8.982  20.969  1.00  0.00    -0.000 C 
BRANCH  11  12
ATOM     12  C   UNL     1      -2.531   8.907  20.997  1.00  0.00    -0.000 C 
BRANCH  12  13
ATOM     13  C   UNL     1      -1.998   8.145  22.221  1.00  0.00    -0.003 C 
ATOM     14  C   UNL     1      -0.847   8.872  22.916  1.00  0.00     0.004 C 
ENDBRANCH  12  13
ENDBRANCH  11  12
ENDBRANCH  10  11
ENDBRANCH   9  10
ENDBRANCH   1   9
TORSDOF 10
ENDMDL
MODEL 8
REMARK VINA RESULT:    -3.974      0.971      2.725
REMARK INTER + INTRA:          -7.809
REMARK INTER:                  -6.404
REMARK INTRA:                  -1.404
REMARK UNBOUND:                -1.511
REMARK SMILES CCCCCCCCCCCC(=O)[O-]
REMARK SMILES IDX 7 1 8 2 9 3 10 4 11 5 12 6 13 7 14 8 6 9 5 10 4 11 3 12 2 13
REMARK SMILES IDX 1 14
REMARK H PARENT
REMARK Flexibility Score: inf
ROOT
ATOM      1  C   UNL     1      -3.716  11.797  22.941  1.00  0.00     0.000 C 
ENDROOT
BRANCH   1   2
ATOM      2  C   UNL     1      -2.577  11.863  23.974  1.00  0.00     0.000 C 
BRANCH   2   3
ATOM      3  C   UNL     1      -2.948  11.380  25.388  1.00  0.00     0.000 C 
BRANCH   3   4
ATOM      4  C   UNL     1      -1.955  10.354  25.953  1.00  0.00     0.006 C 
BRANCH   4   5
ATOM      5  C   UNL     1      -0.612  11.014  26.282  1.00  0.00     0.053 C 
BRANCH   5   6
ATOM      6  C   UNL     1       0.489  10.387  25.486  1.00  0.00     0.041 C 
ATOM      7  O   UNL     1       1.666  10.820  25.583  1.00  0.00    -0.550 OA
ATOM      8  O   UNL     1       0.204   9.358  24.597  1.00  0.00    -0.550 OA
ENDBRANCH   5   6
ENDBRANCH   4   5
ENDBRANCH   3   4
ENDBRANCH   2   3
ENDBRANCH   1   2
BRANCH   1   9
ATOM      9  C   UNL     1      -3.243  11.318  21.558  1.00  0.00     0.000 C 
BRANCH   9  10
ATOM     10  C   UNL     1      -3.570   9.837  21.303  1.00  0.00    -0.000 C 
BRANCH  10  11
ATOM     11  C   UNL     1      -2.448   8.893  21.765  1.00  0.00    -0.000 C 
BRANCH  11  12
ATOM     12  C   UNL     1      -2.828   8.193  23.077  1.00  0.00    -0.000 C 
BRANCH  12  13
ATOM     13  C   UNL     1      -4.344   7.992  23.223  1.00  0.00    -0.003 C 
ATOM     14  C   UNL     1      -4.865   8.399  24.602  1.00  0.00     0.004 C 
ENDBRANCH  12  13
ENDBRANCH  11  12
ENDBRANCH  10  11
ENDBRANCH   9  10
ENDBRANCH   1   9
TORSDOF 10
ENDMDL
MODEL 9
REMARK VINA RESULT:    -3.968      1.337      2.285
REMARK INTER + INTRA:          -7.798
REMARK INTER:                  -6.632
REMARK INTRA:                  -1.166
REMARK UNBOUND:                -1.511
REMARK SMILES CCCCCCCCCCCC(=O)[O-]
REMARK SMILES IDX 7 1 8 2 9 3 10 4 11 5 12 6 13 7 14 8 6 9 5 10 4 11 3 12 2 13
REMARK SMILES IDX 1 14
REMARK H PARENT
REMARK Flexibility Score: inf
ROOT
ATOM      1  C   UNL     1      -4.076  10.680  25.918  1.00  0.00     0.000 C 
ENDROOT
BRANCH   1   2
ATOM      2  C   UNL     1      -3.497   9.371  26.485  1.00  0.00     0.000 C 
BRANCH   2   3
ATOM      3  C   UNL     1      -2.027   9.447  26.937  1.00  0.00     0.000 C 
BRANCH   3   4
ATOM      4  C   UNL     1      -1.044   8.940  25.871  1.00  0.00     0.006 C 
BRANCH   4   5
ATOM      5  C   UNL     1      -0.137  10.071  25.379  1.00  0.00     0.053 C 
BRANCH   5   6
ATOM      6  C   UNL     1       1.154   9.520  24.861  1.00  0.00     0.041 C 
ATOM      7  O   UNL     1       2.136   9.373  25.635  1.00  0.00    -0.550 OA
ATOM      8  O   UNL     1       1.289   9.216  23.513  1.00  0.00    -0.550 OA
ENDBRANCH   5   6
ENDBRANCH   4   5
ENDBRANCH   3   4
ENDBRANCH   2   3
ENDBRANCH   1   2
BRANCH   1   9
ATOM      9  C   UNL     1      -4.270  10.639  24.393  1.00  0.00     0.000 C 
BRANCH   9  10
ATOM     10  C   UNL     1      -3.291  11.561  23.648  1.00  0.00    -0.000 C 
BRANCH  10  11
ATOM     11  C   UNL     1      -2.853  10.989  22.290  1.00  0.00    -0.000 C 
BRANCH  11  12
ATOM     12  C   UNL     1      -2.305   9.564  22.447  1.00  0.00    -0.000 C 
BRANCH  12  13
ATOM     13  C   UNL     1      -2.613   8.674  21.232  1.00  0.00    -0.003 C 
ATOM     14  C   UNL     1      -3.956   9.004  20.582  1.00  0.00     0.004 C 
ENDBRANCH  12  13
ENDBRANCH  11  12
ENDBRANCH  10  11
ENDBRANCH   9  10
ENDBRANCH   1   9
TORSDOF 10
ENDMDL
