MODEL 1
REMARK VINA RESULT:     4.905      0.000      0.000
REMARK INTER + INTRA:           9.847
REMARK INTER:                  11.213
REMARK INTRA:                  -1.367
REMARK UNBOUND:                -1.367
REMARK SMILES CCCCCCCCCCCCCCCCCCCCCCCC(=O)[O-]
REMARK SMILES IDX 13 1 14 2 15 3 16 4 17 5 18 6 19 7 20 8 21 9 22 10 23 11
REMARK SMILES IDX 24 12 25 13 26 14 12 15 11 16 10 17 9 18 8 19 7 20 6 21 5 22
REMARK SMILES IDX 4 23 3 24 2 25 1 26
REMARK H PARENT
REMARK Flexibility Score: inf
ROOT
ATOM      1  C   UNL     1       2.893  62.344  -6.581  1.00  0.00     0.000 C 
ENDROOT
BRANCH   1   2
ATOM      2  C   UNL     1       2.086  63.649  -6.451  1.00  0.00     0.000 C 
BRANCH   2   3
ATOM      3  C   UNL     1       2.748  64.895  -7.075  1.00  0.00     0.000 C 
BRANCH   3   4
ATOM      4  C   UNL     1       3.697  65.671  -6.144  1.00  0.00     0.000 C 
BRANCH   4   5
ATOM      5  C   UNL     1       2.954  66.419  -5.025  1.00  0.00     0.000 C 
BRANCH   5   6
ATOM      6  C   UNL     1       2.258  67.700  -5.518  1.00  0.00     0.000 C 
BRANCH   6   7
ATOM      7  C   UNL     1       0.743  67.572  -5.779  1.00  0.00     0.000 C 
BRANCH   7   8
ATOM      8  C   UNL     1       0.110  68.747  -6.544  1.00  0.00     0.000 C 
BRANCH   8   9
ATOM      9  C   UNL     1      -1.420  68.857  -6.408  1.00  0.00     0.000 C 
BRANCH   9  10
ATOM     10  C   UNL     1      -1.887  70.129  -5.669  1.00  0.00     0.006 C 
BRANCH  10  11
ATOM     11  C   UNL     1      -3.319  70.003  -5.132  1.00  0.00     0.053 C 
BRANCH  11  12
ATOM     12  C   UNL     1      -4.296  70.583  -6.105  1.00  0.00     0.041 C 
ATOM     13  O   UNL     1      -4.798  69.860  -7.005  1.00  0.00    -0.550 OA
ATOM     14  O   UNL     1      -4.618  71.933  -6.045  1.00  0.00    -0.550 OA
ENDBRANCH  11  12
ENDBRANCH  10  11
ENDBRANCH   9  10
ENDBRANCH   8   9
ENDBRANCH   7   8
ENDBRANCH   6   7
ENDBRANCH   5   6
ENDBRANCH   4   5
ENDBRANCH   3   4
ENDBRANCH   2   3
ENDBRANCH   1   2
BRANCH   1  15
ATOM     15  C   UNL     1       2.862  61.765  -8.003  1.00  0.00     0.000 C 
BRANCH  15  16
ATOM     16  C   UNL     1       2.510  60.270  -7.980  1.00  0.00     0.000 C 
BRANCH  16  17
ATOM     17  C   UNL     1       3.493  59.445  -7.134  1.00  0.00     0.000 C 
BRANCH  17  18
ATOM     18  C   UNL     1       2.870  58.957  -5.814  1.00  0.00    -0.000 C 
BRANCH  18  19
ATOM     19  C   UNL     1       1.395  59.362  -5.674  1.00  0.00    -0.000 C 
BRANCH  19  20
ATOM     20  C   UNL     1       1.116  60.162  -4.390  1.00  0.00    -0.000 C 
BRANCH  20  21
ATOM     21  C   UNL     1      -0.387  60.367  -4.128  1.00  0.00    -0.000 C 
BRANCH  21  22
ATOM     22  C   UNL     1      -1.317  59.421  -4.910  1.00  0.00    -0.000 C 
BRANCH  22  23
ATOM     23  C   UNL     1      -2.600  59.072  -4.142  1.00  0.00    -0.000 C 
BRANCH  23  24
ATOM     24  C   UNL     1      -3.837  59.647  -4.849  1.00  0.00    -0.000 C 
BRANCH  24  25
ATOM     25  C   UNL     1      -3.636  59.793  -6.365  1.00  0.00    -0.003 C 
ATOM     26  C   UNL     1      -4.708  60.660  -7.024  1.00  0.00     0.004 C 
ENDBRANCH  24  25
ENDBRANCH  23  24
ENDBRANCH  22  23
ENDBRANCH  21  22
ENDBRANCH  20  21
ENDBRANCH  19  20
ENDBRANCH  18  19
ENDBRANCH  17  18
ENDBRANCH  16  17
ENDBRANCH  15  16
ENDBRANCH   1  15
TORSDOF 22
ENDMDL
MODEL 2
REMARK VINA RESULT:     5.344      2.946      8.795
REMARK INTER + INTRA:          10.850
REMARK INTER:                  11.728
REMARK INTRA:                  -0.878
REMARK UNBOUND:                -1.367
REMARK SMILES CCCCCCCCCCCCCCCCCCCCCCCC(=O)[O-]
REMARK SMILES IDX 13 1 14 2 15 3 16 4 17 5 18 6 19 7 20 8 21 9 22 10 23 11
REMARK SMILES IDX 24 12 25 13 26 14 12 15 11 16 10 17 9 18 8 19 7 20 6 21 5 22
REMARK SMILES IDX 4 23 3 24 2 25 1 26
REMARK H PARENT
REMARK Flexibility Score: inf
ROOT
ATOM      1  C   UNL     1       2.167  63.986  -6.869  1.00  0.00     0.000 C 
ENDROOT
BRANCH   1   2
ATOM      2  C   UNL     1       3.113  62.846  -7.288  1.00  0.00     0.000 C 
BRANCH   2   3
ATOM      3  C   UNL     1       2.417  61.577  -7.820  1.00  0.00     0.000 C 
BRANCH   3   4
ATOM      4  C   UNL     1       3.088  60.247  -7.433  1.00  0.00     0.000 C 
BRANCH   4   5
ATOM      5  C   UNL     1       3.209  60.062  -5.911  1.00  0.00     0.000 C 
BRANCH   5   6
ATOM      6  C   UNL     1       2.189  59.059  -5.345  1.00  0.00     0.000 C 
BRANCH   6   7
ATOM      7  C   UNL     1       0.709  59.472  -5.478  1.00  0.00     0.000 C 
BRANCH   7   8
ATOM      8  C   UNL     1       0.262  60.611  -4.545  1.00  0.00     0.000 C 
BRANCH   8   9
ATOM      9  C   UNL     1      -0.958  60.283  -3.664  1.00  0.00     0.000 C 
BRANCH   9  10
ATOM     10  C   UNL     1      -2.099  59.575  -4.424  1.00  0.00     0.006 C 
BRANCH  10  11
ATOM     11  C   UNL     1      -3.245  60.530  -4.783  1.00  0.00     0.053 C 
BRANCH  11  12
ATOM     12  C   UNL     1      -3.817  60.182  -6.121  1.00  0.00     0.041 C 
ATOM     13  O   UNL     1      -3.173  59.446  -6.913  1.00  0.00    -0.550 OA
ATOM     14  O   UNL     1      -5.043  60.707  -6.511  1.00  0.00    -0.550 OA
ENDBRANCH  11  12
ENDBRANCH  10  11
ENDBRANCH   9  10
ENDBRANCH   8   9
ENDBRANCH   7   8
ENDBRANCH   6   7
ENDBRANCH   5   6
ENDBRANCH   4   5
ENDBRANCH   3   4
ENDBRANCH   2   3
ENDBRANCH   1   2
BRANCH   1  15
ATOM     15  C   UNL     1       2.820  65.372  -6.974  1.00  0.00     0.000 C 
BRANCH  15  16
ATOM     16  C   UNL     1       2.943  66.028  -5.591  1.00  0.00     0.000 C 
BRANCH  16  17
ATOM     17  C   UNL     1       2.613  67.529  -5.618  1.00  0.00     0.000 C 
BRANCH  17  18
ATOM     18  C   UNL     1       1.125  67.812  -5.347  1.00  0.00    -0.000 C 
BRANCH  18  19
ATOM     19  C   UNL     1       0.423  68.472  -6.544  1.00  0.00    -0.000 C 
BRANCH  19  20
ATOM     20  C   UNL     1      -1.076  68.711  -6.297  1.00  0.00    -0.000 C 
BRANCH  20  21
ATOM     21  C   UNL     1      -1.374  70.118  -5.748  1.00  0.00    -0.000 C 
BRANCH  21  22
ATOM     22  C   UNL     1      -2.865  70.423  -5.518  1.00  0.00    -0.000 C 
BRANCH  22  23
ATOM     23  C   UNL     1      -3.787  69.283  -5.974  1.00  0.00    -0.000 C 
BRANCH  23  24
ATOM     24  C   UNL     1      -5.118  69.834  -6.509  1.00  0.00    -0.000 C 
BRANCH  24  25
ATOM     25  C   UNL     1      -4.973  71.235  -7.121  1.00  0.00    -0.003 C 
ATOM     26  C   UNL     1      -5.115  72.351  -6.086  1.00  0.00     0.004 C 
ENDBRANCH  24  25
ENDBRANCH  23  24
ENDBRANCH  22  23
ENDBRANCH  21  22
ENDBRANCH  20  21
ENDBRANCH  19  20
ENDBRANCH  18  19
ENDBRANCH  17  18
ENDBRANCH  16  17
ENDBRANCH  15  16
ENDBRANCH   1  15
TORSDOF 22
ENDMDL
MODEL 3
REMARK VINA RESULT:     5.362      3.644      8.985
REMARK INTER + INTRA:          10.893
REMARK INTER:                  11.780
REMARK INTRA:                  -0.887
REMARK UNBOUND:                -1.367
REMARK SMILES CCCCCCCCCCCCCCCCCCCCCCCC(=O)[O-]
REMARK SMILES IDX 13 1 14 2 15 3 16 4 17 5 18 6 19 7 20 8 21 9 22 10 23 11
REMARK SMILES IDX 24 12 25 13 26 14 12 15 11 16 10 17 9 18 8 19 7 20 6 21 5 22
REMARK SMILES IDX 4 23 3 24 2 25 1 26
REMARK H PARENT
REMARK Flexibility Score: inf
ROOT
ATOM      1  C   UNL     1       1.989  61.278  -6.090  1.00  0.00     0.000 C 
ENDROOT
BRANCH   1   2
ATOM      2  C   UNL     1       2.466  60.074  -6.923  1.00  0.00     0.000 C 
BRANCH   2   3
ATOM      3  C   UNL     1       1.496  58.875  -6.959  1.00  0.00     0.000 C 
BRANCH   3   4
ATOM      4  C   UNL     1       0.013  59.222  -6.738  1.00  0.00     0.000 C 
BRANCH   4   5
ATOM      5  C   UNL     1      -0.867  58.875  -7.950  1.00  0.00     0.000 C 
BRANCH   5   6
ATOM      6  C   UNL     1      -2.314  59.379  -7.804  1.00  0.00     0.000 C 
BRANCH   6   7
ATOM      7  C   UNL     1      -3.050  58.923  -6.528  1.00  0.00     0.000 C 
BRANCH   7   8
ATOM      8  C   UNL     1      -3.482  60.057  -5.582  1.00  0.00     0.000 C 
BRANCH   8   9
ATOM      9  C   UNL     1      -3.120  59.836  -4.101  1.00  0.00     0.000 C 
BRANCH   9  10
ATOM     10  C   UNL     1      -1.602  59.742  -3.841  1.00  0.00     0.006 C 
BRANCH  10  11
ATOM     11  C   UNL     1      -1.171  60.528  -2.595  1.00  0.00     0.053 C 
BRANCH  11  12
ATOM     12  C   UNL     1       0.321  60.563  -2.489  1.00  0.00     0.041 C 
ATOM     13  O   UNL     1       1.033  60.404  -3.515  1.00  0.00    -0.550 OA
ATOM     14  O   UNL     1       0.926  60.728  -1.249  1.00  0.00    -0.550 OA
ENDBRANCH  11  12
ENDBRANCH  10  11
ENDBRANCH   9  10
ENDBRANCH   8   9
ENDBRANCH   7   8
ENDBRANCH   6   7
ENDBRANCH   5   6
ENDBRANCH   4   5
ENDBRANCH   3   4
ENDBRANCH   2   3
ENDBRANCH   1   2
BRANCH   1  15
ATOM     15  C   UNL     1       2.828  62.541  -6.334  1.00  0.00     0.000 C 
BRANCH  15  16
ATOM     16  C   UNL     1       1.972  63.659  -6.948  1.00  0.00     0.000 C 
BRANCH  16  17
ATOM     17  C   UNL     1       2.412  65.059  -6.490  1.00  0.00     0.000 C 
BRANCH  17  18
ATOM     18  C   UNL     1       1.749  66.183  -7.307  1.00  0.00    -0.000 C 
BRANCH  18  19
ATOM     19  C   UNL     1       1.214  67.318  -6.420  1.00  0.00    -0.000 C 
BRANCH  19  20
ATOM     20  C   UNL     1       0.067  68.100  -7.083  1.00  0.00    -0.000 C 
BRANCH  20  21
ATOM     21  C   UNL     1      -0.695  68.997  -6.091  1.00  0.00    -0.000 C 
BRANCH  21  22
ATOM     22  C   UNL     1      -1.974  68.373  -5.502  1.00  0.00    -0.000 C 
BRANCH  22  23
ATOM     23  C   UNL     1      -2.845  69.388  -4.749  1.00  0.00    -0.000 C 
BRANCH  23  24
ATOM     24  C   UNL     1      -2.974  70.698  -5.542  1.00  0.00    -0.000 C 
BRANCH  24  25
ATOM     25  C   UNL     1      -4.288  70.782  -6.332  1.00  0.00    -0.003 C 
ATOM     26  C   UNL     1      -4.876  72.193  -6.356  1.00  0.00     0.004 C 
ENDBRANCH  24  25
ENDBRANCH  23  24
ENDBRANCH  22  23
ENDBRANCH  21  22
ENDBRANCH  20  21
ENDBRANCH  19  20
ENDBRANCH  18  19
ENDBRANCH  17  18
ENDBRANCH  16  17
ENDBRANCH  15  16
ENDBRANCH   1  15
TORSDOF 22
ENDMDL
MODEL 4
REMARK VINA RESULT:     5.485      2.079      4.982
REMARK INTER + INTRA:          11.172
REMARK INTER:                  12.614
REMARK INTRA:                  -1.442
REMARK UNBOUND:                -1.367
REMARK SMILES CCCCCCCCCCCCCCCCCCCCCCCC(=O)[O-]
REMARK SMILES IDX 13 1 14 2 15 3 16 4 17 5 18 6 19 7 20 8 21 9 22 10 23 11
REMARK SMILES IDX 24 12 25 13 26 14 12 15 11 16 10 17 9 18 8 19 7 20 6 21 5 22
REMARK SMILES IDX 4 23 3 24 2 25 1 26
REMARK H PARENT
REMARK Flexibility Score: inf
ROOT
ATOM      1  C   UNL     1      -0.018  60.159  -5.337  1.00  0.00     0.000 C 
ENDROOT
BRANCH   1   2
ATOM      2  C   UNL     1       1.475  59.946  -5.023  1.00  0.00     0.000 C 
BRANCH   2   3
ATOM      3  C   UNL     1       2.354  59.580  -6.236  1.00  0.00     0.000 C 
BRANCH   3   4
ATOM      4  C   UNL     1       3.355  60.664  -6.675  1.00  0.00     0.000 C 
BRANCH   4   5
ATOM      5  C   UNL     1       2.688  61.811  -7.452  1.00  0.00     0.000 C 
BRANCH   5   6
ATOM      6  C   UNL     1       2.558  63.102  -6.624  1.00  0.00     0.000 C 
BRANCH   6   7
ATOM      7  C   UNL     1       2.457  64.406  -7.442  1.00  0.00     0.000 C 
BRANCH   7   8
ATOM      8  C   UNL     1       2.226  65.681  -6.611  1.00  0.00     0.000 C 
BRANCH   8   9
ATOM      9  C   UNL     1       0.944  66.458  -6.964  1.00  0.00     0.000 C 
BRANCH   9  10
ATOM     10  C   UNL     1       0.883  67.869  -6.342  1.00  0.00     0.006 C 
BRANCH  10  11
ATOM     11  C   UNL     1      -0.361  68.652  -6.784  1.00  0.00     0.053 C 
BRANCH  11  12
ATOM     12  C   UNL     1      -1.142  69.110  -5.593  1.00  0.00     0.041 C 
ATOM     13  O   UNL     1      -1.088  68.465  -4.514  1.00  0.00    -0.550 OA
ATOM     14  O   UNL     1      -1.965  70.225  -5.689  1.00  0.00    -0.550 OA
ENDBRANCH  11  12
ENDBRANCH  10  11
ENDBRANCH   9  10
ENDBRANCH   8   9
ENDBRANCH   7   8
ENDBRANCH   6   7
ENDBRANCH   5   6
ENDBRANCH   4   5
ENDBRANCH   3   4
ENDBRANCH   2   3
ENDBRANCH   1   2
BRANCH   1  15
ATOM     15  C   UNL     1      -0.715  58.875  -5.812  1.00  0.00     0.000 C 
BRANCH  15  16
ATOM     16  C   UNL     1      -1.655  59.165  -6.992  1.00  0.00     0.000 C 
BRANCH  16  17
ATOM     17  C   UNL     1      -3.133  58.929  -6.642  1.00  0.00     0.000 C 
BRANCH  17  18
ATOM     18  C   UNL     1      -3.844  60.216  -6.188  1.00  0.00    -0.000 C 
BRANCH  18  19
ATOM     19  C   UNL     1      -3.676  60.483  -4.685  1.00  0.00    -0.000 C 
BRANCH  19  20
ATOM     20  C   UNL     1      -3.953  59.239  -3.824  1.00  0.00    -0.000 C 
BRANCH  20  21
ATOM     21  C   UNL     1      -3.039  59.152  -2.588  1.00  0.00    -0.000 C 
BRANCH  21  22
ATOM     22  C   UNL     1      -1.610  59.686  -2.798  1.00  0.00    -0.000 C 
BRANCH  22  23
ATOM     23  C   UNL     1      -0.796  59.747  -1.497  1.00  0.00    -0.000 C 
BRANCH  23  24
ATOM     24  C   UNL     1       0.388  60.716  -1.636  1.00  0.00    -0.000 C 
BRANCH  24  25
ATOM     25  C   UNL     1       1.070  61.011  -0.291  1.00  0.00    -0.003 C 
ATOM     26  C   UNL     1       1.734  62.387  -0.253  1.00  0.00     0.004 C 
ENDBRANCH  24  25
ENDBRANCH  23  24
ENDBRANCH  22  23
ENDBRANCH  21  22
ENDBRANCH  20  21
ENDBRANCH  19  20
ENDBRANCH  18  19
ENDBRANCH  17  18
ENDBRANCH  16  17
ENDBRANCH  15  16
ENDBRANCH   1  15
TORSDOF 22
ENDMDL
MODEL 5
REMARK VINA RESULT:     5.952      1.205      2.307
REMARK INTER + INTRA:          12.241
REMARK INTER:                  11.794
REMARK INTRA:                   0.447
REMARK UNBOUND:                -1.367
REMARK SMILES CCCCCCCCCCCCCCCCCCCCCCCC(=O)[O-]
REMARK SMILES IDX 13 1 14 2 15 3 16 4 17 5 18 6 19 7 20 8 21 9 22 10 23 11
REMARK SMILES IDX 24 12 25 13 26 14 12 15 11 16 10 17 9 18 8 19 7 20 6 21 5 22
REMARK SMILES IDX 4 23 3 24 2 25 1 26
REMARK H PARENT
REMARK Flexibility Score: inf
ROOT
ATOM      1  C   UNL     1       3.224  61.170  -7.300  1.00  0.00     0.000 C 
ENDROOT
BRANCH   1   2
ATOM      2  C   UNL     1       2.807  62.485  -6.617  1.00  0.00     0.000 C 
BRANCH   2   3
ATOM      3  C   UNL     1       2.794  63.725  -7.534  1.00  0.00     0.000 C 
BRANCH   3   4
ATOM      4  C   UNL     1       2.430  65.051  -6.843  1.00  0.00     0.000 C 
BRANCH   4   5
ATOM      5  C   UNL     1       3.281  65.323  -5.591  1.00  0.00     0.000 C 
BRANCH   5   6
ATOM      6  C   UNL     1       3.410  66.822  -5.266  1.00  0.00     0.000 C 
BRANCH   6   7
ATOM      7  C   UNL     1       2.080  67.562  -5.014  1.00  0.00     0.000 C 
BRANCH   7   8
ATOM      8  C   UNL     1       1.226  67.817  -6.269  1.00  0.00     0.000 C 
BRANCH   8   9
ATOM      9  C   UNL     1       0.248  69.001  -6.155  1.00  0.00     0.000 C 
BRANCH   9  10
ATOM     10  C   UNL     1      -1.065  68.799  -6.941  1.00  0.00     0.006 C 
BRANCH  10  11
ATOM     11  C   UNL     1      -2.268  68.558  -6.020  1.00  0.00     0.053 C 
BRANCH  11  12
ATOM     12  C   UNL     1      -2.685  69.834  -5.358  1.00  0.00     0.041 C 
ATOM     13  O   UNL     1      -3.887  70.204  -5.398  1.00  0.00    -0.550 OA
ATOM     14  O   UNL     1      -1.736  70.636  -4.736  1.00  0.00    -0.550 OA
ENDBRANCH  11  12
ENDBRANCH  10  11
ENDBRANCH   9  10
ENDBRANCH   8   9
ENDBRANCH   7   8
ENDBRANCH   6   7
ENDBRANCH   5   6
ENDBRANCH   4   5
ENDBRANCH   3   4
ENDBRANCH   2   3
ENDBRANCH   1   2
BRANCH   1  15
ATOM     15  C   UNL     1       2.560  59.936  -6.671  1.00  0.00     0.000 C 
BRANCH  15  16
ATOM     16  C   UNL     1       1.284  60.327  -5.909  1.00  0.00     0.000 C 
BRANCH  16  17
ATOM     17  C   UNL     1       1.565  60.732  -4.454  1.00  0.00     0.000 C 
BRANCH  17  18
ATOM     18  C   UNL     1       0.379  60.436  -3.519  1.00  0.00    -0.000 C 
BRANCH  18  19
ATOM     19  C   UNL     1      -0.769  59.709  -4.236  1.00  0.00    -0.000 C 
BRANCH  19  20
ATOM     20  C   UNL     1      -2.147  60.033  -3.634  1.00  0.00    -0.000 C 
BRANCH  20  21
ATOM     21  C   UNL     1      -2.968  61.001  -4.505  1.00  0.00    -0.000 C 
BRANCH  21  22
ATOM     22  C   UNL     1      -3.922  60.324  -5.505  1.00  0.00    -0.000 C 
BRANCH  22  23
ATOM     23  C   UNL     1      -3.215  59.310  -6.416  1.00  0.00    -0.000 C 
BRANCH  23  24
ATOM     24  C   UNL     1      -3.706  59.439  -7.867  1.00  0.00    -0.000 C 
BRANCH  24  25
ATOM     25  C   UNL     1      -5.104  60.068  -7.962  1.00  0.00    -0.003 C 
ATOM     26  C   UNL     1      -5.060  61.587  -8.124  1.00  0.00     0.004 C 
ENDBRANCH  24  25
ENDBRANCH  23  24
ENDBRANCH  22  23
ENDBRANCH  21  22
ENDBRANCH  20  21
ENDBRANCH  19  20
ENDBRANCH  18  19
ENDBRANCH  17  18
ENDBRANCH  16  17
ENDBRANCH  15  16
ENDBRANCH   1  15
TORSDOF 22
ENDMDL
MODEL 6
REMARK VINA RESULT:     6.550     15.647     18.620
REMARK INTER + INTRA:          13.608
REMARK INTER:                  14.202
REMARK INTRA:                  -0.594
REMARK UNBOUND:                -1.367
REMARK SMILES CCCCCCCCCCCCCCCCCCCCCCCC(=O)[O-]
REMARK SMILES IDX 13 1 14 2 15 3 16 4 17 5 18 6 19 7 20 8 21 9 22 10 23 11
REMARK SMILES IDX 24 12 25 13 26 14 12 15 11 16 10 17 9 18 8 19 7 20 6 21 5 22
REMARK SMILES IDX 4 23 3 24 2 25 1 26
REMARK H PARENT
REMARK Flexibility Score: inf
ROOT
ATOM      1  C   UNL     1       4.689  76.855   3.939  1.00  0.00     0.000 C 
ENDROOT
BRANCH   1   2
ATOM      2  C   UNL     1       5.335  77.236   2.595  1.00  0.00     0.000 C 
BRANCH   2   3
ATOM      3  C   UNL     1       6.485  78.260   2.685  1.00  0.00     0.000 C 
BRANCH   3   4
ATOM      4  C   UNL     1       7.880  77.661   2.936  1.00  0.00     0.000 C 
BRANCH   4   5
ATOM      5  C   UNL     1       8.595  78.300   4.139  1.00  0.00     0.000 C 
BRANCH   5   6
ATOM      6  C   UNL     1       7.637  78.633   5.298  1.00  0.00     0.000 C 
BRANCH   6   7
ATOM      7  C   UNL     1       7.333  77.467   6.261  1.00  0.00     0.000 C 
BRANCH   7   8
ATOM      8  C   UNL     1       5.841  77.253   6.576  1.00  0.00     0.000 C 
BRANCH   8   9
ATOM      9  C   UNL     1       5.252  78.232   7.609  1.00  0.00     0.000 C 
BRANCH   9  10
ATOM     10  C   UNL     1       4.171  77.603   8.513  1.00  0.00     0.006 C 
BRANCH  10  11
ATOM     11  C   UNL     1       3.840  78.480   9.728  1.00  0.00     0.053 C 
BRANCH  11  12
ATOM     12  C   UNL     1       4.196  77.772  10.997  1.00  0.00     0.041 C 
ATOM     13  O   UNL     1       3.301  77.484  11.833  1.00  0.00    -0.550 OA
ATOM     14  O   UNL     1       5.523  77.471  11.276  1.00  0.00    -0.550 OA
ENDBRANCH  11  12
ENDBRANCH  10  11
ENDBRANCH   9  10
ENDBRANCH   8   9
ENDBRANCH   7   8
ENDBRANCH   6   7
ENDBRANCH   5   6
ENDBRANCH   4   5
ENDBRANCH   3   4
ENDBRANCH   2   3
ENDBRANCH   1   2
BRANCH   1  15
ATOM     15  C   UNL     1       3.569  77.821   4.357  1.00  0.00     0.000 C 
BRANCH  15  16
ATOM     16  C   UNL     1       2.787  77.268   5.558  1.00  0.00     0.000 C 
BRANCH  16  17
ATOM     17  C   UNL     1       1.795  78.290   6.137  1.00  0.00     0.000 C 
BRANCH  17  18
ATOM     18  C   UNL     1       0.329  77.858   5.954  1.00  0.00    -0.000 C 
BRANCH  18  19
ATOM     19  C   UNL     1       0.116  77.023   4.683  1.00  0.00    -0.000 C 
BRANCH  19  20
ATOM     20  C   UNL     1      -1.296  76.417   4.599  1.00  0.00    -0.000 C 
BRANCH  20  21
ATOM     21  C   UNL     1      -1.606  75.814   3.216  1.00  0.00    -0.000 C 
BRANCH  21  22
ATOM     22  C   UNL     1      -2.796  74.838   3.186  1.00  0.00    -0.000 C 
BRANCH  22  23
ATOM     23  C   UNL     1      -3.379  74.560   4.579  1.00  0.00    -0.000 C 
BRANCH  23  24
ATOM     24  C   UNL     1      -3.443  73.050   4.857  1.00  0.00    -0.000 C 
BRANCH  24  25
ATOM     25  C   UNL     1      -2.835  72.675   6.217  1.00  0.00    -0.003 C 
ATOM     26  C   UNL     1      -2.180  71.294   6.211  1.00  0.00     0.004 C 
ENDBRANCH  24  25
ENDBRANCH  23  24
ENDBRANCH  22  23
ENDBRANCH  21  22
ENDBRANCH  20  21
ENDBRANCH  19  20
ENDBRANCH  18  19
ENDBRANCH  17  18
ENDBRANCH  16  17
ENDBRANCH  15  16
ENDBRANCH   1  15
TORSDOF 22
ENDMDL
MODEL 7
REMARK VINA RESULT:     6.644      3.025      8.669
REMARK INTER + INTRA:          13.822
REMARK INTER:                  13.279
REMARK INTRA:                   0.543
REMARK UNBOUND:                -1.367
REMARK SMILES CCCCCCCCCCCCCCCCCCCCCCCC(=O)[O-]
REMARK SMILES IDX 13 1 14 2 15 3 16 4 17 5 18 6 19 7 20 8 21 9 22 10 23 11
REMARK SMILES IDX 24 12 25 13 26 14 12 15 11 16 10 17 9 18 8 19 7 20 6 21 5 22
REMARK SMILES IDX 4 23 3 24 2 25 1 26
REMARK H PARENT
REMARK Flexibility Score: inf
ROOT
ATOM      1  C   UNL     1       2.354  62.506  -6.812  1.00  0.00     0.000 C 
ENDROOT
BRANCH   1   2
ATOM      2  C   UNL     1       2.735  61.291  -7.677  1.00  0.00     0.000 C 
BRANCH   2   3
ATOM      3  C   UNL     1       3.838  60.386  -7.089  1.00  0.00     0.000 C 
BRANCH   3   4
ATOM      4  C   UNL     1       3.338  59.233  -6.201  1.00  0.00     0.000 C 
BRANCH   4   5
ATOM      5  C   UNL     1       1.804  59.177  -6.104  1.00  0.00     0.000 C 
BRANCH   5   6
ATOM      6  C   UNL     1       1.226  60.224  -5.136  1.00  0.00     0.000 C 
BRANCH   6   7
ATOM      7  C   UNL     1      -0.242  59.999  -4.716  1.00  0.00     0.000 C 
BRANCH   7   8
ATOM      8  C   UNL     1      -0.972  58.875  -5.472  1.00  0.00     0.000 C 
BRANCH   8   9
ATOM      9  C   UNL     1      -1.590  59.298  -6.818  1.00  0.00     0.000 C 
BRANCH   9  10
ATOM     10  C   UNL     1      -3.116  59.079  -6.896  1.00  0.00     0.006 C 
BRANCH  10  11
ATOM     11  C   UNL     1      -3.906  60.225  -6.250  1.00  0.00     0.053 C 
BRANCH  11  12
ATOM     12  C   UNL     1      -3.857  60.120  -4.759  1.00  0.00     0.041 C 
ATOM     13  O   UNL     1      -3.489  61.104  -4.067  1.00  0.00    -0.550 OA
ATOM     14  O   UNL     1      -4.176  58.920  -4.136  1.00  0.00    -0.550 OA
ENDBRANCH  11  12
ENDBRANCH  10  11
ENDBRANCH   9  10
ENDBRANCH   8   9
ENDBRANCH   7   8
ENDBRANCH   6   7
ENDBRANCH   5   6
ENDBRANCH   4   5
ENDBRANCH   3   4
ENDBRANCH   2   3
ENDBRANCH   1   2
BRANCH   1  15
ATOM     15  C   UNL     1       2.931  63.824  -7.350  1.00  0.00     0.000 C 
BRANCH  15  16
ATOM     16  C   UNL     1       1.988  65.000  -7.050  1.00  0.00     0.000 C 
BRANCH  16  17
ATOM     17  C   UNL     1       2.659  66.094  -6.205  1.00  0.00     0.000 C 
BRANCH  17  18
ATOM     18  C   UNL     1       1.656  67.145  -5.697  1.00  0.00    -0.000 C 
BRANCH  18  19
ATOM     19  C   UNL     1       0.559  67.459  -6.727  1.00  0.00    -0.000 C 
BRANCH  19  20
ATOM     20  C   UNL     1       0.083  68.920  -6.662  1.00  0.00    -0.000 C 
BRANCH  20  21
ATOM     21  C   UNL     1      -1.176  69.100  -5.794  1.00  0.00    -0.000 C 
BRANCH  21  22
ATOM     22  C   UNL     1      -1.313  70.481  -5.127  1.00  0.00    -0.000 C 
BRANCH  22  23
ATOM     23  C   UNL     1      -2.750  70.796  -4.687  1.00  0.00    -0.000 C 
BRANCH  23  24
ATOM     24  C   UNL     1      -3.680  70.927  -5.902  1.00  0.00    -0.000 C 
BRANCH  24  25
ATOM     25  C   UNL     1      -3.785  69.623  -6.708  1.00  0.00    -0.003 C 
ATOM     26  C   UNL     1      -5.125  68.913  -6.512  1.00  0.00     0.004 C 
ENDBRANCH  24  25
ENDBRANCH  23  24
ENDBRANCH  22  23
ENDBRANCH  21  22
ENDBRANCH  20  21
ENDBRANCH  19  20
ENDBRANCH  18  19
ENDBRANCH  17  18
ENDBRANCH  16  17
ENDBRANCH  15  16
ENDBRANCH   1  15
TORSDOF 22
ENDMDL
MODEL 8
REMARK VINA RESULT:     6.743     15.047     18.974
REMARK INTER + INTRA:          14.049
REMARK INTER:                  13.990
REMARK INTRA:                   0.059
REMARK UNBOUND:                -1.367
REMARK SMILES CCCCCCCCCCCCCCCCCCCCCCCC(=O)[O-]
REMARK SMILES IDX 13 1 14 2 15 3 16 4 17 5 18 6 19 7 20 8 21 9 22 10 23 11
REMARK SMILES IDX 24 12 25 13 26 14 12 15 11 16 10 17 9 18 8 19 7 20 6 21 5 22
REMARK SMILES IDX 4 23 3 24 2 25 1 26
REMARK H PARENT
REMARK Flexibility Score: inf
ROOT
ATOM      1  C   UNL     1       4.997  77.059   3.248  1.00  0.00     0.000 C 
ENDROOT
BRANCH   1   2
ATOM      2  C   UNL     1       4.304  77.579   4.520  1.00  0.00     0.000 C 
BRANCH   2   3
ATOM      3  C   UNL     1       2.857  77.087   4.727  1.00  0.00     0.000 C 
BRANCH   3   4
ATOM      4  C   UNL     1       1.931  78.063   5.475  1.00  0.00     0.000 C 
BRANCH   4   5
ATOM      5  C   UNL     1       0.520  77.492   5.699  1.00  0.00     0.000 C 
BRANCH   5   6
ATOM      6  C   UNL     1      -0.137  76.989   4.401  1.00  0.00     0.000 C 
BRANCH   6   7
ATOM      7  C   UNL     1      -1.439  76.184   4.587  1.00  0.00     0.000 C 
BRANCH   7   8
ATOM      8  C   UNL     1      -2.015  75.566   3.301  1.00  0.00     0.000 C 
BRANCH   8   9
ATOM      9  C   UNL     1      -3.129  74.526   3.526  1.00  0.00     0.000 C 
BRANCH   9  10
ATOM     10  C   UNL     1      -3.152  73.942   4.954  1.00  0.00     0.006 C 
BRANCH  10  11
ATOM     11  C   UNL     1      -2.176  72.771   5.125  1.00  0.00     0.053 C 
BRANCH  11  12
ATOM     12  C   UNL     1      -2.749  71.741   6.047  1.00  0.00     0.041 C 
ATOM     13  O   UNL     1      -2.303  71.621   7.217  1.00  0.00    -0.550 OA
ATOM     14  O   UNL     1      -3.746  70.884   5.598  1.00  0.00    -0.550 OA
ENDBRANCH  11  12
ENDBRANCH  10  11
ENDBRANCH   9  10
ENDBRANCH   8   9
ENDBRANCH   7   8
ENDBRANCH   6   7
ENDBRANCH   5   6
ENDBRANCH   4   5
ENDBRANCH   3   4
ENDBRANCH   2   3
ENDBRANCH   1   2
BRANCH   1  15
ATOM     15  C   UNL     1       6.119  77.988   2.759  1.00  0.00     0.000 C 
BRANCH  15  16
ATOM     16  C   UNL     1       7.486  77.292   2.848  1.00  0.00     0.000 C 
BRANCH  16  17
ATOM     17  C   UNL     1       8.425  77.962   3.864  1.00  0.00     0.000 C 
BRANCH  17  18
ATOM     18  C   UNL     1       7.663  78.617   5.029  1.00  0.00    -0.000 C 
BRANCH  18  19
ATOM     19  C   UNL     1       7.352  77.626   6.161  1.00  0.00    -0.000 C 
BRANCH  19  20
ATOM     20  C   UNL     1       5.844  77.484   6.431  1.00  0.00    -0.000 C 
BRANCH  20  21
ATOM     21  C   UNL     1       5.495  77.566   7.928  1.00  0.00    -0.000 C 
BRANCH  21  22
ATOM     22  C   UNL     1       4.032  77.937   8.234  1.00  0.00    -0.000 C 
BRANCH  22  23
ATOM     23  C   UNL     1       3.856  78.604   9.606  1.00  0.00    -0.000 C 
BRANCH  23  24
ATOM     24  C   UNL     1       3.558  77.559  10.691  1.00  0.00    -0.000 C 
BRANCH  24  25
ATOM     25  C   UNL     1       4.447  77.727  11.932  1.00  0.00    -0.003 C 
ATOM     26  C   UNL     1       5.918  77.415  11.654  1.00  0.00     0.004 C 
ENDBRANCH  24  25
ENDBRANCH  23  24
ENDBRANCH  22  23
ENDBRANCH  21  22
ENDBRANCH  20  21
ENDBRANCH  19  20
ENDBRANCH  18  19
ENDBRANCH  17  18
ENDBRANCH  16  17
ENDBRANCH  15  16
ENDBRANCH   1  15
TORSDOF 22
ENDMDL
