MODEL 1
REMARK VINA RESULT:    46.501      0.000      0.000
REMARK INTER + INTRA:          75.425
REMARK INTER:                  76.404
REMARK INTRA:                  -0.979
REMARK UNBOUND:                -0.979
REMARK SMILES C[C@@H]1O[C@@H](OC[C@H]2O[C@@H](Oc3c(-c4ccc(O)c(O)c4)oc4cc(O)cc(O)c4c3=O)[C@H](O)[C@H](O)[C@@H]2O)[C@H](O)[C@@H](O)[C@@H]1O
REMARK SMILES IDX 7 1 36 2 34 3 32 4 9 5 8 6 6 7 5 8 4 9 1 10 2 11 42 12 3 13
REMARK SMILES IDX 40 14 38 15 43 16 41 18 39 20 37 22 35 24 10 26 11 27 12 28
REMARK SMILES IDX 30 29 21 30 29 31 31 32 22 33 27 34 23 35 26 36 24 37 13 38
REMARK SMILES IDX 20 39 14 40 18 41 15 42 16 43 19 44 17 46 28 48 25 50 33 52
REMARK H PARENT 43 17 41 19 39 21 37 23 35 25 19 45 17 47 28 49 25 51 33 53
REMARK Flexibility Score: inf
ROOT
ATOM      1  C   UNL     1      27.904  16.388  60.955  1.00  0.00     0.180 C 
ATOM      2  C   UNL     1      28.785  15.269  60.328  1.00  0.00     0.177 C 
ATOM      3  C   UNL     1      28.871  15.451  58.792  1.00  0.00     0.180 C 
ATOM      4  C   UNL     1      28.403  16.827  58.330  1.00  0.00     0.214 C 
ATOM      5  C   UNL     1      26.956  16.974  58.780  1.00  0.00     0.339 C 
ATOM      6  O   UNL     1      26.722  16.552  60.160  1.00  0.00    -0.332 OA
ENDROOT
BRANCH   1   7
ATOM      7  C   UNL     1      28.865  17.660  61.282  1.00  0.00     0.198 C 
BRANCH   7   8
ATOM      8  O   UNL     1      28.528  18.322  62.587  1.00  0.00    -0.347 OA
BRANCH   8   9
ATOM      9  C   UNL     1      27.511  19.389  62.698  1.00  0.00     0.281 C 
ATOM     10  C   UNL     1      24.746  20.149  64.944  1.00  0.00     0.041 C 
ATOM     11  C   UNL     1      25.468  20.116  63.633  1.00  0.00     0.150 C 
ATOM     12  C   UNL     1      25.887  21.535  63.224  1.00  0.00     0.174 C 
ATOM     13  O   UNL     1      26.422  19.021  63.568  1.00  0.00    -0.344 OA
ATOM     14  C   UNL     1      26.463  21.494  61.744  1.00  0.00     0.179 C 
ATOM     15  C   UNL     1      26.922  19.998  61.390  1.00  0.00     0.202 C 
BRANCH  12  16
ATOM     16  O   UNL     1      26.849  22.115  64.113  1.00  0.00    -0.388 OA
ATOM     17  H   UNL     1      26.368  22.342  64.975  1.00  0.00     0.211 HD
ENDBRANCH  12  16
BRANCH  14  18
ATOM     18  O   UNL     1      25.529  22.108  60.909  1.00  0.00    -0.387 OA
ATOM     19  H   UNL     1      25.722  23.085  61.039  1.00  0.00     0.211 HD
ENDBRANCH  14  18
BRANCH  15  20
ATOM     20  O   UNL     1      27.871  19.986  60.384  1.00  0.00    -0.385 OA
ATOM     21  H   UNL     1      28.669  19.481  60.881  1.00  0.00     0.211 HD
ENDBRANCH  15  20
ENDBRANCH   8   9
ENDBRANCH   7   8
ENDBRANCH   1   7
BRANCH   2  22
ATOM     22  O   UNL     1      28.275  13.991  60.823  1.00  0.00    -0.387 OA
ATOM     23  H   UNL     1      28.038  13.464  60.030  1.00  0.00     0.211 HD
ENDBRANCH   2  22
BRANCH   3  24
ATOM     24  O   UNL     1      27.997  14.477  58.111  1.00  0.00    -0.387 OA
ATOM     25  H   UNL     1      27.634  14.997  57.307  1.00  0.00     0.211 HD
ENDBRANCH   3  24
BRANCH   5  26
ATOM     26  O   UNL     1      26.415  18.257  58.506  1.00  0.00    -0.454 OA
BRANCH  26  27
ATOM     27  C   UNL     1      25.713  18.934  57.469  1.00  0.00     0.214 A 
ATOM     28  C   UNL     1      26.100  20.263  57.332  1.00  0.00     0.180 A 
ATOM     29  C   UNL     1      24.634  18.416  56.696  1.00  0.00     0.239 A 
ATOM     30  O   UNL     1      25.194  20.994  56.702  1.00  0.00    -0.452 OA
ATOM     31  C   UNL     1      24.397  19.090  55.403  1.00  0.00     0.111 A 
ATOM     32  O   UNL     1      23.660  17.863  57.320  1.00  0.00    -0.285 OA
ATOM     33  C   UNL     1      24.536  20.427  55.710  1.00  0.00     0.146 A 
ATOM     34  C   UNL     1      23.776  18.779  54.083  1.00  0.00     0.134 A 
ATOM     35  C   UNL     1      23.905  21.340  54.915  1.00  0.00     0.094 A 
ATOM     36  C   UNL     1      23.686  19.821  53.044  1.00  0.00     0.093 A 
ATOM     37  C   UNL     1      23.470  21.109  53.606  1.00  0.00     0.123 A 
BRANCH  28  38
ATOM     38  C   UNL     1      27.508  20.764  57.249  1.00  0.00     0.025 A 
ATOM     39  C   UNL     1      28.482  20.004  56.592  1.00  0.00     0.062 A 
ATOM     40  C   UNL     1      27.493  22.051  56.632  1.00  0.00     0.016 A 
ATOM     41  C   UNL     1      28.736  20.151  55.212  1.00  0.00     0.158 A 
ATOM     42  C   UNL     1      27.308  22.124  55.245  1.00  0.00     0.051 A 
ATOM     43  C   UNL     1      27.893  21.068  54.511  1.00  0.00     0.157 A 
BRANCH  41  44
ATOM     44  O   UNL     1      29.700  19.447  54.556  1.00  0.00    -0.504 OA
ATOM     45  H   UNL     1      29.879  18.433  54.738  1.00  0.00     0.293 HD
ENDBRANCH  41  44
BRANCH  43  46
ATOM     46  O   UNL     1      27.391  20.802  53.212  1.00  0.00    -0.504 OA
ATOM     47  H   UNL     1      26.710  21.494  52.809  1.00  0.00     0.293 HD
ENDBRANCH  43  46
ENDBRANCH  28  38
BRANCH  34  48
ATOM     48  O   UNL     1      23.284  17.491  53.780  1.00  0.00    -0.507 OA
ATOM     49  H   UNL     1      23.549  16.943  52.969  1.00  0.00     0.293 HD
ENDBRANCH  34  48
BRANCH  37  50
ATOM     50  O   UNL     1      22.891  22.119  52.878  1.00  0.00    -0.508 OA
ATOM     51  H   UNL     1      22.604  22.970  53.336  1.00  0.00     0.293 HD
ENDBRANCH  37  50
ENDBRANCH  26  27
ENDBRANCH   5  26
BRANCH   4  52
ATOM     52  O   UNL     1      28.856  17.274  57.053  1.00  0.00    -0.384 OA
ATOM     53  H   UNL     1      28.956  18.232  56.924  1.00  0.00     0.211 HD
ENDBRANCH   4  52
TORSDOF 16
ENDMDL
