MODEL 1
REMARK VINA RESULT:    -4.438      0.000      0.000
REMARK INTER + INTRA:          -9.513
REMARK INTER:                  -8.070
REMARK INTRA:                  -1.442
REMARK UNBOUND:                -1.442
REMARK SMILES CCCCCCCCCCCCCCCC(=O)[O-]
REMARK SMILES IDX 9 1 10 2 11 3 12 4 13 5 14 6 15 7 16 8 17 9 18 10 8 11 7 12
REMARK SMILES IDX 6 13 5 14 4 15 3 16 2 17 1 18
REMARK H PARENT
REMARK Flexibility Score: inf
ROOT
ATOM      1  C   UNL     1      15.815   1.565  40.899  1.00  0.00     0.000 C 
ENDROOT
BRANCH   1   2
ATOM      2  C   UNL     1      17.316   1.762  40.636  1.00  0.00     0.000 C 
BRANCH   2   3
ATOM      3  C   UNL     1      17.619   3.222  40.268  1.00  0.00     0.000 C 
BRANCH   3   4
ATOM      4  C   UNL     1      18.003   4.076  41.488  1.00  0.00     0.000 C 
BRANCH   4   5
ATOM      5  C   UNL     1      16.861   5.001  41.944  1.00  0.00     0.000 C 
BRANCH   5   6
ATOM      6  C   UNL     1      15.902   5.372  40.798  1.00  0.00     0.006 C 
BRANCH   6   7
ATOM      7  C   UNL     1      15.355   6.807  40.866  1.00  0.00     0.053 C 
BRANCH   7   8
ATOM      8  C   UNL     1      16.449   7.816  41.036  1.00  0.00     0.041 C 
ATOM      9  O   UNL     1      16.556   8.459  42.113  1.00  0.00    -0.550 OA
ATOM     10  O   UNL     1      17.331   8.068  39.993  1.00  0.00    -0.550 OA
ENDBRANCH   7   8
ENDBRANCH   6   7
ENDBRANCH   5   6
ENDBRANCH   4   5
ENDBRANCH   3   4
ENDBRANCH   2   3
ENDBRANCH   1   2
BRANCH   1  11
ATOM     11  C   UNL     1      15.418   0.082  41.003  1.00  0.00     0.000 C 
BRANCH  11  12
ATOM     12  C   UNL     1      14.020  -0.196  40.425  1.00  0.00    -0.000 C 
BRANCH  12  13
ATOM     13  C   UNL     1      13.088  -0.881  41.440  1.00  0.00    -0.000 C 
BRANCH  13  14
ATOM     14  C   UNL     1      11.760  -0.125  41.624  1.00  0.00    -0.000 C 
BRANCH  14  15
ATOM     15  C   UNL     1      11.523   0.926  40.528  1.00  0.00    -0.000 C 
BRANCH  15  16
ATOM     16  C   UNL     1      10.717   2.135  41.028  1.00  0.00    -0.000 C 
BRANCH  16  17
ATOM     17  C   UNL     1      11.514   2.931  42.068  1.00  0.00    -0.003 C 
ATOM     18  C   UNL     1      12.669   3.688  41.418  1.00  0.00     0.004 C 
ENDBRANCH  16  17
ENDBRANCH  15  16
ENDBRANCH  14  15
ENDBRANCH  13  14
ENDBRANCH  12  13
ENDBRANCH  11  12
ENDBRANCH   1  11
TORSDOF 14
ENDMDL
MODEL 2
REMARK VINA RESULT:    -4.402      4.446      7.818
REMARK INTER + INTRA:          -9.447
REMARK INTER:                  -8.156
REMARK INTRA:                  -1.291
REMARK UNBOUND:                -1.442
REMARK SMILES CCCCCCCCCCCCCCCC(=O)[O-]
REMARK SMILES IDX 9 1 10 2 11 3 12 4 13 5 14 6 15 7 16 8 17 9 18 10 8 11 7 12
REMARK SMILES IDX 6 13 5 14 4 15 3 16 2 17 1 18
REMARK H PARENT
REMARK Flexibility Score: inf
ROOT
ATOM      1  C   UNL     1      11.191   2.309  41.116  1.00  0.00     0.000 C 
ENDROOT
BRANCH   1   2
ATOM      2  C   UNL     1      10.657   1.188  42.021  1.00  0.00     0.000 C 
BRANCH   2   3
ATOM      3  C   UNL     1      11.193  -0.180  41.573  1.00  0.00     0.000 C 
BRANCH   3   4
ATOM      4  C   UNL     1      12.437  -0.066  40.676  1.00  0.00     0.000 C 
BRANCH   4   5
ATOM      5  C   UNL     1      13.730  -0.471  41.406  1.00  0.00     0.000 C 
BRANCH   5   6
ATOM      6  C   UNL     1      14.590  -1.454  40.591  1.00  0.00     0.006 C 
BRANCH   6   7
ATOM      7  C   UNL     1      14.368  -2.934  40.941  1.00  0.00     0.053 C 
BRANCH   7   8
ATOM      8  C   UNL     1      13.672  -3.672  39.838  1.00  0.00     0.041 C 
ATOM      9  O   UNL     1      14.311  -4.484  39.118  1.00  0.00    -0.550 OA
ATOM     10  O   UNL     1      12.326  -3.439  39.585  1.00  0.00    -0.550 OA
ENDBRANCH   7   8
ENDBRANCH   6   7
ENDBRANCH   5   6
ENDBRANCH   4   5
ENDBRANCH   3   4
ENDBRANCH   2   3
ENDBRANCH   1   2
BRANCH   1  11
ATOM     11  C   UNL     1      11.977   3.379  41.893  1.00  0.00     0.000 C 
BRANCH  11  12
ATOM     12  C   UNL     1      12.926   4.185  40.991  1.00  0.00    -0.000 C 
BRANCH  12  13
ATOM     13  C   UNL     1      14.161   4.703  41.748  1.00  0.00    -0.000 C 
BRANCH  13  14
ATOM     14  C   UNL     1      15.041   5.623  40.883  1.00  0.00    -0.000 C 
BRANCH  14  15
ATOM     15  C   UNL     1      16.541   5.332  41.051  1.00  0.00    -0.000 C 
BRANCH  15  16
ATOM     16  C   UNL     1      16.813   3.972  41.713  1.00  0.00    -0.000 C 
BRANCH  16  17
ATOM     17  C   UNL     1      17.428   2.988  40.711  1.00  0.00    -0.003 C 
ATOM     18  C   UNL     1      16.596   1.714  40.606  1.00  0.00     0.004 C 
ENDBRANCH  16  17
ENDBRANCH  15  16
ENDBRANCH  14  15
ENDBRANCH  13  14
ENDBRANCH  12  13
ENDBRANCH  11  12
ENDBRANCH   1  11
TORSDOF 14
ENDMDL
MODEL 3
REMARK VINA RESULT:    -4.304      3.535      5.751
REMARK INTER + INTRA:          -9.269
REMARK INTER:                  -7.255
REMARK INTRA:                  -2.014
REMARK UNBOUND:                -1.442
REMARK SMILES CCCCCCCCCCCCCCCC(=O)[O-]
REMARK SMILES IDX 9 1 10 2 11 3 12 4 13 5 14 6 15 7 16 8 17 9 18 10 8 11 7 12
REMARK SMILES IDX 6 13 5 14 4 15 3 16 2 17 1 18
REMARK H PARENT
REMARK Flexibility Score: inf
ROOT
ATOM      1  C   UNL     1      15.271   7.224  44.444  1.00  0.00     0.000 C 
ENDROOT
BRANCH   1   2
ATOM      2  C   UNL     1      16.301   6.164  44.867  1.00  0.00     0.000 C 
BRANCH   2   3
ATOM      3  C   UNL     1      17.465   6.809  45.634  1.00  0.00     0.000 C 
BRANCH   3   4
ATOM      4  C   UNL     1      18.235   7.839  44.792  1.00  0.00     0.000 C 
BRANCH   4   5
ATOM      5  C   UNL     1      18.989   7.193  43.615  1.00  0.00     0.000 C 
BRANCH   5   6
ATOM      6  C   UNL     1      18.681   7.872  42.268  1.00  0.00     0.006 C 
BRANCH   6   7
ATOM      7  C   UNL     1      17.746   9.088  42.368  1.00  0.00     0.053 C 
BRANCH   7   8
ATOM      8  C   UNL     1      16.865   9.218  41.163  1.00  0.00     0.041 C 
ATOM      9  O   UNL     1      15.674   9.608  41.288  1.00  0.00    -0.550 OA
ATOM     10  O   UNL     1      17.350   8.878  39.907  1.00  0.00    -0.550 OA
ENDBRANCH   7   8
ENDBRANCH   6   7
ENDBRANCH   5   6
ENDBRANCH   4   5
ENDBRANCH   3   4
ENDBRANCH   2   3
ENDBRANCH   1   2
BRANCH   1  11
ATOM     11  C   UNL     1      14.497   6.829  43.176  1.00  0.00     0.000 C 
BRANCH  11  12
ATOM     12  C   UNL     1      15.018   5.525  42.547  1.00  0.00    -0.000 C 
BRANCH  12  13
ATOM     13  C   UNL     1      15.461   5.711  41.085  1.00  0.00    -0.000 C 
BRANCH  13  14
ATOM     14  C   UNL     1      16.848   5.105  40.808  1.00  0.00    -0.000 C 
BRANCH  14  15
ATOM     15  C   UNL     1      16.788   3.591  40.547  1.00  0.00    -0.000 C 
BRANCH  15  16
ATOM     16  C   UNL     1      17.844   2.808  41.342  1.00  0.00    -0.000 C 
BRANCH  16  17
ATOM     17  C   UNL     1      19.091   2.548  40.489  1.00  0.00    -0.003 C 
ATOM     18  C   UNL     1      20.359   2.985  41.217  1.00  0.00     0.004 C 
ENDBRANCH  16  17
ENDBRANCH  15  16
ENDBRANCH  14  15
ENDBRANCH  13  14
ENDBRANCH  12  13
ENDBRANCH  11  12
ENDBRANCH   1  11
TORSDOF 14
ENDMDL
MODEL 4
REMARK VINA RESULT:    -4.282      1.897      5.446
REMARK INTER + INTRA:          -9.229
REMARK INTER:                  -7.713
REMARK INTRA:                  -1.516
REMARK UNBOUND:                -1.442
REMARK SMILES CCCCCCCCCCCCCCCC(=O)[O-]
REMARK SMILES IDX 9 1 10 2 11 3 12 4 13 5 14 6 15 7 16 8 17 9 18 10 8 11 7 12
REMARK SMILES IDX 6 13 5 14 4 15 3 16 2 17 1 18
REMARK H PARENT
REMARK Flexibility Score: inf
ROOT
ATOM      1  C   UNL     1      14.004  -0.137  40.518  1.00  0.00     0.000 C 
ENDROOT
BRANCH   1   2
ATOM      2  C   UNL     1      13.112  -0.629  41.668  1.00  0.00     0.000 C 
BRANCH   2   3
ATOM      3  C   UNL     1      11.698  -0.040  41.554  1.00  0.00     0.000 C 
BRANCH   3   4
ATOM      4  C   UNL     1      11.471   0.711  40.231  1.00  0.00     0.000 C 
BRANCH   4   5
ATOM      5  C   UNL     1      11.125   2.195  40.447  1.00  0.00     0.000 C 
BRANCH   5   6
ATOM      6  C   UNL     1      11.731   2.765  41.743  1.00  0.00     0.006 C 
BRANCH   6   7
ATOM      7  C   UNL     1      12.905   3.732  41.522  1.00  0.00     0.053 C 
BRANCH   7   8
ATOM      8  C   UNL     1      12.440   5.092  41.100  1.00  0.00     0.041 C 
ATOM      9  O   UNL     1      12.509   5.438  39.891  1.00  0.00    -0.550 OA
ATOM     10  O   UNL     1      11.960   5.988  42.046  1.00  0.00    -0.550 OA
ENDBRANCH   7   8
ENDBRANCH   6   7
ENDBRANCH   5   6
ENDBRANCH   4   5
ENDBRANCH   3   4
ENDBRANCH   2   3
ENDBRANCH   1   2
BRANCH   1  11
ATOM     11  C   UNL     1      15.441   0.172  40.969  1.00  0.00     0.000 C 
BRANCH  11  12
ATOM     12  C   UNL     1      15.894   1.587  40.572  1.00  0.00    -0.000 C 
BRANCH  12  13
ATOM     13  C   UNL     1      17.415   1.777  40.697  1.00  0.00    -0.000 C 
BRANCH  13  14
ATOM     14  C   UNL     1      17.790   3.106  41.376  1.00  0.00    -0.000 C 
BRANCH  14  15
ATOM     15  C   UNL     1      16.563   3.979  41.682  1.00  0.00    -0.000 C 
BRANCH  15  16
ATOM     16  C   UNL     1      16.344   5.085  40.637  1.00  0.00    -0.000 C 
BRANCH  16  17
ATOM     17  C   UNL     1      16.198   6.453  41.311  1.00  0.00    -0.003 C 
ATOM     18  C   UNL     1      16.853   7.552  40.479  1.00  0.00     0.004 C 
ENDBRANCH  16  17
ENDBRANCH  15  16
ENDBRANCH  14  15
ENDBRANCH  13  14
ENDBRANCH  12  13
ENDBRANCH  11  12
ENDBRANCH   1  11
TORSDOF 14
ENDMDL
MODEL 5
REMARK VINA RESULT:    -4.271      2.453      4.463
REMARK INTER + INTRA:          -9.209
REMARK INTER:                  -8.129
REMARK INTRA:                  -1.080
REMARK UNBOUND:                -1.442
REMARK SMILES CCCCCCCCCCCCCCCC(=O)[O-]
REMARK SMILES IDX 9 1 10 2 11 3 12 4 13 5 14 6 15 7 16 8 17 9 18 10 8 11 7 12
REMARK SMILES IDX 6 13 5 14 4 15 3 16 2 17 1 18
REMARK H PARENT
REMARK Flexibility Score: inf
ROOT
ATOM      1  C   UNL     1      12.692   4.161  41.382  1.00  0.00     0.000 C 
ENDROOT
BRANCH   1   2
ATOM      2  C   UNL     1      13.194   4.968  42.590  1.00  0.00     0.000 C 
BRANCH   2   3
ATOM      3  C   UNL     1      14.626   5.470  42.354  1.00  0.00     0.000 C 
BRANCH   3   4
ATOM      4  C   UNL     1      15.091   5.281  40.900  1.00  0.00     0.000 C 
BRANCH   4   5
ATOM      5  C   UNL     1      16.581   4.906  40.802  1.00  0.00     0.000 C 
BRANCH   5   6
ATOM      6  C   UNL     1      16.811   3.383  40.793  1.00  0.00     0.006 C 
BRANCH   6   7
ATOM      7  C   UNL     1      17.945   2.907  41.716  1.00  0.00     0.053 C 
BRANCH   7   8
ATOM      8  C   UNL     1      19.244   2.770  40.983  1.00  0.00     0.041 C 
ATOM      9  O   UNL     1      20.333   2.989  41.577  1.00  0.00    -0.550 OA
ATOM     10  O   UNL     1      19.250   2.432  39.636  1.00  0.00    -0.550 OA
ENDBRANCH   7   8
ENDBRANCH   6   7
ENDBRANCH   5   6
ENDBRANCH   4   5
ENDBRANCH   3   4
ENDBRANCH   2   3
ENDBRANCH   1   2
BRANCH   1  11
ATOM     11  C   UNL     1      12.167   2.769  41.773  1.00  0.00     0.000 C 
BRANCH  11  12
ATOM     12  C   UNL     1      11.192   2.192  40.732  1.00  0.00    -0.000 C 
BRANCH  12  13
ATOM     13  C   UNL     1      10.564   0.863  41.185  1.00  0.00    -0.000 C 
BRANCH  13  14
ATOM     14  C   UNL     1      11.614  -0.143  41.691  1.00  0.00    -0.000 C 
BRANCH  14  15
ATOM     15  C   UNL     1      12.527  -0.656  40.566  1.00  0.00    -0.000 C 
BRANCH  15  16
ATOM     16  C   UNL     1      14.008  -0.318  40.801  1.00  0.00    -0.000 C 
BRANCH  16  17
ATOM     17  C   UNL     1      14.836  -1.592  40.998  1.00  0.00    -0.003 C 
ATOM     18  C   UNL     1      14.081  -2.823  40.505  1.00  0.00     0.004 C 
ENDBRANCH  16  17
ENDBRANCH  15  16
ENDBRANCH  14  15
ENDBRANCH  13  14
ENDBRANCH  12  13
ENDBRANCH  11  12
ENDBRANCH   1  11
TORSDOF 14
ENDMDL
MODEL 6
REMARK VINA RESULT:    -4.245      1.248      2.155
REMARK INTER + INTRA:          -9.162
REMARK INTER:                  -8.169
REMARK INTRA:                  -0.993
REMARK UNBOUND:                -1.442
REMARK SMILES CCCCCCCCCCCCCCCC(=O)[O-]
REMARK SMILES IDX 9 1 10 2 11 3 12 4 13 5 14 6 15 7 16 8 17 9 18 10 8 11 7 12
REMARK SMILES IDX 6 13 5 14 4 15 3 16 2 17 1 18
REMARK H PARENT
REMARK Flexibility Score: inf
ROOT
ATOM      1  C   UNL     1      15.702   1.389  40.862  1.00  0.00     0.000 C 
ENDROOT
BRANCH   1   2
ATOM      2  C   UNL     1      17.170   1.752  40.592  1.00  0.00     0.000 C 
BRANCH   2   3
ATOM      3  C   UNL     1      17.325   3.263  40.360  1.00  0.00     0.000 C 
BRANCH   3   4
ATOM      4  C   UNL     1      17.671   4.030  41.646  1.00  0.00     0.000 C 
BRANCH   4   5
ATOM      5  C   UNL     1      16.504   4.899  42.147  1.00  0.00     0.000 C 
BRANCH   5   6
ATOM      6  C   UNL     1      15.420   5.115  41.075  1.00  0.00     0.006 C 
BRANCH   6   7
ATOM      7  C   UNL     1      14.886   6.554  40.992  1.00  0.00     0.053 C 
BRANCH   7   8
ATOM      8  C   UNL     1      15.993   7.564  41.016  1.00  0.00     0.041 C 
ATOM      9  O   UNL     1      16.053   8.416  41.941  1.00  0.00    -0.550 OA
ATOM     10  O   UNL     1      16.940   7.583  40.000  1.00  0.00    -0.550 OA
ENDBRANCH   7   8
ENDBRANCH   6   7
ENDBRANCH   5   6
ENDBRANCH   4   5
ENDBRANCH   3   4
ENDBRANCH   2   3
ENDBRANCH   1   2
BRANCH   1  11
ATOM     11  C   UNL     1      15.479  -0.126  41.004  1.00  0.00     0.000 C 
BRANCH  11  12
ATOM     12  C   UNL     1      14.174  -0.596  40.340  1.00  0.00    -0.000 C 
BRANCH  12  13
ATOM     13  C   UNL     1      13.064  -0.889  41.365  1.00  0.00    -0.000 C 
BRANCH  13  14
ATOM     14  C   UNL     1      12.045   0.259  41.475  1.00  0.00    -0.000 C 
BRANCH  14  15
ATOM     15  C   UNL     1      10.656  -0.226  41.920  1.00  0.00    -0.000 C 
BRANCH  15  16
ATOM     16  C   UNL     1       9.570   0.026  40.863  1.00  0.00    -0.000 C 
BRANCH  16  17
ATOM     17  C   UNL     1       9.795  -0.853  39.627  1.00  0.00    -0.003 C 
ATOM     18  C   UNL     1       9.573  -2.328  39.951  1.00  0.00     0.004 C 
ENDBRANCH  16  17
ENDBRANCH  15  16
ENDBRANCH  14  15
ENDBRANCH  13  14
ENDBRANCH  12  13
ENDBRANCH  11  12
ENDBRANCH   1  11
TORSDOF 14
ENDMDL
MODEL 7
REMARK VINA RESULT:    -4.243      3.961      6.673
REMARK INTER + INTRA:          -9.158
REMARK INTER:                  -7.616
REMARK INTRA:                  -1.542
REMARK UNBOUND:                -1.442
REMARK SMILES CCCCCCCCCCCCCCCC(=O)[O-]
REMARK SMILES IDX 9 1 10 2 11 3 12 4 13 5 14 6 15 7 16 8 17 9 18 10 8 11 7 12
REMARK SMILES IDX 6 13 5 14 4 15 3 16 2 17 1 18
REMARK H PARENT
REMARK Flexibility Score: inf
ROOT
ATOM      1  C   UNL     1      15.951   5.482  41.187  1.00  0.00     0.000 C 
ENDROOT
BRANCH   1   2
ATOM      2  C   UNL     1      14.427   5.502  40.993  1.00  0.00     0.000 C 
BRANCH   2   3
ATOM      3  C   UNL     1      13.762   4.359  41.774  1.00  0.00     0.000 C 
BRANCH   3   4
ATOM      4  C   UNL     1      12.478   3.846  41.101  1.00  0.00     0.000 C 
BRANCH   4   5
ATOM      5  C   UNL     1      11.822   2.694  41.883  1.00  0.00     0.000 C 
BRANCH   5   6
ATOM      6  C   UNL     1      11.801   1.374  41.091  1.00  0.00     0.006 C 
BRANCH   6   7
ATOM      7  C   UNL     1      11.124   0.204  41.823  1.00  0.00     0.053 C 
BRANCH   7   8
ATOM      8  C   UNL     1       9.694   0.037  41.410  1.00  0.00     0.041 C 
ATOM      9  O   UNL     1       9.387  -0.786  40.507  1.00  0.00    -0.550 OA
ATOM     10  O   UNL     1       8.704   0.813  42.000  1.00  0.00    -0.550 OA
ENDBRANCH   7   8
ENDBRANCH   6   7
ENDBRANCH   5   6
ENDBRANCH   4   5
ENDBRANCH   3   4
ENDBRANCH   2   3
ENDBRANCH   1   2
BRANCH   1  11
ATOM     11  C   UNL     1      16.471   4.121  41.682  1.00  0.00     0.000 C 
BRANCH  11  12
ATOM     12  C   UNL     1      17.499   3.498  40.723  1.00  0.00    -0.000 C 
BRANCH  12  13
ATOM     13  C   UNL     1      17.305   1.981  40.555  1.00  0.00    -0.000 C 
BRANCH  13  14
ATOM     14  C   UNL     1      16.046   1.464  41.276  1.00  0.00    -0.000 C 
BRANCH  14  15
ATOM     15  C   UNL     1      15.174   0.576  40.375  1.00  0.00    -0.000 C 
BRANCH  15  16
ATOM     16  C   UNL     1      14.928  -0.818  40.974  1.00  0.00    -0.000 C 
BRANCH  16  17
ATOM     17  C   UNL     1      13.952  -1.622  40.107  1.00  0.00    -0.003 C 
ATOM     18  C   UNL     1      14.135  -3.122  40.316  1.00  0.00     0.004 C 
ENDBRANCH  16  17
ENDBRANCH  15  16
ENDBRANCH  14  15
ENDBRANCH  13  14
ENDBRANCH  12  13
ENDBRANCH  11  12
ENDBRANCH   1  11
TORSDOF 14
ENDMDL
MODEL 8
REMARK VINA RESULT:    -4.218      0.926      3.807
REMARK INTER + INTRA:          -9.113
REMARK INTER:                  -7.573
REMARK INTRA:                  -1.540
REMARK UNBOUND:                -1.442
REMARK SMILES CCCCCCCCCCCCCCCC(=O)[O-]
REMARK SMILES IDX 9 1 10 2 11 3 12 4 13 5 14 6 15 7 16 8 17 9 18 10 8 11 7 12
REMARK SMILES IDX 6 13 5 14 4 15 3 16 2 17 1 18
REMARK H PARENT
REMARK Flexibility Score: inf
ROOT
ATOM      1  C   UNL     1      11.265   2.153  41.195  1.00  0.00     0.000 C 
ENDROOT
BRANCH   1   2
ATOM      2  C   UNL     1      12.520   3.026  41.352  1.00  0.00     0.000 C 
BRANCH   2   3
ATOM      3  C   UNL     1      12.137   4.480  41.664  1.00  0.00     0.000 C 
BRANCH   3   4
ATOM      4  C   UNL     1      13.089   5.142  42.675  1.00  0.00     0.000 C 
BRANCH   4   5
ATOM      5  C   UNL     1      14.564   5.053  42.243  1.00  0.00     0.000 C 
BRANCH   5   6
ATOM      6  C   UNL     1      14.848   5.821  40.939  1.00  0.00     0.006 C 
BRANCH   6   7
ATOM      7  C   UNL     1      16.340   5.955  40.594  1.00  0.00     0.053 C 
BRANCH   7   8
ATOM      8  C   UNL     1      16.887   7.294  40.984  1.00  0.00     0.041 C 
ATOM      9  O   UNL     1      17.372   8.060  40.110  1.00  0.00    -0.550 OA
ATOM     10  O   UNL     1      16.890   7.683  42.318  1.00  0.00    -0.550 OA
ENDBRANCH   7   8
ENDBRANCH   6   7
ENDBRANCH   5   6
ENDBRANCH   4   5
ENDBRANCH   3   4
ENDBRANCH   2   3
ENDBRANCH   1   2
BRANCH   1  11
ATOM     11  C   UNL     1      11.581   0.748  40.652  1.00  0.00     0.000 C 
BRANCH  11  12
ATOM     12  C   UNL     1      12.162  -0.184  41.730  1.00  0.00    -0.000 C 
BRANCH  12  13
ATOM     13  C   UNL     1      13.318  -1.049  41.199  1.00  0.00    -0.000 C 
BRANCH  13  14
ATOM     14  C   UNL     1      14.247  -0.273  40.248  1.00  0.00    -0.000 C 
BRANCH  14  15
ATOM     15  C   UNL     1      15.515   0.239  40.950  1.00  0.00    -0.000 C 
BRANCH  15  16
ATOM     16  C   UNL     1      15.868   1.683  40.561  1.00  0.00    -0.000 C 
BRANCH  16  17
ATOM     17  C   UNL     1      17.364   1.952  40.754  1.00  0.00    -0.003 C 
ATOM     18  C   UNL     1      17.618   2.785  42.007  1.00  0.00     0.004 C 
ENDBRANCH  16  17
ENDBRANCH  15  16
ENDBRANCH  14  15
ENDBRANCH  13  14
ENDBRANCH  12  13
ENDBRANCH  11  12
ENDBRANCH   1  11
TORSDOF 14
ENDMDL
MODEL 9
REMARK VINA RESULT:    -4.218      3.371      7.276
REMARK INTER + INTRA:          -9.112
REMARK INTER:                  -8.191
REMARK INTRA:                  -0.921
REMARK UNBOUND:                -1.442
REMARK SMILES CCCCCCCCCCCCCCCC(=O)[O-]
REMARK SMILES IDX 9 1 10 2 11 3 12 4 13 5 14 6 15 7 16 8 17 9 18 10 8 11 7 12
REMARK SMILES IDX 6 13 5 14 4 15 3 16 2 17 1 18
REMARK H PARENT
REMARK Flexibility Score: inf
ROOT
ATOM      1  C   UNL     1      12.114   4.459  42.375  1.00  0.00     0.000 C 
ENDROOT
BRANCH   1   2
ATOM      2  C   UNL     1      11.322   3.152  42.538  1.00  0.00     0.000 C 
BRANCH   2   3
ATOM      3  C   UNL     1      11.429   2.287  41.272  1.00  0.00     0.000 C 
BRANCH   3   4
ATOM      4  C   UNL     1      11.621   0.794  41.586  1.00  0.00     0.000 C 
BRANCH   4   5
ATOM      5  C   UNL     1      11.279  -0.109  40.388  1.00  0.00     0.000 C 
BRANCH   5   6
ATOM      6  C   UNL     1      12.329  -1.211  40.155  1.00  0.00     0.006 C 
BRANCH   6   7
ATOM      7  C   UNL     1      13.692  -0.696  39.665  1.00  0.00     0.053 C 
BRANCH   7   8
ATOM      8  C   UNL     1      14.767  -0.898  40.689  1.00  0.00     0.041 C 
ATOM      9  O   UNL     1      15.539   0.049  40.993  1.00  0.00    -0.550 OA
ATOM     10  O   UNL     1      14.937  -2.142  41.283  1.00  0.00    -0.550 OA
ENDBRANCH   7   8
ENDBRANCH   6   7
ENDBRANCH   5   6
ENDBRANCH   4   5
ENDBRANCH   3   4
ENDBRANCH   2   3
ENDBRANCH   1   2
BRANCH   1  11
ATOM     11  C   UNL     1      12.985   4.473  41.107  1.00  0.00     0.000 C 
BRANCH  11  12
ATOM     12  C   UNL     1      14.086   5.546  41.160  1.00  0.00    -0.000 C 
BRANCH  12  13
ATOM     13  C   UNL     1      15.253   5.150  42.081  1.00  0.00    -0.000 C 
BRANCH  13  14
ATOM     14  C   UNL     1      16.598   5.085  41.335  1.00  0.00    -0.000 C 
BRANCH  14  15
ATOM     15  C   UNL     1      17.299   3.727  41.502  1.00  0.00    -0.000 C 
BRANCH  15  16
ATOM     16  C   UNL     1      17.645   3.068  40.158  1.00  0.00    -0.000 C 
BRANCH  16  17
ATOM     17  C   UNL     1      18.923   2.230  40.272  1.00  0.00    -0.003 C 
ATOM     18  C   UNL     1      19.974   2.939  41.122  1.00  0.00     0.004 C 
ENDBRANCH  16  17
ENDBRANCH  15  16
ENDBRANCH  14  15
ENDBRANCH  13  14
ENDBRANCH  12  13
ENDBRANCH  11  12
ENDBRANCH   1  11
TORSDOF 14
ENDMDL
