MODEL 1
REMARK VINA RESULT:    -2.765      0.000      0.000
REMARK INTER + INTRA:          -6.969
REMARK INTER:                  -5.351
REMARK INTRA:                  -1.618
REMARK UNBOUND:                -1.618
REMARK SMILES CCCCCCCCCCCCCCCCCC(=O)[O-]
REMARK SMILES IDX 10 1 11 2 12 3 13 4 14 5 15 6 16 7 17 8 18 9 19 10 20 11
REMARK SMILES IDX 9 12 8 13 7 14 6 15 5 16 4 17 3 18 2 19 1 20
REMARK H PARENT
REMARK Flexibility Score: inf
ROOT
ATOM      1  C   UNL     1      15.494  15.352   7.385  1.00  0.00     0.000 C 
ENDROOT
BRANCH   1   2
ATOM      2  C   UNL     1      15.618  13.840   7.675  1.00  0.00     0.000 C 
BRANCH   2   3
ATOM      3  C   UNL     1      17.044  13.398   8.051  1.00  0.00     0.000 C 
BRANCH   3   4
ATOM      4  C   UNL     1      17.116  12.744   9.440  1.00  0.00     0.000 C 
BRANCH   4   5
ATOM      5  C   UNL     1      17.095  13.770  10.585  1.00  0.00     0.000 C 
BRANCH   5   6
ATOM      6  C   UNL     1      16.926  13.134  11.982  1.00  0.00     0.000 C 
BRANCH   6   7
ATOM      7  C   UNL     1      16.095  11.842  11.938  1.00  0.00     0.006 C 
BRANCH   7   8
ATOM      8  C   UNL     1      14.888  11.901  12.888  1.00  0.00     0.053 C 
BRANCH   8   9
ATOM      9  C   UNL     1      13.679  12.469  12.207  1.00  0.00     0.041 C 
ATOM     10  O   UNL     1      13.698  12.690  10.967  1.00  0.00    -0.550 OA
ATOM     11  O   UNL     1      12.542  12.782  12.943  1.00  0.00    -0.550 OA
ENDBRANCH   8   9
ENDBRANCH   7   8
ENDBRANCH   6   7
ENDBRANCH   5   6
ENDBRANCH   4   5
ENDBRANCH   3   4
ENDBRANCH   2   3
ENDBRANCH   1   2
BRANCH   1  12
ATOM     12  C   UNL     1      16.849  16.068   7.239  1.00  0.00     0.000 C 
BRANCH  12  13
ATOM     13  C   UNL     1      16.984  17.282   8.179  1.00  0.00    -0.000 C 
BRANCH  13  14
ATOM     14  C   UNL     1      15.814  17.397   9.170  1.00  0.00    -0.000 C 
BRANCH  14  15
ATOM     15  C   UNL     1      16.247  17.164  10.627  1.00  0.00    -0.000 C 
BRANCH  15  16
ATOM     16  C   UNL     1      16.340  18.472  11.430  1.00  0.00    -0.000 C 
BRANCH  16  17
ATOM     17  C   UNL     1      15.488  19.598  10.824  1.00  0.00    -0.000 C 
BRANCH  17  18
ATOM     18  C   UNL     1      15.860  20.955  11.439  1.00  0.00    -0.000 C 
BRANCH  18  19
ATOM     19  C   UNL     1      14.673  21.630  12.146  1.00  0.00    -0.003 C 
ATOM     20  C   UNL     1      13.339  20.951  11.836  1.00  0.00     0.004 C 
ENDBRANCH  18  19
ENDBRANCH  17  18
ENDBRANCH  16  17
ENDBRANCH  15  16
ENDBRANCH  14  15
ENDBRANCH  13  14
ENDBRANCH  12  13
ENDBRANCH   1  12
TORSDOF 16
ENDMDL
MODEL 2
REMARK VINA RESULT:    -2.738      1.796      2.580
REMARK INTER + INTRA:          -6.917
REMARK INTER:                  -5.533
REMARK INTRA:                  -1.384
REMARK UNBOUND:                -1.618
REMARK SMILES CCCCCCCCCCCCCCCCCC(=O)[O-]
REMARK SMILES IDX 10 1 11 2 12 3 13 4 14 5 15 6 16 7 17 8 18 9 19 10 20 11
REMARK SMILES IDX 9 12 8 13 7 14 6 15 5 16 4 17 3 18 2 19 1 20
REMARK H PARENT
REMARK Flexibility Score: inf
ROOT
ATOM      1  C   UNL     1      16.907  15.333   8.904  1.00  0.00     0.000 C 
ENDROOT
BRANCH   1   2
ATOM      2  C   UNL     1      16.474  15.340   7.421  1.00  0.00     0.000 C 
BRANCH   2   3
ATOM      3  C   UNL     1      15.495  14.209   7.058  1.00  0.00     0.000 C 
BRANCH   3   4
ATOM      4  C   UNL     1      15.381  13.145   8.160  1.00  0.00     0.000 C 
BRANCH   4   5
ATOM      5  C   UNL     1      13.924  12.807   8.518  1.00  0.00     0.000 C 
BRANCH   5   6
ATOM      6  C   UNL     1      13.778  12.017   9.835  1.00  0.00     0.000 C 
BRANCH   6   7
ATOM      7  C   UNL     1      14.098  12.876  11.070  1.00  0.00     0.006 C 
BRANCH   7   8
ATOM      8  C   UNL     1      14.606  12.027  12.246  1.00  0.00     0.053 C 
BRANCH   8   9
ATOM      9  C   UNL     1      16.064  11.710  12.106  1.00  0.00     0.041 C 
ATOM     10  O   UNL     1      16.429  10.565  11.728  1.00  0.00    -0.550 OA
ATOM     11  O   UNL     1      17.022  12.667  12.420  1.00  0.00    -0.550 OA
ENDBRANCH   8   9
ENDBRANCH   7   8
ENDBRANCH   6   7
ENDBRANCH   5   6
ENDBRANCH   4   5
ENDBRANCH   3   4
ENDBRANCH   2   3
ENDBRANCH   1   2
BRANCH   1  12
ATOM     12  C   UNL     1      15.971  16.138   9.826  1.00  0.00     0.000 C 
BRANCH  12  13
ATOM     13  C   UNL     1      16.383  16.054  11.309  1.00  0.00    -0.000 C 
BRANCH  13  14
ATOM     14  C   UNL     1      16.575  17.439  11.948  1.00  0.00    -0.000 C 
BRANCH  14  15
ATOM     15  C   UNL     1      15.638  18.502  11.352  1.00  0.00    -0.000 C 
BRANCH  15  16
ATOM     16  C   UNL     1      16.384  19.781  10.939  1.00  0.00    -0.000 C 
BRANCH  16  17
ATOM     17  C   UNL     1      15.805  21.041  11.599  1.00  0.00    -0.000 C 
BRANCH  17  18
ATOM     18  C   UNL     1      15.026  20.680  12.873  1.00  0.00    -0.000 C 
BRANCH  18  19
ATOM     19  C   UNL     1      13.801  21.581  13.094  1.00  0.00    -0.003 C 
ATOM     20  C   UNL     1      13.087  21.935  11.790  1.00  0.00     0.004 C 
ENDBRANCH  18  19
ENDBRANCH  17  18
ENDBRANCH  16  17
ENDBRANCH  15  16
ENDBRANCH  14  15
ENDBRANCH  13  14
ENDBRANCH  12  13
ENDBRANCH   1  12
TORSDOF 16
ENDMDL
MODEL 3
REMARK VINA RESULT:    -2.628      2.782      6.734
REMARK INTER + INTRA:          -6.705
REMARK INTER:                  -5.055
REMARK INTRA:                  -1.649
REMARK UNBOUND:                -1.618
REMARK SMILES CCCCCCCCCCCCCCCCCC(=O)[O-]
REMARK SMILES IDX 10 1 11 2 12 3 13 4 14 5 15 6 16 7 17 8 18 9 19 10 20 11
REMARK SMILES IDX 9 12 8 13 7 14 6 15 5 16 4 17 3 18 2 19 1 20
REMARK H PARENT
REMARK Flexibility Score: inf
ROOT
ATOM      1  C   UNL     1      15.809  15.227   9.747  1.00  0.00     0.000 C 
ENDROOT
BRANCH   1   2
ATOM      2  C   UNL     1      16.340  15.827   8.426  1.00  0.00     0.000 C 
BRANCH   2   3
ATOM      3  C   UNL     1      15.898  17.283   8.187  1.00  0.00     0.000 C 
BRANCH   3   4
ATOM      4  C   UNL     1      16.900  18.307   8.741  1.00  0.00     0.000 C 
BRANCH   4   5
ATOM      5  C   UNL     1      16.705  18.583  10.241  1.00  0.00     0.000 C 
BRANCH   5   6
ATOM      6  C   UNL     1      16.937  20.057  10.634  1.00  0.00     0.000 C 
BRANCH   6   7
ATOM      7  C   UNL     1      15.723  20.668  11.353  1.00  0.00     0.006 C 
BRANCH   7   8
ATOM      8  C   UNL     1      14.778  19.588  11.903  1.00  0.00     0.053 C 
BRANCH   8   9
ATOM      9  C   UNL     1      13.487  20.180  12.383  1.00  0.00     0.041 C 
ATOM     10  O   UNL     1      12.705  19.497  13.096  1.00  0.00    -0.550 OA
ATOM     11  O   UNL     1      13.132  21.474  12.021  1.00  0.00    -0.550 OA
ENDBRANCH   8   9
ENDBRANCH   7   8
ENDBRANCH   6   7
ENDBRANCH   5   6
ENDBRANCH   4   5
ENDBRANCH   3   4
ENDBRANCH   2   3
ENDBRANCH   1   2
BRANCH   1  12
ATOM     12  C   UNL     1      16.831  14.337  10.478  1.00  0.00     0.000 C 
BRANCH  12  13
ATOM     13  C   UNL     1      17.113  14.815  11.916  1.00  0.00    -0.000 C 
BRANCH  13  14
ATOM     14  C   UNL     1      16.964  13.690  12.954  1.00  0.00    -0.000 C 
BRANCH  14  15
ATOM     15  C   UNL     1      16.842  12.300  12.308  1.00  0.00    -0.000 C 
BRANCH  15  16
ATOM     16  C   UNL     1      15.538  11.583  12.694  1.00  0.00    -0.000 C 
BRANCH  16  17
ATOM     17  C   UNL     1      14.366  12.556  12.890  1.00  0.00    -0.000 C 
BRANCH  17  18
ATOM     18  C   UNL     1      13.542  12.684  11.600  1.00  0.00    -0.000 C 
BRANCH  18  19
ATOM     19  C   UNL     1      14.087  11.811  10.459  1.00  0.00    -0.003 C 
ATOM     20  C   UNL     1      13.855  12.430   9.081  1.00  0.00     0.004 C 
ENDBRANCH  18  19
ENDBRANCH  17  18
ENDBRANCH  16  17
ENDBRANCH  15  16
ENDBRANCH  14  15
ENDBRANCH  13  14
ENDBRANCH  12  13
ENDBRANCH   1  12
TORSDOF 16
ENDMDL
MODEL 4
REMARK VINA RESULT:    -2.564      1.426      2.024
REMARK INTER + INTRA:          -6.580
REMARK INTER:                  -5.072
REMARK INTRA:                  -1.508
REMARK UNBOUND:                -1.618
REMARK SMILES CCCCCCCCCCCCCCCCCC(=O)[O-]
REMARK SMILES IDX 10 1 11 2 12 3 13 4 14 5 15 6 16 7 17 8 18 9 19 10 20 11
REMARK SMILES IDX 9 12 8 13 7 14 6 15 5 16 4 17 3 18 2 19 1 20
REMARK H PARENT
REMARK Flexibility Score: inf
ROOT
ATOM      1  C   UNL     1      15.356  14.833   8.605  1.00  0.00     0.000 C 
ENDROOT
BRANCH   1   2
ATOM      2  C   UNL     1      16.265  13.684   9.095  1.00  0.00     0.000 C 
BRANCH   2   3
ATOM      3  C   UNL     1      17.104  14.044  10.334  1.00  0.00     0.000 C 
BRANCH   3   4
ATOM      4  C   UNL     1      16.471  15.163  11.175  1.00  0.00     0.000 C 
BRANCH   4   5
ATOM      5  C   UNL     1      16.392  14.816  12.671  1.00  0.00     0.000 C 
BRANCH   5   6
ATOM      6  C   UNL     1      14.992  14.353  13.125  1.00  0.00     0.000 C 
BRANCH   6   7
ATOM      7  C   UNL     1      14.811  12.831  13.001  1.00  0.00     0.006 C 
BRANCH   7   8
ATOM      8  C   UNL     1      13.639  12.464  12.077  1.00  0.00     0.053 C 
BRANCH   8   9
ATOM      9  C   UNL     1      14.111  11.747  10.848  1.00  0.00     0.041 C 
ATOM     10  O   UNL     1      15.046  10.906  10.927  1.00  0.00    -0.550 OA
ATOM     11  O   UNL     1      13.542  12.028   9.611  1.00  0.00    -0.550 OA
ENDBRANCH   8   9
ENDBRANCH   7   8
ENDBRANCH   6   7
ENDBRANCH   5   6
ENDBRANCH   4   5
ENDBRANCH   3   4
ENDBRANCH   2   3
ENDBRANCH   1   2
BRANCH   1  12
ATOM     12  C   UNL     1      15.618  15.253   7.147  1.00  0.00     0.000 C 
BRANCH  12  13
ATOM     13  C   UNL     1      16.697  16.347   7.029  1.00  0.00    -0.000 C 
BRANCH  13  14
ATOM     14  C   UNL     1      17.124  16.907   8.395  1.00  0.00    -0.000 C 
BRANCH  14  15
ATOM     15  C   UNL     1      16.963  18.434   8.487  1.00  0.00    -0.000 C 
BRANCH  15  16
ATOM     16  C   UNL     1      16.630  18.907   9.912  1.00  0.00    -0.000 C 
BRANCH  16  17
ATOM     17  C   UNL     1      15.191  18.565  10.325  1.00  0.00    -0.000 C 
BRANCH  17  18
ATOM     18  C   UNL     1      14.819  19.269  11.638  1.00  0.00    -0.000 C 
BRANCH  18  19
ATOM     19  C   UNL     1      15.170  20.765  11.629  1.00  0.00    -0.003 C 
ATOM     20  C   UNL     1      13.966  21.656  11.934  1.00  0.00     0.004 C 
ENDBRANCH  18  19
ENDBRANCH  17  18
ENDBRANCH  16  17
ENDBRANCH  15  16
ENDBRANCH  14  15
ENDBRANCH  13  14
ENDBRANCH  12  13
ENDBRANCH   1  12
TORSDOF 16
ENDMDL
MODEL 5
REMARK VINA RESULT:    -2.509      2.797      6.424
REMARK INTER + INTRA:          -6.475
REMARK INTER:                  -4.808
REMARK INTRA:                  -1.667
REMARK UNBOUND:                -1.618
REMARK SMILES CCCCCCCCCCCCCCCCCC(=O)[O-]
REMARK SMILES IDX 10 1 11 2 12 3 13 4 14 5 15 6 16 7 17 8 18 9 19 10 20 11
REMARK SMILES IDX 9 12 8 13 7 14 6 15 5 16 4 17 3 18 2 19 1 20
REMARK H PARENT
REMARK Flexibility Score: inf
ROOT
ATOM      1  C   UNL     1      15.713  15.130   8.259  1.00  0.00     0.000 C 
ENDROOT
BRANCH   1   2
ATOM      2  C   UNL     1      15.787  16.510   7.568  1.00  0.00     0.000 C 
BRANCH   2   3
ATOM      3  C   UNL     1      16.318  17.630   8.480  1.00  0.00     0.000 C 
BRANCH   3   4
ATOM      4  C   UNL     1      15.584  17.697   9.828  1.00  0.00     0.000 C 
BRANCH   4   5
ATOM      5  C   UNL     1      16.371  18.467  10.901  1.00  0.00     0.000 C 
BRANCH   5   6
ATOM      6  C   UNL     1      16.299  20.000  10.741  1.00  0.00     0.000 C 
BRANCH   6   7
ATOM      7  C   UNL     1      15.820  20.698  12.024  1.00  0.00     0.006 C 
BRANCH   7   8
ATOM      8  C   UNL     1      14.626  21.630  11.761  1.00  0.00     0.053 C 
BRANCH   8   9
ATOM      9  C   UNL     1      13.353  21.060  12.310  1.00  0.00     0.041 C 
ATOM     10  O   UNL     1      12.485  21.822  12.813  1.00  0.00    -0.550 OA
ATOM     11  O   UNL     1      13.136  19.687  12.294  1.00  0.00    -0.550 OA
ENDBRANCH   8   9
ENDBRANCH   7   8
ENDBRANCH   6   7
ENDBRANCH   5   6
ENDBRANCH   4   5
ENDBRANCH   3   4
ENDBRANCH   2   3
ENDBRANCH   1   2
BRANCH   1  12
ATOM     12  C   UNL     1      16.212  13.969   7.380  1.00  0.00     0.000 C 
BRANCH  12  13
ATOM     13  C   UNL     1      17.064  12.953   8.165  1.00  0.00    -0.000 C 
BRANCH  13  14
ATOM     14  C   UNL     1      17.120  13.264   9.670  1.00  0.00    -0.000 C 
BRANCH  14  15
ATOM     15  C   UNL     1      16.452  12.176  10.525  1.00  0.00    -0.000 C 
BRANCH  15  16
ATOM     16  C   UNL     1      14.923  12.151  10.360  1.00  0.00    -0.000 C 
BRANCH  16  17
ATOM     17  C   UNL     1      14.200  12.953  11.452  1.00  0.00    -0.000 C 
BRANCH  17  18
ATOM     18  C   UNL     1      15.096  13.124  12.688  1.00  0.00    -0.000 C 
BRANCH  18  19
ATOM     19  C   UNL     1      15.229  14.591  13.125  1.00  0.00    -0.003 C 
ATOM     20  C   UNL     1      16.530  15.234  12.645  1.00  0.00     0.004 C 
ENDBRANCH  18  19
ENDBRANCH  17  18
ENDBRANCH  16  17
ENDBRANCH  15  16
ENDBRANCH  14  15
ENDBRANCH  13  14
ENDBRANCH  12  13
ENDBRANCH   1  12
TORSDOF 16
ENDMDL
MODEL 6
REMARK VINA RESULT:    -2.362      2.715      6.393
REMARK INTER + INTRA:          -6.189
REMARK INTER:                  -4.292
REMARK INTRA:                  -1.898
REMARK UNBOUND:                -1.618
REMARK SMILES CCCCCCCCCCCCCCCCCC(=O)[O-]
REMARK SMILES IDX 10 1 11 2 12 3 13 4 14 5 15 6 16 7 17 8 18 9 19 10 20 11
REMARK SMILES IDX 9 12 8 13 7 14 6 15 5 16 4 17 3 18 2 19 1 20
REMARK H PARENT
REMARK Flexibility Score: inf
ROOT
ATOM      1  C   UNL     1      16.924  15.809   7.795  1.00  0.00     0.000 C 
ENDROOT
BRANCH   1   2
ATOM      2  C   UNL     1      16.848  17.311   8.150  1.00  0.00     0.000 C 
BRANCH   2   3
ATOM      3  C   UNL     1      15.993  17.608   9.396  1.00  0.00     0.000 C 
BRANCH   3   4
ATOM      4  C   UNL     1      16.763  17.397  10.709  1.00  0.00     0.000 C 
BRANCH   4   5
ATOM      5  C   UNL     1      16.799  18.656  11.590  1.00  0.00     0.000 C 
BRANCH   5   6
ATOM      6  C   UNL     1      16.424  19.950  10.837  1.00  0.00     0.000 C 
BRANCH   6   7
ATOM      7  C   UNL     1      16.058  21.097  11.793  1.00  0.00     0.006 C 
BRANCH   7   8
ATOM      8  C   UNL     1      15.116  20.632  12.915  1.00  0.00     0.053 C 
BRANCH   8   9
ATOM      9  C   UNL     1      13.676  20.791  12.525  1.00  0.00     0.041 C 
ATOM     10  O   UNL     1      13.140  21.930  12.541  1.00  0.00    -0.550 OA
ATOM     11  O   UNL     1      12.919  19.680  12.173  1.00  0.00    -0.550 OA
ENDBRANCH   8   9
ENDBRANCH   7   8
ENDBRANCH   6   7
ENDBRANCH   5   6
ENDBRANCH   4   5
ENDBRANCH   3   4
ENDBRANCH   2   3
ENDBRANCH   1   2
BRANCH   1  12
ATOM     12  C   UNL     1      15.560  15.095   7.823  1.00  0.00     0.000 C 
BRANCH  12  13
ATOM     13  C   UNL     1      15.589  13.790   8.641  1.00  0.00    -0.000 C 
BRANCH  13  14
ATOM     14  C   UNL     1      17.014  13.368   9.033  1.00  0.00    -0.000 C 
BRANCH  14  15
ATOM     15  C   UNL     1      17.124  12.951  10.508  1.00  0.00    -0.000 C 
BRANCH  15  16
ATOM     16  C   UNL     1      17.104  14.155  11.465  1.00  0.00    -0.000 C 
BRANCH  16  17
ATOM     17  C   UNL     1      16.444  13.827  12.812  1.00  0.00    -0.000 C 
BRANCH  17  18
ATOM     18  C   UNL     1      14.921  14.014  12.733  1.00  0.00    -0.000 C 
BRANCH  18  19
ATOM     19  C   UNL     1      14.157  12.682  12.783  1.00  0.00    -0.003 C 
ATOM     20  C   UNL     1      13.460  12.351  11.463  1.00  0.00     0.004 C 
ENDBRANCH  18  19
ENDBRANCH  17  18
ENDBRANCH  16  17
ENDBRANCH  15  16
ENDBRANCH  14  15
ENDBRANCH  13  14
ENDBRANCH  12  13
ENDBRANCH   1  12
TORSDOF 16
ENDMDL
MODEL 7
REMARK VINA RESULT:    -1.686      1.736      2.763
REMARK INTER + INTRA:          -4.882
REMARK INTER:                  -3.756
REMARK INTRA:                  -1.125
REMARK UNBOUND:                -1.618
REMARK SMILES CCCCCCCCCCCCCCCCCC(=O)[O-]
REMARK SMILES IDX 10 1 11 2 12 3 13 4 14 5 15 6 16 7 17 8 18 9 19 10 20 11
REMARK SMILES IDX 9 12 8 13 7 14 6 15 5 16 4 17 3 18 2 19 1 20
REMARK H PARENT
REMARK Flexibility Score: inf
ROOT
ATOM      1  C   UNL     1      13.902  13.248   7.187  1.00  0.00     0.000 C 
ENDROOT
BRANCH   1   2
ATOM      2  C   UNL     1      13.295  12.562   8.431  1.00  0.00     0.000 C 
BRANCH   2   3
ATOM      3  C   UNL     1      14.215  12.597   9.665  1.00  0.00     0.000 C 
BRANCH   3   4
ATOM      4  C   UNL     1      14.047  11.364  10.566  1.00  0.00     0.000 C 
BRANCH   4   5
ATOM      5  C   UNL     1      15.357  10.941  11.251  1.00  0.00     0.000 C 
BRANCH   5   6
ATOM      6  C   UNL     1      16.445  12.036  11.236  1.00  0.00     0.000 C 
BRANCH   6   7
ATOM      7  C   UNL     1      17.124  12.201  12.606  1.00  0.00     0.006 C 
BRANCH   7   8
ATOM      8  C   UNL     1      17.104  13.661  13.085  1.00  0.00     0.053 C 
BRANCH   8   9
ATOM      9  C   UNL     1      15.754  14.285  12.892  1.00  0.00     0.041 C 
ATOM     10  O   UNL     1      15.660  15.492  12.544  1.00  0.00    -0.550 OA
ATOM     11  O   UNL     1      14.601  13.545  13.124  1.00  0.00    -0.550 OA
ENDBRANCH   8   9
ENDBRANCH   7   8
ENDBRANCH   6   7
ENDBRANCH   5   6
ENDBRANCH   4   5
ENDBRANCH   3   4
ENDBRANCH   2   3
ENDBRANCH   1   2
BRANCH   1  12
ATOM     12  C   UNL     1      15.440  13.323   7.208  1.00  0.00     0.000 C 
BRANCH  12  13
ATOM     13  C   UNL     1      15.972  14.722   6.840  1.00  0.00    -0.000 C 
BRANCH  13  14
ATOM     14  C   UNL     1      17.124  15.176   7.751  1.00  0.00    -0.000 C 
BRANCH  14  15
ATOM     15  C   UNL     1      16.670  16.176   8.827  1.00  0.00    -0.000 C 
BRANCH  15  16
ATOM     16  C   UNL     1      15.957  17.401   8.230  1.00  0.00    -0.000 C 
BRANCH  16  17
ATOM     17  C   UNL     1      16.049  18.636   9.138  1.00  0.00    -0.000 C 
BRANCH  17  18
ATOM     18  C   UNL     1      15.931  18.237  10.616  1.00  0.00    -0.000 C 
BRANCH  18  19
ATOM     19  C   UNL     1      15.723  19.446  11.542  1.00  0.00    -0.003 C 
ATOM     20  C   UNL     1      14.248  19.809  11.715  1.00  0.00     0.004 C 
ENDBRANCH  18  19
ENDBRANCH  17  18
ENDBRANCH  16  17
ENDBRANCH  15  16
ENDBRANCH  14  15
ENDBRANCH  13  14
ENDBRANCH  12  13
ENDBRANCH   1  12
TORSDOF 16
ENDMDL
MODEL 8
REMARK VINA RESULT:    -1.578      3.007      6.668
REMARK INTER + INTRA:          -4.672
REMARK INTER:                  -3.992
REMARK INTRA:                  -0.680
REMARK UNBOUND:                -1.618
REMARK SMILES CCCCCCCCCCCCCCCCCC(=O)[O-]
REMARK SMILES IDX 10 1 11 2 12 3 13 4 14 5 15 6 16 7 17 8 18 9 19 10 20 11
REMARK SMILES IDX 9 12 8 13 7 14 6 15 5 16 4 17 3 18 2 19 1 20
REMARK H PARENT
REMARK Flexibility Score: inf
ROOT
ATOM      1  C   UNL     1      15.798  14.632  11.097  1.00  0.00     0.000 C 
ENDROOT
BRANCH   1   2
ATOM      2  C   UNL     1      16.709  14.629  12.345  1.00  0.00     0.000 C 
BRANCH   2   3
ATOM      3  C   UNL     1      16.696  15.959  13.122  1.00  0.00     0.000 C 
BRANCH   3   4
ATOM      4  C   UNL     1      16.693  17.186  12.198  1.00  0.00     0.000 C 
BRANCH   4   5
ATOM      5  C   UNL     1      15.716  18.280  12.659  1.00  0.00     0.000 C 
BRANCH   5   6
ATOM      6  C   UNL     1      15.310  19.260  11.539  1.00  0.00     0.000 C 
BRANCH   6   7
ATOM      7  C   UNL     1      16.045  20.606  11.646  1.00  0.00     0.006 C 
BRANCH   7   8
ATOM      8  C   UNL     1      15.182  21.679  12.328  1.00  0.00     0.053 C 
BRANCH   8   9
ATOM      9  C   UNL     1      13.739  21.275  12.380  1.00  0.00     0.041 C 
ATOM     10  O   UNL     1      13.375  20.327  13.125  1.00  0.00    -0.550 OA
ATOM     11  O   UNL     1      12.801  21.923  11.584  1.00  0.00    -0.550 OA
ENDBRANCH   8   9
ENDBRANCH   7   8
ENDBRANCH   6   7
ENDBRANCH   5   6
ENDBRANCH   4   5
ENDBRANCH   3   4
ENDBRANCH   2   3
ENDBRANCH   1   2
BRANCH   1  12
ATOM     12  C   UNL     1      14.691  13.562  11.135  1.00  0.00     0.000 C 
BRANCH  12  13
ATOM     13  C   UNL     1      14.559  12.796   9.804  1.00  0.00    -0.000 C 
BRANCH  13  14
ATOM     14  C   UNL     1      14.759  13.701   8.578  1.00  0.00    -0.000 C 
BRANCH  14  15
ATOM     15  C   UNL     1      15.031  12.904   7.291  1.00  0.00    -0.000 C 
BRANCH  15  16
ATOM     16  C   UNL     1      16.259  13.423   6.524  1.00  0.00    -0.000 C 
BRANCH  16  17
ATOM     17  C   UNL     1      17.048  14.475   7.318  1.00  0.00    -0.000 C 
BRANCH  17  18
ATOM     18  C   UNL     1      17.036  15.828   6.592  1.00  0.00    -0.000 C 
BRANCH  18  19
ATOM     19  C   UNL     1      16.139  16.866   7.286  1.00  0.00    -0.003 C 
ATOM     20  C   UNL     1      16.528  17.099   8.745  1.00  0.00     0.004 C 
ENDBRANCH  18  19
ENDBRANCH  17  18
ENDBRANCH  16  17
ENDBRANCH  15  16
ENDBRANCH  14  15
ENDBRANCH  13  14
ENDBRANCH  12  13
ENDBRANCH   1  12
TORSDOF 16
ENDMDL
