MODEL 1
REMARK VINA RESULT:    -5.472      0.000      0.000
REMARK INTER + INTRA:         -14.758
REMARK INTER:                 -12.510
REMARK INTRA:                  -2.248
REMARK UNBOUND:                -2.248
REMARK SMILES CCCCCCCCCCCCCCCCCCCCCCCC(=O)[O-]
REMARK SMILES IDX 13 1 14 2 15 3 16 4 17 5 18 6 19 7 20 8 21 9 22 10 23 11
REMARK SMILES IDX 24 12 25 13 26 14 12 15 11 16 10 17 9 18 8 19 7 20 6 21 5 22
REMARK SMILES IDX 4 23 3 24 2 25 1 26
REMARK H PARENT
REMARK Flexibility Score: inf
ROOT
ATOM      1  C   UNL     1      -0.777 -25.367  -1.567  1.00  0.00     0.000 C 
ENDROOT
BRANCH   1   2
ATOM      2  C   UNL     1       0.479 -26.256  -1.644  1.00  0.00     0.000 C 
BRANCH   2   3
ATOM      3  C   UNL     1       0.856 -26.859  -0.281  1.00  0.00     0.000 C 
BRANCH   3   4
ATOM      4  C   UNL     1       1.912 -27.974  -0.390  1.00  0.00     0.000 C 
BRANCH   4   5
ATOM      5  C   UNL     1       1.976 -28.897   0.846  1.00  0.00     0.000 C 
BRANCH   5   6
ATOM      6  C   UNL     1       3.130 -28.522   1.793  1.00  0.00     0.000 C 
BRANCH   6   7
ATOM      7  C   UNL     1       3.140 -29.375   3.072  1.00  0.00     0.000 C 
BRANCH   7   8
ATOM      8  C   UNL     1       3.124 -30.884   2.775  1.00  0.00     0.000 C 
BRANCH   8   9
ATOM      9  C   UNL     1       3.686 -31.715   3.941  1.00  0.00     0.000 C 
BRANCH   9  10
ATOM     10  C   UNL     1       4.166 -30.835   5.110  1.00  0.00     0.006 C 
BRANCH  10  11
ATOM     11  C   UNL     1       3.363 -31.085   6.392  1.00  0.00     0.053 C 
BRANCH  11  12
ATOM     12  C   UNL     1       2.216 -30.130   6.521  1.00  0.00     0.041 C 
ATOM     13  O   UNL     1       2.429 -28.909   6.736  1.00  0.00    -0.550 OA
ATOM     14  O   UNL     1       0.910 -30.590   6.400  1.00  0.00    -0.550 OA
ENDBRANCH  11  12
ENDBRANCH  10  11
ENDBRANCH   9  10
ENDBRANCH   8   9
ENDBRANCH   7   8
ENDBRANCH   6   7
ENDBRANCH   5   6
ENDBRANCH   4   5
ENDBRANCH   3   4
ENDBRANCH   2   3
ENDBRANCH   1   2
BRANCH   1  15
ATOM     15  C   UNL     1      -0.990 -24.673  -0.205  1.00  0.00     0.000 C 
BRANCH  15  16
ATOM     16  C   UNL     1      -1.962 -23.476  -0.220  1.00  0.00     0.000 C 
BRANCH  16  17
ATOM     17  C   UNL     1      -2.634 -23.161   1.132  1.00  0.00     0.000 C 
BRANCH  17  18
ATOM     18  C   UNL     1      -4.163 -22.993   1.067  1.00  0.00    -0.000 C 
BRANCH  18  19
ATOM     19  C   UNL     1      -4.906 -24.340   1.089  1.00  0.00    -0.000 C 
BRANCH  19  20
ATOM     20  C   UNL     1      -3.994 -25.505   1.528  1.00  0.00    -0.000 C 
BRANCH  20  21
ATOM     21  C   UNL     1      -4.230 -26.808   0.743  1.00  0.00    -0.000 C 
BRANCH  21  22
ATOM     22  C   UNL     1      -4.146 -26.614  -0.779  1.00  0.00    -0.000 C 
BRANCH  22  23
ATOM     23  C   UNL     1      -5.536 -26.682  -1.422  1.00  0.00    -0.000 C 
BRANCH  23  24
ATOM     24  C   UNL     1      -5.807 -25.430  -2.270  1.00  0.00    -0.000 C 
BRANCH  24  25
ATOM     25  C   UNL     1      -4.528 -24.635  -2.573  1.00  0.00    -0.003 C 
ATOM     26  C   UNL     1      -4.768 -23.473  -3.535  1.00  0.00     0.004 C 
ENDBRANCH  24  25
ENDBRANCH  23  24
ENDBRANCH  22  23
ENDBRANCH  21  22
ENDBRANCH  20  21
ENDBRANCH  19  20
ENDBRANCH  18  19
ENDBRANCH  17  18
ENDBRANCH  16  17
ENDBRANCH  15  16
ENDBRANCH   1  15
TORSDOF 22
ENDMDL
MODEL 2
REMARK VINA RESULT:    -5.472      2.965      6.296
REMARK INTER + INTRA:         -14.757
REMARK INTER:                 -12.436
REMARK INTRA:                  -2.321
REMARK UNBOUND:                -2.248
REMARK SMILES CCCCCCCCCCCCCCCCCCCCCCCC(=O)[O-]
REMARK SMILES IDX 13 1 14 2 15 3 16 4 17 5 18 6 19 7 20 8 21 9 22 10 23 11
REMARK SMILES IDX 24 12 25 13 26 14 12 15 11 16 10 17 9 18 8 19 7 20 6 21 5 22
REMARK SMILES IDX 4 23 3 24 2 25 1 26
REMARK H PARENT
REMARK Flexibility Score: inf
ROOT
ATOM      1  C   UNL     1       3.133 -29.620   4.564  1.00  0.00     0.000 C 
ENDROOT
BRANCH   1   2
ATOM      2  C   UNL     1       4.031 -30.280   5.626  1.00  0.00     0.000 C 
BRANCH   2   3
ATOM      3  C   UNL     1       3.528 -31.674   6.037  1.00  0.00     0.000 C 
BRANCH   3   4
ATOM      4  C   UNL     1       4.490 -32.803   5.629  1.00  0.00     0.000 C 
BRANCH   4   5
ATOM      5  C   UNL     1       4.644 -32.971   4.103  1.00  0.00     0.000 C 
BRANCH   5   6
ATOM      6  C   UNL     1       6.111 -33.173   3.684  1.00  0.00     0.000 C 
BRANCH   6   7
ATOM      7  C   UNL     1       6.809 -31.850   3.331  1.00  0.00     0.000 C 
BRANCH   7   8
ATOM      8  C   UNL     1       7.849 -31.431   4.383  1.00  0.00     0.000 C 
BRANCH   8   9
ATOM      9  C   UNL     1       7.572 -30.030   4.954  1.00  0.00     0.000 C 
BRANCH   9  10
ATOM     10  C   UNL     1       7.699 -29.986   6.488  1.00  0.00     0.006 C 
BRANCH  10  11
ATOM     11  C   UNL     1       7.797 -31.388   7.102  1.00  0.00     0.053 C 
BRANCH  11  12
ATOM     12  C   UNL     1       8.311 -31.340   8.509  1.00  0.00     0.041 C 
ATOM     13  O   UNL     1       8.503 -32.405   9.150  1.00  0.00    -0.550 OA
ATOM     14  O   UNL     1       8.580 -30.116   9.110  1.00  0.00    -0.550 OA
ENDBRANCH  11  12
ENDBRANCH  10  11
ENDBRANCH   9  10
ENDBRANCH   8   9
ENDBRANCH   7   8
ENDBRANCH   6   7
ENDBRANCH   5   6
ENDBRANCH   4   5
ENDBRANCH   3   4
ENDBRANCH   2   3
ENDBRANCH   1   2
BRANCH   1  15
ATOM     15  C   UNL     1       3.828 -29.345   3.214  1.00  0.00     0.000 C 
BRANCH  15  16
ATOM     16  C   UNL     1       2.984 -29.658   1.961  1.00  0.00     0.000 C 
BRANCH  16  17
ATOM     17  C   UNL     1       2.164 -28.474   1.411  1.00  0.00     0.000 C 
BRANCH  17  18
ATOM     18  C   UNL     1       2.376 -28.185  -0.086  1.00  0.00    -0.000 C 
BRANCH  18  19
ATOM     19  C   UNL     1       1.639 -26.917  -0.552  1.00  0.00    -0.000 C 
BRANCH  19  20
ATOM     20  C   UNL     1       0.126 -26.975  -0.252  1.00  0.00    -0.000 C 
BRANCH  20  21
ATOM     21  C   UNL     1      -0.551 -25.593  -0.206  1.00  0.00    -0.000 C 
BRANCH  21  22
ATOM     22  C   UNL     1      -1.186 -25.193  -1.547  1.00  0.00    -0.000 C 
BRANCH  22  23
ATOM     23  C   UNL     1      -2.612 -24.665  -1.347  1.00  0.00    -0.000 C 
BRANCH  23  24
ATOM     24  C   UNL     1      -3.014 -24.725   0.135  1.00  0.00    -0.000 C 
BRANCH  24  25
ATOM     25  C   UNL     1      -4.396 -24.107   0.396  1.00  0.00    -0.003 C 
ATOM     26  C   UNL     1      -4.380 -23.081   1.526  1.00  0.00     0.004 C 
ENDBRANCH  24  25
ENDBRANCH  23  24
ENDBRANCH  22  23
ENDBRANCH  21  22
ENDBRANCH  20  21
ENDBRANCH  19  20
ENDBRANCH  18  19
ENDBRANCH  17  18
ENDBRANCH  16  17
ENDBRANCH  15  16
ENDBRANCH   1  15
TORSDOF 22
ENDMDL
MODEL 3
REMARK VINA RESULT:    -5.458      2.066      3.816
REMARK INTER + INTRA:         -14.726
REMARK INTER:                 -12.408
REMARK INTRA:                  -2.318
REMARK UNBOUND:                -2.248
REMARK SMILES CCCCCCCCCCCCCCCCCCCCCCCC(=O)[O-]
REMARK SMILES IDX 13 1 14 2 15 3 16 4 17 5 18 6 19 7 20 8 21 9 22 10 23 11
REMARK SMILES IDX 24 12 25 13 26 14 12 15 11 16 10 17 9 18 8 19 7 20 6 21 5 22
REMARK SMILES IDX 4 23 3 24 2 25 1 26
REMARK H PARENT
REMARK Flexibility Score: inf
ROOT
ATOM      1  C   UNL     1       2.698 -28.101  -0.262  1.00  0.00     0.000 C 
ENDROOT
BRANCH   1   2
ATOM      2  C   UNL     1       2.318 -28.614   1.140  1.00  0.00     0.000 C 
BRANCH   2   3
ATOM      3  C   UNL     1       3.468 -29.379   1.817  1.00  0.00     0.000 C 
BRANCH   3   4
ATOM      4  C   UNL     1       3.534 -29.141   3.336  1.00  0.00     0.000 C 
BRANCH   4   5
ATOM      5  C   UNL     1       2.864 -30.252   4.172  1.00  0.00     0.000 C 
BRANCH   5   6
ATOM      6  C   UNL     1       3.051 -30.035   5.684  1.00  0.00     0.000 C 
BRANCH   6   7
ATOM      7  C   UNL     1       3.694 -31.248   6.376  1.00  0.00     0.000 C 
BRANCH   7   8
ATOM      8  C   UNL     1       3.222 -32.586   5.780  1.00  0.00     0.000 C 
BRANCH   8   9
ATOM      9  C   UNL     1       4.379 -33.397   5.175  1.00  0.00     0.000 C 
BRANCH   9  10
ATOM     10  C   UNL     1       5.737 -33.043   5.808  1.00  0.00     0.006 C 
BRANCH  10  11
ATOM     11  C   UNL     1       6.808 -32.739   4.753  1.00  0.00     0.053 C 
BRANCH  11  12
ATOM     12  C   UNL     1       6.452 -31.536   3.936  1.00  0.00     0.041 C 
ATOM     13  O   UNL     1       6.009 -31.673   2.766  1.00  0.00    -0.550 OA
ATOM     14  O   UNL     1       6.607 -30.261   4.468  1.00  0.00    -0.550 OA
ENDBRANCH  11  12
ENDBRANCH  10  11
ENDBRANCH   9  10
ENDBRANCH   8   9
ENDBRANCH   7   8
ENDBRANCH   6   7
ENDBRANCH   5   6
ENDBRANCH   4   5
ENDBRANCH   3   4
ENDBRANCH   2   3
ENDBRANCH   1   2
BRANCH   1  15
ATOM     15  C   UNL     1       1.652 -27.171  -0.912  1.00  0.00     0.000 C 
BRANCH  15  16
ATOM     16  C   UNL     1       0.738 -26.416   0.074  1.00  0.00     0.000 C 
BRANCH  16  17
ATOM     17  C   UNL     1      -0.719 -26.228  -0.396  1.00  0.00     0.000 C 
BRANCH  17  18
ATOM     18  C   UNL     1      -0.886 -25.307  -1.619  1.00  0.00    -0.000 C 
BRANCH  18  19
ATOM     19  C   UNL     1      -2.116 -24.391  -1.504  1.00  0.00    -0.000 C 
BRANCH  19  20
ATOM     20  C   UNL     1      -2.342 -23.891  -0.061  1.00  0.00    -0.000 C 
BRANCH  20  21
ATOM     21  C   UNL     1      -3.767 -24.143   0.467  1.00  0.00    -0.000 C 
BRANCH  21  22
ATOM     22  C   UNL     1      -3.899 -25.477   1.218  1.00  0.00    -0.000 C 
BRANCH  22  23
ATOM     23  C   UNL     1      -4.622 -26.523   0.362  1.00  0.00    -0.000 C 
BRANCH  23  24
ATOM     24  C   UNL     1      -5.435 -25.850  -0.754  1.00  0.00    -0.000 C 
BRANCH  24  25
ATOM     25  C   UNL     1      -5.093 -26.401  -2.146  1.00  0.00    -0.003 C 
ATOM     26  C   UNL     1      -5.464 -25.437  -3.271  1.00  0.00     0.004 C 
ENDBRANCH  24  25
ENDBRANCH  23  24
ENDBRANCH  22  23
ENDBRANCH  21  22
ENDBRANCH  20  21
ENDBRANCH  19  20
ENDBRANCH  18  19
ENDBRANCH  17  18
ENDBRANCH  16  17
ENDBRANCH  15  16
ENDBRANCH   1  15
TORSDOF 22
ENDMDL
MODEL 4
REMARK VINA RESULT:    -5.446      1.371      3.353
REMARK INTER + INTRA:         -14.699
REMARK INTER:                 -12.675
REMARK INTRA:                  -2.024
REMARK UNBOUND:                -2.248
REMARK SMILES CCCCCCCCCCCCCCCCCCCCCCCC(=O)[O-]
REMARK SMILES IDX 13 1 14 2 15 3 16 4 17 5 18 6 19 7 20 8 21 9 22 10 23 11
REMARK SMILES IDX 24 12 25 13 26 14 12 15 11 16 10 17 9 18 8 19 7 20 6 21 5 22
REMARK SMILES IDX 4 23 3 24 2 25 1 26
REMARK H PARENT
REMARK Flexibility Score: inf
ROOT
ATOM      1  C   UNL     1       2.379 -28.109   0.438  1.00  0.00     0.000 C 
ENDROOT
BRANCH   1   2
ATOM      2  C   UNL     1       2.305 -28.889   1.765  1.00  0.00     0.000 C 
BRANCH   2   3
ATOM      3  C   UNL     1       3.694 -29.299   2.283  1.00  0.00     0.000 C 
BRANCH   3   4
ATOM      4  C   UNL     1       4.769 -29.298   1.182  1.00  0.00     0.000 C 
BRANCH   4   5
ATOM      5  C   UNL     1       6.165 -29.739   1.672  1.00  0.00     0.000 C 
BRANCH   5   6
ATOM      6  C   UNL     1       6.109 -30.422   3.050  1.00  0.00     0.000 C 
BRANCH   6   7
ATOM      7  C   UNL     1       6.041 -31.954   2.944  1.00  0.00     0.000 C 
BRANCH   7   8
ATOM      8  C   UNL     1       5.243 -32.591   4.095  1.00  0.00     0.000 C 
BRANCH   8   9
ATOM      9  C   UNL     1       5.245 -31.717   5.361  1.00  0.00     0.000 C 
BRANCH   9  10
ATOM     10  C   UNL     1       3.954 -31.875   6.183  1.00  0.00     0.006 C 
BRANCH  10  11
ATOM     11  C   UNL     1       2.710 -31.431   5.403  1.00  0.00     0.053 C 
BRANCH  11  12
ATOM     12  C   UNL     1       2.059 -30.238   6.034  1.00  0.00     0.041 C 
ATOM     13  O   UNL     1       0.859 -30.295   6.406  1.00  0.00    -0.550 OA
ATOM     14  O   UNL     1       2.781 -29.064   6.213  1.00  0.00    -0.550 OA
ENDBRANCH  11  12
ENDBRANCH  10  11
ENDBRANCH   9  10
ENDBRANCH   8   9
ENDBRANCH   7   8
ENDBRANCH   6   7
ENDBRANCH   5   6
ENDBRANCH   4   5
ENDBRANCH   3   4
ENDBRANCH   2   3
ENDBRANCH   1   2
BRANCH   1  15
ATOM     15  C   UNL     1       1.012 -27.835  -0.223  1.00  0.00     0.000 C 
BRANCH  15  16
ATOM     16  C   UNL     1       0.550 -26.365  -0.197  1.00  0.00     0.000 C 
BRANCH  16  17
ATOM     17  C   UNL     1      -0.095 -25.857  -1.502  1.00  0.00     0.000 C 
BRANCH  17  18
ATOM     18  C   UNL     1      -1.310 -24.931  -1.302  1.00  0.00    -0.000 C 
BRANCH  18  19
ATOM     19  C   UNL     1      -1.167 -24.030  -0.064  1.00  0.00    -0.000 C 
BRANCH  19  20
ATOM     20  C   UNL     1      -2.514 -23.417   0.374  1.00  0.00    -0.000 C 
BRANCH  20  21
ATOM     21  C   UNL     1      -3.728 -24.322   0.095  1.00  0.00    -0.000 C 
BRANCH  21  22
ATOM     22  C   UNL     1      -3.941 -25.388   1.181  1.00  0.00    -0.000 C 
BRANCH  22  23
ATOM     23  C   UNL     1      -4.304 -26.742   0.561  1.00  0.00    -0.000 C 
BRANCH  23  24
ATOM     24  C   UNL     1      -4.412 -26.633  -0.968  1.00  0.00    -0.000 C 
BRANCH  24  25
ATOM     25  C   UNL     1      -5.755 -27.150  -1.503  1.00  0.00    -0.003 C 
ATOM     26  C   UNL     1      -6.923 -26.229  -1.155  1.00  0.00     0.004 C 
ENDBRANCH  24  25
ENDBRANCH  23  24
ENDBRANCH  22  23
ENDBRANCH  21  22
ENDBRANCH  20  21
ENDBRANCH  19  20
ENDBRANCH  18  19
ENDBRANCH  17  18
ENDBRANCH  16  17
ENDBRANCH  15  16
ENDBRANCH   1  15
TORSDOF 22
ENDMDL
MODEL 5
REMARK VINA RESULT:    -5.385      3.165      6.357
REMARK INTER + INTRA:         -14.559
REMARK INTER:                 -12.584
REMARK INTRA:                  -1.975
REMARK UNBOUND:                -2.248
REMARK SMILES CCCCCCCCCCCCCCCCCCCCCCCC(=O)[O-]
REMARK SMILES IDX 13 1 14 2 15 3 16 4 17 5 18 6 19 7 20 8 21 9 22 10 23 11
REMARK SMILES IDX 24 12 25 13 26 14 12 15 11 16 10 17 9 18 8 19 7 20 6 21 5 22
REMARK SMILES IDX 4 23 3 24 2 25 1 26
REMARK H PARENT
REMARK Flexibility Score: inf
ROOT
ATOM      1  C   UNL     1       3.091 -30.323   4.046  1.00  0.00     0.000 C 
ENDROOT
BRANCH   1   2
ATOM      2  C   UNL     1       3.309 -30.011   5.538  1.00  0.00     0.000 C 
BRANCH   2   3
ATOM      3  C   UNL     1       3.492 -31.283   6.383  1.00  0.00     0.000 C 
BRANCH   3   4
ATOM      4  C   UNL     1       3.121 -32.568   5.621  1.00  0.00     0.000 C 
BRANCH   4   5
ATOM      5  C   UNL     1       4.326 -33.482   5.315  1.00  0.00     0.000 C 
BRANCH   5   6
ATOM      6  C   UNL     1       5.627 -32.965   5.954  1.00  0.00     0.000 C 
BRANCH   6   7
ATOM      7  C   UNL     1       6.754 -32.781   4.926  1.00  0.00     0.000 C 
BRANCH   7   8
ATOM      8  C   UNL     1       6.407 -31.741   3.848  1.00  0.00     0.000 C 
BRANCH   8   9
ATOM      9  C   UNL     1       6.763 -30.309   4.282  1.00  0.00     0.000 C 
BRANCH   9  10
ATOM     10  C   UNL     1       8.052 -30.254   5.121  1.00  0.00     0.006 C 
BRANCH  10  11
ATOM     11  C   UNL     1       8.816 -28.938   4.927  1.00  0.00     0.053 C 
BRANCH  11  12
ATOM     12  C   UNL     1       9.254 -28.758   3.506  1.00  0.00     0.041 C 
ATOM     13  O   UNL     1       9.637 -29.748   2.831  1.00  0.00    -0.550 OA
ATOM     14  O   UNL     1       9.235 -27.495   2.927  1.00  0.00    -0.550 OA
ENDBRANCH  11  12
ENDBRANCH  10  11
ENDBRANCH   9  10
ENDBRANCH   8   9
ENDBRANCH   7   8
ENDBRANCH   6   7
ENDBRANCH   5   6
ENDBRANCH   4   5
ENDBRANCH   3   4
ENDBRANCH   2   3
ENDBRANCH   1   2
BRANCH   1  15
ATOM     15  C   UNL     1       3.205 -29.100   3.111  1.00  0.00     0.000 C 
BRANCH  15  16
ATOM     16  C   UNL     1       2.618 -29.294   1.698  1.00  0.00     0.000 C 
BRANCH  16  17
ATOM     17  C   UNL     1       1.759 -28.123   1.179  1.00  0.00     0.000 C 
BRANCH  17  18
ATOM     18  C   UNL     1       1.621 -28.055  -0.353  1.00  0.00    -0.000 C 
BRANCH  18  19
ATOM     19  C   UNL     1       1.135 -26.680  -0.841  1.00  0.00    -0.000 C 
BRANCH  19  20
ATOM     20  C   UNL     1      -0.281 -26.342  -0.328  1.00  0.00    -0.000 C 
BRANCH  20  21
ATOM     21  C   UNL     1      -1.044 -25.347  -1.221  1.00  0.00    -0.000 C 
BRANCH  21  22
ATOM     22  C   UNL     1      -2.539 -25.260  -0.879  1.00  0.00    -0.000 C 
BRANCH  22  23
ATOM     23  C   UNL     1      -2.886 -26.161   0.311  1.00  0.00    -0.000 C 
BRANCH  23  24
ATOM     24  C   UNL     1      -3.891 -25.469   1.246  1.00  0.00    -0.000 C 
BRANCH  24  25
ATOM     25  C   UNL     1      -4.282 -24.068   0.756  1.00  0.00    -0.003 C 
ATOM     26  C   UNL     1      -4.892 -23.205   1.859  1.00  0.00     0.004 C 
ENDBRANCH  24  25
ENDBRANCH  23  24
ENDBRANCH  22  23
ENDBRANCH  21  22
ENDBRANCH  20  21
ENDBRANCH  19  20
ENDBRANCH  18  19
ENDBRANCH  17  18
ENDBRANCH  16  17
ENDBRANCH  15  16
ENDBRANCH   1  15
TORSDOF 22
ENDMDL
MODEL 6
REMARK VINA RESULT:    -5.366      2.545      5.379
REMARK INTER + INTRA:         -14.515
REMARK INTER:                 -12.546
REMARK INTRA:                  -1.970
REMARK UNBOUND:                -2.248
REMARK SMILES CCCCCCCCCCCCCCCCCCCCCCCC(=O)[O-]
REMARK SMILES IDX 13 1 14 2 15 3 16 4 17 5 18 6 19 7 20 8 21 9 22 10 23 11
REMARK SMILES IDX 24 12 25 13 26 14 12 15 11 16 10 17 9 18 8 19 7 20 6 21 5 22
REMARK SMILES IDX 4 23 3 24 2 25 1 26
REMARK H PARENT
REMARK Flexibility Score: inf
ROOT
ATOM      1  C   UNL     1       3.974 -29.375   1.832  1.00  0.00     0.000 C 
ENDROOT
BRANCH   1   2
ATOM      2  C   UNL     1       4.358 -29.807   3.259  1.00  0.00     0.000 C 
BRANCH   2   3
ATOM      3  C   UNL     1       3.372 -29.284   4.317  1.00  0.00     0.000 C 
BRANCH   3   4
ATOM      4  C   UNL     1       3.388 -30.113   5.614  1.00  0.00     0.000 C 
BRANCH   4   5
ATOM      5  C   UNL     1       2.477 -31.358   5.570  1.00  0.00     0.000 C 
BRANCH   5   6
ATOM      6  C   UNL     1       3.214 -32.635   6.011  1.00  0.00     0.000 C 
BRANCH   6   7
ATOM      7  C   UNL     1       4.302 -33.059   5.011  1.00  0.00     0.000 C 
BRANCH   7   8
ATOM      8  C   UNL     1       5.399 -33.920   5.661  1.00  0.00     0.000 C 
BRANCH   8   9
ATOM      9  C   UNL     1       6.756 -33.199   5.709  1.00  0.00     0.000 C 
BRANCH   9  10
ATOM     10  C   UNL     1       6.766 -31.911   4.865  1.00  0.00     0.006 C 
BRANCH  10  11
ATOM     11  C   UNL     1       7.135 -30.676   5.695  1.00  0.00     0.053 C 
BRANCH  11  12
ATOM     12  C   UNL     1       7.983 -29.719   4.915  1.00  0.00     0.041 C 
ATOM     13  O   UNL     1       7.999 -29.766   3.658  1.00  0.00    -0.550 OA
ATOM     14  O   UNL     1       8.754 -28.772   5.578  1.00  0.00    -0.550 OA
ENDBRANCH  11  12
ENDBRANCH  10  11
ENDBRANCH   9  10
ENDBRANCH   8   9
ENDBRANCH   7   8
ENDBRANCH   6   7
ENDBRANCH   5   6
ENDBRANCH   4   5
ENDBRANCH   3   4
ENDBRANCH   2   3
ENDBRANCH   1   2
BRANCH   1  15
ATOM     15  C   UNL     1       2.458 -29.386   1.543  1.00  0.00     0.000 C 
BRANCH  15  16
ATOM     16  C   UNL     1       1.876 -28.058   1.019  1.00  0.00     0.000 C 
BRANCH  16  17
ATOM     17  C   UNL     1       2.061 -27.813  -0.492  1.00  0.00     0.000 C 
BRANCH  17  18
ATOM     18  C   UNL     1       1.137 -26.733  -1.087  1.00  0.00    -0.000 C 
BRANCH  18  19
ATOM     19  C   UNL     1       0.388 -25.937  -0.005  1.00  0.00    -0.000 C 
BRANCH  19  20
ATOM     20  C   UNL     1      -1.144 -26.055  -0.146  1.00  0.00    -0.000 C 
BRANCH  20  21
ATOM     21  C   UNL     1      -1.766 -24.993  -1.071  1.00  0.00    -0.000 C 
BRANCH  21  22
ATOM     22  C   UNL     1      -3.117 -25.429  -1.658  1.00  0.00    -0.000 C 
BRANCH  22  23
ATOM     23  C   UNL     1      -4.222 -24.427  -1.304  1.00  0.00    -0.000 C 
BRANCH  23  24
ATOM     24  C   UNL     1      -4.736 -24.662   0.125  1.00  0.00    -0.000 C 
BRANCH  24  25
ATOM     25  C   UNL     1      -4.190 -23.632   1.124  1.00  0.00    -0.003 C 
ATOM     26  C   UNL     1      -5.170 -23.329   2.256  1.00  0.00     0.004 C 
ENDBRANCH  24  25
ENDBRANCH  23  24
ENDBRANCH  22  23
ENDBRANCH  21  22
ENDBRANCH  20  21
ENDBRANCH  19  20
ENDBRANCH  18  19
ENDBRANCH  17  18
ENDBRANCH  16  17
ENDBRANCH  15  16
ENDBRANCH   1  15
TORSDOF 22
ENDMDL
MODEL 7
REMARK VINA RESULT:    -5.365      1.332      2.088
REMARK INTER + INTRA:         -14.512
REMARK INTER:                 -12.886
REMARK INTRA:                  -1.626
REMARK UNBOUND:                -2.248
REMARK SMILES CCCCCCCCCCCCCCCCCCCCCCCC(=O)[O-]
REMARK SMILES IDX 13 1 14 2 15 3 16 4 17 5 18 6 19 7 20 8 21 9 22 10 23 11
REMARK SMILES IDX 24 12 25 13 26 14 12 15 11 16 10 17 9 18 8 19 7 20 6 21 5 22
REMARK SMILES IDX 4 23 3 24 2 25 1 26
REMARK H PARENT
REMARK Flexibility Score: inf
ROOT
ATOM      1  C   UNL     1      -0.961 -25.116  -1.264  1.00  0.00     0.000 C 
ENDROOT
BRANCH   1   2
ATOM      2  C   UNL     1      -0.618 -26.315  -0.360  1.00  0.00     0.000 C 
BRANCH   2   3
ATOM      3  C   UNL     1       0.897 -26.480  -0.153  1.00  0.00     0.000 C 
BRANCH   3   4
ATOM      4  C   UNL     1       1.296 -27.915   0.234  1.00  0.00     0.000 C 
BRANCH   4   5
ATOM      5  C   UNL     1       2.698 -28.329  -0.264  1.00  0.00     0.000 C 
BRANCH   5   6
ATOM      6  C   UNL     1       3.578 -28.884   0.871  1.00  0.00     0.000 C 
BRANCH   6   7
ATOM      7  C   UNL     1       2.748 -29.432   2.043  1.00  0.00     0.000 C 
BRANCH   7   8
ATOM      8  C   UNL     1       3.387 -29.132   3.410  1.00  0.00     0.000 C 
BRANCH   8   9
ATOM      9  C   UNL     1       4.399 -30.211   3.831  1.00  0.00     0.000 C 
BRANCH   9  10
ATOM     10  C   UNL     1       4.555 -30.303   5.360  1.00  0.00     0.006 C 
BRANCH  10  11
ATOM     11  C   UNL     1       3.572 -31.300   5.984  1.00  0.00     0.053 C 
BRANCH  11  12
ATOM     12  C   UNL     1       2.283 -30.639   6.366  1.00  0.00     0.041 C 
ATOM     13  O   UNL     1       2.287 -29.491   6.880  1.00  0.00    -0.550 OA
ATOM     14  O   UNL     1       1.075 -31.292   6.151  1.00  0.00    -0.550 OA
ENDBRANCH  11  12
ENDBRANCH  10  11
ENDBRANCH   9  10
ENDBRANCH   8   9
ENDBRANCH   7   8
ENDBRANCH   6   7
ENDBRANCH   5   6
ENDBRANCH   4   5
ENDBRANCH   3   4
ENDBRANCH   2   3
ENDBRANCH   1   2
BRANCH   1  15
ATOM     15  C   UNL     1      -2.439 -24.676  -1.215  1.00  0.00     0.000 C 
BRANCH  15  16
ATOM     16  C   UNL     1      -2.860 -23.920   0.062  1.00  0.00     0.000 C 
BRANCH  16  17
ATOM     17  C   UNL     1      -3.971 -24.599   0.889  1.00  0.00     0.000 C 
BRANCH  17  18
ATOM     18  C   UNL     1      -3.911 -26.138   0.906  1.00  0.00    -0.000 C 
BRANCH  18  19
ATOM     19  C   UNL     1      -4.959 -26.779  -0.020  1.00  0.00    -0.000 C 
BRANCH  19  20
ATOM     20  C   UNL     1      -6.031 -25.769  -0.481  1.00  0.00    -0.000 C 
BRANCH  20  21
ATOM     21  C   UNL     1      -6.992 -26.326  -1.547  1.00  0.00    -0.000 C 
BRANCH  21  22
ATOM     22  C   UNL     1      -7.061 -25.450  -2.807  1.00  0.00    -0.000 C 
BRANCH  22  23
ATOM     23  C   UNL     1      -5.738 -24.710  -3.039  1.00  0.00    -0.000 C 
BRANCH  23  24
ATOM     24  C   UNL     1      -5.438 -24.584  -4.541  1.00  0.00    -0.000 C 
BRANCH  24  25
ATOM     25  C   UNL     1      -6.714 -24.547  -5.395  1.00  0.00    -0.003 C 
ATOM     26  C   UNL     1      -7.180 -23.125  -5.700  1.00  0.00     0.004 C 
ENDBRANCH  24  25
ENDBRANCH  23  24
ENDBRANCH  22  23
ENDBRANCH  21  22
ENDBRANCH  20  21
ENDBRANCH  19  20
ENDBRANCH  18  19
ENDBRANCH  17  18
ENDBRANCH  16  17
ENDBRANCH  15  16
ENDBRANCH   1  15
TORSDOF 22
ENDMDL
MODEL 8
REMARK VINA RESULT:    -5.357      4.993     10.133
REMARK INTER + INTRA:         -14.495
REMARK INTER:                 -11.964
REMARK INTRA:                  -2.531
REMARK UNBOUND:                -2.248
REMARK SMILES CCCCCCCCCCCCCCCCCCCCCCCC(=O)[O-]
REMARK SMILES IDX 13 1 14 2 15 3 16 4 17 5 18 6 19 7 20 8 21 9 22 10 23 11
REMARK SMILES IDX 24 12 25 13 26 14 12 15 11 16 10 17 9 18 8 19 7 20 6 21 5 22
REMARK SMILES IDX 4 23 3 24 2 25 1 26
REMARK H PARENT
REMARK Flexibility Score: inf
ROOT
ATOM      1  C   UNL     1       5.164 -28.199  -1.503  1.00  0.00     0.000 C 
ENDROOT
BRANCH   1   2
ATOM      2  C   UNL     1       4.165 -27.129  -1.982  1.00  0.00     0.000 C 
BRANCH   2   3
ATOM      3  C   UNL     1       2.709 -27.621  -1.935  1.00  0.00     0.000 C 
BRANCH   3   4
ATOM      4  C   UNL     1       1.766 -26.638  -1.219  1.00  0.00     0.000 C 
BRANCH   4   5
ATOM      5  C   UNL     1       1.193 -27.177   0.109  1.00  0.00     0.000 C 
BRANCH   5   6
ATOM      6  C   UNL     1       1.781 -28.550   0.482  1.00  0.00     0.000 C 
BRANCH   6   7
ATOM      7  C   UNL     1       2.496 -28.532   1.842  1.00  0.00     0.000 C 
BRANCH   7   8
ATOM      8  C   UNL     1       3.915 -29.122   1.770  1.00  0.00     0.000 C 
BRANCH   8   9
ATOM      9  C   UNL     1       4.271 -29.941   3.023  1.00  0.00     0.000 C 
BRANCH   9  10
ATOM     10  C   UNL     1       3.530 -29.446   4.278  1.00  0.00     0.006 C 
BRANCH  10  11
ATOM     11  C   UNL     1       2.852 -30.590   5.041  1.00  0.00     0.053 C 
BRANCH  11  12
ATOM     12  C   UNL     1       1.979 -30.077   6.145  1.00  0.00     0.041 C 
ATOM     13  O   UNL     1       0.905 -30.667   6.429  1.00  0.00    -0.550 OA
ATOM     14  O   UNL     1       2.356 -28.948   6.862  1.00  0.00    -0.550 OA
ENDBRANCH  11  12
ENDBRANCH  10  11
ENDBRANCH   9  10
ENDBRANCH   8   9
ENDBRANCH   7   8
ENDBRANCH   6   7
ENDBRANCH   5   6
ENDBRANCH   4   5
ENDBRANCH   3   4
ENDBRANCH   2   3
ENDBRANCH   1   2
BRANCH   1  15
ATOM     15  C   UNL     1       6.457 -28.293  -2.339  1.00  0.00     0.000 C 
BRANCH  15  16
ATOM     16  C   UNL     1       7.611 -27.383  -1.874  1.00  0.00     0.000 C 
BRANCH  16  17
ATOM     17  C   UNL     1       8.586 -26.941  -2.985  1.00  0.00     0.000 C 
BRANCH  17  18
ATOM     18  C   UNL     1      10.065 -27.271  -2.712  1.00  0.00    -0.000 C 
BRANCH  18  19
ATOM     19  C   UNL     1      10.309 -28.780  -2.536  1.00  0.00    -0.000 C 
BRANCH  19  20
ATOM     20  C   UNL     1      11.051 -29.105  -1.222  1.00  0.00    -0.000 C 
BRANCH  20  21
ATOM     21  C   UNL     1      11.444 -27.859  -0.407  1.00  0.00    -0.000 C 
BRANCH  21  22
ATOM     22  C   UNL     1      11.399 -28.097   1.110  1.00  0.00    -0.000 C 
BRANCH  22  23
ATOM     23  C   UNL     1      10.625 -29.378   1.445  1.00  0.00    -0.000 C 
BRANCH  23  24
ATOM     24  C   UNL     1       9.813 -29.204   2.738  1.00  0.00    -0.000 C 
BRANCH  24  25
ATOM     25  C   UNL     1       8.335 -28.885   2.467  1.00  0.00    -0.003 C 
ATOM     26  C   UNL     1       7.841 -29.456   1.140  1.00  0.00     0.004 C 
ENDBRANCH  24  25
ENDBRANCH  23  24
ENDBRANCH  22  23
ENDBRANCH  21  22
ENDBRANCH  20  21
ENDBRANCH  19  20
ENDBRANCH  18  19
ENDBRANCH  17  18
ENDBRANCH  16  17
ENDBRANCH  15  16
ENDBRANCH   1  15
TORSDOF 22
ENDMDL
MODEL 9
REMARK VINA RESULT:    -5.349      4.090     11.698
REMARK INTER + INTRA:         -14.477
REMARK INTER:                 -12.290
REMARK INTRA:                  -2.187
REMARK UNBOUND:                -2.248
REMARK SMILES CCCCCCCCCCCCCCCCCCCCCCCC(=O)[O-]
REMARK SMILES IDX 13 1 14 2 15 3 16 4 17 5 18 6 19 7 20 8 21 9 22 10 23 11
REMARK SMILES IDX 24 12 25 13 26 14 12 15 11 16 10 17 9 18 8 19 7 20 6 21 5 22
REMARK SMILES IDX 4 23 3 24 2 25 1 26
REMARK H PARENT
REMARK Flexibility Score: inf
ROOT
ATOM      1  C   UNL     1       3.238 -29.660   4.529  1.00  0.00     0.000 C 
ENDROOT
BRANCH   1   2
ATOM      2  C   UNL     1       3.727 -29.235   3.132  1.00  0.00     0.000 C 
BRANCH   2   3
ATOM      3  C   UNL     1       2.761 -29.666   2.016  1.00  0.00     0.000 C 
BRANCH   3   4
ATOM      4  C   UNL     1       2.029 -28.479   1.365  1.00  0.00     0.000 C 
BRANCH   4   5
ATOM      5  C   UNL     1       2.514 -28.154  -0.064  1.00  0.00     0.000 C 
BRANCH   5   6
ATOM      6  C   UNL     1       1.558 -27.199  -0.800  1.00  0.00     0.000 C 
BRANCH   6   7
ATOM      7  C   UNL     1       0.196 -27.077  -0.099  1.00  0.00     0.000 C 
BRANCH   7   8
ATOM      8  C   UNL     1      -0.379 -25.651  -0.169  1.00  0.00     0.000 C 
BRANCH   8   9
ATOM      9  C   UNL     1      -1.034 -25.352  -1.528  1.00  0.00     0.000 C 
BRANCH   9  10
ATOM     10  C   UNL     1      -2.321 -24.519  -1.387  1.00  0.00     0.006 C 
BRANCH  10  11
ATOM     11  C   UNL     1      -2.401 -23.798  -0.036  1.00  0.00     0.053 C 
BRANCH  11  12
ATOM     12  C   UNL     1      -3.763 -23.919   0.575  1.00  0.00     0.041 C 
ATOM     13  O   UNL     1      -4.508 -24.887   0.277  1.00  0.00    -0.550 OA
ATOM     14  O   UNL     1      -4.209 -22.960   1.478  1.00  0.00    -0.550 OA
ENDBRANCH  11  12
ENDBRANCH  10  11
ENDBRANCH   9  10
ENDBRANCH   8   9
ENDBRANCH   7   8
ENDBRANCH   6   7
ENDBRANCH   5   6
ENDBRANCH   4   5
ENDBRANCH   3   4
ENDBRANCH   2   3
ENDBRANCH   1   2
BRANCH   1  15
ATOM     15  C   UNL     1       4.312 -30.336   5.408  1.00  0.00     0.000 C 
BRANCH  15  16
ATOM     16  C   UNL     1       4.360 -31.876   5.324  1.00  0.00     0.000 C 
BRANCH  16  17
ATOM     17  C   UNL     1       5.073 -32.442   4.080  1.00  0.00     0.000 C 
BRANCH  17  18
ATOM     18  C   UNL     1       6.538 -31.996   3.919  1.00  0.00    -0.000 C 
BRANCH  18  19
ATOM     19  C   UNL     1       6.742 -31.064   2.712  1.00  0.00    -0.000 C 
BRANCH  19  20
ATOM     20  C   UNL     1       7.671 -29.876   3.038  1.00  0.00    -0.000 C 
BRANCH  20  21
ATOM     21  C   UNL     1       8.724 -30.189   4.116  1.00  0.00    -0.000 C 
BRANCH  21  22
ATOM     22  C   UNL     1       8.760 -29.143   5.240  1.00  0.00    -0.000 C 
BRANCH  22  23
ATOM     23  C   UNL     1       7.799 -29.517   6.374  1.00  0.00    -0.000 C 
BRANCH  23  24
ATOM     24  C   UNL     1       8.431 -30.566   7.302  1.00  0.00    -0.000 C 
BRANCH  24  25
ATOM     25  C   UNL     1       9.890 -30.240   7.652  1.00  0.00    -0.003 C 
ATOM     26  C   UNL     1      10.826 -31.432   7.458  1.00  0.00     0.004 C 
ENDBRANCH  24  25
ENDBRANCH  23  24
ENDBRANCH  22  23
ENDBRANCH  21  22
ENDBRANCH  20  21
ENDBRANCH  19  20
ENDBRANCH  18  19
ENDBRANCH  17  18
ENDBRANCH  16  17
ENDBRANCH  15  16
ENDBRANCH   1  15
TORSDOF 22
ENDMDL
