MODEL 1
REMARK VINA RESULT:    -5.404      0.000      0.000
REMARK INTER + INTRA:          -6.081
REMARK INTER:                  -5.878
REMARK INTRA:                  -0.204
REMARK UNBOUND:                -0.204
REMARK SMILES CC1(C)CC[C@@]2(C(=O)[O-])CC[C@]3(C)C(=CC[C@H]4[C@]5(C)CC[C@H](O)C(C)(C)[C@@H]5CC[C@@]43C)[C@H]2C1
REMARK SMILES IDX 6 1 5 2 10 3 32 4 4 5 11 6 14 7 33 8 2 9 12 10 15 11 1 12
REMARK SMILES IDX 3 13 13 14 30 15 16 16 17 17 29 18 31 19 18 20 28 21 27 22
REMARK SMILES IDX 20 23 19 24 24 25 21 26 22 27 25 28 26 29 7 30 8 31 9 32
REMARK SMILES IDX 23 33
REMARK H PARENT 23 34
REMARK Flexibility Score: inf
ROOT
ATOM      1  C   UNL     1      -0.943  18.083  60.241  1.00  0.00     0.017 C 
ATOM      2  C   UNL     1       0.358  17.621  59.547  1.00  0.00     0.014 C 
ATOM      3  C   UNL     1      -2.123  17.597  59.398  1.00  0.00     0.014 C 
ATOM      4  C   UNL     1      -1.159  17.525  61.722  1.00  0.00     0.028 C 
ATOM      5  C   UNL     1       1.632  17.931  60.369  1.00  0.00     0.007 C 
ATOM      6  C   UNL     1      -2.431  16.070  59.565  1.00  0.00     0.013 C 
ATOM      7  C   UNL     1      -2.179  16.353  62.071  1.00  0.00    -0.064 C 
ATOM      8  C   UNL     1       0.193  17.394  62.509  1.00  0.00     0.015 C 
ATOM      9  C   UNL     1       1.628  17.448  61.837  1.00  0.00    -0.035 C 
ATOM     10  C   UNL     1      -3.076  15.714  60.917  1.00  0.00    -0.006 C 
ATOM     11  C   UNL     1      -2.213  15.698  63.277  1.00  0.00    -0.027 C 
ATOM     12  C   UNL     1       2.375  18.514  62.721  1.00  0.00     0.011 C 
ATOM     13  C   UNL     1       2.449  16.044  61.916  1.00  0.00     0.011 C 
ATOM     14  C   UNL     1      -4.459  16.419  60.897  1.00  0.00     0.017 C 
ATOM     15  C   UNL     1      -3.262  14.118  61.217  1.00  0.00    -0.020 C 
ATOM     16  C   UNL     1      -1.460  14.269  63.077  1.00  0.00     0.032 C 
ATOM     17  C   UNL     1      -1.879  13.480  61.702  1.00  0.00     0.006 C 
ATOM     18  C   UNL     1      -3.810  13.431  59.909  1.00  0.00     0.008 C 
ATOM     19  C   UNL     1      -4.245  13.648  62.393  1.00  0.00     0.012 C 
ATOM     20  C   UNL     1      -1.810  11.846  61.653  1.00  0.00    -0.025 C 
ATOM     21  C   UNL     1      -2.894  12.363  59.355  1.00  0.00     0.005 C 
ATOM     22  C   UNL     1      -2.702  11.253  60.463  1.00  0.00     0.003 C 
ATOM     23  C   UNL     1      -0.325  11.478  61.371  1.00  0.00     0.010 C 
ATOM     24  C   UNL     1      -2.246  11.132  63.001  1.00  0.00     0.012 C 
ATOM     25  C   UNL     1      -2.389   9.803  59.960  1.00  0.00    -0.006 C 
ATOM     26  C   UNL     1      -0.056  10.005  61.042  1.00  0.00     0.033 C 
ATOM     27  C   UNL     1      -0.845   9.548  59.824  1.00  0.00     0.120 C 
ATOM     28  C   UNL     1      -3.235   9.447  58.699  1.00  0.00     0.014 C 
ATOM     29  C   UNL     1      -2.910   8.757  60.994  1.00  0.00     0.014 C 
ENDROOT
BRANCH   1  30
ATOM     30  C   UNL     1      -0.981  19.633  60.371  1.00  0.00     0.048 C 
ATOM     31  O   UNL     1      -1.723  20.080  61.301  1.00  0.00    -0.550 OA
ATOM     32  O   UNL     1      -0.631  20.408  59.281  1.00  0.00    -0.550 OA
ENDBRANCH   1  30
BRANCH  27  33
ATOM     33  O   UNL     1      -0.186  10.124  58.691  1.00  0.00    -0.393 OA
ATOM     34  H   UNL     1      -0.233  11.118  58.750  1.00  0.00     0.210 HD
ENDBRANCH  27  33
TORSDOF 2
ENDMDL
MODEL 2
REMARK VINA RESULT:    -5.192     11.365     13.689
REMARK INTER + INTRA:          -5.851
REMARK INTER:                  -5.648
REMARK INTRA:                  -0.203
REMARK UNBOUND:                -0.204
REMARK SMILES CC1(C)CC[C@@]2(C(=O)[O-])CC[C@]3(C)C(=CC[C@H]4[C@]5(C)CC[C@H](O)C(C)(C)[C@@H]5CC[C@@]43C)[C@H]2C1
REMARK SMILES IDX 6 1 5 2 10 3 32 4 4 5 11 6 14 7 33 8 2 9 12 10 15 11 1 12
REMARK SMILES IDX 3 13 13 14 30 15 16 16 17 17 29 18 31 19 18 20 28 21 27 22
REMARK SMILES IDX 20 23 19 24 24 25 21 26 22 27 25 28 26 29 7 30 8 31 9 32
REMARK SMILES IDX 23 33
REMARK H PARENT 23 34
REMARK Flexibility Score: inf
ROOT
ATOM      1  C   UNL     1       2.100  19.949  74.590  1.00  0.00     0.017 C 
ATOM      2  C   UNL     1       1.051  19.581  75.662  1.00  0.00     0.014 C 
ATOM      3  C   UNL     1       3.386  19.184  74.910  1.00  0.00     0.014 C 
ATOM      4  C   UNL     1       1.695  19.584  73.088  1.00  0.00     0.028 C 
ATOM      5  C   UNL     1      -0.347  20.183  75.381  1.00  0.00     0.007 C 
ATOM      6  C   UNL     1       3.334  17.669  74.515  1.00  0.00     0.013 C 
ATOM      7  C   UNL     1       2.304  18.341  72.299  1.00  0.00    -0.064 C 
ATOM      8  C   UNL     1       0.157  19.760  72.830  1.00  0.00     0.015 C 
ATOM      9  C   UNL     1      -0.929  19.919  73.974  1.00  0.00    -0.035 C 
ATOM     10  C   UNL     1       3.405  17.422  72.997  1.00  0.00    -0.006 C 
ATOM     11  C   UNL     1       1.806  17.868  71.111  1.00  0.00    -0.027 C 
ATOM     12  C   UNL     1      -1.724  21.196  73.510  1.00  0.00     0.011 C 
ATOM     13  C   UNL     1      -1.971  18.672  74.076  1.00  0.00     0.011 C 
ATOM     14  C   UNL     1       4.817  17.914  72.579  1.00  0.00     0.017 C 
ATOM     15  C   UNL     1       3.183  15.876  72.516  1.00  0.00    -0.020 C 
ATOM     16  C   UNL     1       0.917  16.546  71.446  1.00  0.00     0.032 C 
ATOM     17  C   UNL     1       1.626  15.517  72.507  1.00  0.00     0.006 C 
ATOM     18  C   UNL     1       4.007  14.938  73.479  1.00  0.00     0.008 C 
ATOM     19  C   UNL     1       3.605  15.446  71.031  1.00  0.00     0.012 C 
ATOM     20  C   UNL     1       1.279  13.919  72.440  1.00  0.00    -0.025 C 
ATOM     21  C   UNL     1       3.154  13.942  74.232  1.00  0.00     0.005 C 
ATOM     22  C   UNL     1       2.397  13.041  73.177  1.00  0.00     0.003 C 
ATOM     23  C   UNL     1      -0.063  13.728  73.204  1.00  0.00     0.010 C 
ATOM     24  C   UNL     1       1.094  13.351  70.970  1.00  0.00     0.012 C 
ATOM     25  C   UNL     1       2.014  11.593  73.634  1.00  0.00    -0.006 C 
ATOM     26  C   UNL     1      -0.468  12.276  73.482  1.00  0.00     0.033 C 
ATOM     27  C   UNL     1       0.588  11.543  74.293  1.00  0.00     0.120 C 
ATOM     28  C   UNL     1       3.157  10.943  74.474  1.00  0.00     0.014 C 
ATOM     29  C   UNL     1       1.952  10.643  72.398  1.00  0.00     0.014 C 
ENDROOT
BRANCH   1  30
ATOM     30  C   UNL     1       2.376  21.480  74.586  1.00  0.00     0.048 C 
ATOM     31  O   UNL     1       2.790  21.953  73.482  1.00  0.00    -0.550 OA
ATOM     32  O   UNL     1       2.603  22.125  75.787  1.00  0.00    -0.550 OA
ENDBRANCH   1  30
BRANCH  27  33
ATOM     33  O   UNL     1       0.471  12.038  75.631  1.00  0.00    -0.393 OA
ATOM     34  H   UNL     1       0.912  11.403  76.259  1.00  0.00     0.210 HD
ENDBRANCH  27  33
TORSDOF 2
ENDMDL
MODEL 3
REMARK VINA RESULT:    -5.120     12.594     14.856
REMARK INTER + INTRA:          -5.772
REMARK INTER:                  -5.593
REMARK INTRA:                  -0.179
REMARK UNBOUND:                -0.204
REMARK SMILES CC1(C)CC[C@@]2(C(=O)[O-])CC[C@]3(C)C(=CC[C@H]4[C@]5(C)CC[C@H](O)C(C)(C)[C@@H]5CC[C@@]43C)[C@H]2C1
REMARK SMILES IDX 6 1 5 2 10 3 32 4 4 5 11 6 14 7 33 8 2 9 12 10 15 11 1 12
REMARK SMILES IDX 3 13 13 14 30 15 16 16 17 17 29 18 31 19 18 20 28 21 27 22
REMARK SMILES IDX 20 23 19 24 24 25 21 26 22 27 25 28 26 29 7 30 8 31 9 32
REMARK SMILES IDX 23 33
REMARK H PARENT 23 34
REMARK Flexibility Score: inf
ROOT
ATOM      1  C   UNL     1       2.841  13.950  73.400  1.00  0.00     0.017 C 
ATOM      2  C   UNL     1       2.111  12.907  74.276  1.00  0.00     0.014 C 
ATOM      3  C   UNL     1       4.155  14.311  74.097  1.00  0.00     0.014 C 
ATOM      4  C   UNL     1       3.209  13.462  71.924  1.00  0.00     0.028 C 
ATOM      5  C   UNL     1       0.825  12.351  73.618  1.00  0.00     0.007 C 
ATOM      6  C   UNL     1       5.270  13.221  73.945  1.00  0.00     0.013 C 
ATOM      7  C   UNL     1       4.683  13.047  71.485  1.00  0.00    -0.064 C 
ATOM      8  C   UNL     1       2.116  12.505  71.327  1.00  0.00     0.015 C 
ATOM      9  C   UNL     1       0.979  11.805  72.180  1.00  0.00    -0.035 C 
ATOM     10  C   UNL     1       5.881  13.154  72.533  1.00  0.00    -0.006 C 
ATOM     11  C   UNL     1       4.981  12.405  70.310  1.00  0.00    -0.027 C 
ATOM     12  C   UNL     1      -0.320  12.159  71.366  1.00  0.00     0.011 C 
ATOM     13  C   UNL     1       1.113  10.184  72.260  1.00  0.00     0.011 C 
ATOM     14  C   UNL     1       6.600  14.517  72.345  1.00  0.00     0.017 C 
ATOM     15  C   UNL     1       6.925  11.925  72.268  1.00  0.00    -0.020 C 
ATOM     16  C   UNL     1       5.210  10.831  70.657  1.00  0.00     0.032 C 
ATOM     17  C   UNL     1       6.125  10.569  71.992  1.00  0.00     0.006 C 
ATOM     18  C   UNL     1       7.880  11.812  73.516  1.00  0.00     0.008 C 
ATOM     19  C   UNL     1       7.891  11.977  70.990  1.00  0.00     0.012 C 
ATOM     20  C   UNL     1       7.015   9.200  72.108  1.00  0.00    -0.025 C 
ATOM     21  C   UNL     1       7.800  10.478  74.223  1.00  0.00     0.005 C 
ATOM     22  C   UNL     1       8.186   9.346  73.190  1.00  0.00     0.003 C 
ATOM     23  C   UNL     1       6.045   8.086  72.596  1.00  0.00     0.010 C 
ATOM     24  C   UNL     1       7.663   8.723  70.740  1.00  0.00     0.012 C 
ATOM     25  C   UNL     1       8.811   8.038  73.781  1.00  0.00    -0.006 C 
ATOM     26  C   UNL     1       6.704   6.766  73.010  1.00  0.00     0.033 C 
ATOM     27  C   UNL     1       7.714   6.967  74.128  1.00  0.00     0.120 C 
ATOM     28  C   UNL     1       9.814   8.359  74.932  1.00  0.00     0.014 C 
ATOM     29  C   UNL     1       9.746   7.370  72.725  1.00  0.00     0.014 C 
ENDROOT
BRANCH   1  30
ATOM     30  C   UNL     1       1.968  15.224  73.212  1.00  0.00     0.048 C 
ATOM     31  O   UNL     1       2.326  15.989  72.263  1.00  0.00    -0.550 OA
ATOM     32  O   UNL     1       1.211  15.683  74.273  1.00  0.00    -0.550 OA
ENDBRANCH   1  30
BRANCH  27  33
ATOM     33  O   UNL     1       6.947   7.183  75.317  1.00  0.00    -0.393 OA
ATOM     34  H   UNL     1       6.646   8.132  75.350  1.00  0.00     0.210 HD
ENDBRANCH  27  33
TORSDOF 2
ENDMDL
MODEL 4
REMARK VINA RESULT:    -5.100     11.726     13.732
REMARK INTER + INTRA:          -5.751
REMARK INTER:                  -5.652
REMARK INTRA:                  -0.098
REMARK UNBOUND:                -0.204
REMARK SMILES CC1(C)CC[C@@]2(C(=O)[O-])CC[C@]3(C)C(=CC[C@H]4[C@]5(C)CC[C@H](O)C(C)(C)[C@@H]5CC[C@@]43C)[C@H]2C1
REMARK SMILES IDX 6 1 5 2 10 3 32 4 4 5 11 6 14 7 33 8 2 9 12 10 15 11 1 12
REMARK SMILES IDX 3 13 13 14 30 15 16 16 17 17 29 18 31 19 18 20 28 21 27 22
REMARK SMILES IDX 20 23 19 24 24 25 21 26 22 27 25 28 26 29 7 30 8 31 9 32
REMARK SMILES IDX 23 33
REMARK H PARENT 23 34
REMARK Flexibility Score: inf
ROOT
ATOM      1  C   UNL     1       1.777  13.916  73.466  1.00  0.00     0.017 C 
ATOM      2  C   UNL     1       1.689  15.050  72.421  1.00  0.00     0.014 C 
ATOM      3  C   UNL     1       1.621  12.585  72.727  1.00  0.00     0.014 C 
ATOM      4  C   UNL     1       3.149  13.846  74.280  1.00  0.00     0.028 C 
ATOM      5  C   UNL     1       1.967  16.452  73.016  1.00  0.00     0.007 C 
ATOM      6  C   UNL     1       2.908  12.139  71.953  1.00  0.00     0.013 C 
ATOM      7  C   UNL     1       4.280  12.762  73.992  1.00  0.00    -0.064 C 
ATOM      8  C   UNL     1       3.746  15.271  74.560  1.00  0.00     0.015 C 
ATOM      9  C   UNL     1       3.273  16.597  73.830  1.00  0.00    -0.035 C 
ATOM     10  C   UNL     1       4.044  11.651  72.872  1.00  0.00    -0.006 C 
ATOM     11  C   UNL     1       5.551  12.824  74.505  1.00  0.00    -0.027 C 
ATOM     12  C   UNL     1       3.007  17.570  75.038  1.00  0.00     0.011 C 
ATOM     13  C   UNL     1       4.404  17.263  72.868  1.00  0.00     0.011 C 
ATOM     14  C   UNL     1       3.492  10.363  73.541  1.00  0.00     0.017 C 
ATOM     15  C   UNL     1       5.468  11.335  72.134  1.00  0.00    -0.020 C 
ATOM     16  C   UNL     1       6.526  13.382  73.327  1.00  0.00     0.032 C 
ATOM     17  C   UNL     1       6.264  12.694  71.862  1.00  0.00     0.006 C 
ATOM     18  C   UNL     1       5.170  10.541  70.806  1.00  0.00     0.008 C 
ATOM     19  C   UNL     1       6.581  10.479  72.908  1.00  0.00     0.012 C 
ATOM     20  C   UNL     1       7.495  12.578  70.790  1.00  0.00    -0.025 C 
ATOM     21  C   UNL     1       5.640  11.250  69.556  1.00  0.00     0.005 C 
ATOM     22  C   UNL     1       7.201  11.471  69.670  1.00  0.00     0.003 C 
ATOM     23  C   UNL     1       7.595  13.961  70.084  1.00  0.00     0.010 C 
ATOM     24  C   UNL     1       8.904  12.256  71.444  1.00  0.00     0.012 C 
ATOM     25  C   UNL     1       8.001  11.551  68.326  1.00  0.00    -0.006 C 
ATOM     26  C   UNL     1       8.523  14.019  68.866  1.00  0.00     0.033 C 
ATOM     27  C   UNL     1       8.106  13.026  67.793  1.00  0.00     0.120 C 
ATOM     28  C   UNL     1       7.478  10.507  67.293  1.00  0.00     0.014 C 
ATOM     29  C   UNL     1       9.467  11.068  68.550  1.00  0.00     0.014 C 
ENDROOT
BRANCH   1  30
ATOM     30  C   UNL     1       0.662  14.064  74.541  1.00  0.00     0.048 C 
ATOM     31  O   UNL     1       0.718  13.230  75.498  1.00  0.00    -0.550 OA
ATOM     32  O   UNL     1      -0.512  14.713  74.207  1.00  0.00    -0.550 OA
ENDBRANCH   1  30
BRANCH  27  33
ATOM     33  O   UNL     1       6.939  13.580  67.176  1.00  0.00    -0.393 OA
ATOM     34  H   UNL     1       6.452  14.147  67.836  1.00  0.00     0.210 HD
ENDBRANCH  27  33
TORSDOF 2
ENDMDL
MODEL 5
REMARK VINA RESULT:    -5.085     11.710     14.989
REMARK INTER + INTRA:          -5.735
REMARK INTER:                  -5.585
REMARK INTRA:                  -0.150
REMARK UNBOUND:                -0.204
REMARK SMILES CC1(C)CC[C@@]2(C(=O)[O-])CC[C@]3(C)C(=CC[C@H]4[C@]5(C)CC[C@H](O)C(C)(C)[C@@H]5CC[C@@]43C)[C@H]2C1
REMARK SMILES IDX 6 1 5 2 10 3 32 4 4 5 11 6 14 7 33 8 2 9 12 10 15 11 1 12
REMARK SMILES IDX 3 13 13 14 30 15 16 16 17 17 29 18 31 19 18 20 28 21 27 22
REMARK SMILES IDX 20 23 19 24 24 25 21 26 22 27 25 28 26 29 7 30 8 31 9 32
REMARK SMILES IDX 23 33
REMARK H PARENT 23 34
REMARK Flexibility Score: inf
ROOT
ATOM      1  C   UNL     1       7.108  11.695  72.800  1.00  0.00     0.017 C 
ATOM      2  C   UNL     1       8.248  12.737  72.751  1.00  0.00     0.014 C 
ATOM      3  C   UNL     1       6.387  11.850  74.141  1.00  0.00     0.014 C 
ATOM      4  C   UNL     1       6.006  11.839  71.652  1.00  0.00     0.028 C 
ATOM      5  C   UNL     1       8.977  12.781  71.387  1.00  0.00     0.007 C 
ATOM      6  C   UNL     1       5.426  13.087  74.201  1.00  0.00     0.013 C 
ATOM      7  C   UNL     1       4.557  12.449  71.907  1.00  0.00    -0.064 C 
ATOM      8  C   UNL     1       6.625  12.319  70.292  1.00  0.00     0.015 C 
ATOM      9  C   UNL     1       8.076  12.940  70.141  1.00  0.00    -0.035 C 
ATOM     10  C   UNL     1       4.139  12.910  73.376  1.00  0.00    -0.006 C 
ATOM     11  C   UNL     1       3.686  12.802  70.907  1.00  0.00    -0.027 C 
ATOM     12  C   UNL     1       8.687  12.088  68.967  1.00  0.00     0.011 C 
ATOM     13  C   UNL     1       8.083  14.507  69.700  1.00  0.00     0.011 C 
ATOM     14  C   UNL     1       3.374  11.752  74.073  1.00  0.00     0.017 C 
ATOM     15  C   UNL     1       3.180  14.229  73.263  1.00  0.00    -0.020 C 
ATOM     16  C   UNL     1       3.761  14.420  70.741  1.00  0.00     0.032 C 
ATOM     17  C   UNL     1       3.753  15.237  72.163  1.00  0.00     0.006 C 
ATOM     18  C   UNL     1       3.085  14.892  74.689  1.00  0.00     0.008 C 
ATOM     19  C   UNL     1       1.666  14.060  72.764  1.00  0.00     0.012 C 
ATOM     20  C   UNL     1       3.141  16.753  72.222  1.00  0.00    -0.025 C 
ATOM     21  C   UNL     1       3.605  16.311  74.734  1.00  0.00     0.005 C 
ATOM     22  C   UNL     1       2.763  17.180  73.718  1.00  0.00     0.003 C 
ATOM     23  C   UNL     1       4.269  17.701  71.722  1.00  0.00     0.010 C 
ATOM     24  C   UNL     1       1.866  16.980  71.306  1.00  0.00     0.012 C 
ATOM     25  C   UNL     1       2.631  18.707  74.038  1.00  0.00    -0.006 C 
ATOM     26  C   UNL     1       4.012  19.200  71.915  1.00  0.00     0.033 C 
ATOM     27  C   UNL     1       3.784  19.547  73.378  1.00  0.00     0.120 C 
ATOM     28  C   UNL     1       2.422  18.950  75.564  1.00  0.00     0.014 C 
ATOM     29  C   UNL     1       1.299  19.263  73.445  1.00  0.00     0.014 C 
ENDROOT
BRANCH   1  30
ATOM     30  C   UNL     1       7.670  10.251  72.659  1.00  0.00     0.048 C 
ATOM     31  O   UNL     1       6.979   9.470  71.933  1.00  0.00    -0.550 OA
ATOM     32  O   UNL     1       8.544   9.774  73.617  1.00  0.00    -0.550 OA
ENDBRANCH   1  30
BRANCH  27  33
ATOM     33  O   UNL     1       5.072  19.488  74.001  1.00  0.00    -0.393 OA
ATOM     34  H   UNL     1       5.716  19.038  73.389  1.00  0.00     0.210 HD
ENDBRANCH  27  33
TORSDOF 2
ENDMDL
MODEL 6
REMARK VINA RESULT:    -4.916      6.608     10.597
REMARK INTER + INTRA:          -5.550
REMARK INTER:                  -5.348
REMARK INTRA:                  -0.203
REMARK UNBOUND:                -0.204
REMARK SMILES CC1(C)CC[C@@]2(C(=O)[O-])CC[C@]3(C)C(=CC[C@H]4[C@]5(C)CC[C@H](O)C(C)(C)[C@@H]5CC[C@@]43C)[C@H]2C1
REMARK SMILES IDX 6 1 5 2 10 3 32 4 4 5 11 6 14 7 33 8 2 9 12 10 15 11 1 12
REMARK SMILES IDX 3 13 13 14 30 15 16 16 17 17 29 18 31 19 18 20 28 21 27 22
REMARK SMILES IDX 20 23 19 24 24 25 21 26 22 27 25 28 26 29 7 30 8 31 9 32
REMARK SMILES IDX 23 33
REMARK H PARENT 23 34
REMARK Flexibility Score: inf
ROOT
ATOM      1  C   UNL     1       8.585  15.573  63.310  1.00  0.00     0.017 C 
ATOM      2  C   UNL     1       8.058  14.482  62.351  1.00  0.00     0.014 C 
ATOM      3  C   UNL     1       9.356  16.598  62.475  1.00  0.00     0.014 C 
ATOM      4  C   UNL     1       7.461  16.370  64.117  1.00  0.00     0.028 C 
ATOM      5  C   UNL     1       7.140  13.448  63.048  1.00  0.00     0.007 C 
ATOM      6  C   UNL     1       8.435  17.577  61.670  1.00  0.00     0.013 C 
ATOM      7  C   UNL     1       7.011  17.854  63.749  1.00  0.00    -0.064 C 
ATOM      8  C   UNL     1       6.244  15.455  64.500  1.00  0.00     0.015 C 
ATOM      9  C   UNL     1       5.967  14.027  63.870  1.00  0.00    -0.035 C 
ATOM     10  C   UNL     1       7.727  18.624  62.550  1.00  0.00    -0.006 C 
ATOM     11  C   UNL     1       5.897  18.468  64.264  1.00  0.00    -0.027 C 
ATOM     12  C   UNL     1       5.756  13.131  65.146  1.00  0.00     0.011 C 
ATOM     13  C   UNL     1       4.619  13.955  62.960  1.00  0.00     0.011 C 
ATOM     14  C   UNL     1       8.872  19.503  63.122  1.00  0.00     0.017 C 
ATOM     15  C   UNL     1       6.624  19.561  61.791  1.00  0.00    -0.020 C 
ATOM     16  C   UNL     1       4.731  18.397  63.130  1.00  0.00     0.032 C 
ATOM     17  C   UNL     1       5.248  18.767  61.619  1.00  0.00     0.006 C 
ATOM     18  C   UNL     1       7.230  20.013  60.408  1.00  0.00     0.008 C 
ATOM     19  C   UNL     1       6.115  20.906  62.498  1.00  0.00     0.012 C 
ATOM     20  C   UNL     1       4.200  19.414  60.541  1.00  0.00    -0.025 C 
ATOM     21  C   UNL     1       6.423  19.556  59.213  1.00  0.00     0.005 C 
ATOM     22  C   UNL     1       4.965  20.152  59.343  1.00  0.00     0.003 C 
ATOM     23  C   UNL     1       3.398  18.224  59.939  1.00  0.00     0.010 C 
ATOM     24  C   UNL     1       3.164  20.438  61.169  1.00  0.00     0.012 C 
ATOM     25  C   UNL     1       4.183  20.396  58.008  1.00  0.00    -0.006 C 
ATOM     26  C   UNL     1       2.521  18.559  58.728  1.00  0.00     0.033 C 
ATOM     27  C   UNL     1       3.338  19.141  57.585  1.00  0.00     0.120 C 
ATOM     28  C   UNL     1       5.119  20.971  56.901  1.00  0.00     0.014 C 
ATOM     29  C   UNL     1       3.162  21.561  58.195  1.00  0.00     0.014 C 
ENDROOT
BRANCH   1  30
ATOM     30  C   UNL     1       9.516  14.956  64.393  1.00  0.00     0.048 C 
ATOM     31  O   UNL     1       9.585  15.607  65.482  1.00  0.00    -0.550 OA
ATOM     32  O   UNL     1      10.510  14.078  64.004  1.00  0.00    -0.550 OA
ENDBRANCH   1  30
BRANCH  27  33
ATOM     33  O   UNL     1       4.050  18.039  57.011  1.00  0.00    -0.393 OA
ATOM     34  H   UNL     1       4.664  17.649  57.692  1.00  0.00     0.210 HD
ENDBRANCH  27  33
TORSDOF 2
ENDMDL
MODEL 7
REMARK VINA RESULT:    -4.862     10.899     13.506
REMARK INTER + INTRA:          -5.492
REMARK INTER:                  -5.327
REMARK INTRA:                  -0.164
REMARK UNBOUND:                -0.204
REMARK SMILES CC1(C)CC[C@@]2(C(=O)[O-])CC[C@]3(C)C(=CC[C@H]4[C@]5(C)CC[C@H](O)C(C)(C)[C@@H]5CC[C@@]43C)[C@H]2C1
REMARK SMILES IDX 6 1 5 2 10 3 32 4 4 5 11 6 14 7 33 8 2 9 12 10 15 11 1 12
REMARK SMILES IDX 3 13 13 14 30 15 16 16 17 17 29 18 31 19 18 20 28 21 27 22
REMARK SMILES IDX 20 23 19 24 24 25 21 26 22 27 25 28 26 29 7 30 8 31 9 32
REMARK SMILES IDX 23 33
REMARK H PARENT 23 34
REMARK Flexibility Score: inf
ROOT
ATOM      1  C   UNL     1      -1.236  14.192  73.151  1.00  0.00     0.017 C 
ATOM      2  C   UNL     1      -1.327  12.650  73.111  1.00  0.00     0.014 C 
ATOM      3  C   UNL     1      -0.441  14.583  74.398  1.00  0.00     0.014 C 
ATOM      4  C   UNL     1      -0.508  14.863  71.897  1.00  0.00     0.028 C 
ATOM      5  C   UNL     1      -1.993  12.111  71.822  1.00  0.00     0.007 C 
ATOM      6  C   UNL     1       1.105  14.373  74.252  1.00  0.00     0.013 C 
ATOM      7  C   UNL     1       0.975  15.441  71.957  1.00  0.00    -0.064 C 
ATOM      8  C   UNL     1      -0.794  14.089  70.561  1.00  0.00     0.015 C 
ATOM      9  C   UNL     1      -1.410  12.631  70.488  1.00  0.00    -0.035 C 
ATOM     10  C   UNL     1       1.785  15.403  73.331  1.00  0.00    -0.006 C 
ATOM     11  C   UNL     1       1.704  15.801  70.852  1.00  0.00    -0.027 C 
ATOM     12  C   UNL     1      -2.588  12.813  69.461  1.00  0.00     0.011 C 
ATOM     13  C   UNL     1      -0.386  11.507  69.904  1.00  0.00     0.011 C 
ATOM     14  C   UNL     1       1.615  16.764  74.060  1.00  0.00     0.017 C 
ATOM     15  C   UNL     1       3.363  15.132  73.006  1.00  0.00    -0.020 C 
ATOM     16  C   UNL     1       2.751  14.594  70.542  1.00  0.00     0.032 C 
ATOM     17  C   UNL     1       3.511  14.013  71.874  1.00  0.00     0.006 C 
ATOM     18  C   UNL     1       4.080  14.722  74.348  1.00  0.00     0.008 C 
ATOM     19  C   UNL     1       4.252  16.314  72.386  1.00  0.00     0.012 C 
ATOM     20  C   UNL     1       5.004  13.358  71.733  1.00  0.00    -0.025 C 
ATOM     21  C   UNL     1       4.702  13.345  74.308  1.00  0.00     0.005 C 
ATOM     22  C   UNL     1       5.766  13.316  73.141  1.00  0.00     0.003 C 
ATOM     23  C   UNL     1       4.798  11.893  71.254  1.00  0.00     0.010 C 
ATOM     24  C   UNL     1       5.944  14.091  70.685  1.00  0.00     0.012 C 
ATOM     25  C   UNL     1       6.962  12.317  73.303  1.00  0.00    -0.006 C 
ATOM     26  C   UNL     1       6.045  11.003  71.281  1.00  0.00     0.033 C 
ATOM     27  C   UNL     1       6.641  10.911  72.677  1.00  0.00     0.120 C 
ATOM     28  C   UNL     1       7.480  12.287  74.773  1.00  0.00     0.014 C 
ATOM     29  C   UNL     1       8.212  12.854  72.538  1.00  0.00     0.014 C 
ENDROOT
BRANCH   1  30
ATOM     30  C   UNL     1      -2.654  14.830  73.199  1.00  0.00     0.048 C 
ATOM     31  O   UNL     1      -2.695  16.077  72.960  1.00  0.00    -0.550 OA
ATOM     32  O   UNL     1      -3.656  14.189  73.903  1.00  0.00    -0.550 OA
ENDBRANCH   1  30
BRANCH  27  33
ATOM     33  O   UNL     1       5.771  10.051  73.420  1.00  0.00    -0.393 OA
ATOM     34  H   UNL     1       6.286   9.608  74.149  1.00  0.00     0.210 HD
ENDBRANCH  27  33
TORSDOF 2
ENDMDL
MODEL 8
REMARK VINA RESULT:    -4.802      2.338      7.630
REMARK INTER + INTRA:          -5.427
REMARK INTER:                  -5.272
REMARK INTRA:                  -0.155
REMARK UNBOUND:                -0.204
REMARK SMILES CC1(C)CC[C@@]2(C(=O)[O-])CC[C@]3(C)C(=CC[C@H]4[C@]5(C)CC[C@H](O)C(C)(C)[C@@H]5CC[C@@]43C)[C@H]2C1
REMARK SMILES IDX 6 1 5 2 10 3 32 4 4 5 11 6 14 7 33 8 2 9 12 10 15 11 1 12
REMARK SMILES IDX 3 13 13 14 30 15 16 16 17 17 29 18 31 19 18 20 28 21 27 22
REMARK SMILES IDX 20 23 19 24 24 25 21 26 22 27 25 28 26 29 7 30 8 31 9 32
REMARK SMILES IDX 23 33
REMARK H PARENT 23 34
REMARK Flexibility Score: inf
ROOT
ATOM      1  C   UNL     1      -0.152   9.735  62.163  1.00  0.00     0.017 C 
ATOM      2  C   UNL     1      -0.030   9.669  60.624  1.00  0.00     0.014 C 
ATOM      3  C   UNL     1       0.667  10.933  62.648  1.00  0.00     0.014 C 
ATOM      4  C   UNL     1      -1.637   9.922  62.720  1.00  0.00     0.028 C 
ATOM      5  C   UNL     1      -0.924   8.579  59.986  1.00  0.00     0.007 C 
ATOM      6  C   UNL     1      -0.034  12.314  62.410  1.00  0.00     0.013 C 
ATOM      7  C   UNL     1      -2.188  11.306  63.285  1.00  0.00    -0.064 C 
ATOM      8  C   UNL     1      -2.699   9.171  61.841  1.00  0.00     0.015 C 
ATOM      9  C   UNL     1      -2.416   8.604  60.388  1.00  0.00    -0.035 C 
ATOM     10  C   UNL     1      -1.223  12.574  63.353  1.00  0.00    -0.006 C 
ATOM     11  C   UNL     1      -3.512  11.556  63.545  1.00  0.00    -0.027 C 
ATOM     12  C   UNL     1      -2.934   7.122  60.497  1.00  0.00     0.011 C 
ATOM     13  C   UNL     1      -3.251   9.357  59.210  1.00  0.00     0.011 C 
ATOM     14  C   UNL     1      -0.596  12.662  64.771  1.00  0.00     0.017 C 
ATOM     15  C   UNL     1      -2.097  13.919  63.039  1.00  0.00    -0.020 C 
ATOM     16  C   UNL     1      -4.095  12.435  62.305  1.00  0.00     0.032 C 
ATOM     17  C   UNL     1      -3.107  13.654  61.829  1.00  0.00     0.006 C 
ATOM     18  C   UNL     1      -1.096  15.098  62.735  1.00  0.00     0.008 C 
ATOM     19  C   UNL     1      -3.099  14.483  64.156  1.00  0.00     0.012 C 
ATOM     20  C   UNL     1      -3.748  14.998  61.149  1.00  0.00    -0.025 C 
ATOM     21  C   UNL     1      -1.257  15.688  61.352  1.00  0.00     0.005 C 
ATOM     22  C   UNL     1      -2.733  16.235  61.216  1.00  0.00     0.003 C 
ATOM     23  C   UNL     1      -3.994  14.657  59.651  1.00  0.00     0.010 C 
ATOM     24  C   UNL     1      -5.128  15.457  61.783  1.00  0.00     0.012 C 
ATOM     25  C   UNL     1      -2.955  17.424  60.221  1.00  0.00    -0.006 C 
ATOM     26  C   UNL     1      -4.368  15.842  58.753  1.00  0.00     0.033 C 
ATOM     27  C   UNL     1      -3.297  16.922  58.772  1.00  0.00     0.120 C 
ATOM     28  C   UNL     1      -1.791  18.459  60.308  1.00  0.00     0.014 C 
ATOM     29  C   UNL     1      -4.175  18.282  60.680  1.00  0.00     0.014 C 
ENDROOT
BRANCH   1  30
ATOM     30  C   UNL     1       0.377   8.427  62.817  1.00  0.00     0.048 C 
ATOM     31  O   UNL     1       0.100   8.287  64.049  1.00  0.00    -0.550 OA
ATOM     32  O   UNL     1       1.433   7.759  62.227  1.00  0.00    -0.550 OA
ENDBRANCH   1  30
BRANCH  27  33
ATOM     33  O   UNL     1      -2.214  16.415  57.985  1.00  0.00    -0.393 OA
ATOM     34  H   UNL     1      -1.980  17.076  57.277  1.00  0.00     0.210 HD
ENDBRANCH  27  33
TORSDOF 2
ENDMDL
MODEL 9
REMARK VINA RESULT:    -4.793     11.861     13.795
REMARK INTER + INTRA:          -5.417
REMARK INTER:                  -5.252
REMARK INTRA:                  -0.164
REMARK UNBOUND:                -0.204
REMARK SMILES CC1(C)CC[C@@]2(C(=O)[O-])CC[C@]3(C)C(=CC[C@H]4[C@]5(C)CC[C@H](O)C(C)(C)[C@@H]5CC[C@@]43C)[C@H]2C1
REMARK SMILES IDX 6 1 5 2 10 3 32 4 4 5 11 6 14 7 33 8 2 9 12 10 15 11 1 12
REMARK SMILES IDX 3 13 13 14 30 15 16 16 17 17 29 18 31 19 18 20 28 21 27 22
REMARK SMILES IDX 20 23 19 24 24 25 21 26 22 27 25 28 26 29 7 30 8 31 9 32
REMARK SMILES IDX 23 33
REMARK H PARENT 23 34
REMARK Flexibility Score: inf
ROOT
ATOM      1  C   UNL     1      10.410  11.146  60.311  1.00  0.00     0.017 C 
ATOM      2  C   UNL     1       9.705  10.272  59.250  1.00  0.00     0.014 C 
ATOM      3  C   UNL     1       9.394  11.460  61.411  1.00  0.00     0.014 C 
ATOM      4  C   UNL     1      11.676  10.472  61.015  1.00  0.00     0.028 C 
ATOM      5  C   UNL     1      10.660   9.766  58.142  1.00  0.00     0.007 C 
ATOM      6  C   UNL     1       9.135  10.264  62.390  1.00  0.00     0.013 C 
ATOM      7  C   UNL     1      11.639   9.883  62.494  1.00  0.00    -0.064 C 
ATOM      8  C   UNL     1      12.487   9.559  60.028  1.00  0.00     0.015 C 
ATOM      9  C   UNL     1      11.946   9.059  58.625  1.00  0.00    -0.035 C 
ATOM     10  C   UNL     1      10.302   9.993  63.357  1.00  0.00    -0.006 C 
ATOM     11  C   UNL     1      12.626   9.095  63.031  1.00  0.00    -0.027 C 
ATOM     12  C   UNL     1      13.125   9.439  57.654  1.00  0.00     0.011 C 
ATOM     13  C   UNL     1      11.707   7.450  58.542  1.00  0.00     0.011 C 
ATOM     14  C   UNL     1      10.379  11.258  64.254  1.00  0.00     0.017 C 
ATOM     15  C   UNL     1      10.161   8.654  64.284  1.00  0.00    -0.020 C 
ATOM     16  C   UNL     1      12.108   7.553  62.970  1.00  0.00     0.032 C 
ATOM     17  C   UNL     1      10.550   7.354  63.441  1.00  0.00     0.006 C 
ATOM     18  C   UNL     1       8.685   8.590  64.835  1.00  0.00     0.008 C 
ATOM     19  C   UNL     1      11.107   8.482  65.567  1.00  0.00     0.012 C 
ATOM     20  C   UNL     1      10.078   5.931  64.098  1.00  0.00    -0.025 C 
ATOM     21  C   UNL     1       7.931   7.351  64.406  1.00  0.00     0.005 C 
ATOM     22  C   UNL     1       8.720   6.086  64.930  1.00  0.00     0.003 C 
ATOM     23  C   UNL     1       9.806   4.967  62.908  1.00  0.00     0.010 C 
ATOM     24  C   UNL     1      11.161   5.255  65.041  1.00  0.00     0.012 C 
ATOM     25  C   UNL     1       7.875   4.797  65.210  1.00  0.00    -0.006 C 
ATOM     26  C   UNL     1       9.121   3.644  63.267  1.00  0.00     0.033 C 
ATOM     27  C   UNL     1       7.778   3.872  63.943  1.00  0.00     0.120 C 
ATOM     28  C   UNL     1       6.513   5.147  65.883  1.00  0.00     0.014 C 
ATOM     29  C   UNL     1       8.563   3.940  66.318  1.00  0.00     0.014 C 
ENDROOT
BRANCH   1  30
ATOM     30  C   UNL     1      10.939  12.466  59.679  1.00  0.00     0.048 C 
ATOM     31  O   UNL     1      11.763  13.116  60.395  1.00  0.00    -0.550 OA
ATOM     32  O   UNL     1      10.206  13.073  58.677  1.00  0.00    -0.550 OA
ENDBRANCH   1  30
BRANCH  27  33
ATOM     33  O   UNL     1       6.880   4.281  62.906  1.00  0.00    -0.393 OA
ATOM     34  H   UNL     1       6.526   5.189  63.112  1.00  0.00     0.210 HD
ENDBRANCH  27  33
TORSDOF 2
ENDMDL
