MODEL 1
REMARK VINA RESULT:    -5.847      0.000      0.000
REMARK INTER + INTRA:         -12.327
REMARK INTER:                  -9.607
REMARK INTRA:                  -2.721
REMARK UNBOUND:                -2.721
REMARK SMILES C[C@H]1O[C@H](OC[C@H]2O[C@H](Oc3c(-c4ccc(O)c(O)c4)oc4cc(O)cc(O)c4c3=O)[C@@H](O)[C@H](O)[C@@H]2O)[C@@H](O)[C@H](O)[C@H]1O
REMARK SMILES IDX 7 1 36 2 34 3 32 4 9 5 8 6 6 7 5 8 4 9 1 10 2 11 42 12 3 13
REMARK SMILES IDX 40 14 38 15 43 16 41 18 39 20 37 22 35 24 10 26 11 27 12 28
REMARK SMILES IDX 30 29 21 30 29 31 31 32 22 33 27 34 23 35 26 36 24 37 13 38
REMARK SMILES IDX 20 39 14 40 18 41 15 42 16 43 19 44 17 46 28 48 25 50 33 52
REMARK H PARENT 43 17 41 19 39 21 37 23 35 25 19 45 17 47 28 49 25 51 33 53
REMARK Flexibility Score: inf
ROOT
ATOM      1  C   UNL     1      23.412  26.162  38.730  1.00  0.00     0.180 C 
ATOM      2  C   UNL     1      23.496  24.872  37.850  1.00  0.00     0.177 C 
ATOM      3  C   UNL     1      23.224  25.213  36.379  1.00  0.00     0.180 C 
ATOM      4  C   UNL     1      21.857  25.916  36.231  1.00  0.00     0.214 C 
ATOM      5  C   UNL     1      21.574  26.862  37.426  1.00  0.00     0.339 C 
ATOM      6  O   UNL     1      22.774  27.252  38.070  1.00  0.00    -0.332 OA
ENDROOT
BRANCH   1   7
ATOM      7  C   UNL     1      24.809  26.632  39.152  1.00  0.00     0.198 C 
BRANCH   7   8
ATOM      8  O   UNL     1      24.850  26.742  40.563  1.00  0.00    -0.347 OA
BRANCH   8   9
ATOM      9  C   UNL     1      25.367  27.995  40.988  1.00  0.00     0.281 C 
ATOM     10  C   UNL     1      22.315  29.970  40.378  1.00  0.00     0.041 C 
ATOM     11  C   UNL     1      23.208  28.920  41.043  1.00  0.00     0.150 C 
ATOM     12  C   UNL     1      23.194  29.070  42.586  1.00  0.00     0.174 C 
ATOM     13  O   UNL     1      24.527  29.046  40.532  1.00  0.00    -0.344 OA
ATOM     14  C   UNL     1      24.154  28.049  43.235  1.00  0.00     0.179 C 
ATOM     15  C   UNL     1      25.527  28.039  42.528  1.00  0.00     0.202 C 
BRANCH  12  16
ATOM     16  O   UNL     1      23.506  30.382  42.997  1.00  0.00    -0.388 OA
ATOM     17  H   UNL     1      23.481  30.418  43.988  1.00  0.00     0.211 HD
ENDBRANCH  12  16
BRANCH  14  18
ATOM     18  O   UNL     1      23.596  26.758  43.171  1.00  0.00    -0.387 OA
ATOM     19  H   UNL     1      23.922  26.261  43.968  1.00  0.00     0.211 HD
ENDBRANCH  14  18
BRANCH  15  20
ATOM     20  O   UNL     1      26.274  29.174  42.882  1.00  0.00    -0.385 OA
ATOM     21  H   UNL     1      25.911  29.496  43.747  1.00  0.00     0.211 HD
ENDBRANCH  15  20
ENDBRANCH   8   9
ENDBRANCH   7   8
ENDBRANCH   1   7
BRANCH   2  22
ATOM     22  O   UNL     1      22.560  23.920  38.292  1.00  0.00    -0.387 OA
ATOM     23  H   UNL     1      22.226  24.235  39.174  1.00  0.00     0.211 HD
ENDBRANCH   2  22
BRANCH   3  24
ATOM     24  O   UNL     1      23.257  24.039  35.608  1.00  0.00    -0.387 OA
ATOM     25  H   UNL     1      23.379  24.323  34.663  1.00  0.00     0.211 HD
ENDBRANCH   3  24
BRANCH   5  26
ATOM     26  O   UNL     1      20.676  26.230  38.344  1.00  0.00    -0.454 OA
BRANCH  26  27
ATOM     27  C   UNL     1      19.984  26.920  39.349  1.00  0.00     0.214 A 
ATOM     28  C   UNL     1      18.931  27.782  38.996  1.00  0.00     0.180 A 
ATOM     29  C   UNL     1      20.331  26.786  40.704  1.00  0.00     0.239 A 
ATOM     30  O   UNL     1      18.323  28.499  39.933  1.00  0.00    -0.452 OA
ATOM     31  C   UNL     1      19.616  27.511  41.687  1.00  0.00     0.111 A 
ATOM     32  O   UNL     1      21.289  26.032  41.015  1.00  0.00    -0.285 OA
ATOM     33  C   UNL     1      18.620  28.414  41.225  1.00  0.00     0.146 A 
ATOM     34  C   UNL     1      19.850  27.419  43.093  1.00  0.00     0.134 A 
ATOM     35  C   UNL     1      17.932  29.234  42.122  1.00  0.00     0.094 A 
ATOM     36  C   UNL     1      19.165  28.274  43.964  1.00  0.00     0.093 A 
ATOM     37  C   UNL     1      18.210  29.176  43.486  1.00  0.00     0.123 A 
BRANCH  28  38
ATOM     38  C   UNL     1      18.509  27.963  37.588  1.00  0.00     0.025 A 
ATOM     39  C   UNL     1      18.922  29.081  36.840  1.00  0.00     0.062 A 
ATOM     40  C   UNL     1      17.700  26.992  36.978  1.00  0.00     0.016 A 
ATOM     41  C   UNL     1      18.501  29.241  35.512  1.00  0.00     0.158 A 
ATOM     42  C   UNL     1      17.281  27.151  35.655  1.00  0.00     0.051 A 
ATOM     43  C   UNL     1      17.677  28.275  34.919  1.00  0.00     0.157 A 
BRANCH  41  44
ATOM     44  O   UNL     1      18.896  30.356  34.775  1.00  0.00    -0.504 OA
ATOM     45  H   UNL     1      18.672  31.299  35.076  1.00  0.00     0.293 HD
ENDBRANCH  41  44
BRANCH  43  46
ATOM     46  O   UNL     1      17.261  28.437  33.599  1.00  0.00    -0.504 OA
ATOM     47  H   UNL     1      17.913  28.365  32.826  1.00  0.00     0.293 HD
ENDBRANCH  43  46
ENDBRANCH  28  38
BRANCH  34  48
ATOM     48  O   UNL     1      20.718  26.493  43.683  1.00  0.00    -0.507 OA
ATOM     49  H   UNL     1      21.707  26.429  43.499  1.00  0.00     0.293 HD
ENDBRANCH  34  48
BRANCH  37  50
ATOM     50  O   UNL     1      17.523  30.014  44.361  1.00  0.00    -0.508 OA
ATOM     51  H   UNL     1      17.100  30.879  44.043  1.00  0.00     0.293 HD
ENDBRANCH  37  50
ENDBRANCH  26  27
ENDBRANCH   5  26
BRANCH   4  52
ATOM     52  O   UNL     1      21.850  26.641  35.025  1.00  0.00    -0.384 OA
ATOM     53  H   UNL     1      22.725  27.108  34.963  1.00  0.00     0.211 HD
ENDBRANCH   4  52
TORSDOF 16
ENDMDL
MODEL 2
REMARK VINA RESULT:    -5.836      1.436      1.932
REMARK INTER + INTRA:         -12.310
REMARK INTER:                  -9.927
REMARK INTRA:                  -2.383
REMARK UNBOUND:                -2.721
REMARK SMILES C[C@H]1O[C@H](OC[C@H]2O[C@H](Oc3c(-c4ccc(O)c(O)c4)oc4cc(O)cc(O)c4c3=O)[C@@H](O)[C@H](O)[C@@H]2O)[C@@H](O)[C@H](O)[C@H]1O
REMARK SMILES IDX 7 1 36 2 34 3 32 4 9 5 8 6 6 7 5 8 4 9 1 10 2 11 42 12 3 13
REMARK SMILES IDX 40 14 38 15 43 16 41 18 39 20 37 22 35 24 10 26 11 27 12 28
REMARK SMILES IDX 30 29 21 30 29 31 31 32 22 33 27 34 23 35 26 36 24 37 13 38
REMARK SMILES IDX 20 39 14 40 18 41 15 42 16 43 19 44 17 46 28 48 25 50 33 52
REMARK H PARENT 43 17 41 19 39 21 37 23 35 25 19 45 17 47 28 49 25 51 33 53
REMARK Flexibility Score: inf
ROOT
ATOM      1  C   UNL     1      24.204  25.719  39.952  1.00  0.00     0.180 C 
ATOM      2  C   UNL     1      24.450  24.347  39.242  1.00  0.00     0.177 C 
ATOM      3  C   UNL     1      24.526  24.542  37.722  1.00  0.00     0.180 C 
ATOM      4  C   UNL     1      23.247  25.232  37.201  1.00  0.00     0.214 C 
ATOM      5  C   UNL     1      22.726  26.294  38.205  1.00  0.00     0.339 C 
ATOM      6  O   UNL     1      23.761  26.741  39.064  1.00  0.00    -0.332 OA
ENDROOT
BRANCH   1   7
ATOM      7  C   UNL     1      25.482  26.222  40.634  1.00  0.00     0.198 C 
BRANCH   7   8
ATOM      8  O   UNL     1      25.416  27.632  40.751  1.00  0.00    -0.347 OA
BRANCH   8   9
ATOM      9  C   UNL     1      24.981  28.042  42.040  1.00  0.00     0.281 C 
ATOM     10  C   UNL     1      27.040  31.093  42.257  1.00  0.00     0.041 C 
ATOM     11  C   UNL     1      25.937  30.167  41.737  1.00  0.00     0.150 C 
ATOM     12  C   UNL     1      24.570  30.895  41.692  1.00  0.00     0.174 C 
ATOM     13  O   UNL     1      25.873  29.015  42.564  1.00  0.00    -0.344 OA
ATOM     14  C   UNL     1      23.458  29.926  41.231  1.00  0.00     0.179 C 
ATOM     15  C   UNL     1      23.532  28.584  41.992  1.00  0.00     0.202 C 
BRANCH  12  16
ATOM     16  O   UNL     1      24.239  31.485  42.929  1.00  0.00    -0.388 OA
ATOM     17  H   UNL     1      23.722  32.314  42.756  1.00  0.00     0.211 HD
ENDBRANCH  12  16
BRANCH  14  18
ATOM     18  O   UNL     1      23.579  29.678  39.851  1.00  0.00    -0.387 OA
ATOM     19  H   UNL     1      23.705  28.698  39.742  1.00  0.00     0.211 HD
ENDBRANCH  14  18
BRANCH  15  20
ATOM     20  O   UNL     1      23.051  28.731  43.303  1.00  0.00    -0.385 OA
ATOM     21  H   UNL     1      23.720  29.275  43.794  1.00  0.00     0.211 HD
ENDBRANCH  15  20
ENDBRANCH   8   9
ENDBRANCH   7   8
ENDBRANCH   1   7
BRANCH   2  22
ATOM     22  O   UNL     1      23.413  23.448  39.549  1.00  0.00    -0.387 OA
ATOM     23  H   UNL     1      22.729  23.962  40.054  1.00  0.00     0.211 HD
ENDBRANCH   2  22
BRANCH   3  24
ATOM     24  O   UNL     1      24.700  23.297  37.094  1.00  0.00    -0.387 OA
ATOM     25  H   UNL     1      25.535  23.363  36.558  1.00  0.00     0.211 HD
ENDBRANCH   3  24
BRANCH   5  26
ATOM     26  O   UNL     1      21.628  25.759  38.951  1.00  0.00    -0.454 OA
BRANCH  26  27
ATOM     27  C   UNL     1      20.801  26.536  39.774  1.00  0.00     0.214 A 
ATOM     28  C   UNL     1      19.915  27.458  39.191  1.00  0.00     0.180 A 
ATOM     29  C   UNL     1      20.851  26.430  41.175  1.00  0.00     0.239 A 
ATOM     30  O   UNL     1      19.186  28.254  39.965  1.00  0.00    -0.452 OA
ATOM     31  C   UNL     1      20.008  27.242  41.971  1.00  0.00     0.111 A 
ATOM     32  O   UNL     1      21.661  25.621  41.695  1.00  0.00    -0.285 OA
ATOM     33  C   UNL     1      19.204  28.197  41.292  1.00  0.00     0.146 A 
ATOM     34  C   UNL     1      19.941  27.187  43.396  1.00  0.00     0.134 A 
ATOM     35  C   UNL     1      18.413  29.099  42.007  1.00  0.00     0.094 A 
ATOM     36  C   UNL     1      19.161  28.123  44.087  1.00  0.00     0.093 A 
ATOM     37  C   UNL     1      18.400  29.073  43.400  1.00  0.00     0.123 A 
BRANCH  28  38
ATOM     38  C   UNL     1      19.808  27.616  37.722  1.00  0.00     0.025 A 
ATOM     39  C   UNL     1      20.430  28.687  37.055  1.00  0.00     0.062 A 
ATOM     40  C   UNL     1      19.091  26.668  36.975  1.00  0.00     0.016 A 
ATOM     41  C   UNL     1      20.305  28.826  35.665  1.00  0.00     0.158 A 
ATOM     42  C   UNL     1      18.967  26.805  35.591  1.00  0.00     0.051 A 
ATOM     43  C   UNL     1      19.571  27.884  34.932  1.00  0.00     0.157 A 
BRANCH  41  44
ATOM     44  O   UNL     1      20.908  29.895  35.005  1.00  0.00    -0.504 OA
ATOM     45  H   UNL     1      20.703  30.103  34.033  1.00  0.00     0.293 HD
ENDBRANCH  41  44
BRANCH  43  46
ATOM     46  O   UNL     1      19.450  28.025  33.551  1.00  0.00    -0.504 OA
ATOM     47  H   UNL     1      20.097  27.574  32.914  1.00  0.00     0.293 HD
ENDBRANCH  43  46
ENDBRANCH  28  38
BRANCH  34  48
ATOM     48  O   UNL     1      20.592  26.224  44.175  1.00  0.00    -0.507 OA
ATOM     49  H   UNL     1      21.468  25.785  43.938  1.00  0.00     0.293 HD
ENDBRANCH  34  48
BRANCH  37  50
ATOM     50  O   UNL     1      17.615  29.992  44.094  1.00  0.00    -0.508 OA
ATOM     51  H   UNL     1      18.031  30.694  44.696  1.00  0.00     0.293 HD
ENDBRANCH  37  50
ENDBRANCH  26  27
ENDBRANCH   5  26
BRANCH   4  52
ATOM     52  O   UNL     1      23.531  25.835  35.962  1.00  0.00    -0.384 OA
ATOM     53  H   UNL     1      23.858  25.117  35.358  1.00  0.00     0.211 HD
ENDBRANCH   4  52
TORSDOF 16
ENDMDL
MODEL 3
REMARK VINA RESULT:    -5.745      2.319      6.288
REMARK INTER + INTRA:         -12.160
REMARK INTER:                  -9.540
REMARK INTRA:                  -2.620
REMARK UNBOUND:                -2.721
REMARK SMILES C[C@H]1O[C@H](OC[C@H]2O[C@H](Oc3c(-c4ccc(O)c(O)c4)oc4cc(O)cc(O)c4c3=O)[C@@H](O)[C@H](O)[C@@H]2O)[C@@H](O)[C@H](O)[C@H]1O
REMARK SMILES IDX 7 1 36 2 34 3 32 4 9 5 8 6 6 7 5 8 4 9 1 10 2 11 42 12 3 13
REMARK SMILES IDX 40 14 38 15 43 16 41 18 39 20 37 22 35 24 10 26 11 27 12 28
REMARK SMILES IDX 30 29 21 30 29 31 31 32 22 33 27 34 23 35 26 36 24 37 13 38
REMARK SMILES IDX 20 39 14 40 18 41 15 42 16 43 19 44 17 46 28 48 25 50 33 52
REMARK H PARENT 43 17 41 19 39 21 37 23 35 25 19 45 17 47 28 49 25 51 33 53
REMARK Flexibility Score: inf
ROOT
ATOM      1  C   UNL     1      21.731  26.197  37.046  1.00  0.00     0.180 C 
ATOM      2  C   UNL     1      22.545  26.949  35.942  1.00  0.00     0.177 C 
ATOM      3  C   UNL     1      22.520  28.461  36.202  1.00  0.00     0.180 C 
ATOM      4  C   UNL     1      21.065  28.971  36.284  1.00  0.00     0.214 C 
ATOM      5  C   UNL     1      20.140  27.938  36.979  1.00  0.00     0.339 C 
ATOM      6  O   UNL     1      20.882  27.055  37.802  1.00  0.00    -0.332 OA
ENDROOT
BRANCH   1   7
ATOM      7  C   UNL     1      22.667  25.487  38.032  1.00  0.00     0.198 C 
BRANCH   7   8
ATOM      8  O   UNL     1      22.612  26.155  39.279  1.00  0.00    -0.347 OA
BRANCH   8   9
ATOM      9  C   UNL     1      22.652  25.250  40.373  1.00  0.00     0.281 C 
ATOM     10  C   UNL     1      23.669  27.694  42.940  1.00  0.00     0.041 C 
ATOM     11  C   UNL     1      22.759  27.030  41.903  1.00  0.00     0.150 C 
ATOM     12  C   UNL     1      21.351  26.755  42.489  1.00  0.00     0.174 C 
ATOM     13  O   UNL     1      23.368  25.829  41.455  1.00  0.00    -0.344 OA
ATOM     14  C   UNL     1      20.470  26.024  41.452  1.00  0.00     0.179 C 
ATOM     15  C   UNL     1      21.224  24.839  40.809  1.00  0.00     0.202 C 
BRANCH  12  16
ATOM     16  O   UNL     1      21.409  26.030  43.697  1.00  0.00    -0.388 OA
ATOM     17  H   UNL     1      20.847  25.218  43.606  1.00  0.00     0.211 HD
ENDBRANCH  12  16
BRANCH  14  18
ATOM     18  O   UNL     1      20.075  26.920  40.440  1.00  0.00    -0.387 OA
ATOM     19  H   UNL     1      19.180  26.624  40.124  1.00  0.00     0.211 HD
ENDBRANCH  14  18
BRANCH  15  20
ATOM     20  O   UNL     1      21.306  23.760  41.703  1.00  0.00    -0.385 OA
ATOM     21  H   UNL     1      20.389  23.394  41.795  1.00  0.00     0.211 HD
ENDBRANCH  15  20
ENDBRANCH   8   9
ENDBRANCH   7   8
ENDBRANCH   1   7
BRANCH   2  22
ATOM     22  O   UNL     1      22.005  26.681  34.672  1.00  0.00    -0.387 OA
ATOM     23  H   UNL     1      22.745  26.789  34.018  1.00  0.00     0.211 HD
ENDBRANCH   2  22
BRANCH   3  24
ATOM     24  O   UNL     1      23.215  29.128  35.178  1.00  0.00    -0.387 OA
ATOM     25  H   UNL     1      23.483  30.011  35.545  1.00  0.00     0.211 HD
ENDBRANCH   3  24
BRANCH   5  26
ATOM     26  O   UNL     1      19.388  27.220  35.995  1.00  0.00    -0.454 OA
BRANCH  26  27
ATOM     27  C   UNL     1      18.254  27.740  35.357  1.00  0.00     0.214 A 
ATOM     28  C   UNL     1      17.000  27.637  35.984  1.00  0.00     0.180 A 
ATOM     29  C   UNL     1      18.337  28.346  34.092  1.00  0.00     0.239 A 
ATOM     30  O   UNL     1      15.910  28.055  35.352  1.00  0.00    -0.452 OA
ATOM     31  C   UNL     1      17.165  28.847  33.475  1.00  0.00     0.111 A 
ATOM     32  O   UNL     1      19.456  28.416  33.523  1.00  0.00    -0.285 OA
ATOM     33  C   UNL     1      15.936  28.627  34.153  1.00  0.00     0.146 A 
ATOM     34  C   UNL     1      17.137  29.520  32.217  1.00  0.00     0.134 A 
ATOM     35  C   UNL     1      14.724  29.007  33.571  1.00  0.00     0.094 A 
ATOM     36  C   UNL     1      15.905  29.864  31.646  1.00  0.00     0.093 A 
ATOM     37  C   UNL     1      14.705  29.612  32.316  1.00  0.00     0.123 A 
BRANCH  28  38
ATOM     38  C   UNL     1      16.844  27.016  37.319  1.00  0.00     0.025 A 
ATOM     39  C   UNL     1      17.020  27.765  38.498  1.00  0.00     0.062 A 
ATOM     40  C   UNL     1      16.492  25.661  37.416  1.00  0.00     0.016 A 
ATOM     41  C   UNL     1      16.881  27.156  39.753  1.00  0.00     0.158 A 
ATOM     42  C   UNL     1      16.352  25.054  38.666  1.00  0.00     0.051 A 
ATOM     43  C   UNL     1      16.548  25.797  39.837  1.00  0.00     0.157 A 
BRANCH  41  44
ATOM     44  O   UNL     1      17.071  27.892  40.921  1.00  0.00    -0.504 OA
ATOM     45  H   UNL     1      16.701  27.579  41.813  1.00  0.00     0.293 HD
ENDBRANCH  41  44
BRANCH  43  46
ATOM     46  O   UNL     1      16.409  25.195  41.086  1.00  0.00    -0.504 OA
ATOM     47  H   UNL     1      16.390  24.187  41.189  1.00  0.00     0.293 HD
ENDBRANCH  43  46
ENDBRANCH  28  38
BRANCH  34  48
ATOM     48  O   UNL     1      18.280  29.897  31.503  1.00  0.00    -0.507 OA
ATOM     49  H   UNL     1      18.279  30.443  30.656  1.00  0.00     0.293 HD
ENDBRANCH  34  48
BRANCH  37  50
ATOM     50  O   UNL     1      13.484  29.970  31.747  1.00  0.00    -0.508 OA
ATOM     51  H   UNL     1      12.634  29.458  31.956  1.00  0.00     0.293 HD
ENDBRANCH  37  50
ENDBRANCH  26  27
ENDBRANCH   5  26
BRANCH   4  52
ATOM     52  O   UNL     1      21.052  30.187  36.991  1.00  0.00    -0.384 OA
ATOM     53  H   UNL     1      20.727  29.986  37.908  1.00  0.00     0.211 HD
ENDBRANCH   4  52
TORSDOF 16
ENDMDL
MODEL 4
REMARK VINA RESULT:    -5.692      2.602      5.253
REMARK INTER + INTRA:         -12.073
REMARK INTER:                  -9.238
REMARK INTRA:                  -2.836
REMARK UNBOUND:                -2.721
REMARK SMILES C[C@H]1O[C@H](OC[C@H]2O[C@H](Oc3c(-c4ccc(O)c(O)c4)oc4cc(O)cc(O)c4c3=O)[C@@H](O)[C@H](O)[C@@H]2O)[C@@H](O)[C@H](O)[C@H]1O
REMARK SMILES IDX 7 1 36 2 34 3 32 4 9 5 8 6 6 7 5 8 4 9 1 10 2 11 42 12 3 13
REMARK SMILES IDX 40 14 38 15 43 16 41 18 39 20 37 22 35 24 10 26 11 27 12 28
REMARK SMILES IDX 30 29 21 30 29 31 31 32 22 33 27 34 23 35 26 36 24 37 13 38
REMARK SMILES IDX 20 39 14 40 18 41 15 42 16 43 19 44 17 46 28 48 25 50 33 52
REMARK H PARENT 43 17 41 19 39 21 37 23 35 25 19 45 17 47 28 49 25 51 33 53
REMARK Flexibility Score: inf
ROOT
ATOM      1  C   UNL     1      21.469  27.721  39.283  1.00  0.00     0.180 C 
ATOM      2  C   UNL     1      21.304  28.056  37.764  1.00  0.00     0.177 C 
ATOM      3  C   UNL     1      21.090  29.563  37.572  1.00  0.00     0.180 C 
ATOM      4  C   UNL     1      19.878  30.046  38.396  1.00  0.00     0.214 C 
ATOM      5  C   UNL     1      19.784  29.305  39.755  1.00  0.00     0.339 C 
ATOM      6  O   UNL     1      21.041  28.775  40.140  1.00  0.00    -0.332 OA
ENDROOT
BRANCH   1   7
ATOM      7  C   UNL     1      22.932  27.415  39.623  1.00  0.00     0.198 C 
BRANCH   7   8
ATOM      8  O   UNL     1      23.592  28.624  39.948  1.00  0.00    -0.347 OA
BRANCH   8   9
ATOM      9  C   UNL     1      24.730  28.409  40.771  1.00  0.00     0.281 C 
ATOM     10  C   UNL     1      26.186  31.777  40.413  1.00  0.00     0.041 C 
ATOM     11  C   UNL     1      25.171  30.715  40.845  1.00  0.00     0.150 C 
ATOM     12  C   UNL     1      24.838  30.841  42.353  1.00  0.00     0.174 C 
ATOM     13  O   UNL     1      25.691  29.429  40.545  1.00  0.00    -0.344 OA
ATOM     14  C   UNL     1      23.867  29.721  42.786  1.00  0.00     0.179 C 
ATOM     15  C   UNL     1      24.332  28.343  42.266  1.00  0.00     0.202 C 
BRANCH  12  16
ATOM     16  O   UNL     1      25.996  30.838  43.157  1.00  0.00    -0.388 OA
ATOM     17  H   UNL     1      25.790  30.371  44.008  1.00  0.00     0.211 HD
ENDBRANCH  12  16
BRANCH  14  18
ATOM     18  O   UNL     1      22.576  29.986  42.290  1.00  0.00    -0.387 OA
ATOM     19  H   UNL     1      22.688  30.381  41.386  1.00  0.00     0.211 HD
ENDBRANCH  14  18
BRANCH  15  20
ATOM     20  O   UNL     1      25.424  27.874  43.014  1.00  0.00    -0.385 OA
ATOM     21  H   UNL     1      25.263  28.145  43.955  1.00  0.00     0.211 HD
ENDBRANCH  15  20
ENDBRANCH   8   9
ENDBRANCH   7   8
ENDBRANCH   1   7
BRANCH   2  22
ATOM     22  O   UNL     1      20.210  27.354  37.227  1.00  0.00    -0.387 OA
ATOM     23  H   UNL     1      20.011  27.766  36.345  1.00  0.00     0.211 HD
ENDBRANCH   2  22
BRANCH   3  24
ATOM     24  O   UNL     1      20.898  29.843  36.208  1.00  0.00    -0.387 OA
ATOM     25  H   UNL     1      21.028  30.822  36.098  1.00  0.00     0.211 HD
ENDBRANCH   3  24
BRANCH   5  26
ATOM     26  O   UNL     1      18.791  28.277  39.681  1.00  0.00    -0.454 OA
BRANCH  26  27
ATOM     27  C   UNL     1      17.686  28.206  40.540  1.00  0.00     0.214 A 
ATOM     28  C   UNL     1      17.812  27.547  41.775  1.00  0.00     0.180 A 
ATOM     29  C   UNL     1      16.444  28.762  40.187  1.00  0.00     0.239 A 
ATOM     30  O   UNL     1      16.750  27.406  42.560  1.00  0.00    -0.452 OA
ATOM     31  C   UNL     1      15.349  28.657  41.078  1.00  0.00     0.111 A 
ATOM     32  O   UNL     1      16.328  29.331  39.072  1.00  0.00    -0.285 OA
ATOM     33  C   UNL     1      15.555  27.906  42.267  1.00  0.00     0.146 A 
ATOM     34  C   UNL     1      14.058  29.221  40.845  1.00  0.00     0.134 A 
ATOM     35  C   UNL     1      14.502  27.676  43.154  1.00  0.00     0.094 A 
ATOM     36  C   UNL     1      13.015  28.949  41.739  1.00  0.00     0.093 A 
ATOM     37  C   UNL     1      13.231  28.184  42.888  1.00  0.00     0.123 A 
BRANCH  28  38
ATOM     38  C   UNL     1      19.093  26.945  42.211  1.00  0.00     0.025 A 
ATOM     39  C   UNL     1      19.564  25.743  41.652  1.00  0.00     0.062 A 
ATOM     40  C   UNL     1      19.866  27.595  43.187  1.00  0.00     0.016 A 
ATOM     41  C   UNL     1      20.773  25.183  42.088  1.00  0.00     0.158 A 
ATOM     42  C   UNL     1      21.070  27.038  43.621  1.00  0.00     0.051 A 
ATOM     43  C   UNL     1      21.527  25.831  43.076  1.00  0.00     0.157 A 
BRANCH  41  44
ATOM     44  O   UNL     1      21.233  23.985  41.545  1.00  0.00    -0.504 OA
ATOM     45  H   UNL     1      22.154  23.620  41.767  1.00  0.00     0.293 HD
ENDBRANCH  41  44
BRANCH  43  46
ATOM     46  O   UNL     1      22.729  25.272  43.506  1.00  0.00    -0.504 OA
ATOM     47  H   UNL     1      22.921  25.123  44.490  1.00  0.00     0.293 HD
ENDBRANCH  43  46
ENDBRANCH  28  38
BRANCH  34  48
ATOM     48  O   UNL     1      13.756  30.071  39.776  1.00  0.00    -0.507 OA
ATOM     49  H   UNL     1      12.885  30.075  39.269  1.00  0.00     0.293 HD
ENDBRANCH  34  48
BRANCH  37  50
ATOM     50  O   UNL     1      12.192  27.930  43.779  1.00  0.00    -0.508 OA
ATOM     51  H   UNL     1      11.998  26.992  44.113  1.00  0.00     0.293 HD
ENDBRANCH  37  50
ENDBRANCH  26  27
ENDBRANCH   5  26
BRANCH   4  52
ATOM     52  O   UNL     1      19.997  31.432  38.607  1.00  0.00    -0.384 OA
ATOM     53  H   UNL     1      20.799  31.570  39.177  1.00  0.00     0.211 HD
ENDBRANCH   4  52
TORSDOF 16
ENDMDL
MODEL 5
REMARK VINA RESULT:    -5.656      2.968      8.030
REMARK INTER + INTRA:         -12.014
REMARK INTER:                  -9.624
REMARK INTRA:                  -2.390
REMARK UNBOUND:                -2.721
REMARK SMILES C[C@H]1O[C@H](OC[C@H]2O[C@H](Oc3c(-c4ccc(O)c(O)c4)oc4cc(O)cc(O)c4c3=O)[C@@H](O)[C@H](O)[C@@H]2O)[C@@H](O)[C@H](O)[C@H]1O
REMARK SMILES IDX 7 1 36 2 34 3 32 4 9 5 8 6 6 7 5 8 4 9 1 10 2 11 42 12 3 13
REMARK SMILES IDX 40 14 38 15 43 16 41 18 39 20 37 22 35 24 10 26 11 27 12 28
REMARK SMILES IDX 30 29 21 30 29 31 31 32 22 33 27 34 23 35 26 36 24 37 13 38
REMARK SMILES IDX 20 39 14 40 18 41 15 42 16 43 19 44 17 46 28 48 25 50 33 52
REMARK H PARENT 43 17 41 19 39 21 37 23 35 25 19 45 17 47 28 49 25 51 33 53
REMARK Flexibility Score: inf
ROOT
ATOM      1  C   UNL     1      15.801  25.954  39.150  1.00  0.00     0.180 C 
ATOM      2  C   UNL     1      14.331  25.675  38.693  1.00  0.00     0.177 C 
ATOM      3  C   UNL     1      14.303  24.539  37.661  1.00  0.00     0.180 C 
ATOM      4  C   UNL     1      15.218  24.874  36.464  1.00  0.00     0.214 C 
ATOM      5  C   UNL     1      16.497  25.624  36.920  1.00  0.00     0.339 C 
ATOM      6  O   UNL     1      16.778  25.379  38.287  1.00  0.00    -0.332 OA
ENDROOT
BRANCH   1   7
ATOM      7  C   UNL     1      16.052  25.407  40.560  1.00  0.00     0.198 C 
BRANCH   7   8
ATOM      8  O   UNL     1      17.092  26.153  41.164  1.00  0.00    -0.347 OA
BRANCH   8   9
ATOM      9  C   UNL     1      16.723  26.648  42.444  1.00  0.00     0.281 C 
ATOM     10  C   UNL     1      20.133  27.371  43.646  1.00  0.00     0.041 C 
ATOM     11  C   UNL     1      18.879  27.520  42.780  1.00  0.00     0.150 C 
ATOM     12  C   UNL     1      18.409  28.996  42.726  1.00  0.00     0.174 C 
ATOM     13  O   UNL     1      17.858  26.680  43.297  1.00  0.00    -0.344 OA
ATOM     14  C   UNL     1      17.105  29.116  41.906  1.00  0.00     0.179 C 
ATOM     15  C   UNL     1      16.073  28.049  42.333  1.00  0.00     0.202 C 
BRANCH  12  16
ATOM     16  O   UNL     1      18.244  29.551  44.012  1.00  0.00    -0.388 OA
ATOM     17  H   UNL     1      18.404  28.841  44.686  1.00  0.00     0.211 HD
ENDBRANCH  12  16
BRANCH  14  18
ATOM     18  O   UNL     1      17.383  28.962  40.535  1.00  0.00    -0.387 OA
ATOM     19  H   UNL     1      17.829  28.080  40.427  1.00  0.00     0.211 HD
ENDBRANCH  14  18
BRANCH  15  20
ATOM     20  O   UNL     1      15.491  28.387  43.565  1.00  0.00    -0.385 OA
ATOM     21  H   UNL     1      15.624  29.363  43.686  1.00  0.00     0.211 HD
ENDBRANCH  15  20
ENDBRANCH   8   9
ENDBRANCH   7   8
ENDBRANCH   1   7
BRANCH   2  22
ATOM     22  O   UNL     1      13.768  26.834  38.130  1.00  0.00    -0.387 OA
ATOM     23  H   UNL     1      13.964  26.805  37.157  1.00  0.00     0.211 HD
ENDBRANCH   2  22
BRANCH   3  24
ATOM     24  O   UNL     1      12.984  24.330  37.224  1.00  0.00    -0.387 OA
ATOM     25  H   UNL     1      12.825  24.971  36.483  1.00  0.00     0.211 HD
ENDBRANCH   3  24
BRANCH   5  26
ATOM     26  O   UNL     1      16.356  27.025  36.663  1.00  0.00    -0.454 OA
BRANCH  26  27
ATOM     27  C   UNL     1      16.762  27.638  35.469  1.00  0.00     0.214 A 
ATOM     28  C   UNL     1      18.114  27.977  35.291  1.00  0.00     0.180 A 
ATOM     29  C   UNL     1      15.842  27.940  34.450  1.00  0.00     0.239 A 
ATOM     30  O   UNL     1      18.493  28.629  34.198  1.00  0.00    -0.452 OA
ATOM     31  C   UNL     1      16.290  28.571  33.265  1.00  0.00     0.111 A 
ATOM     32  O   UNL     1      14.629  27.656  34.622  1.00  0.00    -0.285 OA
ATOM     33  C   UNL     1      17.661  28.944  33.212  1.00  0.00     0.146 A 
ATOM     34  C   UNL     1      15.457  28.884  32.149  1.00  0.00     0.134 A 
ATOM     35  C   UNL     1      18.163  29.652  32.118  1.00  0.00     0.094 A 
ATOM     36  C   UNL     1      15.983  29.620  31.080  1.00  0.00     0.093 A 
ATOM     37  C   UNL     1      17.327  30.002  31.060  1.00  0.00     0.123 A 
BRANCH  28  38
ATOM     38  C   UNL     1      19.135  27.680  36.322  1.00  0.00     0.025 A 
ATOM     39  C   UNL     1      19.197  28.412  37.522  1.00  0.00     0.062 A 
ATOM     40  C   UNL     1      20.048  26.635  36.111  1.00  0.00     0.016 A 
ATOM     41  C   UNL     1      20.180  28.125  38.479  1.00  0.00     0.158 A 
ATOM     42  C   UNL     1      21.027  26.347  37.064  1.00  0.00     0.051 A 
ATOM     43  C   UNL     1      21.098  27.091  38.249  1.00  0.00     0.157 A 
BRANCH  41  44
ATOM     44  O   UNL     1      20.252  28.860  39.661  1.00  0.00    -0.504 OA
ATOM     45  H   UNL     1      19.792  28.547  40.510  1.00  0.00     0.293 HD
ENDBRANCH  41  44
BRANCH  43  46
ATOM     46  O   UNL     1      22.073  26.807  39.203  1.00  0.00    -0.504 OA
ATOM     47  H   UNL     1      22.285  25.855  39.477  1.00  0.00     0.293 HD
ENDBRANCH  43  46
ENDBRANCH  28  38
BRANCH  34  48
ATOM     48  O   UNL     1      14.124  28.475  32.027  1.00  0.00    -0.507 OA
ATOM     49  H   UNL     1      13.332  29.096  31.969  1.00  0.00     0.293 HD
ENDBRANCH  34  48
BRANCH  37  50
ATOM     50  O   UNL     1      17.846  30.721  29.986  1.00  0.00    -0.508 OA
ATOM     51  H   UNL     1      18.845  30.781  29.823  1.00  0.00     0.293 HD
ENDBRANCH  37  50
ENDBRANCH  26  27
ENDBRANCH   5  26
BRANCH   4  52
ATOM     52  O   UNL     1      15.566  23.677  35.811  1.00  0.00    -0.384 OA
ATOM     53  H   UNL     1      15.938  23.927  34.924  1.00  0.00     0.211 HD
ENDBRANCH   4  52
TORSDOF 16
ENDMDL
MODEL 6
REMARK VINA RESULT:    -5.582      4.055      9.162
REMARK INTER + INTRA:         -11.892
REMARK INTER:                  -9.069
REMARK INTRA:                  -2.823
REMARK UNBOUND:                -2.721
REMARK SMILES C[C@H]1O[C@H](OC[C@H]2O[C@H](Oc3c(-c4ccc(O)c(O)c4)oc4cc(O)cc(O)c4c3=O)[C@@H](O)[C@H](O)[C@@H]2O)[C@@H](O)[C@H](O)[C@H]1O
REMARK SMILES IDX 7 1 36 2 34 3 32 4 9 5 8 6 6 7 5 8 4 9 1 10 2 11 42 12 3 13
REMARK SMILES IDX 40 14 38 15 43 16 41 18 39 20 37 22 35 24 10 26 11 27 12 28
REMARK SMILES IDX 30 29 21 30 29 31 31 32 22 33 27 34 23 35 26 36 24 37 13 38
REMARK SMILES IDX 20 39 14 40 18 41 15 42 16 43 19 44 17 46 28 48 25 50 33 52
REMARK H PARENT 43 17 41 19 39 21 37 23 35 25 19 45 17 47 28 49 25 51 33 53
REMARK Flexibility Score: inf
ROOT
ATOM      1  C   UNL     1      13.218  26.816  38.767  1.00  0.00     0.180 C 
ATOM      2  C   UNL     1      11.978  26.814  39.720  1.00  0.00     0.177 C 
ATOM      3  C   UNL     1      11.768  28.211  40.320  1.00  0.00     0.180 C 
ATOM      4  C   UNL     1      13.044  28.684  41.048  1.00  0.00     0.214 C 
ATOM      5  C   UNL     1      14.325  28.224  40.303  1.00  0.00     0.339 C 
ATOM      6  O   UNL     1      14.057  27.954  38.938  1.00  0.00    -0.332 OA
ENDROOT
BRANCH   1   7
ATOM      7  C   UNL     1      12.782  26.781  37.297  1.00  0.00     0.198 C 
BRANCH   7   8
ATOM      8  O   UNL     1      13.772  27.416  36.509  1.00  0.00    -0.347 OA
BRANCH   8   9
ATOM      9  C   UNL     1      13.208  28.303  35.553  1.00  0.00     0.281 C 
ATOM     10  C   UNL     1      16.371  29.298  33.942  1.00  0.00     0.041 C 
ATOM     11  C   UNL     1      15.226  28.368  34.352  1.00  0.00     0.150 C 
ATOM     12  C   UNL     1      14.647  27.618  33.126  1.00  0.00     0.174 C 
ATOM     13  O   UNL     1      14.222  29.131  35.003  1.00  0.00    -0.344 OA
ATOM     14  C   UNL     1      13.450  26.739  33.548  1.00  0.00     0.179 C 
ATOM     15  C   UNL     1      12.463  27.523  34.441  1.00  0.00     0.202 C 
BRANCH  12  16
ATOM     16  O   UNL     1      14.280  28.498  32.087  1.00  0.00    -0.388 OA
ATOM     17  H   UNL     1      13.365  28.265  31.782  1.00  0.00     0.211 HD
ENDBRANCH  12  16
BRANCH  14  18
ATOM     18  O   UNL     1      13.908  25.610  34.253  1.00  0.00    -0.387 OA
ATOM     19  H   UNL     1      13.512  24.812  33.812  1.00  0.00     0.211 HD
ENDBRANCH  14  18
BRANCH  15  20
ATOM     20  O   UNL     1      11.708  28.423  33.673  1.00  0.00    -0.385 OA
ATOM     21  H   UNL     1      11.160  28.952  34.309  1.00  0.00     0.211 HD
ENDBRANCH  15  20
ENDBRANCH   8   9
ENDBRANCH   7   8
ENDBRANCH   1   7
BRANCH   2  22
ATOM     22  O   UNL     1      12.161  25.880  40.755  1.00  0.00    -0.387 OA
ATOM     23  H   UNL     1      11.450  25.194  40.650  1.00  0.00     0.211 HD
ENDBRANCH   2  22
BRANCH   3  24
ATOM     24  O   UNL     1      10.680  28.184  41.210  1.00  0.00    -0.387 OA
ATOM     25  H   UNL     1       9.995  28.802  40.840  1.00  0.00     0.211 HD
ENDBRANCH   3  24
BRANCH   5  26
ATOM     26  O   UNL     1      14.883  27.080  40.957  1.00  0.00    -0.454 OA
BRANCH  26  27
ATOM     27  C   UNL     1      16.240  26.963  41.289  1.00  0.00     0.214 A 
ATOM     28  C   UNL     1      17.051  26.064  40.576  1.00  0.00     0.180 A 
ATOM     29  C   UNL     1      16.807  27.713  42.334  1.00  0.00     0.239 A 
ATOM     30  O   UNL     1      18.317  25.889  40.936  1.00  0.00    -0.452 OA
ATOM     31  C   UNL     1      18.178  27.556  42.646  1.00  0.00     0.111 A 
ATOM     32  O   UNL     1      16.073  28.500  42.985  1.00  0.00    -0.285 OA
ATOM     33  C   UNL     1      18.896  26.567  41.921  1.00  0.00     0.146 A 
ATOM     34  C   UNL     1      18.869  28.296  43.654  1.00  0.00     0.134 A 
ATOM     35  C   UNL     1      20.228  26.285  42.229  1.00  0.00     0.094 A 
ATOM     36  C   UNL     1      20.197  27.971  43.960  1.00  0.00     0.093 A 
ATOM     37  C   UNL     1      20.876  26.974  43.254  1.00  0.00     0.123 A 
BRANCH  28  38
ATOM     38  C   UNL     1      16.519  25.249  39.460  1.00  0.00     0.025 A 
ATOM     39  C   UNL     1      16.610  25.689  38.126  1.00  0.00     0.062 A 
ATOM     40  C   UNL     1      15.931  24.004  39.730  1.00  0.00     0.016 A 
ATOM     41  C   UNL     1      16.088  24.910  37.084  1.00  0.00     0.158 A 
ATOM     42  C   UNL     1      15.412  23.226  38.693  1.00  0.00     0.051 A 
ATOM     43  C   UNL     1      15.487  23.676  37.368  1.00  0.00     0.157 A 
BRANCH  41  44
ATOM     44  O   UNL     1      16.164  25.352  35.765  1.00  0.00    -0.504 OA
ATOM     45  H   UNL     1      16.639  24.811  35.049  1.00  0.00     0.293 HD
ENDBRANCH  41  44
BRANCH  43  46
ATOM     46  O   UNL     1      14.970  22.903  36.330  1.00  0.00    -0.504 OA
ATOM     47  H   UNL     1      14.596  23.328  35.489  1.00  0.00     0.293 HD
ENDBRANCH  43  46
ENDBRANCH  28  38
BRANCH  34  48
ATOM     48  O   UNL     1      18.313  29.369  44.359  1.00  0.00    -0.507 OA
ATOM     49  H   UNL     1      18.653  29.720  45.240  1.00  0.00     0.293 HD
ENDBRANCH  34  48
BRANCH  37  50
ATOM     50  O   UNL     1      22.200  26.666  43.554  1.00  0.00    -0.508 OA
ATOM     51  H   UNL     1      22.946  27.339  43.411  1.00  0.00     0.293 HD
ENDBRANCH  37  50
ENDBRANCH  26  27
ENDBRANCH   5  26
BRANCH   4  52
ATOM     52  O   UNL     1      13.017  30.087  41.144  1.00  0.00    -0.384 OA
ATOM     53  H   UNL     1      13.930  30.378  41.405  1.00  0.00     0.211 HD
ENDBRANCH   4  52
TORSDOF 16
ENDMDL
MODEL 7
REMARK VINA RESULT:    -5.562      2.538      7.701
REMARK INTER + INTRA:         -11.860
REMARK INTER:                  -9.642
REMARK INTRA:                  -2.219
REMARK UNBOUND:                -2.721
REMARK SMILES C[C@H]1O[C@H](OC[C@H]2O[C@H](Oc3c(-c4ccc(O)c(O)c4)oc4cc(O)cc(O)c4c3=O)[C@@H](O)[C@H](O)[C@@H]2O)[C@@H](O)[C@H](O)[C@H]1O
REMARK SMILES IDX 7 1 36 2 34 3 32 4 9 5 8 6 6 7 5 8 4 9 1 10 2 11 42 12 3 13
REMARK SMILES IDX 40 14 38 15 43 16 41 18 39 20 37 22 35 24 10 26 11 27 12 28
REMARK SMILES IDX 30 29 21 30 29 31 31 32 22 33 27 34 23 35 26 36 24 37 13 38
REMARK SMILES IDX 20 39 14 40 18 41 15 42 16 43 19 44 17 46 28 48 25 50 33 52
REMARK H PARENT 43 17 41 19 39 21 37 23 35 25 19 45 17 47 28 49 25 51 33 53
REMARK Flexibility Score: inf
ROOT
ATOM      1  C   UNL     1      20.199  25.727  40.524  1.00  0.00     0.180 C 
ATOM      2  C   UNL     1      20.968  24.909  41.612  1.00  0.00     0.177 C 
ATOM      3  C   UNL     1      21.556  25.852  42.670  1.00  0.00     0.180 C 
ATOM      4  C   UNL     1      22.462  26.911  42.006  1.00  0.00     0.214 C 
ATOM      5  C   UNL     1      21.897  27.361  40.634  1.00  0.00     0.339 C 
ATOM      6  O   UNL     1      20.504  27.119  40.546  1.00  0.00    -0.332 OA
ENDROOT
BRANCH   1   7
ATOM      7  C   UNL     1      18.682  25.584  40.699  1.00  0.00     0.198 C 
BRANCH   7   8
ATOM      8  O   UNL     1      18.126  26.862  40.951  1.00  0.00    -0.347 OA
BRANCH   8   9
ATOM      9  C   UNL     1      17.283  26.863  42.094  1.00  0.00     0.281 C 
ATOM     10  C   UNL     1      19.633  28.548  44.382  1.00  0.00     0.041 C 
ATOM     11  C   UNL     1      18.688  28.397  43.186  1.00  0.00     0.150 C 
ATOM     12  C   UNL     1      17.647  29.544  43.148  1.00  0.00     0.174 C 
ATOM     13  O   UNL     1      18.048  27.132  43.260  1.00  0.00    -0.344 OA
ATOM     14  C   UNL     1      16.660  29.338  41.977  1.00  0.00     0.179 C 
ATOM     15  C   UNL     1      16.132  27.887  41.937  1.00  0.00     0.202 C 
BRANCH  12  16
ATOM     16  O   UNL     1      16.954  29.676  44.369  1.00  0.00    -0.388 OA
ATOM     17  H   UNL     1      17.468  30.283  44.961  1.00  0.00     0.211 HD
ENDBRANCH  12  16
BRANCH  14  18
ATOM     18  O   UNL     1      17.297  29.627  40.756  1.00  0.00    -0.387 OA
ATOM     19  H   UNL     1      16.944  30.502  40.445  1.00  0.00     0.211 HD
ENDBRANCH  14  18
BRANCH  15  20
ATOM     20  O   UNL     1      15.185  27.676  42.953  1.00  0.00    -0.385 OA
ATOM     21  H   UNL     1      14.819  28.567  43.191  1.00  0.00     0.211 HD
ENDBRANCH  15  20
ENDBRANCH   8   9
ENDBRANCH   7   8
ENDBRANCH   1   7
BRANCH   2  22
ATOM     22  O   UNL     1      22.004  24.165  41.019  1.00  0.00    -0.387 OA
ATOM     23  H   UNL     1      22.683  24.005  41.727  1.00  0.00     0.211 HD
ENDBRANCH   2  22
BRANCH   3  24
ATOM     24  O   UNL     1      22.283  25.109  43.615  1.00  0.00    -0.387 OA
ATOM     25  H   UNL     1      23.245  25.267  43.423  1.00  0.00     0.211 HD
ENDBRANCH   3  24
BRANCH   5  26
ATOM     26  O   UNL     1      22.605  26.704  39.578  1.00  0.00    -0.454 OA
BRANCH  26  27
ATOM     27  C   UNL     1      22.963  27.334  38.378  1.00  0.00     0.214 A 
ATOM     28  C   UNL     1      23.921  28.363  38.397  1.00  0.00     0.180 A 
ATOM     29  C   UNL     1      22.372  26.975  37.154  1.00  0.00     0.239 A 
ATOM     30  O   UNL     1      24.208  29.018  37.279  1.00  0.00    -0.452 OA
ATOM     31  C   UNL     1      22.753  27.645  35.967  1.00  0.00     0.111 A 
ATOM     32  O   UNL     1      21.499  26.070  37.144  1.00  0.00    -0.285 OA
ATOM     33  C   UNL     1      23.671  28.721  36.101  1.00  0.00     0.146 A 
ATOM     34  C   UNL     1      22.254  27.333  34.666  1.00  0.00     0.134 A 
ATOM     35  C   UNL     1      24.028  29.493  34.993  1.00  0.00     0.094 A 
ATOM     36  C   UNL     1      22.608  28.143  33.580  1.00  0.00     0.093 A 
ATOM     37  C   UNL     1      23.490  29.216  33.737  1.00  0.00     0.123 A 
BRANCH  28  38
ATOM     38  C   UNL     1      24.587  28.786  39.650  1.00  0.00     0.025 A 
ATOM     39  C   UNL     1      24.177  29.941  40.342  1.00  0.00     0.062 A 
ATOM     40  C   UNL     1      25.634  28.011  40.173  1.00  0.00     0.016 A 
ATOM     41  C   UNL     1      24.830  30.332  41.520  1.00  0.00     0.158 A 
ATOM     42  C   UNL     1      26.284  28.399  41.347  1.00  0.00     0.051 A 
ATOM     43  C   UNL     1      25.886  29.560  42.022  1.00  0.00     0.157 A 
BRANCH  41  44
ATOM     44  O   UNL     1      24.435  31.484  42.197  1.00  0.00    -0.504 OA
ATOM     45  H   UNL     1      23.638  31.484  42.826  1.00  0.00     0.293 HD
ENDBRANCH  41  44
BRANCH  43  46
ATOM     46  O   UNL     1      26.532  29.952  43.194  1.00  0.00    -0.504 OA
ATOM     47  H   UNL     1      27.327  29.438  43.557  1.00  0.00     0.293 HD
ENDBRANCH  43  46
ENDBRANCH  28  38
BRANCH  34  48
ATOM     48  O   UNL     1      21.437  26.233  34.382  1.00  0.00    -0.507 OA
ATOM     49  H   UNL     1      20.501  26.289  34.014  1.00  0.00     0.293 HD
ENDBRANCH  34  48
BRANCH  37  50
ATOM     50  O   UNL     1      23.848  30.008  32.649  1.00  0.00    -0.508 OA
ATOM     51  H   UNL     1      24.419  30.839  32.764  1.00  0.00     0.293 HD
ENDBRANCH  37  50
ENDBRANCH  26  27
ENDBRANCH   5  26
BRANCH   4  52
ATOM     52  O   UNL     1      22.576  28.015  42.871  1.00  0.00    -0.384 OA
ATOM     53  H   UNL     1      22.683  27.654  43.790  1.00  0.00     0.211 HD
ENDBRANCH   4  52
TORSDOF 16
ENDMDL
MODEL 8
REMARK VINA RESULT:    -5.529      2.001      6.901
REMARK INTER + INTRA:         -11.804
REMARK INTER:                  -9.174
REMARK INTRA:                  -2.631
REMARK UNBOUND:                -2.721
REMARK SMILES C[C@H]1O[C@H](OC[C@H]2O[C@H](Oc3c(-c4ccc(O)c(O)c4)oc4cc(O)cc(O)c4c3=O)[C@@H](O)[C@H](O)[C@@H]2O)[C@@H](O)[C@H](O)[C@H]1O
REMARK SMILES IDX 7 1 36 2 34 3 32 4 9 5 8 6 6 7 5 8 4 9 1 10 2 11 42 12 3 13
REMARK SMILES IDX 40 14 38 15 43 16 41 18 39 20 37 22 35 24 10 26 11 27 12 28
REMARK SMILES IDX 30 29 21 30 29 31 31 32 22 33 27 34 23 35 26 36 24 37 13 38
REMARK SMILES IDX 20 39 14 40 18 41 15 42 16 43 19 44 17 46 28 48 25 50 33 52
REMARK H PARENT 43 17 41 19 39 21 37 23 35 25 19 45 17 47 28 49 25 51 33 53
REMARK Flexibility Score: inf
ROOT
ATOM      1  C   UNL     1      22.772  27.836  41.825  1.00  0.00     0.180 C 
ATOM      2  C   UNL     1      24.280  27.829  42.239  1.00  0.00     0.177 C 
ATOM      3  C   UNL     1      24.732  29.244  42.624  1.00  0.00     0.180 C 
ATOM      4  C   UNL     1      24.464  30.230  41.468  1.00  0.00     0.214 C 
ATOM      5  C   UNL     1      23.142  29.894  40.730  1.00  0.00     0.339 C 
ATOM      6  O   UNL     1      22.269  29.142  41.555  1.00  0.00    -0.332 OA
ENDROOT
BRANCH   1   7
ATOM      7  C   UNL     1      21.897  27.223  42.923  1.00  0.00     0.198 C 
BRANCH   7   8
ATOM      8  O   UNL     1      20.691  27.959  43.015  1.00  0.00    -0.347 OA
BRANCH   8   9
ATOM      9  C   UNL     1      19.545  27.123  42.928  1.00  0.00     0.281 C 
ATOM     10  C   UNL     1      17.063  29.657  43.932  1.00  0.00     0.041 C 
ATOM     11  C   UNL     1      18.119  28.986  43.050  1.00  0.00     0.150 C 
ATOM     12  C   UNL     1      17.613  28.831  41.593  1.00  0.00     0.174 C 
ATOM     13  O   UNL     1      18.453  27.725  43.609  1.00  0.00    -0.344 OA
ATOM     14  C   UNL     1      18.663  28.090  40.735  1.00  0.00     0.179 C 
ATOM     15  C   UNL     1      19.184  26.825  41.452  1.00  0.00     0.202 C 
BRANCH  12  16
ATOM     16  O   UNL     1      16.364  28.180  41.528  1.00  0.00    -0.388 OA
ATOM     17  H   UNL     1      16.245  27.638  42.350  1.00  0.00     0.211 HD
ENDBRANCH  12  16
BRANCH  14  18
ATOM     18  O   UNL     1      19.749  28.942  40.462  1.00  0.00    -0.387 OA
ATOM     19  H   UNL     1      19.797  29.599  41.207  1.00  0.00     0.211 HD
ENDBRANCH  14  18
BRANCH  15  20
ATOM     20  O   UNL     1      18.224  25.801  41.409  1.00  0.00    -0.385 OA
ATOM     21  H   UNL     1      18.499  25.124  42.081  1.00  0.00     0.211 HD
ENDBRANCH  15  20
ENDBRANCH   8   9
ENDBRANCH   7   8
ENDBRANCH   1   7
BRANCH   2  22
ATOM     22  O   UNL     1      25.073  27.355  41.179  1.00  0.00    -0.387 OA
ATOM     23  H   UNL     1      25.816  28.005  41.064  1.00  0.00     0.211 HD
ENDBRANCH   2  22
BRANCH   3  24
ATOM     24  O   UNL     1      26.099  29.231  42.949  1.00  0.00    -0.387 OA
ATOM     25  H   UNL     1      26.566  29.744  42.238  1.00  0.00     0.211 HD
ENDBRANCH   3  24
BRANCH   5  26
ATOM     26  O   UNL     1      23.429  29.199  39.511  1.00  0.00    -0.454 OA
BRANCH  26  27
ATOM     27  C   UNL     1      22.592  29.231  38.388  1.00  0.00     0.214 A 
ATOM     28  C   UNL     1      22.286  28.033  37.720  1.00  0.00     0.180 A 
ATOM     29  C   UNL     1      22.065  30.439  37.898  1.00  0.00     0.239 A 
ATOM     30  O   UNL     1      21.559  28.063  36.609  1.00  0.00    -0.452 OA
ATOM     31  C   UNL     1      21.235  30.429  36.752  1.00  0.00     0.111 A 
ATOM     32  O   UNL     1      22.360  31.512  38.484  1.00  0.00    -0.285 OA
ATOM     33  C   UNL     1      21.047  29.179  36.103  1.00  0.00     0.146 A 
ATOM     34  C   UNL     1      20.609  31.585  36.195  1.00  0.00     0.134 A 
ATOM     35  C   UNL     1      20.317  29.097  34.915  1.00  0.00     0.094 A 
ATOM     36  C   UNL     1      19.908  31.476  34.988  1.00  0.00     0.093 A 
ATOM     37  C   UNL     1      19.759  30.242  34.350  1.00  0.00     0.123 A 
BRANCH  28  38
ATOM     38  C   UNL     1      22.802  26.725  38.187  1.00  0.00     0.025 A 
ATOM     39  C   UNL     1      22.124  25.981  39.170  1.00  0.00     0.062 A 
ATOM     40  C   UNL     1      23.978  26.205  37.625  1.00  0.00     0.016 A 
ATOM     41  C   UNL     1      22.636  24.752  39.609  1.00  0.00     0.158 A 
ATOM     42  C   UNL     1      24.488  24.980  38.060  1.00  0.00     0.051 A 
ATOM     43  C   UNL     1      23.821  24.251  39.054  1.00  0.00     0.157 A 
BRANCH  41  44
ATOM     44  O   UNL     1      21.973  24.021  40.593  1.00  0.00    -0.504 OA
ATOM     45  H   UNL     1      22.398  23.209  41.029  1.00  0.00     0.293 HD
ENDBRANCH  41  44
BRANCH  43  46
ATOM     46  O   UNL     1      24.326  23.028  39.491  1.00  0.00    -0.504 OA
ATOM     47  H   UNL     1      24.822  22.405  38.864  1.00  0.00     0.293 HD
ENDBRANCH  43  46
ENDBRANCH  28  38
BRANCH  34  48
ATOM     48  O   UNL     1      20.622  32.849  36.796  1.00  0.00    -0.507 OA
ATOM     49  H   UNL     1      19.856  33.252  37.311  1.00  0.00     0.293 HD
ENDBRANCH  34  48
BRANCH  37  50
ATOM     50  O   UNL     1      19.048  30.140  33.156  1.00  0.00    -0.508 OA
ATOM     51  H   UNL     1      19.521  30.014  32.268  1.00  0.00     0.293 HD
ENDBRANCH  37  50
ENDBRANCH  26  27
ENDBRANCH   5  26
BRANCH   4  52
ATOM     52  O   UNL     1      24.409  31.536  41.990  1.00  0.00    -0.384 OA
ATOM     53  H   UNL     1      23.976  32.106  41.301  1.00  0.00     0.211 HD
ENDBRANCH   4  52
TORSDOF 16
ENDMDL
MODEL 9
REMARK VINA RESULT:    -5.478      2.240      6.611
REMARK INTER + INTRA:         -11.722
REMARK INTER:                  -9.581
REMARK INTRA:                  -2.141
REMARK UNBOUND:                -2.721
REMARK SMILES C[C@H]1O[C@H](OC[C@H]2O[C@H](Oc3c(-c4ccc(O)c(O)c4)oc4cc(O)cc(O)c4c3=O)[C@@H](O)[C@H](O)[C@@H]2O)[C@@H](O)[C@H](O)[C@H]1O
REMARK SMILES IDX 7 1 36 2 34 3 32 4 9 5 8 6 6 7 5 8 4 9 1 10 2 11 42 12 3 13
REMARK SMILES IDX 40 14 38 15 43 16 41 18 39 20 37 22 35 24 10 26 11 27 12 28
REMARK SMILES IDX 30 29 21 30 29 31 31 32 22 33 27 34 23 35 26 36 24 37 13 38
REMARK SMILES IDX 20 39 14 40 18 41 15 42 16 43 19 44 17 46 28 48 25 50 33 52
REMARK H PARENT 43 17 41 19 39 21 37 23 35 25 19 45 17 47 28 49 25 51 33 53
REMARK Flexibility Score: inf
ROOT
ATOM      1  C   UNL     1      22.672  26.823  41.297  1.00  0.00     0.180 C 
ATOM      2  C   UNL     1      23.929  27.093  42.187  1.00  0.00     0.177 C 
ATOM      3  C   UNL     1      24.035  28.588  42.516  1.00  0.00     0.180 C 
ATOM      4  C   UNL     1      24.064  29.427  41.220  1.00  0.00     0.214 C 
ATOM      5  C   UNL     1      23.136  28.823  40.134  1.00  0.00     0.339 C 
ATOM      6  O   UNL     1      22.133  28.005  40.710  1.00  0.00    -0.332 OA
ENDROOT
BRANCH   1   7
ATOM      7  C   UNL     1      21.554  26.161  42.110  1.00  0.00     0.198 C 
BRANCH   7   8
ATOM      8  O   UNL     1      20.573  27.133  42.420  1.00  0.00    -0.347 OA
BRANCH   8   9
ATOM      9  C   UNL     1      19.279  26.563  42.558  1.00  0.00     0.281 C 
ATOM     10  C   UNL     1      17.557  29.625  43.679  1.00  0.00     0.041 C 
ATOM     11  C   UNL     1      18.305  28.696  42.719  1.00  0.00     0.150 C 
ATOM     12  C   UNL     1      17.566  28.581  41.362  1.00  0.00     0.174 C 
ATOM     13  O   UNL     1      18.450  27.422  43.329  1.00  0.00    -0.344 OA
ATOM     14  C   UNL     1      18.298  27.587  40.433  1.00  0.00     0.179 C 
ATOM     15  C   UNL     1      18.646  26.277  41.174  1.00  0.00     0.202 C 
BRANCH  12  16
ATOM     16  O   UNL     1      16.214  28.215  41.520  1.00  0.00    -0.388 OA
ATOM     17  H   UNL     1      15.895  27.807  40.675  1.00  0.00     0.211 HD
ENDBRANCH  12  16
BRANCH  14  18
ATOM     18  O   UNL     1      19.484  28.167  39.947  1.00  0.00    -0.387 OA
ATOM     19  H   UNL     1      19.773  27.627  39.164  1.00  0.00     0.211 HD
ENDBRANCH  14  18
BRANCH  15  20
ATOM     20  O   UNL     1      17.499  25.485  41.346  1.00  0.00    -0.385 OA
ATOM     21  H   UNL     1      16.831  26.048  41.817  1.00  0.00     0.211 HD
ENDBRANCH  15  20
ENDBRANCH   8   9
ENDBRANCH   7   8
ENDBRANCH   1   7
BRANCH   2  22
ATOM     22  O   UNL     1      25.095  26.675  41.521  1.00  0.00    -0.387 OA
ATOM     23  H   UNL     1      24.812  26.349  40.626  1.00  0.00     0.211 HD
ENDBRANCH   2  22
BRANCH   3  24
ATOM     24  O   UNL     1      25.193  28.823  43.277  1.00  0.00    -0.387 OA
ATOM     25  H   UNL     1      25.140  29.763  43.594  1.00  0.00     0.211 HD
ENDBRANCH   3  24
BRANCH   5  26
ATOM     26  O   UNL     1      23.914  28.094  39.180  1.00  0.00    -0.454 OA
BRANCH  26  27
ATOM     27  C   UNL     1      23.362  27.433  38.074  1.00  0.00     0.214 A 
ATOM     28  C   UNL     1      22.580  28.156  37.157  1.00  0.00     0.180 A 
ATOM     29  C   UNL     1      23.556  26.056  37.869  1.00  0.00     0.239 A 
ATOM     30  O   UNL     1      21.988  27.522  36.151  1.00  0.00    -0.452 OA
ATOM     31  C   UNL     1      22.970  25.424  36.747  1.00  0.00     0.111 A 
ATOM     32  O   UNL     1      24.238  25.408  38.704  1.00  0.00    -0.285 OA
ATOM     33  C   UNL     1      22.134  26.222  35.921  1.00  0.00     0.146 A 
ATOM     34  C   UNL     1      23.137  24.045  36.415  1.00  0.00     0.134 A 
ATOM     35  C   UNL     1      21.445  25.655  34.847  1.00  0.00     0.094 A 
ATOM     36  C   UNL     1      22.411  23.499  35.350  1.00  0.00     0.093 A 
ATOM     37  C   UNL     1      21.571  24.296  34.567  1.00  0.00     0.123 A 
BRANCH  28  38
ATOM     38  C   UNL     1      22.342  29.609  37.309  1.00  0.00     0.025 A 
ATOM     39  C   UNL     1      21.120  30.102  37.804  1.00  0.00     0.062 A 
ATOM     40  C   UNL     1      23.359  30.516  36.975  1.00  0.00     0.016 A 
ATOM     41  C   UNL     1      20.909  31.482  37.928  1.00  0.00     0.158 A 
ATOM     42  C   UNL     1      23.151  31.891  37.099  1.00  0.00     0.051 A 
ATOM     43  C   UNL     1      21.926  32.379  37.573  1.00  0.00     0.157 A 
BRANCH  41  44
ATOM     44  O   UNL     1      19.694  31.972  38.404  1.00  0.00    -0.504 OA
ATOM     45  H   UNL     1      19.387  31.799  39.356  1.00  0.00     0.293 HD
ENDBRANCH  41  44
BRANCH  43  46
ATOM     46  O   UNL     1      21.713  33.751  37.699  1.00  0.00    -0.504 OA
ATOM     47  H   UNL     1      20.790  34.155  37.592  1.00  0.00     0.293 HD
ENDBRANCH  43  46
ENDBRANCH  28  38
BRANCH  34  48
ATOM     48  O   UNL     1      24.017  23.181  37.077  1.00  0.00    -0.507 OA
ATOM     49  H   UNL     1      25.022  23.240  37.041  1.00  0.00     0.293 HD
ENDBRANCH  34  48
BRANCH  37  50
ATOM     50  O   UNL     1      20.863  23.748  33.500  1.00  0.00    -0.508 OA
ATOM     51  H   UNL     1      20.454  22.821  33.556  1.00  0.00     0.293 HD
ENDBRANCH  37  50
ENDBRANCH  26  27
ENDBRANCH   5  26
BRANCH   4  52
ATOM     52  O   UNL     1      23.665  30.742  41.524  1.00  0.00    -0.384 OA
ATOM     53  H   UNL     1      23.353  31.153  40.674  1.00  0.00     0.211 HD
ENDBRANCH   4  52
TORSDOF 16
ENDMDL
