MODEL 1
REMARK VINA RESULT:     4.046      0.000      0.000
REMARK INTER + INTRA:           5.267
REMARK INTER:                   4.992
REMARK INTRA:                   0.276
REMARK UNBOUND:                 0.276
REMARK SMILES Oc1cc(O)c2cc(O)c(-c3cc(O)c(O)c(O)c3)[o+]c2c1
REMARK SMILES IDX 10 1 20 2 21 3 22 4 2 5 3 6 4 7 6 8 7 9 8 10 11 11 12 12
REMARK SMILES IDX 13 13 19 14 15 15 17 16 14 17 16 19 18 21 9 23 1 25 5 27
REMARK H PARENT 14 18 16 20 18 22 9 24 1 26 5 28
REMARK Flexibility Score: inf
ROOT
ATOM      1  C   UNL     1      58.751  27.130  16.878  1.00  0.00     0.402 A 
ATOM      2  O   UNL     1      59.591  26.506  16.058  1.00  0.00    -0.202 OA
ATOM      3  C   UNL     1      60.883  26.805  15.971  1.00  0.00     0.368 A 
ATOM      4  C   UNL     1      61.688  26.093  15.075  1.00  0.00     0.162 A 
ATOM      5  C   UNL     1      63.046  26.388  14.962  1.00  0.00     0.128 A 
ATOM      6  C   UNL     1      63.609  27.400  15.748  1.00  0.00     0.093 A 
ATOM      7  C   UNL     1      62.825  28.127  16.652  1.00  0.00     0.136 A 
ATOM      8  C   UNL     1      61.442  27.829  16.773  1.00  0.00     0.125 A 
ATOM      9  C   UNL     1      60.583  28.496  17.661  1.00  0.00     0.078 A 
ATOM     10  C   UNL     1      59.232  28.143  17.727  1.00  0.00     0.223 A 
ENDROOT
BRANCH   1  11
ATOM     11  C   UNL     1      57.330  26.712  16.875  1.00  0.00     0.091 A 
ATOM     12  C   UNL     1      56.953  25.400  16.540  1.00  0.00     0.068 A 
ATOM     13  C   UNL     1      55.606  25.018  16.564  1.00  0.00     0.162 A 
ATOM     14  C   UNL     1      56.341  27.627  17.267  1.00  0.00     0.068 A 
ATOM     15  C   UNL     1      54.619  25.947  16.937  1.00  0.00     0.200 A 
ATOM     16  C   UNL     1      54.993  27.255  17.292  1.00  0.00     0.162 A 
BRANCH  13  17
ATOM     17  O   UNL     1      55.243  23.716  16.225  1.00  0.00    -0.504 OA
ATOM     18  H   UNL     1      54.850  23.493  15.316  1.00  0.00     0.293 HD
ENDBRANCH  13  17
BRANCH  15  19
ATOM     19  O   UNL     1      53.272  25.584  16.961  1.00  0.00    -0.502 OA
ATOM     20  H   UNL     1      52.680  25.650  16.142  1.00  0.00     0.293 HD
ENDBRANCH  15  19
BRANCH  16  21
ATOM     21  O   UNL     1      54.039  28.197  17.675  1.00  0.00    -0.504 OA
ATOM     22  H   UNL     1      53.046  28.006  17.634  1.00  0.00     0.293 HD
ENDBRANCH  16  21
ENDBRANCH   1  11
BRANCH  10  23
ATOM     23  O   UNL     1      58.388  28.771  18.645  1.00  0.00    -0.500 OA
ATOM     24  H   UNL     1      58.265  28.413  19.585  1.00  0.00     0.294 HD
ENDBRANCH  10  23
BRANCH   5  25
ATOM     25  O   UNL     1      63.831  25.668  14.063  1.00  0.00    -0.507 OA
ATOM     26  H   UNL     1      64.154  26.078  13.195  1.00  0.00     0.293 HD
ENDBRANCH   5  25
BRANCH   7  27
ATOM     27  O   UNL     1      63.460  29.125  17.398  1.00  0.00    -0.507 OA
ATOM     28  H   UNL     1      63.679  29.050  18.380  1.00  0.00     0.293 HD
ENDBRANCH   7  27
TORSDOF 7
ENDMDL
MODEL 2
REMARK VINA RESULT:     4.123      0.067      1.795
REMARK INTER + INTRA:           5.363
REMARK INTER:                   5.174
REMARK INTRA:                   0.189
REMARK UNBOUND:                 0.276
REMARK SMILES Oc1cc(O)c2cc(O)c(-c3cc(O)c(O)c(O)c3)[o+]c2c1
REMARK SMILES IDX 10 1 20 2 21 3 22 4 2 5 3 6 4 7 6 8 7 9 8 10 11 11 12 12
REMARK SMILES IDX 13 13 19 14 15 15 17 16 14 17 16 19 18 21 9 23 1 25 5 27
REMARK H PARENT 14 18 16 20 18 22 9 24 1 26 5 28
REMARK Flexibility Score: inf
ROOT
ATOM      1  C   UNL     1      58.718  27.142  16.925  1.00  0.00     0.402 A 
ATOM      2  O   UNL     1      59.545  26.516  16.092  1.00  0.00    -0.202 OA
ATOM      3  C   UNL     1      60.836  26.811  15.986  1.00  0.00     0.368 A 
ATOM      4  C   UNL     1      61.625  26.098  15.078  1.00  0.00     0.162 A 
ATOM      5  C   UNL     1      62.982  26.388  14.944  1.00  0.00     0.128 A 
ATOM      6  C   UNL     1      63.560  27.399  15.722  1.00  0.00     0.093 A 
ATOM      7  C   UNL     1      62.791  28.127  16.639  1.00  0.00     0.136 A 
ATOM      8  C   UNL     1      61.410  27.833  16.780  1.00  0.00     0.125 A 
ATOM      9  C   UNL     1      60.567  28.502  17.681  1.00  0.00     0.078 A 
ATOM     10  C   UNL     1      59.216  28.153  17.768  1.00  0.00     0.223 A 
ENDROOT
BRANCH   1  11
ATOM     11  C   UNL     1      57.297  26.729  16.943  1.00  0.00     0.091 A 
ATOM     12  C   UNL     1      56.277  27.628  17.301  1.00  0.00     0.068 A 
ATOM     13  C   UNL     1      54.936  27.224  17.291  1.00  0.00     0.162 A 
ATOM     14  C   UNL     1      56.951  25.429  16.543  1.00  0.00     0.068 A 
ATOM     15  C   UNL     1      54.600  25.914  16.909  1.00  0.00     0.200 A 
ATOM     16  C   UNL     1      55.614  25.017  16.532  1.00  0.00     0.162 A 
BRANCH  13  17
ATOM     17  O   UNL     1      53.933  28.123  17.652  1.00  0.00    -0.504 OA
ATOM     18  H   UNL     1      52.974  28.000  17.347  1.00  0.00     0.293 HD
ENDBRANCH  13  17
BRANCH  15  19
ATOM     19  O   UNL     1      53.269  25.494  16.898  1.00  0.00    -0.502 OA
ATOM     20  H   UNL     1      52.961  24.661  17.385  1.00  0.00     0.293 HD
ENDBRANCH  15  19
BRANCH  16  21
ATOM     21  O   UNL     1      55.312  23.713  16.140  1.00  0.00    -0.504 OA
ATOM     22  H   UNL     1      56.009  23.093  15.747  1.00  0.00     0.293 HD
ENDBRANCH  16  21
ENDBRANCH   1  11
BRANCH  10  23
ATOM     23  O   UNL     1      58.388  28.783  18.698  1.00  0.00    -0.500 OA
ATOM     24  H   UNL     1      58.184  28.364  19.598  1.00  0.00     0.294 HD
ENDBRANCH  10  23
BRANCH   5  25
ATOM     25  O   UNL     1      63.751  25.666  14.034  1.00  0.00    -0.507 OA
ATOM     26  H   UNL     1      64.507  26.101  13.517  1.00  0.00     0.293 HD
ENDBRANCH   5  25
BRANCH   7  27
ATOM     27  O   UNL     1      63.441  29.123  17.375  1.00  0.00    -0.507 OA
ATOM     28  H   UNL     1      63.087  30.059  17.503  1.00  0.00     0.293 HD
ENDBRANCH   7  27
TORSDOF 7
ENDMDL
MODEL 3
REMARK VINA RESULT:     5.990      2.480      6.728
REMARK INTER + INTRA:           7.666
REMARK INTER:                   7.832
REMARK INTRA:                  -0.166
REMARK UNBOUND:                 0.276
REMARK SMILES Oc1cc(O)c2cc(O)c(-c3cc(O)c(O)c(O)c3)[o+]c2c1
REMARK SMILES IDX 10 1 20 2 21 3 22 4 2 5 3 6 4 7 6 8 7 9 8 10 11 11 12 12
REMARK SMILES IDX 13 13 19 14 15 15 17 16 14 17 16 19 18 21 9 23 1 25 5 27
REMARK H PARENT 14 18 16 20 18 22 9 24 1 26 5 28
REMARK Flexibility Score: inf
ROOT
ATOM      1  C   UNL     1      61.586  26.127  15.007  1.00  0.00     0.402 A 
ATOM      2  O   UNL     1      60.284  26.305  15.213  1.00  0.00    -0.202 OA
ATOM      3  C   UNL     1      59.797  27.038  16.209  1.00  0.00     0.368 A 
ATOM      4  C   UNL     1      58.411  27.164  16.346  1.00  0.00     0.162 A 
ATOM      5  C   UNL     1      57.872  27.925  17.383  1.00  0.00     0.128 A 
ATOM      6  C   UNL     1      58.722  28.567  18.292  1.00  0.00     0.093 A 
ATOM      7  C   UNL     1      60.113  28.457  18.176  1.00  0.00     0.136 A 
ATOM      8  C   UNL     1      60.666  27.685  17.120  1.00  0.00     0.125 A 
ATOM      9  C   UNL     1      62.046  27.530  16.919  1.00  0.00     0.078 A 
ATOM     10  C   UNL     1      62.517  26.757  15.853  1.00  0.00     0.223 A 
ENDROOT
BRANCH   1  11
ATOM     11  C   UNL     1      62.004  25.278  13.868  1.00  0.00     0.091 A 
ATOM     12  C   UNL     1      61.615  23.930  13.778  1.00  0.00     0.068 A 
ATOM     13  C   UNL     1      62.002  23.148  12.682  1.00  0.00     0.162 A 
ATOM     14  C   UNL     1      62.759  25.840  12.828  1.00  0.00     0.068 A 
ATOM     15  C   UNL     1      62.777  23.714  11.655  1.00  0.00     0.200 A 
ATOM     16  C   UNL     1      63.152  25.067  11.731  1.00  0.00     0.162 A 
BRANCH  13  17
ATOM     17  O   UNL     1      61.614  21.811  12.605  1.00  0.00    -0.504 OA
ATOM     18  H   UNL     1      60.667  21.519  12.818  1.00  0.00     0.293 HD
ENDBRANCH  13  17
BRANCH  15  19
ATOM     19  O   UNL     1      63.175  22.949  10.559  1.00  0.00    -0.502 OA
ATOM     20  H   UNL     1      62.692  22.101  10.288  1.00  0.00     0.293 HD
ENDBRANCH  15  19
BRANCH  16  21
ATOM     21  O   UNL     1      63.914  25.660  10.724  1.00  0.00    -0.504 OA
ATOM     22  H   UNL     1      63.799  25.418   9.748  1.00  0.00     0.293 HD
ENDBRANCH  16  21
ENDBRANCH   1  11
BRANCH  10  23
ATOM     23  O   UNL     1      63.888  26.643  15.622  1.00  0.00    -0.500 OA
ATOM     24  H   UNL     1      64.383  27.296  15.026  1.00  0.00     0.294 HD
ENDBRANCH  10  23
BRANCH   5  25
ATOM     25  O   UNL     1      56.488  28.038  17.503  1.00  0.00    -0.507 OA
ATOM     26  H   UNL     1      56.041  28.121  18.408  1.00  0.00     0.293 HD
ENDBRANCH   5  25
BRANCH   7  27
ATOM     27  O   UNL     1      60.893  29.125  19.125  1.00  0.00    -0.507 OA
ATOM     28  H   UNL     1      61.167  30.094  19.058  1.00  0.00     0.293 HD
ENDBRANCH   7  27
TORSDOF 7
ENDMDL
MODEL 4
REMARK VINA RESULT:     6.114      2.472      6.847
REMARK INTER + INTRA:           7.819
REMARK INTER:                   7.959
REMARK INTRA:                  -0.140
REMARK UNBOUND:                 0.276
REMARK SMILES Oc1cc(O)c2cc(O)c(-c3cc(O)c(O)c(O)c3)[o+]c2c1
REMARK SMILES IDX 10 1 20 2 21 3 22 4 2 5 3 6 4 7 6 8 7 9 8 10 11 11 12 12
REMARK SMILES IDX 13 13 19 14 15 15 17 16 14 17 16 19 18 21 9 23 1 25 5 27
REMARK H PARENT 14 18 16 20 18 22 9 24 1 26 5 28
REMARK Flexibility Score: inf
ROOT
ATOM      1  C   UNL     1      61.585  26.144  14.994  1.00  0.00     0.402 A 
ATOM      2  O   UNL     1      60.284  26.321  15.201  1.00  0.00    -0.202 OA
ATOM      3  C   UNL     1      59.797  27.051  16.200  1.00  0.00     0.368 A 
ATOM      4  C   UNL     1      58.411  27.177  16.338  1.00  0.00     0.162 A 
ATOM      5  C   UNL     1      57.873  27.934  17.378  1.00  0.00     0.128 A 
ATOM      6  C   UNL     1      58.722  28.572  18.289  1.00  0.00     0.093 A 
ATOM      7  C   UNL     1      60.113  28.462  18.173  1.00  0.00     0.136 A 
ATOM      8  C   UNL     1      60.666  27.694  17.114  1.00  0.00     0.125 A 
ATOM      9  C   UNL     1      62.046  27.538  16.912  1.00  0.00     0.078 A 
ATOM     10  C   UNL     1      62.516  26.770  15.843  1.00  0.00     0.223 A 
ENDROOT
BRANCH   1  11
ATOM     11  C   UNL     1      62.003  25.299  13.852  1.00  0.00     0.091 A 
ATOM     12  C   UNL     1      62.838  25.799  12.838  1.00  0.00     0.068 A 
ATOM     13  C   UNL     1      63.241  24.977  11.777  1.00  0.00     0.162 A 
ATOM     14  C   UNL     1      61.605  23.954  13.807  1.00  0.00     0.068 A 
ATOM     15  C   UNL     1      62.819  23.638  11.728  1.00  0.00     0.200 A 
ATOM     16  C   UNL     1      62.000  23.127  12.750  1.00  0.00     0.162 A 
BRANCH  13  17
ATOM     17  O   UNL     1      64.065  25.485  10.774  1.00  0.00    -0.504 OA
ATOM     18  H   UNL     1      64.788  26.167  10.975  1.00  0.00     0.293 HD
ENDBRANCH  13  17
BRANCH  15  19
ATOM     19  O   UNL     1      63.207  22.807  10.676  1.00  0.00    -0.502 OA
ATOM     20  H   UNL     1      64.072  22.946  10.169  1.00  0.00     0.293 HD
ENDBRANCH  15  19
BRANCH  16  21
ATOM     21  O   UNL     1      61.572  21.800  12.734  1.00  0.00    -0.504 OA
ATOM     22  H   UNL     1      60.723  21.513  12.263  1.00  0.00     0.293 HD
ENDBRANCH  16  21
ENDBRANCH   1  11
BRANCH  10  23
ATOM     23  O   UNL     1      63.888  26.656  15.612  1.00  0.00    -0.500 OA
ATOM     24  H   UNL     1      64.445  27.449  15.318  1.00  0.00     0.294 HD
ENDBRANCH  10  23
BRANCH   5  25
ATOM     25  O   UNL     1      56.489  28.047  17.499  1.00  0.00    -0.507 OA
ATOM     26  H   UNL     1      55.891  28.122  16.684  1.00  0.00     0.293 HD
ENDBRANCH   5  25
BRANCH   7  27
ATOM     27  O   UNL     1      60.894  29.125  19.125  1.00  0.00    -0.507 OA
ATOM     28  H   UNL     1      61.869  29.355  19.002  1.00  0.00     0.293 HD
ENDBRANCH   7  27
TORSDOF 7
ENDMDL
