MODEL 1
REMARK VINA RESULT:    -5.091      0.000      0.000
REMARK INTER + INTRA:         -12.863
REMARK INTER:                  -9.853
REMARK INTRA:                  -3.011
REMARK UNBOUND:                -3.011
REMARK SMILES CCCCCCCCCCCCCCCCCC(=O)[O-]
REMARK SMILES IDX 10 1 11 2 12 3 13 4 14 5 15 6 16 7 17 8 18 9 19 10 20 11
REMARK SMILES IDX 9 12 8 13 7 14 6 15 5 16 4 17 3 18 2 19 1 20
REMARK H PARENT
REMARK Flexibility Score: inf
ROOT
ATOM      1  C   UNL     1     -15.536   4.596 -24.217  1.00  0.00     0.000 C 
ENDROOT
BRANCH   1   2
ATOM      2  C   UNL     1     -16.883   4.051 -23.708  1.00  0.00     0.000 C 
BRANCH   2   3
ATOM      3  C   UNL     1     -17.622   4.946 -22.696  1.00  0.00     0.000 C 
BRANCH   3   4
ATOM      4  C   UNL     1     -17.666   4.344 -21.281  1.00  0.00     0.000 C 
BRANCH   4   5
ATOM      5  C   UNL     1     -16.797   3.080 -21.137  1.00  0.00     0.000 C 
BRANCH   5   6
ATOM      6  C   UNL     1     -16.045   2.945 -19.800  1.00  0.00     0.000 C 
BRANCH   6   7
ATOM      7  C   UNL     1     -14.777   2.082 -19.908  1.00  0.00     0.006 C 
BRANCH   7   8
ATOM      8  C   UNL     1     -14.916   0.980 -20.968  1.00  0.00     0.053 C 
BRANCH   8   9
ATOM      9  C   UNL     1     -14.927  -0.386 -20.351  1.00  0.00     0.041 C 
ATOM     10  O   UNL     1     -15.265  -1.388 -21.035  1.00  0.00    -0.550 OA
ATOM     11  O   UNL     1     -14.586  -0.548 -19.014  1.00  0.00    -0.550 OA
ENDBRANCH   8   9
ENDBRANCH   7   8
ENDBRANCH   6   7
ENDBRANCH   5   6
ENDBRANCH   4   5
ENDBRANCH   3   4
ENDBRANCH   2   3
ENDBRANCH   1   2
BRANCH   1  12
ATOM     12  C   UNL     1     -14.905   5.626 -23.265  1.00  0.00     0.000 C 
BRANCH  12  13
ATOM     13  C   UNL     1     -13.817   5.018 -22.361  1.00  0.00    -0.000 C 
BRANCH  13  14
ATOM     14  C   UNL     1     -13.746   5.600 -20.935  1.00  0.00    -0.000 C 
BRANCH  14  15
ATOM     15  C   UNL     1     -14.284   7.037 -20.783  1.00  0.00    -0.000 C 
BRANCH  15  16
ATOM     16  C   UNL     1     -15.610   7.156 -20.010  1.00  0.00    -0.000 C 
BRANCH  16  17
ATOM     17  C   UNL     1     -16.605   8.115 -20.678  1.00  0.00    -0.000 C 
BRANCH  17  18
ATOM     18  C   UNL     1     -15.959   8.837 -21.866  1.00  0.00    -0.000 C 
BRANCH  18  19
ATOM     19  C   UNL     1     -16.854   8.763 -23.109  1.00  0.00    -0.003 C 
ATOM     20  C   UNL     1     -16.032   8.879 -24.388  1.00  0.00     0.004 C 
ENDBRANCH  18  19
ENDBRANCH  17  18
ENDBRANCH  16  17
ENDBRANCH  15  16
ENDBRANCH  14  15
ENDBRANCH  13  14
ENDBRANCH  12  13
ENDBRANCH   1  12
TORSDOF 16
ENDMDL
MODEL 2
REMARK VINA RESULT:    -5.047      2.012      4.177
REMARK INTER + INTRA:         -12.779
REMARK INTER:                 -10.329
REMARK INTRA:                  -2.450
REMARK UNBOUND:                -3.011
REMARK SMILES CCCCCCCCCCCCCCCCCC(=O)[O-]
REMARK SMILES IDX 10 1 11 2 12 3 13 4 14 5 15 6 16 7 17 8 18 9 19 10 20 11
REMARK SMILES IDX 9 12 8 13 7 14 6 15 5 16 4 17 3 18 2 19 1 20
REMARK H PARENT
REMARK Flexibility Score: inf
ROOT
ATOM      1  C   UNL     1     -16.954   4.098 -20.298  1.00  0.00     0.000 C 
ENDROOT
BRANCH   1   2
ATOM      2  C   UNL     1     -16.171   2.855 -19.837  1.00  0.00     0.000 C 
BRANCH   2   3
ATOM      3  C   UNL     1     -14.647   2.916 -20.043  1.00  0.00     0.000 C 
BRANCH   3   4
ATOM      4  C   UNL     1     -14.103   1.735 -20.866  1.00  0.00     0.000 C 
BRANCH   4   5
ATOM      5  C   UNL     1     -14.878   0.426 -20.623  1.00  0.00     0.000 C 
BRANCH   5   6
ATOM      6  C   UNL     1     -14.552  -0.299 -19.305  1.00  0.00     0.000 C 
BRANCH   6   7
ATOM      7  C   UNL     1     -14.109  -1.758 -19.516  1.00  0.00     0.006 C 
BRANCH   7   8
ATOM      8  C   UNL     1     -14.287  -2.212 -20.971  1.00  0.00     0.053 C 
BRANCH   8   9
ATOM      9  C   UNL     1     -13.402  -3.375 -21.302  1.00  0.00     0.041 C 
ATOM     10  O   UNL     1     -13.763  -4.222 -22.161  1.00  0.00    -0.550 OA
ATOM     11  O   UNL     1     -12.188  -3.535 -20.645  1.00  0.00    -0.550 OA
ENDBRANCH   8   9
ENDBRANCH   7   8
ENDBRANCH   6   7
ENDBRANCH   5   6
ENDBRANCH   4   5
ENDBRANCH   3   4
ENDBRANCH   2   3
ENDBRANCH   1   2
BRANCH   1  12
ATOM     12  C   UNL     1     -17.804   3.841 -21.555  1.00  0.00     0.000 C 
BRANCH  12  13
ATOM     13  C   UNL     1     -17.498   2.485 -22.216  1.00  0.00    -0.000 C 
BRANCH  13  14
ATOM     14  C   UNL     1     -16.957   2.565 -23.659  1.00  0.00    -0.000 C 
BRANCH  14  15
ATOM     15  C   UNL     1     -15.664   3.387 -23.830  1.00  0.00    -0.000 C 
BRANCH  15  16
ATOM     16  C   UNL     1     -15.847   4.746 -24.530  1.00  0.00    -0.000 C 
BRANCH  16  17
ATOM     17  C   UNL     1     -15.439   5.932 -23.644  1.00  0.00    -0.000 C 
BRANCH  17  18
ATOM     18  C   UNL     1     -14.402   5.506 -22.599  1.00  0.00    -0.000 C 
BRANCH  18  19
ATOM     19  C   UNL     1     -14.410   6.456 -21.395  1.00  0.00    -0.003 C 
ATOM     20  C   UNL     1     -13.053   6.474 -20.698  1.00  0.00     0.004 C 
ENDBRANCH  18  19
ENDBRANCH  17  18
ENDBRANCH  16  17
ENDBRANCH  15  16
ENDBRANCH  14  15
ENDBRANCH  13  14
ENDBRANCH  12  13
ENDBRANCH   1  12
TORSDOF 16
ENDMDL
MODEL 3
REMARK VINA RESULT:    -5.008      3.580      6.607
REMARK INTER + INTRA:         -12.704
REMARK INTER:                 -10.062
REMARK INTRA:                  -2.642
REMARK UNBOUND:                -3.011
REMARK SMILES CCCCCCCCCCCCCCCCCC(=O)[O-]
REMARK SMILES IDX 10 1 11 2 12 3 13 4 14 5 15 6 16 7 17 8 18 9 19 10 20 11
REMARK SMILES IDX 9 12 8 13 7 14 6 15 5 16 4 17 3 18 2 19 1 20
REMARK H PARENT
REMARK Flexibility Score: inf
ROOT
ATOM      1  C   UNL     1     -17.783   3.562 -22.015  1.00  0.00     0.000 C 
ENDROOT
BRANCH   1   2
ATOM      2  C   UNL     1     -17.206   4.382 -23.184  1.00  0.00     0.000 C 
BRANCH   2   3
ATOM      3  C   UNL     1     -15.925   3.815 -23.824  1.00  0.00     0.000 C 
BRANCH   3   4
ATOM      4  C   UNL     1     -14.726   4.773 -23.720  1.00  0.00     0.000 C 
BRANCH   4   5
ATOM      5  C   UNL     1     -14.901   5.838 -22.620  1.00  0.00     0.000 C 
BRANCH   5   6
ATOM      6  C   UNL     1     -13.781   5.885 -21.564  1.00  0.00     0.000 C 
BRANCH   6   7
ATOM      7  C   UNL     1     -14.059   6.895 -20.438  1.00  0.00     0.006 C 
BRANCH   7   8
ATOM      8  C   UNL     1     -15.535   7.313 -20.386  1.00  0.00     0.053 C 
BRANCH   8   9
ATOM      9  C   UNL     1     -15.716   8.761 -20.728  1.00  0.00     0.041 C 
ATOM     10  O   UNL     1     -14.714   9.488 -20.960  1.00  0.00    -0.550 OA
ATOM     11  O   UNL     1     -16.990   9.312 -20.766  1.00  0.00    -0.550 OA
ENDBRANCH   8   9
ENDBRANCH   7   8
ENDBRANCH   6   7
ENDBRANCH   5   6
ENDBRANCH   4   5
ENDBRANCH   3   4
ENDBRANCH   2   3
ENDBRANCH   1   2
BRANCH   1  12
ATOM     12  C   UNL     1     -17.440   4.156 -20.638  1.00  0.00     0.000 C 
BRANCH  12  13
ATOM     13  C   UNL     1     -16.595   3.206 -19.770  1.00  0.00    -0.000 C 
BRANCH  13  14
ATOM     14  C   UNL     1     -15.127   3.040 -20.216  1.00  0.00    -0.000 C 
BRANCH  14  15
ATOM     15  C   UNL     1     -14.568   1.607 -20.118  1.00  0.00    -0.000 C 
BRANCH  15  16
ATOM     16  C   UNL     1     -13.931   1.070 -21.413  1.00  0.00    -0.000 C 
BRANCH  16  17
ATOM     17  C   UNL     1     -14.345  -0.375 -21.726  1.00  0.00    -0.000 C 
BRANCH  17  18
ATOM     18  C   UNL     1     -15.872  -0.515 -21.755  1.00  0.00    -0.000 C 
BRANCH  18  19
ATOM     19  C   UNL     1     -16.456   0.102 -23.031  1.00  0.00    -0.003 C 
ATOM     20  C   UNL     1     -17.981   0.132 -22.981  1.00  0.00     0.004 C 
ENDBRANCH  18  19
ENDBRANCH  17  18
ENDBRANCH  16  17
ENDBRANCH  15  16
ENDBRANCH  14  15
ENDBRANCH  13  14
ENDBRANCH  12  13
ENDBRANCH   1  12
TORSDOF 16
ENDMDL
MODEL 4
REMARK VINA RESULT:    -4.989      1.843      3.795
REMARK INTER + INTRA:         -12.665
REMARK INTER:                  -9.478
REMARK INTRA:                  -3.188
REMARK UNBOUND:                -3.011
REMARK SMILES CCCCCCCCCCCCCCCCCC(=O)[O-]
REMARK SMILES IDX 10 1 11 2 12 3 13 4 14 5 15 6 16 7 17 8 18 9 19 10 20 11
REMARK SMILES IDX 9 12 8 13 7 14 6 15 5 16 4 17 3 18 2 19 1 20
REMARK H PARENT
REMARK Flexibility Score: inf
ROOT
ATOM      1  C   UNL     1     -16.001   2.970 -19.952  1.00  0.00     0.000 C 
ENDROOT
BRANCH   1   2
ATOM      2  C   UNL     1     -14.569   3.489 -20.182  1.00  0.00     0.000 C 
BRANCH   2   3
ATOM      3  C   UNL     1     -14.431   5.017 -20.317  1.00  0.00     0.000 C 
BRANCH   3   4
ATOM      4  C   UNL     1     -13.955   5.456 -21.713  1.00  0.00     0.000 C 
BRANCH   4   5
ATOM      5  C   UNL     1     -13.757   4.274 -22.681  1.00  0.00     0.000 C 
BRANCH   5   6
ATOM      6  C   UNL     1     -14.742   4.218 -23.863  1.00  0.00     0.000 C 
BRANCH   6   7
ATOM      7  C   UNL     1     -15.248   2.795 -24.156  1.00  0.00     0.006 C 
BRANCH   7   8
ATOM      8  C   UNL     1     -14.451   1.728 -23.393  1.00  0.00     0.053 C 
BRANCH   8   9
ATOM      9  C   UNL     1     -14.951   0.346 -23.684  1.00  0.00     0.041 C 
ATOM     10  O   UNL     1     -14.357  -0.379 -24.526  1.00  0.00    -0.550 OA
ATOM     11  O   UNL     1     -16.086  -0.133 -23.043  1.00  0.00    -0.550 OA
ENDBRANCH   8   9
ENDBRANCH   7   8
ENDBRANCH   6   7
ENDBRANCH   5   6
ENDBRANCH   4   5
ENDBRANCH   3   4
ENDBRANCH   2   3
ENDBRANCH   1   2
BRANCH   1  12
ATOM     12  C   UNL     1     -17.082   3.987 -20.355  1.00  0.00     0.000 C 
BRANCH  12  13
ATOM     13  C   UNL     1     -17.770   3.633 -21.686  1.00  0.00    -0.000 C 
BRANCH  13  14
ATOM     14  C   UNL     1     -18.044   4.828 -22.622  1.00  0.00    -0.000 C 
BRANCH  14  15
ATOM     15  C   UNL     1     -17.754   6.216 -22.018  1.00  0.00    -0.000 C 
BRANCH  15  16
ATOM     16  C   UNL     1     -16.901   7.144 -22.903  1.00  0.00    -0.000 C 
BRANCH  16  17
ATOM     17  C   UNL     1     -16.280   8.309 -22.120  1.00  0.00    -0.000 C 
BRANCH  17  18
ATOM     18  C   UNL     1     -16.439   8.102 -20.609  1.00  0.00    -0.000 C 
BRANCH  18  19
ATOM     19  C   UNL     1     -15.165   8.515 -19.861  1.00  0.00    -0.003 C 
ATOM     20  C   UNL     1     -14.345   9.509 -20.676  1.00  0.00     0.004 C 
ENDBRANCH  18  19
ENDBRANCH  17  18
ENDBRANCH  16  17
ENDBRANCH  15  16
ENDBRANCH  14  15
ENDBRANCH  13  14
ENDBRANCH  12  13
ENDBRANCH   1  12
TORSDOF 16
ENDMDL
MODEL 5
REMARK VINA RESULT:    -4.972      1.893      3.028
REMARK INTER + INTRA:         -12.634
REMARK INTER:                  -9.770
REMARK INTRA:                  -2.864
REMARK UNBOUND:                -3.011
REMARK SMILES CCCCCCCCCCCCCCCCCC(=O)[O-]
REMARK SMILES IDX 10 1 11 2 12 3 13 4 14 5 15 6 16 7 17 8 18 9 19 10 20 11
REMARK SMILES IDX 9 12 8 13 7 14 6 15 5 16 4 17 3 18 2 19 1 20
REMARK H PARENT
REMARK Flexibility Score: inf
ROOT
ATOM      1  C   UNL     1     -13.725   5.963 -20.530  1.00  0.00     0.000 C 
ENDROOT
BRANCH   1   2
ATOM      2  C   UNL     1     -14.203   5.445 -21.900  1.00  0.00     0.000 C 
BRANCH   2   3
ATOM      3  C   UNL     1     -15.719   5.203 -22.026  1.00  0.00     0.000 C 
BRANCH   3   4
ATOM      4  C   UNL     1     -16.414   5.019 -20.666  1.00  0.00     0.000 C 
BRANCH   4   5
ATOM      5  C   UNL     1     -16.708   3.543 -20.336  1.00  0.00     0.000 C 
BRANCH   5   6
ATOM      6  C   UNL     1     -15.578   2.793 -19.607  1.00  0.00     0.000 C 
BRANCH   6   7
ATOM      7  C   UNL     1     -14.997   1.632 -20.433  1.00  0.00     0.006 C 
BRANCH   7   8
ATOM      8  C   UNL     1     -15.751   1.428 -21.755  1.00  0.00     0.053 C 
BRANCH   8   9
ATOM      9  C   UNL     1     -14.834   1.513 -22.937  1.00  0.00     0.041 C 
ATOM     10  O   UNL     1     -13.752   2.153 -22.855  1.00  0.00    -0.550 OA
ATOM     11  O   UNL     1     -15.185   0.904 -24.135  1.00  0.00    -0.550 OA
ENDBRANCH   8   9
ENDBRANCH   7   8
ENDBRANCH   6   7
ENDBRANCH   5   6
ENDBRANCH   4   5
ENDBRANCH   3   4
ENDBRANCH   2   3
ENDBRANCH   1   2
BRANCH   1  12
ATOM     12  C   UNL     1     -12.781   7.172 -20.642  1.00  0.00     0.000 C 
BRANCH  12  13
ATOM     13  C   UNL     1     -13.458   8.498 -20.253  1.00  0.00    -0.000 C 
BRANCH  13  14
ATOM     14  C   UNL     1     -14.926   8.376 -19.793  1.00  0.00    -0.000 C 
BRANCH  14  15
ATOM     15  C   UNL     1     -15.967   8.986 -20.751  1.00  0.00    -0.000 C 
BRANCH  15  16
ATOM     16  C   UNL     1     -15.568   8.972 -22.238  1.00  0.00    -0.000 C 
BRANCH  16  17
ATOM     17  C   UNL     1     -16.748   8.655 -23.169  1.00  0.00    -0.000 C 
BRANCH  17  18
ATOM     18  C   UNL     1     -18.079   8.731 -22.413  1.00  0.00    -0.000 C 
BRANCH  18  19
ATOM     19  C   UNL     1     -18.786   7.370 -22.405  1.00  0.00    -0.003 C 
ATOM     20  C   UNL     1     -18.646   6.668 -23.752  1.00  0.00     0.004 C 
ENDBRANCH  18  19
ENDBRANCH  17  18
ENDBRANCH  16  17
ENDBRANCH  15  16
ENDBRANCH  14  15
ENDBRANCH  13  14
ENDBRANCH  12  13
ENDBRANCH   1  12
TORSDOF 16
ENDMDL
MODEL 6
REMARK VINA RESULT:    -4.945      1.800      2.722
REMARK INTER + INTRA:         -12.582
REMARK INTER:                  -9.670
REMARK INTRA:                  -2.912
REMARK UNBOUND:                -3.011
REMARK SMILES CCCCCCCCCCCCCCCCCC(=O)[O-]
REMARK SMILES IDX 10 1 11 2 12 3 13 4 14 5 15 6 16 7 17 8 18 9 19 10 20 11
REMARK SMILES IDX 9 12 8 13 7 14 6 15 5 16 4 17 3 18 2 19 1 20
REMARK H PARENT
REMARK Flexibility Score: inf
ROOT
ATOM      1  C   UNL     1     -15.215   2.878 -21.490  1.00  0.00     0.000 C 
ENDROOT
BRANCH   1   2
ATOM      2  C   UNL     1     -16.725   2.727 -21.751  1.00  0.00     0.000 C 
BRANCH   2   3
ATOM      3  C   UNL     1     -17.105   2.020 -23.065  1.00  0.00     0.000 C 
BRANCH   3   4
ATOM      4  C   UNL     1     -17.904   0.725 -22.842  1.00  0.00     0.000 C 
BRANCH   4   5
ATOM      5  C   UNL     1     -17.012  -0.480 -22.491  1.00  0.00     0.000 C 
BRANCH   5   6
ATOM      6  C   UNL     1     -15.629  -0.497 -23.169  1.00  0.00     0.000 C 
BRANCH   6   7
ATOM      7  C   UNL     1     -14.473  -0.689 -22.172  1.00  0.00     0.006 C 
BRANCH   7   8
ATOM      8  C   UNL     1     -14.969  -0.789 -20.723  1.00  0.00     0.053 C 
BRANCH   8   9
ATOM      9  C   UNL     1     -14.074  -1.651 -19.887  1.00  0.00     0.041 C 
ATOM     10  O   UNL     1     -13.311  -2.492 -20.434  1.00  0.00    -0.550 OA
ATOM     11  O   UNL     1     -14.099  -1.543 -18.502  1.00  0.00    -0.550 OA
ENDBRANCH   8   9
ENDBRANCH   7   8
ENDBRANCH   6   7
ENDBRANCH   5   6
ENDBRANCH   4   5
ENDBRANCH   3   4
ENDBRANCH   2   3
ENDBRANCH   1   2
BRANCH   1  12
ATOM     12  C   UNL     1     -14.422   3.255 -22.753  1.00  0.00     0.000 C 
BRANCH  12  13
ATOM     13  C   UNL     1     -14.161   4.768 -22.866  1.00  0.00    -0.000 C 
BRANCH  13  14
ATOM     14  C   UNL     1     -13.920   5.495 -21.527  1.00  0.00    -0.000 C 
BRANCH  14  15
ATOM     15  C   UNL     1     -14.943   6.596 -21.184  1.00  0.00    -0.000 C 
BRANCH  15  16
ATOM     16  C   UNL     1     -15.985   6.205 -20.120  1.00  0.00    -0.000 C 
BRANCH  16  17
ATOM     17  C   UNL     1     -17.419   6.183 -20.670  1.00  0.00    -0.000 C 
BRANCH  17  18
ATOM     18  C   UNL     1     -17.470   6.752 -22.092  1.00  0.00    -0.000 C 
BRANCH  18  19
ATOM     19  C   UNL     1     -18.252   5.822 -23.029  1.00  0.00    -0.003 C 
ATOM     20  C   UNL     1     -17.430   5.466 -24.263  1.00  0.00     0.004 C 
ENDBRANCH  18  19
ENDBRANCH  17  18
ENDBRANCH  16  17
ENDBRANCH  15  16
ENDBRANCH  14  15
ENDBRANCH  13  14
ENDBRANCH  12  13
ENDBRANCH   1  12
TORSDOF 16
ENDMDL
MODEL 7
REMARK VINA RESULT:    -4.916      3.377      5.151
REMARK INTER + INTRA:         -12.525
REMARK INTER:                  -9.753
REMARK INTRA:                  -2.772
REMARK UNBOUND:                -3.011
REMARK SMILES CCCCCCCCCCCCCCCCCC(=O)[O-]
REMARK SMILES IDX 10 1 11 2 12 3 13 4 14 5 15 6 16 7 17 8 18 9 19 10 20 11
REMARK SMILES IDX 9 12 8 13 7 14 6 15 5 16 4 17 3 18 2 19 1 20
REMARK H PARENT
REMARK Flexibility Score: inf
ROOT
ATOM      1  C   UNL     1     -14.106   1.802 -22.160  1.00  0.00     0.000 C 
ENDROOT
BRANCH   1   2
ATOM      2  C   UNL     1     -15.419   1.639 -21.372  1.00  0.00     0.000 C 
BRANCH   2   3
ATOM      3  C   UNL     1     -15.577   2.558 -20.146  1.00  0.00     0.000 C 
BRANCH   3   4
ATOM      4  C   UNL     1     -16.630   3.659 -20.352  1.00  0.00     0.000 C 
BRANCH   4   5
ATOM      5  C   UNL     1     -16.038   5.080 -20.277  1.00  0.00     0.000 C 
BRANCH   5   6
ATOM      6  C   UNL     1     -14.500   5.152 -20.257  1.00  0.00     0.000 C 
BRANCH   6   7
ATOM      7  C   UNL     1     -13.939   6.257 -21.169  1.00  0.00     0.006 C 
BRANCH   7   8
ATOM      8  C   UNL     1     -14.538   7.633 -20.848  1.00  0.00     0.053 C 
BRANCH   8   9
ATOM      9  C   UNL     1     -13.530   8.544 -20.216  1.00  0.00     0.041 C 
ATOM     10  O   UNL     1     -12.301   8.275 -20.284  1.00  0.00    -0.550 OA
ATOM     11  O   UNL     1     -13.950   9.678 -19.531  1.00  0.00    -0.550 OA
ENDBRANCH   8   9
ENDBRANCH   7   8
ENDBRANCH   6   7
ENDBRANCH   5   6
ENDBRANCH   4   5
ENDBRANCH   3   4
ENDBRANCH   2   3
ENDBRANCH   1   2
BRANCH   1  12
ATOM     12  C   UNL     1     -14.173   2.920 -23.214  1.00  0.00     0.000 C 
BRANCH  12  13
ATOM     13  C   UNL     1     -15.503   2.934 -23.988  1.00  0.00    -0.000 C 
BRANCH  13  14
ATOM     14  C   UNL     1     -16.260   4.277 -23.969  1.00  0.00    -0.000 C 
BRANCH  14  15
ATOM     15  C   UNL     1     -15.418   5.512 -24.345  1.00  0.00    -0.000 C 
BRANCH  15  16
ATOM     16  C   UNL     1     -16.100   6.492 -25.316  1.00  0.00    -0.000 C 
BRANCH  16  17
ATOM     17  C   UNL     1     -15.898   7.962 -24.920  1.00  0.00    -0.000 C 
BRANCH  17  18
ATOM     18  C   UNL     1     -16.553   8.261 -23.567  1.00  0.00    -0.000 C 
BRANCH  18  19
ATOM     19  C   UNL     1     -18.047   7.915 -23.590  1.00  0.00    -0.003 C 
ATOM     20  C   UNL     1     -18.421   7.007 -22.423  1.00  0.00     0.004 C 
ENDBRANCH  18  19
ENDBRANCH  17  18
ENDBRANCH  16  17
ENDBRANCH  15  16
ENDBRANCH  14  15
ENDBRANCH  13  14
ENDBRANCH  12  13
ENDBRANCH   1  12
TORSDOF 16
ENDMDL
MODEL 8
REMARK VINA RESULT:    -4.906      3.592      6.502
REMARK INTER + INTRA:         -12.506
REMARK INTER:                  -9.684
REMARK INTRA:                  -2.822
REMARK UNBOUND:                -3.011
REMARK SMILES CCCCCCCCCCCCCCCCCC(=O)[O-]
REMARK SMILES IDX 10 1 11 2 12 3 13 4 14 5 15 6 16 7 17 8 18 9 19 10 20 11
REMARK SMILES IDX 9 12 8 13 7 14 6 15 5 16 4 17 3 18 2 19 1 20
REMARK H PARENT
REMARK Flexibility Score: inf
ROOT
ATOM      1  C   UNL     1     -16.968   5.452 -20.788  1.00  0.00     0.000 C 
ENDROOT
BRANCH   1   2
ATOM      2  C   UNL     1     -15.884   6.075 -19.889  1.00  0.00     0.000 C 
BRANCH   2   3
ATOM      3  C   UNL     1     -14.430   5.777 -20.298  1.00  0.00     0.000 C 
BRANCH   3   4
ATOM      4  C   UNL     1     -13.645   7.040 -20.692  1.00  0.00     0.000 C 
BRANCH   4   5
ATOM      5  C   UNL     1     -14.367   8.343 -20.303  1.00  0.00     0.000 C 
BRANCH   5   6
ATOM      6  C   UNL     1     -14.776   9.247 -21.480  1.00  0.00     0.000 C 
BRANCH   6   7
ATOM      7  C   UNL     1     -16.051   8.764 -22.194  1.00  0.00     0.006 C 
BRANCH   7   8
ATOM      8  C   UNL     1     -15.989   8.998 -23.710  1.00  0.00     0.053 C 
BRANCH   8   9
ATOM      9  C   UNL     1     -17.252   8.566 -24.391  1.00  0.00     0.041 C 
ATOM     10  O   UNL     1     -18.364   9.022 -24.014  1.00  0.00    -0.550 OA
ATOM     11  O   UNL     1     -17.202   7.641 -25.427  1.00  0.00    -0.550 OA
ENDBRANCH   8   9
ENDBRANCH   7   8
ENDBRANCH   6   7
ENDBRANCH   5   6
ENDBRANCH   4   5
ENDBRANCH   3   4
ENDBRANCH   2   3
ENDBRANCH   1   2
BRANCH   1  12
ATOM     12  C   UNL     1     -17.251   3.977 -20.453  1.00  0.00     0.000 C 
BRANCH  12  13
ATOM     13  C   UNL     1     -17.664   3.152 -21.686  1.00  0.00    -0.000 C 
BRANCH  13  14
ATOM     14  C   UNL     1     -16.759   1.944 -22.001  1.00  0.00    -0.000 C 
BRANCH  14  15
ATOM     15  C   UNL     1     -15.405   1.926 -21.265  1.00  0.00    -0.000 C 
BRANCH  15  16
ATOM     16  C   UNL     1     -14.168   2.013 -22.177  1.00  0.00    -0.000 C 
BRANCH  16  17
ATOM     17  C   UNL     1     -14.442   2.775 -23.482  1.00  0.00    -0.000 C 
BRANCH  17  18
ATOM     18  C   UNL     1     -13.971   4.230 -23.376  1.00  0.00    -0.000 C 
BRANCH  18  19
ATOM     19  C   UNL     1     -15.038   5.194 -23.910  1.00  0.00    -0.003 C 
ATOM     20  C   UNL     1     -16.122   4.445 -24.678  1.00  0.00     0.004 C 
ENDBRANCH  18  19
ENDBRANCH  17  18
ENDBRANCH  16  17
ENDBRANCH  15  16
ENDBRANCH  14  15
ENDBRANCH  13  14
ENDBRANCH  12  13
ENDBRANCH   1  12
TORSDOF 16
ENDMDL
MODEL 9
REMARK VINA RESULT:    -4.868      1.862      2.781
REMARK INTER + INTRA:         -12.432
REMARK INTER:                 -10.040
REMARK INTRA:                  -2.392
REMARK UNBOUND:                -3.011
REMARK SMILES CCCCCCCCCCCCCCCCCC(=O)[O-]
REMARK SMILES IDX 10 1 11 2 12 3 13 4 14 5 15 6 16 7 17 8 18 9 19 10 20 11
REMARK SMILES IDX 9 12 8 13 7 14 6 15 5 16 4 17 3 18 2 19 1 20
REMARK H PARENT
REMARK Flexibility Score: inf
ROOT
ATOM      1  C   UNL     1     -14.793   4.224 -22.293  1.00  0.00     0.000 C 
ENDROOT
BRANCH   1   2
ATOM      2  C   UNL     1     -16.022   4.377 -21.377  1.00  0.00     0.000 C 
BRANCH   2   3
ATOM      3  C   UNL     1     -16.250   3.231 -20.374  1.00  0.00     0.000 C 
BRANCH   3   4
ATOM      4  C   UNL     1     -14.939   2.643 -19.825  1.00  0.00     0.000 C 
BRANCH   4   5
ATOM      5  C   UNL     1     -14.927   1.102 -19.817  1.00  0.00     0.000 C 
BRANCH   5   6
ATOM      6  C   UNL     1     -14.184   0.442 -20.993  1.00  0.00     0.000 C 
BRANCH   6   7
ATOM      7  C   UNL     1     -14.829  -0.880 -21.445  1.00  0.00     0.006 C 
BRANCH   7   8
ATOM      8  C   UNL     1     -16.074  -0.651 -22.313  1.00  0.00     0.053 C 
BRANCH   8   9
ATOM      9  C   UNL     1     -15.793   0.281 -23.453  1.00  0.00     0.041 C 
ATOM     10  O   UNL     1     -14.931  -0.021 -24.320  1.00  0.00    -0.550 OA
ATOM     11  O   UNL     1     -16.467   1.492 -23.543  1.00  0.00    -0.550 OA
ENDBRANCH   8   9
ENDBRANCH   7   8
ENDBRANCH   6   7
ENDBRANCH   5   6
ENDBRANCH   4   5
ENDBRANCH   3   4
ENDBRANCH   2   3
ENDBRANCH   1   2
BRANCH   1  12
ATOM     12  C   UNL     1     -13.834   5.424 -22.217  1.00  0.00     0.000 C 
BRANCH  12  13
ATOM     13  C   UNL     1     -13.666   5.966 -20.786  1.00  0.00    -0.000 C 
BRANCH  13  14
ATOM     14  C   UNL     1     -13.953   7.472 -20.615  1.00  0.00    -0.000 C 
BRANCH  14  15
ATOM     15  C   UNL     1     -15.285   7.811 -19.918  1.00  0.00    -0.000 C 
BRANCH  15  16
ATOM     16  C   UNL     1     -16.448   8.149 -20.869  1.00  0.00    -0.000 C 
BRANCH  16  17
ATOM     17  C   UNL     1     -15.973   8.550 -22.273  1.00  0.00    -0.000 C 
BRANCH  17  18
ATOM     18  C   UNL     1     -16.597   7.647 -23.343  1.00  0.00    -0.000 C 
BRANCH  18  19
ATOM     19  C   UNL     1     -15.910   7.845 -24.699  1.00  0.00    -0.003 C 
ATOM     20  C   UNL     1     -15.771   6.522 -25.446  1.00  0.00     0.004 C 
ENDBRANCH  18  19
ENDBRANCH  17  18
ENDBRANCH  16  17
ENDBRANCH  15  16
ENDBRANCH  14  15
ENDBRANCH  13  14
ENDBRANCH  12  13
ENDBRANCH   1  12
TORSDOF 16
ENDMDL
