MODEL 1
REMARK VINA RESULT:    -6.948      0.000      0.000
REMARK INTER + INTRA:          -8.386
REMARK INTER:                  -8.167
REMARK INTRA:                  -0.219
REMARK UNBOUND:                -0.219
REMARK SMILES O=c1c(O)c(-c2ccc(O)cc2)oc2cc(O)cc(O)c12
REMARK SMILES IDX 5 1 3 2 2 3 1 4 21 5 19 6 18 7 16 8 15 9 14 10 13 11 6 12
REMARK SMILES IDX 7 13 8 14 9 15 12 16 11 17 10 18 4 20 20 22 17 24
REMARK H PARENT 10 19 4 21 20 23 17 25
REMARK Flexibility Score: inf
ROOT
ATOM      1  C   UNL     1      -5.010 -25.971 -27.490  1.00  0.00     0.180 A 
ATOM      2  C   UNL     1      -6.334 -25.538 -27.673  1.00  0.00     0.208 A 
ATOM      3  C   UNL     1      -7.349 -26.096 -26.879  1.00  0.00     0.238 A 
ATOM      4  O   UNL     1      -8.525 -25.665 -27.011  1.00  0.00    -0.285 OA
ATOM      5  C   UNL     1      -7.030 -27.090 -25.924  1.00  0.00     0.111 A 
ATOM      6  C   UNL     1      -7.983 -27.752 -25.092  1.00  0.00     0.134 A 
ATOM      7  C   UNL     1      -7.538 -28.624 -24.092  1.00  0.00     0.093 A 
ATOM      8  C   UNL     1      -6.183 -28.910 -23.934  1.00  0.00     0.123 A 
ATOM      9  C   UNL     1      -5.247 -28.313 -24.780  1.00  0.00     0.094 A 
ATOM     10  C   UNL     1      -5.656 -27.411 -25.764  1.00  0.00     0.146 A 
ATOM     11  O   UNL     1      -4.732 -26.857 -26.540  1.00  0.00    -0.452 OA
ENDROOT
BRANCH   1  12
ATOM     12  C   UNL     1      -3.890 -25.449 -28.306  1.00  0.00     0.021 A 
ATOM     13  C   UNL     1      -2.912 -24.641 -27.703  1.00  0.00     0.016 A 
ATOM     14  C   UNL     1      -1.834 -24.155 -28.450  1.00  0.00     0.047 A 
ATOM     15  C   UNL     1      -1.711 -24.483 -29.803  1.00  0.00     0.115 A 
ATOM     16  C   UNL     1      -3.751 -25.791 -29.664  1.00  0.00     0.016 A 
ATOM     17  C   UNL     1      -2.671 -25.305 -30.408  1.00  0.00     0.047 A 
BRANCH  15  18
ATOM     18  O   UNL     1      -0.633 -23.992 -30.535  1.00  0.00    -0.508 OA
ATOM     19  H   UNL     1      -0.762 -23.558 -31.442  1.00  0.00     0.293 HD
ENDBRANCH  15  18
ENDBRANCH   1  12
BRANCH   2  20
ATOM     20  O   UNL     1      -6.625 -24.540 -28.607  1.00  0.00    -0.502 OA
ATOM     21  H   UNL     1      -6.596 -24.704 -29.607  1.00  0.00     0.293 HD
ENDBRANCH   2  20
BRANCH   6  22
ATOM     22  O   UNL     1      -9.367 -27.610 -25.227  1.00  0.00    -0.507 OA
ATOM     23  H   UNL     1      -9.939 -26.993 -24.669  1.00  0.00     0.293 HD
ENDBRANCH   6  22
BRANCH   8  24
ATOM     24  O   UNL     1      -5.777 -29.795 -22.937  1.00  0.00    -0.508 OA
ATOM     25  H   UNL     1      -4.846 -30.193 -22.929  1.00  0.00     0.293 HD
ENDBRANCH   8  24
TORSDOF 5
ENDMDL
MODEL 2
REMARK VINA RESULT:    -6.832      1.895      6.904
REMARK INTER + INTRA:          -8.250
REMARK INTER:                  -7.994
REMARK INTRA:                  -0.255
REMARK UNBOUND:                -0.219
REMARK SMILES O=c1c(O)c(-c2ccc(O)cc2)oc2cc(O)cc(O)c12
REMARK SMILES IDX 5 1 3 2 2 3 1 4 21 5 19 6 18 7 16 8 15 9 14 10 13 11 6 12
REMARK SMILES IDX 7 13 8 14 9 15 12 16 11 17 10 18 4 20 20 22 17 24
REMARK H PARENT 10 19 4 21 20 23 17 25
REMARK Flexibility Score: inf
ROOT
ATOM      1  C   UNL     1      -4.563 -25.352 -26.891  1.00  0.00     0.180 A 
ATOM      2  C   UNL     1      -4.651 -23.999 -26.522  1.00  0.00     0.208 A 
ATOM      3  C   UNL     1      -3.892 -23.050 -27.227  1.00  0.00     0.238 A 
ATOM      4  O   UNL     1      -4.016 -21.834 -26.928  1.00  0.00    -0.285 OA
ATOM      5  C   UNL     1      -3.044 -23.468 -28.280  1.00  0.00     0.111 A 
ATOM      6  C   UNL     1      -2.200 -22.599 -29.036  1.00  0.00     0.134 A 
ATOM      7  C   UNL     1      -1.502 -23.103 -30.140  1.00  0.00     0.093 A 
ATOM      8  C   UNL     1      -1.564 -24.454 -30.477  1.00  0.00     0.123 A 
ATOM      9  C   UNL     1      -2.339 -25.324 -29.710  1.00  0.00     0.094 A 
ATOM     10  C   UNL     1      -3.076 -24.846 -28.623  1.00  0.00     0.146 A 
ATOM     11  O   UNL     1      -3.809 -25.705 -27.926  1.00  0.00    -0.452 OA
ENDROOT
BRANCH   1  12
ATOM     12  C   UNL     1      -5.312 -26.413 -26.180  1.00  0.00     0.021 A 
ATOM     13  C   UNL     1      -6.667 -26.627 -26.485  1.00  0.00     0.016 A 
ATOM     14  C   UNL     1      -7.387 -27.638 -25.840  1.00  0.00     0.047 A 
ATOM     15  C   UNL     1      -6.761 -28.456 -24.897  1.00  0.00     0.115 A 
ATOM     16  C   UNL     1      -4.682 -27.252 -25.243  1.00  0.00     0.016 A 
ATOM     17  C   UNL     1      -5.404 -28.264 -24.601  1.00  0.00     0.047 A 
BRANCH  15  18
ATOM     18  O   UNL     1      -7.490 -29.459 -24.262  1.00  0.00    -0.508 OA
ATOM     19  H   UNL     1      -7.431 -30.426 -24.559  1.00  0.00     0.293 HD
ENDBRANCH  15  18
ENDBRANCH   1  12
BRANCH   2  20
ATOM     20  O   UNL     1      -5.511 -23.605 -25.494  1.00  0.00    -0.502 OA
ATOM     21  H   UNL     1      -6.236 -22.910 -25.627  1.00  0.00     0.293 HD
ENDBRANCH   2  20
BRANCH   6  22
ATOM     22  O   UNL     1      -1.993 -21.251 -28.729  1.00  0.00    -0.507 OA
ATOM     23  H   UNL     1      -2.104 -20.847 -27.811  1.00  0.00     0.293 HD
ENDBRANCH   6  22
BRANCH   8  24
ATOM     24  O   UNL     1      -0.844 -24.923 -31.574  1.00  0.00    -0.508 OA
ATOM     25  H   UNL     1      -1.292 -25.101 -32.465  1.00  0.00     0.293 HD
ENDBRANCH   8  24
TORSDOF 5
ENDMDL
MODEL 3
REMARK VINA RESULT:    -6.795      4.881      7.175
REMARK INTER + INTRA:          -8.206
REMARK INTER:                  -7.965
REMARK INTRA:                  -0.240
REMARK UNBOUND:                -0.219
REMARK SMILES O=c1c(O)c(-c2ccc(O)cc2)oc2cc(O)cc(O)c12
REMARK SMILES IDX 5 1 3 2 2 3 1 4 21 5 19 6 18 7 16 8 15 9 14 10 13 11 6 12
REMARK SMILES IDX 7 13 8 14 9 15 12 16 11 17 10 18 4 20 20 22 17 24
REMARK H PARENT 10 19 4 21 20 23 17 25
REMARK Flexibility Score: inf
ROOT
ATOM      1  C   UNL     1      -5.269 -20.834 -29.062  1.00  0.00     0.180 A 
ATOM      2  C   UNL     1      -6.398 -21.671 -29.026  1.00  0.00     0.208 A 
ATOM      3  C   UNL     1      -6.279 -22.995 -29.477  1.00  0.00     0.238 A 
ATOM      4  O   UNL     1      -7.279 -23.755 -29.392  1.00  0.00    -0.285 OA
ATOM      5  C   UNL     1      -5.038 -23.461 -29.972  1.00  0.00     0.111 A 
ATOM      6  C   UNL     1      -4.813 -24.772 -30.492  1.00  0.00     0.134 A 
ATOM      7  C   UNL     1      -3.514 -25.166 -30.833  1.00  0.00     0.093 A 
ATOM      8  C   UNL     1      -2.443 -24.278 -30.737  1.00  0.00     0.123 A 
ATOM      9  C   UNL     1      -2.661 -22.976 -30.286  1.00  0.00     0.094 A 
ATOM     10  C   UNL     1      -3.940 -22.564 -29.904  1.00  0.00     0.146 A 
ATOM     11  O   UNL     1      -4.103 -21.320 -29.471  1.00  0.00    -0.452 OA
ENDROOT
BRANCH   1  12
ATOM     12  C   UNL     1      -5.323 -19.419 -28.628  1.00  0.00     0.021 A 
ATOM     13  C   UNL     1      -5.301 -19.115 -27.257  1.00  0.00     0.016 A 
ATOM     14  C   UNL     1      -5.329 -17.785 -26.826  1.00  0.00     0.047 A 
ATOM     15  C   UNL     1      -5.362 -16.743 -27.757  1.00  0.00     0.115 A 
ATOM     16  C   UNL     1      -5.337 -18.367 -29.562  1.00  0.00     0.016 A 
ATOM     17  C   UNL     1      -5.363 -17.037 -29.128  1.00  0.00     0.047 A 
BRANCH  15  18
ATOM     18  O   UNL     1      -5.390 -15.423 -27.314  1.00  0.00    -0.508 OA
ATOM     19  H   UNL     1      -4.604 -14.800 -27.457  1.00  0.00     0.293 HD
ENDBRANCH  15  18
ENDBRANCH   1  12
BRANCH   2  20
ATOM     20  O   UNL     1      -7.609 -21.196 -28.512  1.00  0.00    -0.502 OA
ATOM     21  H   UNL     1      -7.981 -21.506 -27.623  1.00  0.00     0.293 HD
ENDBRANCH   2  20
BRANCH   6  22
ATOM     22  O   UNL     1      -5.828 -25.707 -30.716  1.00  0.00    -0.507 OA
ATOM     23  H   UNL     1      -5.727 -26.543 -31.273  1.00  0.00     0.293 HD
ENDBRANCH   6  22
BRANCH   8  24
ATOM     24  O   UNL     1      -1.166 -24.699 -31.100  1.00  0.00    -0.508 OA
ATOM     25  H   UNL     1      -0.971 -25.667 -31.328  1.00  0.00     0.293 HD
ENDBRANCH   8  24
TORSDOF 5
ENDMDL
MODEL 4
REMARK VINA RESULT:    -6.779      5.483      7.506
REMARK INTER + INTRA:          -8.188
REMARK INTER:                  -7.929
REMARK INTRA:                  -0.259
REMARK UNBOUND:                -0.219
REMARK SMILES O=c1c(O)c(-c2ccc(O)cc2)oc2cc(O)cc(O)c12
REMARK SMILES IDX 5 1 3 2 2 3 1 4 21 5 19 6 18 7 16 8 15 9 14 10 13 11 6 12
REMARK SMILES IDX 7 13 8 14 9 15 12 16 11 17 10 18 4 20 20 22 17 24
REMARK H PARENT 10 19 4 21 20 23 17 25
REMARK Flexibility Score: inf
ROOT
ATOM      1  C   UNL     1      -4.855 -20.745 -29.716  1.00  0.00     0.180 A 
ATOM      2  C   UNL     1      -4.845 -21.690 -30.756  1.00  0.00     0.208 A 
ATOM      3  C   UNL     1      -4.022 -22.822 -30.640  1.00  0.00     0.238 A 
ATOM      4  O   UNL     1      -4.058 -23.691 -31.550  1.00  0.00    -0.285 OA
ATOM      5  C   UNL     1      -3.207 -22.985 -29.494  1.00  0.00     0.111 A 
ATOM      6  C   UNL     1      -2.305 -24.072 -29.289  1.00  0.00     0.134 A 
ATOM      7  C   UNL     1      -1.646 -24.201 -28.061  1.00  0.00     0.093 A 
ATOM      8  C   UNL     1      -1.805 -23.248 -27.055  1.00  0.00     0.123 A 
ATOM      9  C   UNL     1      -2.640 -22.150 -27.266  1.00  0.00     0.094 A 
ATOM     10  C   UNL     1      -3.338 -22.013 -28.468  1.00  0.00     0.146 A 
ATOM     11  O   UNL     1      -4.130 -20.960 -28.625  1.00  0.00    -0.452 OA
ENDROOT
BRANCH   1  12
ATOM     12  C   UNL     1      -5.678 -19.515 -29.778  1.00  0.00     0.021 A 
ATOM     13  C   UNL     1      -7.041 -19.577 -29.446  1.00  0.00     0.016 A 
ATOM     14  C   UNL     1      -7.831 -18.423 -29.476  1.00  0.00     0.047 A 
ATOM     15  C   UNL     1      -7.266 -17.192 -29.821  1.00  0.00     0.115 A 
ATOM     16  C   UNL     1      -5.110 -18.270 -30.106  1.00  0.00     0.016 A 
ATOM     17  C   UNL     1      -5.902 -17.117 -30.134  1.00  0.00     0.047 A 
BRANCH  15  18
ATOM     18  O   UNL     1      -8.065 -16.051 -29.848  1.00  0.00    -0.508 OA
ATOM     19  H   UNL     1      -7.809 -15.238 -30.395  1.00  0.00     0.293 HD
ENDBRANCH  15  18
ENDBRANCH   1  12
BRANCH   2  20
ATOM     20  O   UNL     1      -5.674 -21.520 -31.869  1.00  0.00    -0.502 OA
ATOM     21  H   UNL     1      -5.543 -22.039 -32.729  1.00  0.00     0.293 HD
ENDBRANCH   2  20
BRANCH   6  22
ATOM     22  O   UNL     1      -2.001 -25.029 -30.263  1.00  0.00    -0.507 OA
ATOM     23  H   UNL     1      -1.762 -25.990 -30.070  1.00  0.00     0.293 HD
ENDBRANCH   6  22
BRANCH   8  24
ATOM     24  O   UNL     1      -1.122 -23.400 -25.850  1.00  0.00    -0.508 OA
ATOM     25  H   UNL     1      -0.349 -24.048 -25.756  1.00  0.00     0.293 HD
ENDBRANCH   8  24
TORSDOF 5
ENDMDL
MODEL 5
REMARK VINA RESULT:    -6.713      5.889      9.008
REMARK INTER + INTRA:          -8.110
REMARK INTER:                  -7.830
REMARK INTRA:                  -0.280
REMARK UNBOUND:                -0.219
REMARK SMILES O=c1c(O)c(-c2ccc(O)cc2)oc2cc(O)cc(O)c12
REMARK SMILES IDX 5 1 3 2 2 3 1 4 21 5 19 6 18 7 16 8 15 9 14 10 13 11 6 12
REMARK SMILES IDX 7 13 8 14 9 15 12 16 11 17 10 18 4 20 20 22 17 24
REMARK H PARENT 10 19 4 21 20 23 17 25
REMARK Flexibility Score: inf
ROOT
ATOM      1  C   UNL     1     -11.174 -28.362 -21.928  1.00  0.00     0.180 A 
ATOM      2  C   UNL     1     -11.433 -27.189 -21.198  1.00  0.00     0.208 A 
ATOM      3  C   UNL     1     -12.601 -27.113 -20.423  1.00  0.00     0.238 A 
ATOM      4  O   UNL     1     -12.800 -26.082 -19.729  1.00  0.00    -0.285 OA
ATOM      5  C   UNL     1     -13.503 -28.204 -20.400  1.00  0.00     0.111 A 
ATOM      6  C   UNL     1     -14.737 -28.221 -19.681  1.00  0.00     0.134 A 
ATOM      7  C   UNL     1     -15.486 -29.402 -19.624  1.00  0.00     0.093 A 
ATOM      8  C   UNL     1     -15.083 -30.545 -20.314  1.00  0.00     0.123 A 
ATOM      9  C   UNL     1     -13.909 -30.522 -21.067  1.00  0.00     0.094 A 
ATOM     10  C   UNL     1     -13.121 -29.369 -21.114  1.00  0.00     0.146 A 
ATOM     11  O   UNL     1     -12.007 -29.392 -21.834  1.00  0.00    -0.452 OA
ENDROOT
BRANCH   1  12
ATOM     12  C   UNL     1      -9.977 -28.507 -22.789  1.00  0.00     0.021 A 
ATOM     13  C   UNL     1      -8.770 -28.952 -22.225  1.00  0.00     0.016 A 
ATOM     14  C   UNL     1      -7.634 -29.117 -23.023  1.00  0.00     0.047 A 
ATOM     15  C   UNL     1      -7.693 -28.855 -24.394  1.00  0.00     0.115 A 
ATOM     16  C   UNL     1     -10.036 -28.264 -24.173  1.00  0.00     0.016 A 
ATOM     17  C   UNL     1      -8.898 -28.431 -24.969  1.00  0.00     0.047 A 
BRANCH  15  18
ATOM     18  O   UNL     1      -6.553 -29.023 -25.178  1.00  0.00    -0.508 OA
ATOM     19  H   UNL     1      -6.030 -29.891 -25.172  1.00  0.00     0.293 HD
ENDBRANCH  15  18
ENDBRANCH   1  12
BRANCH   2  20
ATOM     20  O   UNL     1     -10.518 -26.133 -21.218  1.00  0.00    -0.502 OA
ATOM     21  H   UNL     1     -10.001 -25.845 -20.395  1.00  0.00     0.293 HD
ENDBRANCH   2  20
BRANCH   6  22
ATOM     22  O   UNL     1     -15.278 -27.106 -19.034  1.00  0.00    -0.507 OA
ATOM     23  H   UNL     1     -14.882 -26.179 -19.058  1.00  0.00     0.293 HD
ENDBRANCH   6  22
BRANCH   8  24
ATOM     24  O   UNL     1     -15.862 -31.698 -20.247  1.00  0.00    -0.508 OA
ATOM     25  H   UNL     1     -16.265 -32.115 -21.078  1.00  0.00     0.293 HD
ENDBRANCH   8  24
TORSDOF 5
ENDMDL
MODEL 6
REMARK VINA RESULT:    -6.696      5.267      7.731
REMARK INTER + INTRA:          -8.090
REMARK INTER:                  -7.791
REMARK INTRA:                  -0.299
REMARK UNBOUND:                -0.219
REMARK SMILES O=c1c(O)c(-c2ccc(O)cc2)oc2cc(O)cc(O)c12
REMARK SMILES IDX 5 1 3 2 2 3 1 4 21 5 19 6 18 7 16 8 15 9 14 10 13 11 6 12
REMARK SMILES IDX 7 13 8 14 9 15 12 16 11 17 10 18 4 20 20 22 17 24
REMARK H PARENT 10 19 4 21 20 23 17 25
REMARK Flexibility Score: inf
ROOT
ATOM      1  C   UNL     1      -3.808 -21.579 -28.739  1.00  0.00     0.180 A 
ATOM      2  C   UNL     1      -4.288 -21.647 -27.420  1.00  0.00     0.208 A 
ATOM      3  C   UNL     1      -4.965 -20.540 -26.883  1.00  0.00     0.238 A 
ATOM      4  O   UNL     1      -5.439 -20.628 -25.721  1.00  0.00    -0.285 OA
ATOM      5  C   UNL     1      -5.138 -19.374 -27.666  1.00  0.00     0.111 A 
ATOM      6  C   UNL     1      -5.773 -18.179 -27.211  1.00  0.00     0.134 A 
ATOM      7  C   UNL     1      -6.006 -17.134 -28.113  1.00  0.00     0.093 A 
ATOM      8  C   UNL     1      -5.569 -17.212 -29.434  1.00  0.00     0.123 A 
ATOM      9  C   UNL     1      -4.895 -18.352 -29.875  1.00  0.00     0.094 A 
ATOM     10  C   UNL     1      -4.680 -19.426 -29.008  1.00  0.00     0.146 A 
ATOM     11  O   UNL     1      -4.044 -20.496 -29.470  1.00  0.00    -0.452 OA
ENDROOT
BRANCH   1  12
ATOM     12  C   UNL     1      -3.063 -22.695 -29.366  1.00  0.00     0.021 A 
ATOM     13  C   UNL     1      -3.757 -23.648 -30.130  1.00  0.00     0.016 A 
ATOM     14  C   UNL     1      -3.070 -24.697 -30.748  1.00  0.00     0.047 A 
ATOM     15  C   UNL     1      -1.682 -24.800 -30.624  1.00  0.00     0.115 A 
ATOM     16  C   UNL     1      -1.663 -22.792 -29.260  1.00  0.00     0.016 A 
ATOM     17  C   UNL     1      -0.979 -23.843 -29.881  1.00  0.00     0.047 A 
BRANCH  15  18
ATOM     18  O   UNL     1      -1.011 -25.851 -31.245  1.00  0.00    -0.508 OA
ATOM     19  H   UNL     1      -1.461 -26.744 -31.409  1.00  0.00     0.293 HD
ENDBRANCH  15  18
ENDBRANCH   1  12
BRANCH   2  20
ATOM     20  O   UNL     1      -4.125 -22.817 -26.672  1.00  0.00    -0.502 OA
ATOM     21  H   UNL     1      -4.014 -23.727 -27.103  1.00  0.00     0.293 HD
ENDBRANCH   2  20
BRANCH   6  22
ATOM     22  O   UNL     1      -6.166 -17.960 -25.887  1.00  0.00    -0.507 OA
ATOM     23  H   UNL     1      -5.532 -17.828 -25.113  1.00  0.00     0.293 HD
ENDBRANCH   6  22
BRANCH   8  24
ATOM     24  O   UNL     1      -5.804 -16.147 -30.301  1.00  0.00    -0.508 OA
ATOM     25  H   UNL     1      -6.541 -15.474 -30.126  1.00  0.00     0.293 HD
ENDBRANCH   8  24
TORSDOF 5
ENDMDL
MODEL 7
REMARK VINA RESULT:    -6.633      7.257      9.919
REMARK INTER + INTRA:          -8.015
REMARK INTER:                  -7.731
REMARK INTRA:                  -0.285
REMARK UNBOUND:                -0.219
REMARK SMILES O=c1c(O)c(-c2ccc(O)cc2)oc2cc(O)cc(O)c12
REMARK SMILES IDX 5 1 3 2 2 3 1 4 21 5 19 6 18 7 16 8 15 9 14 10 13 11 6 12
REMARK SMILES IDX 7 13 8 14 9 15 12 16 11 17 10 18 4 20 20 22 17 24
REMARK H PARENT 10 19 4 21 20 23 17 25
REMARK Flexibility Score: inf
ROOT
ATOM      1  C   UNL     1     -12.113 -27.896 -21.926  1.00  0.00     0.180 A 
ATOM      2  C   UNL     1     -12.962 -28.481 -20.972  1.00  0.00     0.208 A 
ATOM      3  C   UNL     1     -13.662 -27.650 -20.082  1.00  0.00     0.238 A 
ATOM      4  O   UNL     1     -14.462 -28.177 -19.265  1.00  0.00    -0.285 OA
ATOM      5  C   UNL     1     -13.491 -26.247 -20.147  1.00  0.00     0.111 A 
ATOM      6  C   UNL     1     -14.118 -25.311 -19.270  1.00  0.00     0.134 A 
ATOM      7  C   UNL     1     -13.980 -23.939 -19.509  1.00  0.00     0.093 A 
ATOM      8  C   UNL     1     -13.184 -23.467 -20.552  1.00  0.00     0.123 A 
ATOM      9  C   UNL     1     -12.519 -24.371 -21.380  1.00  0.00     0.094 A 
ATOM     10  C   UNL     1     -12.666 -25.747 -21.189  1.00  0.00     0.146 A 
ATOM     11  O   UNL     1     -12.024 -26.573 -22.005  1.00  0.00    -0.452 OA
ENDROOT
BRANCH   1  12
ATOM     12  C   UNL     1     -11.323 -28.707 -22.881  1.00  0.00     0.021 A 
ATOM     13  C   UNL     1     -10.021 -29.107 -22.537  1.00  0.00     0.016 A 
ATOM     14  C   UNL     1      -9.266 -29.891 -23.415  1.00  0.00     0.047 A 
ATOM     15  C   UNL     1      -9.806 -30.299 -24.637  1.00  0.00     0.115 A 
ATOM     16  C   UNL     1     -11.869 -29.136 -24.105  1.00  0.00     0.016 A 
ATOM     17  C   UNL     1     -11.112 -29.922 -24.980  1.00  0.00     0.047 A 
BRANCH  15  18
ATOM     18  O   UNL     1      -9.043 -31.080 -25.502  1.00  0.00    -0.508 OA
ATOM     19  H   UNL     1      -9.432 -31.457 -26.358  1.00  0.00     0.293 HD
ENDBRANCH  15  18
ENDBRANCH   1  12
BRANCH   2  20
ATOM     20  O   UNL     1     -13.134 -29.868 -20.939  1.00  0.00    -0.502 OA
ATOM     21  H   UNL     1     -14.039 -30.308 -21.059  1.00  0.00     0.293 HD
ENDBRANCH   2  20
BRANCH   6  22
ATOM     22  O   UNL     1     -14.859 -25.676 -18.141  1.00  0.00    -0.507 OA
ATOM     23  H   UNL     1     -15.496 -25.067 -17.650  1.00  0.00     0.293 HD
ENDBRANCH   6  22
BRANCH   8  24
ATOM     24  O   UNL     1     -13.056 -22.094 -20.752  1.00  0.00    -0.508 OA
ATOM     25  H   UNL     1     -13.382 -21.425 -20.064  1.00  0.00     0.293 HD
ENDBRANCH   8  24
TORSDOF 5
ENDMDL
MODEL 8
REMARK VINA RESULT:    -6.527      1.820      6.935
REMARK INTER + INTRA:          -7.891
REMARK INTER:                  -7.765
REMARK INTRA:                  -0.126
REMARK UNBOUND:                -0.219
REMARK SMILES O=c1c(O)c(-c2ccc(O)cc2)oc2cc(O)cc(O)c12
REMARK SMILES IDX 5 1 3 2 2 3 1 4 21 5 19 6 18 7 16 8 15 9 14 10 13 11 6 12
REMARK SMILES IDX 7 13 8 14 9 15 12 16 11 17 10 18 4 20 20 22 17 24
REMARK H PARENT 10 19 4 21 20 23 17 25
REMARK Flexibility Score: inf
ROOT
ATOM      1  C   UNL     1      -4.966 -26.101 -26.682  1.00  0.00     0.180 A 
ATOM      2  C   UNL     1      -3.805 -25.362 -26.395  1.00  0.00     0.208 A 
ATOM      3  C   UNL     1      -3.196 -24.624 -27.423  1.00  0.00     0.238 A 
ATOM      4  O   UNL     1      -2.188 -23.922 -27.147  1.00  0.00    -0.285 OA
ATOM      5  C   UNL     1      -3.745 -24.647 -28.727  1.00  0.00     0.111 A 
ATOM      6  C   UNL     1      -3.188 -23.970 -29.854  1.00  0.00     0.134 A 
ATOM      7  C   UNL     1      -3.887 -23.956 -31.066  1.00  0.00     0.093 A 
ATOM      8  C   UNL     1      -5.088 -24.648 -31.214  1.00  0.00     0.123 A 
ATOM      9  C   UNL     1      -5.613 -25.363 -30.136  1.00  0.00     0.094 A 
ATOM     10  C   UNL     1      -4.956 -25.366 -28.903  1.00  0.00     0.146 A 
ATOM     11  O   UNL     1      -5.494 -26.049 -27.900  1.00  0.00    -0.452 OA
ENDROOT
BRANCH   1  12
ATOM     12  C   UNL     1      -5.651 -26.923 -25.658  1.00  0.00     0.021 A 
ATOM     13  C   UNL     1      -6.995 -26.661 -25.347  1.00  0.00     0.016 A 
ATOM     14  C   UNL     1      -7.667 -27.439 -24.399  1.00  0.00     0.047 A 
ATOM     15  C   UNL     1      -7.010 -28.497 -23.763  1.00  0.00     0.115 A 
ATOM     16  C   UNL     1      -5.001 -28.000 -25.029  1.00  0.00     0.016 A 
ATOM     17  C   UNL     1      -5.675 -28.778 -24.082  1.00  0.00     0.047 A 
BRANCH  15  18
ATOM     18  O   UNL     1      -7.692 -29.264 -22.820  1.00  0.00    -0.508 OA
ATOM     19  H   UNL     1      -8.235 -30.075 -23.090  1.00  0.00     0.293 HD
ENDBRANCH  15  18
ENDBRANCH   1  12
BRANCH   2  20
ATOM     20  O   UNL     1      -3.293 -25.335 -25.095  1.00  0.00    -0.502 OA
ATOM     21  H   UNL     1      -2.318 -25.140 -24.898  1.00  0.00     0.293 HD
ENDBRANCH   2  20
BRANCH   6  22
ATOM     22  O   UNL     1      -1.947 -23.325 -29.841  1.00  0.00    -0.507 OA
ATOM     23  H   UNL     1      -1.738 -22.492 -29.311  1.00  0.00     0.293 HD
ENDBRANCH   6  22
BRANCH   8  24
ATOM     24  O   UNL     1      -5.750 -24.625 -32.440  1.00  0.00    -0.508 OA
ATOM     25  H   UNL     1      -6.744 -24.442 -32.502  1.00  0.00     0.293 HD
ENDBRANCH   8  24
TORSDOF 5
ENDMDL
MODEL 9
REMARK VINA RESULT:    -6.520      3.420      6.905
REMARK INTER + INTRA:          -7.883
REMARK INTER:                  -7.600
REMARK INTRA:                  -0.284
REMARK UNBOUND:                -0.219
REMARK SMILES O=c1c(O)c(-c2ccc(O)cc2)oc2cc(O)cc(O)c12
REMARK SMILES IDX 5 1 3 2 2 3 1 4 21 5 19 6 18 7 16 8 15 9 14 10 13 11 6 12
REMARK SMILES IDX 7 13 8 14 9 15 12 16 11 17 10 18 4 20 20 22 17 24
REMARK H PARENT 10 19 4 21 20 23 17 25
REMARK Flexibility Score: inf
ROOT
ATOM      1  C   UNL     1      -6.096 -24.461 -27.982  1.00  0.00     0.180 A 
ATOM      2  C   UNL     1      -6.062 -24.460 -29.387  1.00  0.00     0.208 A 
ATOM      3  C   UNL     1      -5.914 -23.239 -30.064  1.00  0.00     0.238 A 
ATOM      4  O   UNL     1      -5.830 -23.250 -31.320  1.00  0.00    -0.285 OA
ATOM      5  C   UNL     1      -5.820 -22.033 -29.329  1.00  0.00     0.111 A 
ATOM      6  C   UNL     1      -5.709 -20.734 -29.911  1.00  0.00     0.134 A 
ATOM      7  C   UNL     1      -5.490 -19.624 -29.088  1.00  0.00     0.093 A 
ATOM      8  C   UNL     1      -5.444 -19.754 -27.700  1.00  0.00     0.123 A 
ATOM      9  C   UNL     1      -5.611 -21.011 -27.117  1.00  0.00     0.094 A 
ATOM     10  C   UNL     1      -5.795 -22.143 -27.914  1.00  0.00     0.146 A 
ATOM     11  O   UNL     1      -5.938 -23.320 -27.319  1.00  0.00    -0.452 OA
ENDROOT
BRANCH   1  12
ATOM     12  C   UNL     1      -6.274 -25.705 -27.199  1.00  0.00     0.021 A 
ATOM     13  C   UNL     1      -5.148 -26.472 -26.853  1.00  0.00     0.016 A 
ATOM     14  C   UNL     1      -5.291 -27.638 -26.096  1.00  0.00     0.047 A 
ATOM     15  C   UNL     1      -6.556 -28.044 -25.660  1.00  0.00     0.115 A 
ATOM     16  C   UNL     1      -7.541 -26.108 -26.742  1.00  0.00     0.016 A 
ATOM     17  C   UNL     1      -7.682 -27.275 -25.983  1.00  0.00     0.047 A 
BRANCH  15  18
ATOM     18  O   UNL     1      -6.684 -29.209 -24.907  1.00  0.00    -0.508 OA
ATOM     19  H   UNL     1      -7.289 -29.966 -25.201  1.00  0.00     0.293 HD
ENDBRANCH  15  18
ENDBRANCH   1  12
BRANCH   2  20
ATOM     20  O   UNL     1      -6.135 -25.664 -30.093  1.00  0.00    -0.502 OA
ATOM     21  H   UNL     1      -6.603 -26.484 -29.724  1.00  0.00     0.293 HD
ENDBRANCH   2  20
BRANCH   6  22
ATOM     22  O   UNL     1      -5.833 -20.480 -31.281  1.00  0.00    -0.507 OA
ATOM     23  H   UNL     1      -6.168 -21.146 -31.961  1.00  0.00     0.293 HD
ENDBRANCH   6  22
BRANCH   8  24
ATOM     24  O   UNL     1      -5.240 -18.625 -26.910  1.00  0.00    -0.508 OA
ATOM     25  H   UNL     1      -5.852 -17.820 -26.967  1.00  0.00     0.293 HD
ENDBRANCH   8  24
TORSDOF 5
ENDMDL
