MODEL 1
REMARK VINA RESULT:    -3.506      0.000      0.000
REMARK INTER + INTRA:          -7.093
REMARK INTER:                  -5.555
REMARK INTRA:                  -1.538
REMARK UNBOUND:                -1.538
REMARK SMILES CCCCCCCCCCCC(=O)[O-]
REMARK SMILES IDX 7 1 8 2 9 3 10 4 11 5 12 6 13 7 14 8 6 9 5 10 4 11 3 12 2 13
REMARK SMILES IDX 1 14
REMARK H PARENT
REMARK Flexibility Score: inf
ROOT
ATOM      1  C   UNL     1      12.689  62.538   7.138  1.00  0.00     0.000 C 
ENDROOT
BRANCH   1   2
ATOM      2  C   UNL     1      13.373  63.819   7.652  1.00  0.00     0.000 C 
BRANCH   2   3
ATOM      3  C   UNL     1      13.367  65.002   6.664  1.00  0.00     0.000 C 
BRANCH   3   4
ATOM      4  C   UNL     1      12.569  64.730   5.371  1.00  0.00     0.006 C 
BRANCH   4   5
ATOM      5  C   UNL     1      11.521  65.814   5.088  1.00  0.00     0.053 C 
BRANCH   5   6
ATOM      6  C   UNL     1      11.226  65.887   3.624  1.00  0.00     0.041 C 
ATOM      7  O   UNL     1      10.036  65.857   3.214  1.00  0.00    -0.550 OA
ATOM      8  O   UNL     1      12.264  66.037   2.713  1.00  0.00    -0.550 OA
ENDBRANCH   5   6
ENDBRANCH   4   5
ENDBRANCH   3   4
ENDBRANCH   2   3
ENDBRANCH   1   2
BRANCH   1   9
ATOM      9  C   UNL     1      11.518  62.034   8.004  1.00  0.00     0.000 C 
BRANCH   9  10
ATOM     10  C   UNL     1      10.977  63.104   8.963  1.00  0.00    -0.000 C 
BRANCH  10  11
ATOM     11  C   UNL     1       9.657  63.691   8.443  1.00  0.00    -0.000 C 
BRANCH  11  12
ATOM     12  C   UNL     1       9.649  65.228   8.446  1.00  0.00    -0.000 C 
BRANCH  12  13
ATOM     13  C   UNL     1      10.752  65.823   9.333  1.00  0.00    -0.003 C 
ATOM     14  C   UNL     1      11.254  67.151   8.770  1.00  0.00     0.004 C 
ENDBRANCH  12  13
ENDBRANCH  11  12
ENDBRANCH  10  11
ENDBRANCH   9  10
ENDBRANCH   1   9
TORSDOF 10
ENDMDL
MODEL 2
REMARK VINA RESULT:    -3.469      3.203      5.215
REMARK INTER + INTRA:          -7.034
REMARK INTER:                  -6.021
REMARK INTRA:                  -1.014
REMARK UNBOUND:                -1.538
REMARK SMILES CCCCCCCCCCCC(=O)[O-]
REMARK SMILES IDX 7 1 8 2 9 3 10 4 11 5 12 6 13 7 14 8 6 9 5 10 4 11 3 12 2 13
REMARK SMILES IDX 1 14
REMARK H PARENT
REMARK Flexibility Score: inf
ROOT
ATOM      1  C   UNL     1      11.200  63.013   8.737  1.00  0.00     0.000 C 
ENDROOT
BRANCH   1   2
ATOM      2  C   UNL     1       9.732  63.451   8.575  1.00  0.00     0.000 C 
BRANCH   2   3
ATOM      3  C   UNL     1       9.503  64.974   8.573  1.00  0.00     0.000 C 
BRANCH   3   4
ATOM      4  C   UNL     1       8.039  65.384   8.842  1.00  0.00     0.006 C 
BRANCH   4   5
ATOM      5  C   UNL     1       7.057  64.221   8.642  1.00  0.00     0.053 C 
BRANCH   5   6
ATOM      6  C   UNL     1       5.647  64.718   8.664  1.00  0.00     0.041 C 
ATOM      7  O   UNL     1       4.703  63.935   8.951  1.00  0.00    -0.550 OA
ATOM      8  O   UNL     1       5.378  66.058   8.415  1.00  0.00    -0.550 OA
ENDBRANCH   5   6
ENDBRANCH   4   5
ENDBRANCH   3   4
ENDBRANCH   2   3
ENDBRANCH   1   2
BRANCH   1   9
ATOM      9  C   UNL     1      11.726  62.077   7.632  1.00  0.00     0.000 C 
BRANCH   9  10
ATOM     10  C   UNL     1      12.820  62.723   6.769  1.00  0.00    -0.000 C 
BRANCH  10  11
ATOM     11  C   UNL     1      13.401  63.965   7.459  1.00  0.00    -0.000 C 
BRANCH  11  12
ATOM     12  C   UNL     1      13.259  65.237   6.608  1.00  0.00    -0.000 C 
BRANCH  12  13
ATOM     13  C   UNL     1      12.384  65.022   5.365  1.00  0.00    -0.003 C 
ATOM     14  C   UNL     1      11.172  65.952   5.378  1.00  0.00     0.004 C 
ENDBRANCH  12  13
ENDBRANCH  11  12
ENDBRANCH  10  11
ENDBRANCH   9  10
ENDBRANCH   1   9
TORSDOF 10
ENDMDL
MODEL 3
REMARK VINA RESULT:    -3.464      1.104      2.354
REMARK INTER + INTRA:          -7.027
REMARK INTER:                  -5.846
REMARK INTRA:                  -1.181
REMARK UNBOUND:                -1.538
REMARK SMILES CCCCCCCCCCCC(=O)[O-]
REMARK SMILES IDX 7 1 8 2 9 3 10 4 11 5 12 6 13 7 14 8 6 9 5 10 4 11 3 12 2 13
REMARK SMILES IDX 1 14
REMARK H PARENT
REMARK Flexibility Score: inf
ROOT
ATOM      1  C   UNL     1      13.625  64.867   6.681  1.00  0.00     0.000 C 
ENDROOT
BRANCH   1   2
ATOM      2  C   UNL     1      12.595  64.929   5.537  1.00  0.00     0.000 C 
BRANCH   2   3
ATOM      3  C   UNL     1      12.008  66.327   5.262  1.00  0.00     0.000 C 
BRANCH   3   4
ATOM      4  C   UNL     1      10.610  66.298   4.608  1.00  0.00     0.006 C 
BRANCH   4   5
ATOM      5  C   UNL     1      10.652  65.809   3.154  1.00  0.00     0.053 C 
BRANCH   5   6
ATOM      6  C   UNL     1      11.493  66.723   2.320  1.00  0.00     0.041 C 
ATOM      7  O   UNL     1      11.082  67.878   2.033  1.00  0.00    -0.550 OA
ATOM      8  O   UNL     1      12.754  66.317   1.900  1.00  0.00    -0.550 OA
ENDBRANCH   5   6
ENDBRANCH   4   5
ENDBRANCH   3   4
ENDBRANCH   2   3
ENDBRANCH   1   2
BRANCH   1   9
ATOM      9  C   UNL     1      13.420  63.711   7.679  1.00  0.00     0.000 C 
BRANCH   9  10
ATOM     10  C   UNL     1      12.661  62.522   7.072  1.00  0.00    -0.000 C 
BRANCH  10  11
ATOM     11  C   UNL     1      11.540  62.050   8.009  1.00  0.00    -0.000 C 
BRANCH  11  12
ATOM     12  C   UNL     1      11.030  63.166   8.933  1.00  0.00    -0.000 C 
BRANCH  12  13
ATOM     13  C   UNL     1       9.718  63.791   8.437  1.00  0.00    -0.003 C 
ATOM     14  C   UNL     1       9.887  65.285   8.169  1.00  0.00     0.004 C 
ENDBRANCH  12  13
ENDBRANCH  11  12
ENDBRANCH  10  11
ENDBRANCH   9  10
ENDBRANCH   1   9
TORSDOF 10
ENDMDL
MODEL 4
REMARK VINA RESULT:    -3.396      1.082      2.792
REMARK INTER + INTRA:          -6.919
REMARK INTER:                  -5.550
REMARK INTRA:                  -1.369
REMARK UNBOUND:                -1.538
REMARK SMILES CCCCCCCCCCCC(=O)[O-]
REMARK SMILES IDX 7 1 8 2 9 3 10 4 11 5 12 6 13 7 14 8 6 9 5 10 4 11 3 12 2 13
REMARK SMILES IDX 1 14
REMARK H PARENT
REMARK Flexibility Score: inf
ROOT
ATOM      1  C   UNL     1      10.373  65.735   6.878  1.00  0.00     0.000 C 
ENDROOT
BRANCH   1   2
ATOM      2  C   UNL     1      11.567  66.698   6.740  1.00  0.00     0.000 C 
BRANCH   2   3
ATOM      3  C   UNL     1      12.393  66.533   5.450  1.00  0.00     0.000 C 
BRANCH   3   4
ATOM      4  C   UNL     1      12.155  65.189   4.727  1.00  0.00     0.006 C 
BRANCH   4   5
ATOM      5  C   UNL     1      12.087  65.347   3.202  1.00  0.00     0.053 C 
BRANCH   5   6
ATOM      6  C   UNL     1      10.883  66.145   2.813  1.00  0.00     0.041 C 
ATOM      7  O   UNL     1       9.728  65.727   3.091  1.00  0.00    -0.550 OA
ATOM      8  O   UNL     1      11.037  67.375   2.186  1.00  0.00    -0.550 OA
ENDBRANCH   5   6
ENDBRANCH   4   5
ENDBRANCH   3   4
ENDBRANCH   2   3
ENDBRANCH   1   2
BRANCH   1   9
ATOM      9  C   UNL     1      10.035  65.320   8.323  1.00  0.00     0.000 C 
BRANCH   9  10
ATOM     10  C   UNL     1       9.804  63.810   8.475  1.00  0.00    -0.000 C 
BRANCH  10  11
ATOM     11  C   UNL     1      11.100  63.096   8.885  1.00  0.00    -0.000 C 
BRANCH  11  12
ATOM     12  C   UNL     1      11.668  62.209   7.766  1.00  0.00    -0.000 C 
BRANCH  12  13
ATOM     13  C   UNL     1      12.982  62.755   7.188  1.00  0.00    -0.003 C 
ATOM     14  C   UNL     1      13.540  63.878   8.059  1.00  0.00     0.004 C 
ENDBRANCH  12  13
ENDBRANCH  11  12
ENDBRANCH  10  11
ENDBRANCH   9  10
ENDBRANCH   1   9
TORSDOF 10
ENDMDL
MODEL 5
REMARK VINA RESULT:    -3.350      2.663      4.791
REMARK INTER + INTRA:          -6.846
REMARK INTER:                  -5.925
REMARK INTRA:                  -0.921
REMARK UNBOUND:                -1.538
REMARK SMILES CCCCCCCCCCCC(=O)[O-]
REMARK SMILES IDX 7 1 8 2 9 3 10 4 11 5 12 6 13 7 14 8 6 9 5 10 4 11 3 12 2 13
REMARK SMILES IDX 1 14
REMARK H PARENT
REMARK Flexibility Score: inf
ROOT
ATOM      1  C   UNL     1      12.919  62.718   6.948  1.00  0.00     0.000 C 
ENDROOT
BRANCH   1   2
ATOM      2  C   UNL     1      11.694  62.117   7.664  1.00  0.00     0.000 C 
BRANCH   2   3
ATOM      3  C   UNL     1      11.122  62.976   8.809  1.00  0.00     0.000 C 
BRANCH   3   4
ATOM      4  C   UNL     1       9.751  63.607   8.488  1.00  0.00     0.006 C 
BRANCH   4   5
ATOM      5  C   UNL     1       9.709  65.110   8.799  1.00  0.00     0.053 C 
BRANCH   5   6
ATOM      6  C   UNL     1       8.299  65.609   8.775  1.00  0.00     0.041 C 
ATOM      7  O   UNL     1       8.064  66.837   8.626  1.00  0.00    -0.550 OA
ATOM      8  O   UNL     1       7.242  64.712   8.867  1.00  0.00    -0.550 OA
ENDBRANCH   5   6
ENDBRANCH   4   5
ENDBRANCH   3   4
ENDBRANCH   2   3
ENDBRANCH   1   2
BRANCH   1   9
ATOM      9  C   UNL     1      13.493  63.991   7.598  1.00  0.00     0.000 C 
BRANCH   9  10
ATOM     10  C   UNL     1      13.544  65.186   6.635  1.00  0.00    -0.000 C 
BRANCH  10  11
ATOM     11  C   UNL     1      12.140  65.537   6.122  1.00  0.00    -0.000 C 
BRANCH  11  12
ATOM     12  C   UNL     1      12.167  66.237   4.754  1.00  0.00    -0.000 C 
BRANCH  12  13
ATOM     13  C   UNL     1      11.823  65.288   3.598  1.00  0.00    -0.003 C 
ATOM     14  C   UNL     1      10.490  65.665   2.955  1.00  0.00     0.004 C 
ENDBRANCH  12  13
ENDBRANCH  11  12
ENDBRANCH  10  11
ENDBRANCH   9  10
ENDBRANCH   1   9
TORSDOF 10
ENDMDL
MODEL 6
REMARK VINA RESULT:    -3.295      2.356      4.893
REMARK INTER + INTRA:          -6.759
REMARK INTER:                  -6.031
REMARK INTRA:                  -0.728
REMARK UNBOUND:                -1.538
REMARK SMILES CCCCCCCCCCCC(=O)[O-]
REMARK SMILES IDX 7 1 8 2 9 3 10 4 11 5 12 6 13 7 14 8 6 9 5 10 4 11 3 12 2 13
REMARK SMILES IDX 1 14
REMARK H PARENT
REMARK Flexibility Score: inf
ROOT
ATOM      1  C   UNL     1      14.098  64.788   6.830  1.00  0.00     0.000 C 
ENDROOT
BRANCH   1   2
ATOM      2  C   UNL     1      13.394  63.825   7.806  1.00  0.00     0.000 C 
BRANCH   2   3
ATOM      3  C   UNL     1      12.637  62.661   7.139  1.00  0.00     0.000 C 
BRANCH   3   4
ATOM      4  C   UNL     1      11.511  62.069   8.015  1.00  0.00     0.006 C 
BRANCH   4   5
ATOM      5  C   UNL     1      10.988  63.069   9.055  1.00  0.00     0.053 C 
BRANCH   5   6
ATOM      6  C   UNL     1       9.759  63.755   8.548  1.00  0.00     0.041 C 
ATOM      7  O   UNL     1       9.852  64.850   7.932  1.00  0.00    -0.550 OA
ATOM      8  O   UNL     1       8.514  63.162   8.713  1.00  0.00    -0.550 OA
ENDBRANCH   5   6
ENDBRANCH   4   5
ENDBRANCH   3   4
ENDBRANCH   2   3
ENDBRANCH   1   2
BRANCH   1   9
ATOM      9  C   UNL     1      13.511  66.212   6.784  1.00  0.00     0.000 C 
BRANCH   9  10
ATOM     10  C   UNL     1      12.180  66.287   6.023  1.00  0.00    -0.000 C 
BRANCH  10  11
ATOM     11  C   UNL     1      12.186  65.345   4.811  1.00  0.00    -0.000 C 
BRANCH  11  12
ATOM     12  C   UNL     1      11.858  66.070   3.495  1.00  0.00    -0.000 C 
BRANCH  12  13
ATOM     13  C   UNL     1      10.478  65.691   2.940  1.00  0.00    -0.003 C 
ATOM     14  C   UNL     1       9.447  66.775   3.242  1.00  0.00     0.004 C 
ENDBRANCH  12  13
ENDBRANCH  11  12
ENDBRANCH  10  11
ENDBRANCH   9  10
ENDBRANCH   1   9
TORSDOF 10
ENDMDL
MODEL 7
REMARK VINA RESULT:    -3.244      3.011      4.838
REMARK INTER + INTRA:          -6.679
REMARK INTER:                  -5.173
REMARK INTRA:                  -1.505
REMARK UNBOUND:                -1.538
REMARK SMILES CCCCCCCCCCCC(=O)[O-]
REMARK SMILES IDX 7 1 8 2 9 3 10 4 11 5 12 6 13 7 14 8 6 9 5 10 4 11 3 12 2 13
REMARK SMILES IDX 1 14
REMARK H PARENT
REMARK Flexibility Score: inf
ROOT
ATOM      1  C   UNL     1      11.501  62.228   7.923  1.00  0.00     0.000 C 
ENDROOT
BRANCH   1   2
ATOM      2  C   UNL     1      10.751  62.984   9.037  1.00  0.00     0.000 C 
BRANCH   2   3
ATOM      3  C   UNL     1      10.071  64.293   8.592  1.00  0.00     0.000 C 
BRANCH   3   4
ATOM      4  C   UNL     1      10.813  65.568   9.051  1.00  0.00     0.006 C 
BRANCH   4   5
ATOM      5  C   UNL     1      11.660  65.333  10.309  1.00  0.00     0.053 C 
BRANCH   5   6
ATOM      6  C   UNL     1      13.064  65.800  10.088  1.00  0.00     0.041 C 
ATOM      7  O   UNL     1      13.300  67.018   9.873  1.00  0.00    -0.550 OA
ATOM      8  O   UNL     1      14.117  64.899  10.169  1.00  0.00    -0.550 OA
ENDBRANCH   5   6
ENDBRANCH   4   5
ENDBRANCH   3   4
ENDBRANCH   2   3
ENDBRANCH   1   2
BRANCH   1   9
ATOM      9  C   UNL     1      12.922  62.747   7.627  1.00  0.00     0.000 C 
BRANCH   9  10
ATOM     10  C   UNL     1      12.998  63.590   6.346  1.00  0.00    -0.000 C 
BRANCH  10  11
ATOM     11  C   UNL     1      13.725  64.917   6.604  1.00  0.00    -0.000 C 
BRANCH  11  12
ATOM     12  C   UNL     1      12.940  66.134   6.089  1.00  0.00    -0.000 C 
BRANCH  12  13
ATOM     13  C   UNL     1      11.630  65.740   5.392  1.00  0.00    -0.003 C 
ATOM     14  C   UNL     1      11.735  65.926   3.880  1.00  0.00     0.004 C 
ENDBRANCH  12  13
ENDBRANCH  11  12
ENDBRANCH  10  11
ENDBRANCH   9  10
ENDBRANCH   1   9
TORSDOF 10
ENDMDL
MODEL 8
REMARK VINA RESULT:    -3.217      0.972      3.006
REMARK INTER + INTRA:          -6.636
REMARK INTER:                  -5.357
REMARK INTRA:                  -1.279
REMARK UNBOUND:                -1.538
REMARK SMILES CCCCCCCCCCCC(=O)[O-]
REMARK SMILES IDX 7 1 8 2 9 3 10 4 11 5 12 6 13 7 14 8 6 9 5 10 4 11 3 12 2 13
REMARK SMILES IDX 1 14
REMARK H PARENT
REMARK Flexibility Score: inf
ROOT
ATOM      1  C   UNL     1       9.595  63.542   8.717  1.00  0.00     0.000 C 
ENDROOT
BRANCH   1   2
ATOM      2  C   UNL     1       9.448  65.076   8.700  1.00  0.00     0.000 C 
BRANCH   2   3
ATOM      3  C   UNL     1      10.482  65.820   7.834  1.00  0.00     0.000 C 
BRANCH   3   4
ATOM      4  C   UNL     1      10.046  66.005   6.364  1.00  0.00     0.006 C 
BRANCH   4   5
ATOM      5  C   UNL     1      11.116  66.708   5.518  1.00  0.00     0.053 C 
BRANCH   5   6
ATOM      6  C   UNL     1      11.174  66.112   4.148  1.00  0.00     0.041 C 
ATOM      7  O   UNL     1      12.279  65.764   3.654  1.00  0.00    -0.550 OA
ATOM      8  O   UNL     1      10.002  65.894   3.435  1.00  0.00    -0.550 OA
ENDBRANCH   5   6
ENDBRANCH   4   5
ENDBRANCH   3   4
ENDBRANCH   2   3
ENDBRANCH   1   2
BRANCH   1   9
ATOM      9  C   UNL     1      11.028  63.029   8.955  1.00  0.00     0.000 C 
BRANCH   9  10
ATOM     10  C   UNL     1      11.489  62.023   7.890  1.00  0.00    -0.000 C 
BRANCH  10  11
ATOM     11  C   UNL     1      12.606  62.618   7.021  1.00  0.00    -0.000 C 
BRANCH  11  12
ATOM     12  C   UNL     1      13.414  63.701   7.753  1.00  0.00    -0.000 C 
BRANCH  12  13
ATOM     13  C   UNL     1      14.081  64.694   6.790  1.00  0.00    -0.003 C 
ATOM     14  C   UNL     1      14.124  66.097   7.389  1.00  0.00     0.004 C 
ENDBRANCH  12  13
ENDBRANCH  11  12
ENDBRANCH  10  11
ENDBRANCH   9  10
ENDBRANCH   1   9
TORSDOF 10
ENDMDL
MODEL 9
REMARK VINA RESULT:    -3.111      1.347      2.302
REMARK INTER + INTRA:          -6.468
REMARK INTER:                  -4.868
REMARK INTRA:                  -1.601
REMARK UNBOUND:                -1.538
REMARK SMILES CCCCCCCCCCCC(=O)[O-]
REMARK SMILES IDX 7 1 8 2 9 3 10 4 11 5 12 6 13 7 14 8 6 9 5 10 4 11 3 12 2 13
REMARK SMILES IDX 1 14
REMARK H PARENT
REMARK Flexibility Score: inf
ROOT
ATOM      1  C   UNL     1      11.079  62.892   8.931  1.00  0.00     0.000 C 
ENDROOT
BRANCH   1   2
ATOM      2  C   UNL     1      11.873  62.476   7.679  1.00  0.00     0.000 C 
BRANCH   2   3
ATOM      3  C   UNL     1      13.232  63.180   7.503  1.00  0.00     0.000 C 
BRANCH   3   4
ATOM      4  C   UNL     1      13.351  63.985   6.191  1.00  0.00     0.006 C 
BRANCH   4   5
ATOM      5  C   UNL     1      12.039  64.682   5.808  1.00  0.00     0.053 C 
BRANCH   5   6
ATOM      6  C   UNL     1      12.221  65.493   4.565  1.00  0.00     0.041 C 
ATOM      7  O   UNL     1      12.450  66.729   4.642  1.00  0.00    -0.550 OA
ATOM      8  O   UNL     1      12.188  64.875   3.321  1.00  0.00    -0.550 OA
ENDBRANCH   5   6
ENDBRANCH   4   5
ENDBRANCH   3   4
ENDBRANCH   2   3
ENDBRANCH   1   2
BRANCH   1   9
ATOM      9  C   UNL     1       9.738  63.598   8.648  1.00  0.00     0.000 C 
BRANCH   9  10
ATOM     10  C   UNL     1       9.821  65.124   8.794  1.00  0.00    -0.000 C 
BRANCH  10  11
ATOM     11  C   UNL     1      11.044  65.530   9.628  1.00  0.00    -0.000 C 
BRANCH  11  12
ATOM     12  C   UNL     1      11.888  66.621   8.949  1.00  0.00    -0.000 C 
BRANCH  12  13
ATOM     13  C   UNL     1      13.388  66.481   9.251  1.00  0.00    -0.003 C 
ATOM     14  C   UNL     1      13.636  65.428  10.328  1.00  0.00     0.004 C 
ENDBRANCH  12  13
ENDBRANCH  11  12
ENDBRANCH  10  11
ENDBRANCH   9  10
ENDBRANCH   1   9
TORSDOF 10
ENDMDL
