MODEL 1
REMARK VINA RESULT:    -5.032      0.000      0.000
REMARK INTER + INTRA:         -15.066
REMARK INTER:                 -11.503
REMARK INTRA:                  -3.563
REMARK UNBOUND:                -3.563
REMARK SMILES CCCCCCCCCCCCCCCCCCCCCCCC(=O)[O-]
REMARK SMILES IDX 13 1 14 2 15 3 16 4 17 5 18 6 19 7 20 8 21 9 22 10 23 11
REMARK SMILES IDX 24 12 25 13 26 14 12 15 11 16 10 17 9 18 8 19 7 20 6 21 5 22
REMARK SMILES IDX 4 23 3 24 2 25 1 26
REMARK H PARENT
REMARK Flexibility Score: inf
ROOT
ATOM      1  C   UNL     1       9.420  40.442  43.836  1.00  0.00     0.000 C 
ENDROOT
BRANCH   1   2
ATOM      2  C   UNL     1       8.773  40.764  42.475  1.00  0.00     0.000 C 
BRANCH   2   3
ATOM      3  C   UNL     1       9.695  41.484  41.476  1.00  0.00     0.000 C 
BRANCH   3   4
ATOM      4  C   UNL     1       9.451  43.000  41.426  1.00  0.00     0.000 C 
BRANCH   4   5
ATOM      5  C   UNL     1       7.965  43.323  41.644  1.00  0.00     0.000 C 
BRANCH   5   6
ATOM      6  C   UNL     1       7.751  44.592  42.484  1.00  0.00     0.000 C 
BRANCH   6   7
ATOM      7  C   UNL     1       6.837  44.353  43.695  1.00  0.00     0.000 C 
BRANCH   7   8
ATOM      8  C   UNL     1       6.246  42.938  43.665  1.00  0.00     0.000 C 
BRANCH   8   9
ATOM      9  C   UNL     1       5.373  42.680  44.899  1.00  0.00     0.000 C 
BRANCH   9  10
ATOM     10  C   UNL     1       5.974  41.571  45.777  1.00  0.00     0.006 C 
BRANCH  10  11
ATOM     11  C   UNL     1       5.429  41.605  47.210  1.00  0.00     0.053 C 
BRANCH  11  12
ATOM     12  C   UNL     1       6.241  40.749  48.133  1.00  0.00     0.041 C 
ATOM     13  O   UNL     1       7.056  41.277  48.935  1.00  0.00    -0.550 OA
ATOM     14  O   UNL     1       6.121  39.366  48.084  1.00  0.00    -0.550 OA
ENDBRANCH  11  12
ENDBRANCH  10  11
ENDBRANCH   9  10
ENDBRANCH   8   9
ENDBRANCH   7   8
ENDBRANCH   6   7
ENDBRANCH   5   6
ENDBRANCH   4   5
ENDBRANCH   3   4
ENDBRANCH   2   3
ENDBRANCH   1   2
BRANCH   1  15
ATOM     15  C   UNL     1       9.349  38.948  44.221  1.00  0.00     0.000 C 
BRANCH  15  16
ATOM     16  C   UNL     1      10.678  38.429  44.800  1.00  0.00     0.000 C 
BRANCH  16  17
ATOM     17  C   UNL     1      11.592  37.827  43.712  1.00  0.00     0.000 C 
BRANCH  17  18
ATOM     18  C   UNL     1      12.936  38.558  43.558  1.00  0.00    -0.000 C 
BRANCH  18  19
ATOM     19  C   UNL     1      12.844  39.788  42.639  1.00  0.00    -0.000 C 
BRANCH  19  20
ATOM     20  C   UNL     1      12.990  41.112  43.409  1.00  0.00    -0.000 C 
BRANCH  20  21
ATOM     21  C   UNL     1      13.435  40.899  44.866  1.00  0.00    -0.000 C 
BRANCH  21  22
ATOM     22  C   UNL     1      12.449  41.507  45.876  1.00  0.00    -0.000 C 
BRANCH  22  23
ATOM     23  C   UNL     1      12.767  41.111  47.329  1.00  0.00    -0.000 C 
BRANCH  23  24
ATOM     24  C   UNL     1      12.002  39.844  47.768  1.00  0.00    -0.000 C 
BRANCH  24  25
ATOM     25  C   UNL     1      10.609  40.137  48.352  1.00  0.00    -0.003 C 
ATOM     26  C   UNL     1       9.685  38.922  48.339  1.00  0.00     0.004 C 
ENDBRANCH  24  25
ENDBRANCH  23  24
ENDBRANCH  22  23
ENDBRANCH  21  22
ENDBRANCH  20  21
ENDBRANCH  19  20
ENDBRANCH  18  19
ENDBRANCH  17  18
ENDBRANCH  16  17
ENDBRANCH  15  16
ENDBRANCH   1  15
TORSDOF 22
ENDMDL
MODEL 2
REMARK VINA RESULT:    -4.929      2.285      5.441
REMARK INTER + INTRA:         -14.832
REMARK INTER:                 -11.741
REMARK INTRA:                  -3.090
REMARK UNBOUND:                -3.563
REMARK SMILES CCCCCCCCCCCCCCCCCCCCCCCC(=O)[O-]
REMARK SMILES IDX 13 1 14 2 15 3 16 4 17 5 18 6 19 7 20 8 21 9 22 10 23 11
REMARK SMILES IDX 24 12 25 13 26 14 12 15 11 16 10 17 9 18 8 19 7 20 6 21 5 22
REMARK SMILES IDX 4 23 3 24 2 25 1 26
REMARK H PARENT
REMARK Flexibility Score: inf
ROOT
ATOM      1  C   UNL     1       7.848  47.072  40.273  1.00  0.00     0.000 C 
ENDROOT
BRANCH   1   2
ATOM      2  C   UNL     1       7.483  46.461  41.640  1.00  0.00     0.000 C 
BRANCH   2   3
ATOM      3  C   UNL     1       7.468  44.923  41.677  1.00  0.00     0.000 C 
BRANCH   3   4
ATOM      4  C   UNL     1       7.919  44.354  43.031  1.00  0.00     0.000 C 
BRANCH   4   5
ATOM      5  C   UNL     1       6.718  44.158  43.969  1.00  0.00     0.000 C 
BRANCH   5   6
ATOM      6  C   UNL     1       6.005  42.815  43.747  1.00  0.00     0.000 C 
BRANCH   6   7
ATOM      7  C   UNL     1       5.947  41.958  45.020  1.00  0.00     0.000 C 
BRANCH   7   8
ATOM      8  C   UNL     1       4.919  42.517  46.012  1.00  0.00     0.000 C 
BRANCH   8   9
ATOM      9  C   UNL     1       5.173  41.984  47.427  1.00  0.00     0.000 C 
BRANCH   9  10
ATOM     10  C   UNL     1       6.231  40.869  47.413  1.00  0.00     0.006 C 
BRANCH  10  11
ATOM     11  C   UNL     1       7.229  41.003  48.570  1.00  0.00     0.053 C 
BRANCH  11  12
ATOM     12  C   UNL     1       8.503  40.264  48.292  1.00  0.00     0.041 C 
ATOM     13  O   UNL     1       9.338  40.070  49.214  1.00  0.00    -0.550 OA
ATOM     14  O   UNL     1       8.782  39.820  47.006  1.00  0.00    -0.550 OA
ENDBRANCH  11  12
ENDBRANCH  10  11
ENDBRANCH   9  10
ENDBRANCH   8   9
ENDBRANCH   7   8
ENDBRANCH   6   7
ENDBRANCH   5   6
ENDBRANCH   4   5
ENDBRANCH   3   4
ENDBRANCH   2   3
ENDBRANCH   1   2
BRANCH   1  15
ATOM     15  C   UNL     1       9.230  47.760  40.248  1.00  0.00     0.000 C 
BRANCH  15  16
ATOM     16  C   UNL     1       9.912  47.755  41.627  1.00  0.00     0.000 C 
BRANCH  16  17
ATOM     17  C   UNL     1      11.136  46.815  41.670  1.00  0.00     0.000 C 
BRANCH  17  18
ATOM     18  C   UNL     1      11.415  46.102  40.336  1.00  0.00    -0.000 C 
BRANCH  18  19
ATOM     19  C   UNL     1      11.895  44.653  40.522  1.00  0.00    -0.000 C 
BRANCH  19  20
ATOM     20  C   UNL     1      10.758  43.630  40.361  1.00  0.00    -0.000 C 
BRANCH  20  21
ATOM     21  C   UNL     1      11.267  42.177  40.379  1.00  0.00    -0.000 C 
BRANCH  21  22
ATOM     22  C   UNL     1      11.959  41.814  41.701  1.00  0.00    -0.000 C 
BRANCH  22  23
ATOM     23  C   UNL     1      11.211  40.718  42.482  1.00  0.00    -0.000 C 
BRANCH  23  24
ATOM     24  C   UNL     1       9.915  41.249  43.132  1.00  0.00    -0.000 C 
BRANCH  24  25
ATOM     25  C   UNL     1       8.652  40.485  42.699  1.00  0.00    -0.003 C 
ATOM     26  C   UNL     1       8.067  40.990  41.382  1.00  0.00     0.004 C 
ENDBRANCH  24  25
ENDBRANCH  23  24
ENDBRANCH  22  23
ENDBRANCH  21  22
ENDBRANCH  20  21
ENDBRANCH  19  20
ENDBRANCH  18  19
ENDBRANCH  17  18
ENDBRANCH  16  17
ENDBRANCH  15  16
ENDBRANCH   1  15
TORSDOF 22
ENDMDL
MODEL 3
REMARK VINA RESULT:    -4.922      3.682      7.506
REMARK INTER + INTRA:         -14.815
REMARK INTER:                 -12.101
REMARK INTRA:                  -2.714
REMARK UNBOUND:                -3.563
REMARK SMILES CCCCCCCCCCCCCCCCCCCCCCCC(=O)[O-]
REMARK SMILES IDX 13 1 14 2 15 3 16 4 17 5 18 6 19 7 20 8 21 9 22 10 23 11
REMARK SMILES IDX 24 12 25 13 26 14 12 15 11 16 10 17 9 18 8 19 7 20 6 21 5 22
REMARK SMILES IDX 4 23 3 24 2 25 1 26
REMARK H PARENT
REMARK Flexibility Score: inf
ROOT
ATOM      1  C   UNL     1      13.319  39.566  45.485  1.00  0.00     0.000 C 
ENDROOT
BRANCH   1   2
ATOM      2  C   UNL     1      12.839  38.899  44.182  1.00  0.00     0.000 C 
BRANCH   2   3
ATOM      3  C   UNL     1      11.602  39.551  43.540  1.00  0.00     0.000 C 
BRANCH   3   4
ATOM      4  C   UNL     1      10.364  39.502  44.449  1.00  0.00     0.000 C 
BRANCH   4   5
ATOM      5  C   UNL     1       9.769  38.086  44.486  1.00  0.00     0.000 C 
BRANCH   5   6
ATOM      6  C   UNL     1      10.255  37.271  45.695  1.00  0.00     0.000 C 
BRANCH   6   7
ATOM      7  C   UNL     1      10.832  35.905  45.293  1.00  0.00     0.000 C 
BRANCH   7   8
ATOM      8  C   UNL     1      10.414  35.531  43.866  1.00  0.00     0.000 C 
BRANCH   8   9
ATOM      9  C   UNL     1      10.032  34.049  43.775  1.00  0.00     0.000 C 
BRANCH   9  10
ATOM     10  C   UNL     1      10.784  33.356  42.628  1.00  0.00     0.006 C 
BRANCH  10  11
ATOM     11  C   UNL     1      10.124  33.606  41.266  1.00  0.00     0.053 C 
BRANCH  11  12
ATOM     12  C   UNL     1       8.814  32.888  41.144  1.00  0.00     0.041 C 
ATOM     13  O   UNL     1       7.736  33.539  41.098  1.00  0.00    -0.550 OA
ATOM     14  O   UNL     1       8.782  31.500  41.114  1.00  0.00    -0.550 OA
ENDBRANCH  11  12
ENDBRANCH  10  11
ENDBRANCH   9  10
ENDBRANCH   8   9
ENDBRANCH   7   8
ENDBRANCH   6   7
ENDBRANCH   5   6
ENDBRANCH   4   5
ENDBRANCH   3   4
ENDBRANCH   2   3
ENDBRANCH   1   2
BRANCH   1  15
ATOM     15  C   UNL     1      13.813  38.565  46.552  1.00  0.00     0.000 C 
BRANCH  15  16
ATOM     16  C   UNL     1      13.371  38.957  47.973  1.00  0.00     0.000 C 
BRANCH  16  17
ATOM     17  C   UNL     1      12.165  39.922  47.963  1.00  0.00     0.000 C 
BRANCH  17  18
ATOM     18  C   UNL     1      11.694  40.339  49.366  1.00  0.00    -0.000 C 
BRANCH  18  19
ATOM     19  C   UNL     1      10.166  40.478  49.466  1.00  0.00    -0.000 C 
BRANCH  19  20
ATOM     20  C   UNL     1       9.448  40.036  48.180  1.00  0.00    -0.000 C 
BRANCH  20  21
ATOM     21  C   UNL     1       7.940  40.344  48.212  1.00  0.00    -0.000 C 
BRANCH  21  22
ATOM     22  C   UNL     1       7.182  39.691  47.047  1.00  0.00    -0.000 C 
BRANCH  22  23
ATOM     23  C   UNL     1       6.743  40.709  45.979  1.00  0.00    -0.000 C 
BRANCH  23  24
ATOM     24  C   UNL     1       5.759  41.756  46.543  1.00  0.00    -0.000 C 
BRANCH  24  25
ATOM     25  C   UNL     1       5.103  42.630  45.460  1.00  0.00    -0.003 C 
ATOM     26  C   UNL     1       5.991  42.834  44.234  1.00  0.00     0.004 C 
ENDBRANCH  24  25
ENDBRANCH  23  24
ENDBRANCH  22  23
ENDBRANCH  21  22
ENDBRANCH  20  21
ENDBRANCH  19  20
ENDBRANCH  18  19
ENDBRANCH  17  18
ENDBRANCH  16  17
ENDBRANCH  15  16
ENDBRANCH   1  15
TORSDOF 22
ENDMDL
MODEL 4
REMARK VINA RESULT:    -4.893      2.523      4.821
REMARK INTER + INTRA:         -14.748
REMARK INTER:                 -11.244
REMARK INTRA:                  -3.504
REMARK UNBOUND:                -3.563
REMARK SMILES CCCCCCCCCCCCCCCCCCCCCCCC(=O)[O-]
REMARK SMILES IDX 13 1 14 2 15 3 16 4 17 5 18 6 19 7 20 8 21 9 22 10 23 11
REMARK SMILES IDX 24 12 25 13 26 14 12 15 11 16 10 17 9 18 8 19 7 20 6 21 5 22
REMARK SMILES IDX 4 23 3 24 2 25 1 26
REMARK H PARENT
REMARK Flexibility Score: inf
ROOT
ATOM      1  C   UNL     1       8.586  39.863  46.115  1.00  0.00     0.000 C 
ENDROOT
BRANCH   1   2
ATOM      2  C   UNL     1       9.259  39.768  47.498  1.00  0.00     0.000 C 
BRANCH   2   3
ATOM      3  C   UNL     1       8.530  40.521  48.625  1.00  0.00     0.000 C 
BRANCH   3   4
ATOM      4  C   UNL     1       7.004  40.353  48.563  1.00  0.00     0.000 C 
BRANCH   4   5
ATOM      5  C   UNL     1       6.294  41.597  49.119  1.00  0.00     0.000 C 
BRANCH   5   6
ATOM      6  C   UNL     1       5.129  42.061  48.232  1.00  0.00     0.000 C 
BRANCH   6   7
ATOM      7  C   UNL     1       5.222  41.514  46.799  1.00  0.00     0.000 C 
BRANCH   7   8
ATOM      8  C   UNL     1       5.565  42.633  45.807  1.00  0.00     0.000 C 
BRANCH   8   9
ATOM      9  C   UNL     1       6.030  42.053  44.465  1.00  0.00     0.000 C 
BRANCH   9  10
ATOM     10  C   UNL     1       6.410  43.173  43.484  1.00  0.00     0.006 C 
BRANCH  10  11
ATOM     11  C   UNL     1       7.416  42.702  42.426  1.00  0.00     0.053 C 
BRANCH  11  12
ATOM     12  C   UNL     1       8.297  43.821  41.960  1.00  0.00     0.041 C 
ATOM     13  O   UNL     1       8.111  44.347  40.832  1.00  0.00    -0.550 OA
ATOM     14  O   UNL     1       9.345  44.259  42.760  1.00  0.00    -0.550 OA
ENDBRANCH  11  12
ENDBRANCH  10  11
ENDBRANCH   9  10
ENDBRANCH   8   9
ENDBRANCH   7   8
ENDBRANCH   6   7
ENDBRANCH   5   6
ENDBRANCH   4   5
ENDBRANCH   3   4
ENDBRANCH   2   3
ENDBRANCH   1   2
BRANCH   1  15
ATOM     15  C   UNL     1       9.386  39.181  44.985  1.00  0.00     0.000 C 
BRANCH  15  16
ATOM     16  C   UNL     1       9.406  40.019  43.694  1.00  0.00     0.000 C 
BRANCH  16  17
ATOM     17  C   UNL     1      10.559  41.045  43.682  1.00  0.00     0.000 C 
BRANCH  17  18
ATOM     18  C   UNL     1      11.173  41.271  42.291  1.00  0.00    -0.000 C 
BRANCH  18  19
ATOM     19  C   UNL     1      12.415  40.400  42.038  1.00  0.00    -0.000 C 
BRANCH  19  20
ATOM     20  C   UNL     1      13.184  40.080  43.331  1.00  0.00    -0.000 C 
BRANCH  20  21
ATOM     21  C   UNL     1      13.125  38.586  43.697  1.00  0.00    -0.000 C 
BRANCH  21  22
ATOM     22  C   UNL     1      12.890  38.358  45.198  1.00  0.00    -0.000 C 
BRANCH  22  23
ATOM     23  C   UNL     1      13.921  39.090  46.077  1.00  0.00    -0.000 C 
BRANCH  23  24
ATOM     24  C   UNL     1      13.257  39.823  47.263  1.00  0.00    -0.000 C 
BRANCH  24  25
ATOM     25  C   UNL     1      12.499  41.097  46.854  1.00  0.00    -0.003 C 
ATOM     26  C   UNL     1      13.417  42.196  46.322  1.00  0.00     0.004 C 
ENDBRANCH  24  25
ENDBRANCH  23  24
ENDBRANCH  22  23
ENDBRANCH  21  22
ENDBRANCH  20  21
ENDBRANCH  19  20
ENDBRANCH  18  19
ENDBRANCH  17  18
ENDBRANCH  16  17
ENDBRANCH  15  16
ENDBRANCH   1  15
TORSDOF 22
ENDMDL
MODEL 5
REMARK VINA RESULT:    -4.880      2.749      6.237
REMARK INTER + INTRA:         -14.720
REMARK INTER:                 -12.398
REMARK INTRA:                  -2.322
REMARK UNBOUND:                -3.563
REMARK SMILES CCCCCCCCCCCCCCCCCCCCCCCC(=O)[O-]
REMARK SMILES IDX 13 1 14 2 15 3 16 4 17 5 18 6 19 7 20 8 21 9 22 10 23 11
REMARK SMILES IDX 24 12 25 13 26 14 12 15 11 16 10 17 9 18 8 19 7 20 6 21 5 22
REMARK SMILES IDX 4 23 3 24 2 25 1 26
REMARK H PARENT
REMARK Flexibility Score: inf
ROOT
ATOM      1  C   UNL     1       7.513  45.194  41.487  1.00  0.00     0.000 C 
ENDROOT
BRANCH   1   2
ATOM      2  C   UNL     1       7.155  46.687  41.620  1.00  0.00     0.000 C 
BRANCH   2   3
ATOM      3  C   UNL     1       7.889  47.618  40.641  1.00  0.00     0.000 C 
BRANCH   3   4
ATOM      4  C   UNL     1       8.681  46.852  39.570  1.00  0.00     0.000 C 
BRANCH   4   5
ATOM      5  C   UNL     1      10.192  47.060  39.754  1.00  0.00     0.000 C 
BRANCH   5   6
ATOM      6  C   UNL     1      10.577  47.354  41.213  1.00  0.00     0.000 C 
BRANCH   6   7
ATOM      7  C   UNL     1      11.388  46.217  41.852  1.00  0.00     0.000 C 
BRANCH   7   8
ATOM      8  C   UNL     1      11.509  45.025  40.894  1.00  0.00     0.000 C 
BRANCH   8   9
ATOM      9  C   UNL     1      11.678  43.712  41.669  1.00  0.00     0.000 C 
BRANCH   9  10
ATOM     10  C   UNL     1      10.559  42.719  41.319  1.00  0.00     0.006 C 
BRANCH  10  11
ATOM     11  C   UNL     1      10.468  41.567  42.328  1.00  0.00     0.053 C 
BRANCH  11  12
ATOM     12  C   UNL     1       9.114  40.925  42.316  1.00  0.00     0.041 C 
ATOM     13  O   UNL     1       8.375  41.022  41.301  1.00  0.00    -0.550 OA
ATOM     14  O   UNL     1       8.656  40.247  43.439  1.00  0.00    -0.550 OA
ENDBRANCH  11  12
ENDBRANCH  10  11
ENDBRANCH   9  10
ENDBRANCH   8   9
ENDBRANCH   7   8
ENDBRANCH   6   7
ENDBRANCH   5   6
ENDBRANCH   4   5
ENDBRANCH   3   4
ENDBRANCH   2   3
ENDBRANCH   1   2
BRANCH   1  15
ATOM     15  C   UNL     1       7.958  44.540  42.812  1.00  0.00     0.000 C 
BRANCH  15  16
ATOM     16  C   UNL     1       6.783  44.327  43.783  1.00  0.00     0.000 C 
BRANCH  16  17
ATOM     17  C   UNL     1       6.267  42.872  43.764  1.00  0.00     0.000 C 
BRANCH  17  18
ATOM     18  C   UNL     1       5.228  42.569  44.856  1.00  0.00    -0.000 C 
BRANCH  18  19
ATOM     19  C   UNL     1       5.787  41.686  45.984  1.00  0.00    -0.000 C 
BRANCH  19  20
ATOM     20  C   UNL     1       5.183  42.029  47.357  1.00  0.00    -0.000 C 
BRANCH  20  21
ATOM     21  C   UNL     1       5.969  41.397  48.520  1.00  0.00    -0.000 C 
BRANCH  21  22
ATOM     22  C   UNL     1       7.175  40.578  48.036  1.00  0.00    -0.000 C 
BRANCH  22  23
ATOM     23  C   UNL     1       8.365  40.641  49.011  1.00  0.00    -0.000 C 
BRANCH  23  24
ATOM     24  C   UNL     1       9.485  39.651  48.626  1.00  0.00    -0.000 C 
BRANCH  24  25
ATOM     25  C   UNL     1      10.894  40.266  48.675  1.00  0.00    -0.003 C 
ATOM     26  C   UNL     1      11.402  40.490  50.098  1.00  0.00     0.004 C 
ENDBRANCH  24  25
ENDBRANCH  23  24
ENDBRANCH  22  23
ENDBRANCH  21  22
ENDBRANCH  20  21
ENDBRANCH  19  20
ENDBRANCH  18  19
ENDBRANCH  17  18
ENDBRANCH  16  17
ENDBRANCH  15  16
ENDBRANCH   1  15
TORSDOF 22
ENDMDL
MODEL 6
REMARK VINA RESULT:    -4.880      2.180      5.340
REMARK INTER + INTRA:         -14.719
REMARK INTER:                 -11.422
REMARK INTRA:                  -3.297
REMARK UNBOUND:                -3.563
REMARK SMILES CCCCCCCCCCCCCCCCCCCCCCCC(=O)[O-]
REMARK SMILES IDX 13 1 14 2 15 3 16 4 17 5 18 6 19 7 20 8 21 9 22 10 23 11
REMARK SMILES IDX 24 12 25 13 26 14 12 15 11 16 10 17 9 18 8 19 7 20 6 21 5 22
REMARK SMILES IDX 4 23 3 24 2 25 1 26
REMARK H PARENT
REMARK Flexibility Score: inf
ROOT
ATOM      1  C   UNL     1      11.389  40.377  48.798  1.00  0.00     0.000 C 
ENDROOT
BRANCH   1   2
ATOM      2  C   UNL     1       9.916  40.081  49.142  1.00  0.00     0.000 C 
BRANCH   2   3
ATOM      3  C   UNL     1       9.365  38.772  48.551  1.00  0.00     0.000 C 
BRANCH   3   4
ATOM      4  C   UNL     1       7.864  38.847  48.234  1.00  0.00     0.000 C 
BRANCH   4   5
ATOM      5  C   UNL     1       7.392  40.307  48.161  1.00  0.00     0.000 C 
BRANCH   5   6
ATOM      6  C   UNL     1       5.868  40.432  48.006  1.00  0.00     0.000 C 
BRANCH   6   7
ATOM      7  C   UNL     1       5.384  41.888  48.068  1.00  0.00     0.000 C 
BRANCH   7   8
ATOM      8  C   UNL     1       4.895  42.363  46.695  1.00  0.00     0.000 C 
BRANCH   8   9
ATOM      9  C   UNL     1       5.901  41.998  45.596  1.00  0.00     0.000 C 
BRANCH   9  10
ATOM     10  C   UNL     1       5.395  42.445  44.216  1.00  0.00     0.006 C 
BRANCH  10  11
ATOM     11  C   UNL     1       6.523  42.514  43.178  1.00  0.00     0.053 C 
BRANCH  11  12
ATOM     12  C   UNL     1       7.014  43.916  42.985  1.00  0.00     0.041 C 
ATOM     13  O   UNL     1       7.070  44.709  43.962  1.00  0.00    -0.550 OA
ATOM     14  O   UNL     1       7.378  44.357  41.719  1.00  0.00    -0.550 OA
ENDBRANCH  11  12
ENDBRANCH  10  11
ENDBRANCH   9  10
ENDBRANCH   8   9
ENDBRANCH   7   8
ENDBRANCH   6   7
ENDBRANCH   5   6
ENDBRANCH   4   5
ENDBRANCH   3   4
ENDBRANCH   2   3
ENDBRANCH   1   2
BRANCH   1  15
ATOM     15  C   UNL     1      11.633  40.664  47.300  1.00  0.00     0.000 C 
BRANCH  15  16
ATOM     16  C   UNL     1      13.124  40.867  46.979  1.00  0.00     0.000 C 
BRANCH  16  17
ATOM     17  C   UNL     1      13.348  41.347  45.528  1.00  0.00     0.000 C 
BRANCH  17  18
ATOM     18  C   UNL     1      13.185  40.236  44.477  1.00  0.00    -0.000 C 
BRANCH  18  19
ATOM     19  C   UNL     1      13.589  38.850  45.006  1.00  0.00    -0.000 C 
BRANCH  19  20
ATOM     20  C   UNL     1      12.406  37.867  45.049  1.00  0.00    -0.000 C 
BRANCH  20  21
ATOM     21  C   UNL     1      11.250  38.298  44.129  1.00  0.00    -0.000 C 
BRANCH  21  22
ATOM     22  C   UNL     1       9.917  38.427  44.882  1.00  0.00    -0.000 C 
BRANCH  22  23
ATOM     23  C   UNL     1       9.270  39.813  44.711  1.00  0.00    -0.000 C 
BRANCH  23  24
ATOM     24  C   UNL     1       9.292  40.288  43.242  1.00  0.00    -0.000 C 
BRANCH  24  25
ATOM     25  C   UNL     1      10.060  41.605  43.032  1.00  0.00    -0.003 C 
ATOM     26  C   UNL     1      10.958  41.585  41.797  1.00  0.00     0.004 C 
ENDBRANCH  24  25
ENDBRANCH  23  24
ENDBRANCH  22  23
ENDBRANCH  21  22
ENDBRANCH  20  21
ENDBRANCH  19  20
ENDBRANCH  18  19
ENDBRANCH  17  18
ENDBRANCH  16  17
ENDBRANCH  15  16
ENDBRANCH   1  15
TORSDOF 22
ENDMDL
MODEL 7
REMARK VINA RESULT:    -4.847      2.525      7.208
REMARK INTER + INTRA:         -14.644
REMARK INTER:                 -11.418
REMARK INTRA:                  -3.225
REMARK UNBOUND:                -3.563
REMARK SMILES CCCCCCCCCCCCCCCCCCCCCCCC(=O)[O-]
REMARK SMILES IDX 13 1 14 2 15 3 16 4 17 5 18 6 19 7 20 8 21 9 22 10 23 11
REMARK SMILES IDX 24 12 25 13 26 14 12 15 11 16 10 17 9 18 8 19 7 20 6 21 5 22
REMARK SMILES IDX 4 23 3 24 2 25 1 26
REMARK H PARENT
REMARK Flexibility Score: inf
ROOT
ATOM      1  C   UNL     1       6.240  40.541  47.402  1.00  0.00     0.000 C 
ENDROOT
BRANCH   1   2
ATOM      2  C   UNL     1       7.080  40.980  48.618  1.00  0.00     0.000 C 
BRANCH   2   3
ATOM      3  C   UNL     1       8.526  40.456  48.627  1.00  0.00     0.000 C 
BRANCH   3   4
ATOM      4  C   UNL     1       8.737  39.272  47.671  1.00  0.00     0.000 C 
BRANCH   4   5
ATOM      5  C   UNL     1       9.867  38.359  48.172  1.00  0.00     0.000 C 
BRANCH   5   6
ATOM      6  C   UNL     1      10.949  39.126  48.949  1.00  0.00     0.000 C 
BRANCH   6   7
ATOM      7  C   UNL     1      12.313  39.100  48.245  1.00  0.00     0.000 C 
BRANCH   7   8
ATOM      8  C   UNL     1      12.756  40.516  47.856  1.00  0.00     0.000 C 
BRANCH   8   9
ATOM      9  C   UNL     1      12.047  40.983  46.579  1.00  0.00     0.000 C 
BRANCH   9  10
ATOM     10  C   UNL     1      12.412  40.084  45.387  1.00  0.00     0.006 C 
BRANCH  10  11
ATOM     11  C   UNL     1      13.439  40.742  44.456  1.00  0.00     0.053 C 
BRANCH  11  12
ATOM     12  C   UNL     1      13.377  42.238  44.530  1.00  0.00     0.041 C 
ATOM     13  O   UNL     1      12.509  42.870  43.873  1.00  0.00    -0.550 OA
ATOM     14  O   UNL     1      14.300  42.934  45.301  1.00  0.00    -0.550 OA
ENDBRANCH  11  12
ENDBRANCH  10  11
ENDBRANCH   9  10
ENDBRANCH   8   9
ENDBRANCH   7   8
ENDBRANCH   6   7
ENDBRANCH   5   6
ENDBRANCH   4   5
ENDBRANCH   3   4
ENDBRANCH   2   3
ENDBRANCH   1   2
BRANCH   1  15
ATOM     15  C   UNL     1       5.087  41.509  47.059  1.00  0.00     0.000 C 
BRANCH  15  16
ATOM     16  C   UNL     1       5.472  42.509  45.954  1.00  0.00     0.000 C 
BRANCH  16  17
ATOM     17  C   UNL     1       6.065  41.807  44.713  1.00  0.00     0.000 C 
BRANCH  17  18
ATOM     18  C   UNL     1       6.171  42.717  43.479  1.00  0.00    -0.000 C 
BRANCH  18  19
ATOM     19  C   UNL     1       6.742  44.107  43.808  1.00  0.00    -0.000 C 
BRANCH  19  20
ATOM     20  C   UNL     1       7.363  44.796  42.581  1.00  0.00    -0.000 C 
BRANCH  20  21
ATOM     21  C   UNL     1       7.877  43.788  41.538  1.00  0.00    -0.000 C 
BRANCH  21  22
ATOM     22  C   UNL     1       9.342  43.391  41.777  1.00  0.00    -0.000 C 
BRANCH  22  23
ATOM     23  C   UNL     1       9.728  42.086  41.058  1.00  0.00    -0.000 C 
BRANCH  23  24
ATOM     24  C   UNL     1      10.175  40.987  42.047  1.00  0.00    -0.000 C 
BRANCH  24  25
ATOM     25  C   UNL     1       9.469  41.063  43.412  1.00  0.00    -0.003 C 
ATOM     26  C   UNL     1       9.056  39.695  43.950  1.00  0.00     0.004 C 
ENDBRANCH  24  25
ENDBRANCH  23  24
ENDBRANCH  22  23
ENDBRANCH  21  22
ENDBRANCH  20  21
ENDBRANCH  19  20
ENDBRANCH  18  19
ENDBRANCH  17  18
ENDBRANCH  16  17
ENDBRANCH  15  16
ENDBRANCH   1  15
TORSDOF 22
ENDMDL
MODEL 8
REMARK VINA RESULT:    -4.844      0.823      5.509
REMARK INTER + INTRA:         -14.637
REMARK INTER:                 -11.037
REMARK INTRA:                  -3.600
REMARK UNBOUND:                -3.563
REMARK SMILES CCCCCCCCCCCCCCCCCCCCCCCC(=O)[O-]
REMARK SMILES IDX 13 1 14 2 15 3 16 4 17 5 18 6 19 7 20 8 21 9 22 10 23 11
REMARK SMILES IDX 24 12 25 13 26 14 12 15 11 16 10 17 9 18 8 19 7 20 6 21 5 22
REMARK SMILES IDX 4 23 3 24 2 25 1 26
REMARK H PARENT
REMARK Flexibility Score: inf
ROOT
ATOM      1  C   UNL     1      11.415  38.134  43.777  1.00  0.00     0.000 C 
ENDROOT
BRANCH   1   2
ATOM      2  C   UNL     1      12.540  38.975  43.143  1.00  0.00     0.000 C 
BRANCH   2   3
ATOM      3  C   UNL     1      13.909  38.848  43.832  1.00  0.00     0.000 C 
BRANCH   3   4
ATOM      4  C   UNL     1      13.953  39.537  45.204  1.00  0.00     0.000 C 
BRANCH   4   5
ATOM      5  C   UNL     1      13.519  41.007  45.091  1.00  0.00     0.000 C 
BRANCH   5   6
ATOM      6  C   UNL     1      12.777  41.504  46.341  1.00  0.00     0.000 C 
BRANCH   6   7
ATOM      7  C   UNL     1      12.799  40.482  47.488  1.00  0.00     0.000 C 
BRANCH   7   8
ATOM      8  C   UNL     1      11.386  40.237  48.032  1.00  0.00     0.000 C 
BRANCH   8   9
ATOM      9  C   UNL     1      11.074  38.737  48.096  1.00  0.00     0.000 C 
BRANCH   9  10
ATOM     10  C   UNL     1       9.567  38.496  48.279  1.00  0.00     0.006 C 
BRANCH  10  11
ATOM     11  C   UNL     1       8.718  39.487  47.471  1.00  0.00     0.053 C 
BRANCH  11  12
ATOM     12  C   UNL     1       7.606  40.063  48.293  1.00  0.00     0.041 C 
ATOM     13  O   UNL     1       7.812  41.070  49.021  1.00  0.00    -0.550 OA
ATOM     14  O   UNL     1       6.351  39.468  48.281  1.00  0.00    -0.550 OA
ENDBRANCH  11  12
ENDBRANCH  10  11
ENDBRANCH   9  10
ENDBRANCH   8   9
ENDBRANCH   7   8
ENDBRANCH   6   7
ENDBRANCH   5   6
ENDBRANCH   4   5
ENDBRANCH   3   4
ENDBRANCH   2   3
ENDBRANCH   1   2
BRANCH   1  15
ATOM     15  C   UNL     1      10.314  38.976  44.456  1.00  0.00     0.000 C 
BRANCH  15  16
ATOM     16  C   UNL     1      10.123  40.346  43.780  1.00  0.00     0.000 C 
BRANCH  16  17
ATOM     17  C   UNL     1       8.720  40.497  43.154  1.00  0.00     0.000 C 
BRANCH  17  18
ATOM     18  C   UNL     1       8.740  40.995  41.700  1.00  0.00    -0.000 C 
BRANCH  18  19
ATOM     19  C   UNL     1       9.954  41.888  41.392  1.00  0.00    -0.000 C 
BRANCH  19  20
ATOM     20  C   UNL     1       9.547  43.297  40.926  1.00  0.00    -0.000 C 
BRANCH  20  21
ATOM     21  C   UNL     1       8.195  43.742  41.510  1.00  0.00    -0.000 C 
BRANCH  21  22
ATOM     22  C   UNL     1       8.338  44.389  42.896  1.00  0.00    -0.000 C 
BRANCH  22  23
ATOM     23  C   UNL     1       7.019  44.393  43.689  1.00  0.00    -0.000 C 
BRANCH  23  24
ATOM     24  C   UNL     1       6.178  43.125  43.427  1.00  0.00    -0.000 C 
BRANCH  24  25
ATOM     25  C   UNL     1       5.325  42.691  44.631  1.00  0.00    -0.003 C 
ATOM     26  C   UNL     1       6.033  41.685  45.537  1.00  0.00     0.004 C 
ENDBRANCH  24  25
ENDBRANCH  23  24
ENDBRANCH  22  23
ENDBRANCH  21  22
ENDBRANCH  20  21
ENDBRANCH  19  20
ENDBRANCH  18  19
ENDBRANCH  17  18
ENDBRANCH  16  17
ENDBRANCH  15  16
ENDBRANCH   1  15
TORSDOF 22
ENDMDL
MODEL 9
REMARK VINA RESULT:    -4.766      2.487      6.496
REMARK INTER + INTRA:         -14.459
REMARK INTER:                 -11.390
REMARK INTRA:                  -3.069
REMARK UNBOUND:                -3.563
REMARK SMILES CCCCCCCCCCCCCCCCCCCCCCCC(=O)[O-]
REMARK SMILES IDX 13 1 14 2 15 3 16 4 17 5 18 6 19 7 20 8 21 9 22 10 23 11
REMARK SMILES IDX 24 12 25 13 26 14 12 15 11 16 10 17 9 18 8 19 7 20 6 21 5 22
REMARK SMILES IDX 4 23 3 24 2 25 1 26
REMARK H PARENT
REMARK Flexibility Score: inf
ROOT
ATOM      1  C   UNL     1       6.107  42.103  44.916  1.00  0.00     0.000 C 
ENDROOT
BRANCH   1   2
ATOM      2  C   UNL     1       5.070  42.526  45.975  1.00  0.00     0.000 C 
BRANCH   2   3
ATOM      3  C   UNL     1       4.927  41.558  47.162  1.00  0.00     0.000 C 
BRANCH   3   4
ATOM      4  C   UNL     1       6.164  40.669  47.359  1.00  0.00     0.000 C 
BRANCH   4   5
ATOM      5  C   UNL     1       6.890  41.025  48.665  1.00  0.00     0.000 C 
BRANCH   5   6
ATOM      6  C   UNL     1       8.374  40.623  48.647  1.00  0.00     0.000 C 
BRANCH   6   7
ATOM      7  C   UNL     1       8.746  39.787  47.413  1.00  0.00     0.000 C 
BRANCH   7   8
ATOM      8  C   UNL     1      10.173  39.239  47.531  1.00  0.00     0.000 C 
BRANCH   8   9
ATOM      9  C   UNL     1      11.009  40.087  48.497  1.00  0.00     0.000 C 
BRANCH   9  10
ATOM     10  C   UNL     1      12.049  39.225  49.229  1.00  0.00     0.006 C 
BRANCH  10  11
ATOM     11  C   UNL     1      12.482  38.008  48.400  1.00  0.00     0.053 C 
BRANCH  11  12
ATOM     12  C   UNL     1      13.732  38.284  47.621  1.00  0.00     0.041 C 
ATOM     13  O   UNL     1      14.859  38.162  48.168  1.00  0.00    -0.550 OA
ATOM     14  O   UNL     1      13.649  38.708  46.301  1.00  0.00    -0.550 OA
ENDBRANCH  11  12
ENDBRANCH  10  11
ENDBRANCH   9  10
ENDBRANCH   8   9
ENDBRANCH   7   8
ENDBRANCH   6   7
ENDBRANCH   5   6
ENDBRANCH   4   5
ENDBRANCH   3   4
ENDBRANCH   2   3
ENDBRANCH   1   2
BRANCH   1  15
ATOM     15  C   UNL     1       6.055  42.944  43.623  1.00  0.00     0.000 C 
BRANCH  15  16
ATOM     16  C   UNL     1       6.856  44.253  43.743  1.00  0.00     0.000 C 
BRANCH  16  17
ATOM     17  C   UNL     1       7.483  44.679  42.398  1.00  0.00     0.000 C 
BRANCH  17  18
ATOM     18  C   UNL     1       7.883  43.498  41.500  1.00  0.00    -0.000 C 
BRANCH  18  19
ATOM     19  C   UNL     1       9.354  43.086  41.674  1.00  0.00    -0.000 C 
BRANCH  19  20
ATOM     20  C   UNL     1       9.567  41.571  41.507  1.00  0.00    -0.000 C 
BRANCH  20  21
ATOM     21  C   UNL     1       8.626  40.743  42.400  1.00  0.00    -0.000 C 
BRANCH  21  22
ATOM     22  C   UNL     1       9.314  40.256  43.684  1.00  0.00    -0.000 C 
BRANCH  22  23
ATOM     23  C   UNL     1      10.836  40.098  43.519  1.00  0.00    -0.000 C 
BRANCH  23  24
ATOM     24  C   UNL     1      11.624  40.980  44.512  1.00  0.00    -0.000 C 
BRANCH  24  25
ATOM     25  C   UNL     1      13.007  41.407  43.993  1.00  0.00    -0.003 C 
ATOM     26  C   UNL     1      12.976  42.722  43.216  1.00  0.00     0.004 C 
ENDBRANCH  24  25
ENDBRANCH  23  24
ENDBRANCH  22  23
ENDBRANCH  21  22
ENDBRANCH  20  21
ENDBRANCH  19  20
ENDBRANCH  18  19
ENDBRANCH  17  18
ENDBRANCH  16  17
ENDBRANCH  15  16
ENDBRANCH   1  15
TORSDOF 22
ENDMDL
