MODEL 1
REMARK VINA RESULT:    -4.704      0.000      0.000
REMARK INTER + INTRA:          -5.915
REMARK INTER:                  -5.667
REMARK INTRA:                  -0.249
REMARK UNBOUND:                -0.249
REMARK SMILES O=c1c(O)c(-c2ccc(O)c(O)c2)oc2cc(O)cc(O)c12
REMARK SMILES IDX 5 1 3 2 2 3 1 4 22 5 20 6 19 7 17 8 16 9 15 10 14 11 6 12
REMARK SMILES IDX 7 13 8 14 9 15 13 16 11 17 10 18 12 20 4 22 21 24 18 26
REMARK H PARENT 10 19 12 21 4 23 21 25 18 27
REMARK Flexibility Score: inf
ROOT
ATOM      1  C   UNL     1      93.022 102.338  98.407  1.00  0.00     0.180 A 
ATOM      2  C   UNL     1      92.126 101.606  99.209  1.00  0.00     0.208 A 
ATOM      3  C   UNL     1      91.687 100.349  98.763  1.00  0.00     0.238 A 
ATOM      4  O   UNL     1      90.876  99.689  99.468  1.00  0.00    -0.285 OA
ATOM      5  C   UNL     1      92.166  99.837  97.540  1.00  0.00     0.111 A 
ATOM      6  C   UNL     1      91.779  98.578  97.021  1.00  0.00     0.134 A 
ATOM      7  C   UNL     1      92.307  98.135  95.800  1.00  0.00     0.093 A 
ATOM      8  C   UNL     1      93.216  98.927  95.088  1.00  0.00     0.123 A 
ATOM      9  C   UNL     1      93.600 100.169  95.594  1.00  0.00     0.094 A 
ATOM     10  C   UNL     1      93.084 100.629  96.809  1.00  0.00     0.146 A 
ATOM     11  O   UNL     1      93.464 101.817  97.265  1.00  0.00    -0.452 OA
ENDROOT
BRANCH   1  12
ATOM     12  C   UNL     1      93.514 103.678  98.799  1.00  0.00     0.025 A 
ATOM     13  C   UNL     1      92.671 104.803  98.778  1.00  0.00     0.016 A 
ATOM     14  C   UNL     1      93.164 106.063  99.129  1.00  0.00     0.051 A 
ATOM     15  C   UNL     1      94.509 106.218  99.492  1.00  0.00     0.157 A 
ATOM     16  C   UNL     1      94.866 103.845  99.144  1.00  0.00     0.062 A 
ATOM     17  C   UNL     1      95.361 105.108  99.497  1.00  0.00     0.158 A 
BRANCH  15  18
ATOM     18  O   UNL     1      95.003 107.473  99.845  1.00  0.00    -0.504 OA
ATOM     19  H   UNL     1      94.436 108.144 100.347  1.00  0.00     0.293 HD
ENDBRANCH  15  18
BRANCH  17  20
ATOM     20  O   UNL     1      96.700 105.267  99.852  1.00  0.00    -0.504 OA
ATOM     21  H   UNL     1      97.026 106.099 100.329  1.00  0.00     0.293 HD
ENDBRANCH  17  20
ENDBRANCH   1  12
BRANCH   2  22
ATOM     22  O   UNL     1      91.704 102.114 100.441  1.00  0.00    -0.502 OA
ATOM     23  H   UNL     1      91.413 103.077 100.560  1.00  0.00     0.293 HD
ENDBRANCH   2  22
BRANCH   6  24
ATOM     24  O   UNL     1      90.875  97.766  97.709  1.00  0.00    -0.507 OA
ATOM     25  H   UNL     1      89.904  98.032  97.829  1.00  0.00     0.293 HD
ENDBRANCH   6  24
BRANCH   8  26
ATOM     26  O   UNL     1      93.742  98.487  93.875  1.00  0.00    -0.508 OA
ATOM     27  H   UNL     1      93.161  98.388  93.051  1.00  0.00     0.293 HD
ENDBRANCH   8  26
TORSDOF 6
ENDMDL
MODEL 2
REMARK VINA RESULT:    -3.596      1.359      1.632
REMARK INTER + INTRA:          -4.580
REMARK INTER:                  -4.885
REMARK INTRA:                   0.305
REMARK UNBOUND:                -0.249
REMARK SMILES O=c1c(O)c(-c2ccc(O)c(O)c2)oc2cc(O)cc(O)c12
REMARK SMILES IDX 5 1 3 2 2 3 1 4 22 5 20 6 19 7 17 8 16 9 15 10 14 11 6 12
REMARK SMILES IDX 7 13 8 14 9 15 13 16 11 17 10 18 12 20 4 22 21 24 18 26
REMARK H PARENT 10 19 12 21 4 23 21 25 18 27
REMARK Flexibility Score: inf
ROOT
ATOM      1  C   UNL     1      92.768 102.279  98.038  1.00  0.00     0.180 A 
ATOM      2  C   UNL     1      92.426 101.564  99.202  1.00  0.00     0.208 A 
ATOM      3  C   UNL     1      91.915 100.263  99.073  1.00  0.00     0.238 A 
ATOM      4  O   UNL     1      91.595  99.616 100.107  1.00  0.00    -0.285 OA
ATOM      5  C   UNL     1      91.775  99.693  97.790  1.00  0.00     0.111 A 
ATOM      6  C   UNL     1      91.273  98.387  97.574  1.00  0.00     0.134 A 
ATOM      7  C   UNL     1      91.172  97.888  96.266  1.00  0.00     0.093 A 
ATOM      8  C   UNL     1      91.565  98.669  95.174  1.00  0.00     0.123 A 
ATOM      9  C   UNL     1      92.059  99.957  95.382  1.00  0.00     0.094 A 
ATOM     10  C   UNL     1      92.166 100.473  96.677  1.00  0.00     0.146 A 
ATOM     11  O   UNL     1      92.636 101.704  96.846  1.00  0.00    -0.452 OA
ENDROOT
BRANCH   1  12
ATOM     12  C   UNL     1      93.294 103.663  98.091  1.00  0.00     0.025 A 
ATOM     13  C   UNL     1      94.220 104.130  97.143  1.00  0.00     0.016 A 
ATOM     14  C   UNL     1      94.721 105.432  97.227  1.00  0.00     0.051 A 
ATOM     15  C   UNL     1      94.314 106.279  98.266  1.00  0.00     0.157 A 
ATOM     16  C   UNL     1      92.906 104.510  99.142  1.00  0.00     0.062 A 
ATOM     17  C   UNL     1      93.407 105.816  99.227  1.00  0.00     0.158 A 
BRANCH  15  18
ATOM     18  O   UNL     1      94.811 107.579  98.352  1.00  0.00    -0.504 OA
ATOM     19  H   UNL     1      94.335 108.294  98.888  1.00  0.00     0.293 HD
ENDBRANCH  15  18
BRANCH  17  20
ATOM     20  O   UNL     1      93.009 106.659 100.263  1.00  0.00    -0.504 OA
ATOM     21  H   UNL     1      92.107 107.122 100.254  1.00  0.00     0.293 HD
ENDBRANCH  17  20
ENDBRANCH   1  12
BRANCH   2  22
ATOM     22  O   UNL     1      92.621 102.133 100.463  1.00  0.00    -0.502 OA
ATOM     23  H   UNL     1      93.544 102.303 100.845  1.00  0.00     0.293 HD
ENDBRANCH   2  22
BRANCH   6  24
ATOM     24  O   UNL     1      90.875  97.584  98.643  1.00  0.00    -0.507 OA
ATOM     25  H   UNL     1      91.548  97.169  99.278  1.00  0.00     0.293 HD
ENDBRANCH   6  24
BRANCH   8  26
ATOM     26  O   UNL     1      91.466  98.173  93.875  1.00  0.00    -0.508 OA
ATOM     27  H   UNL     1      91.067  98.727  93.126  1.00  0.00     0.293 HD
ENDBRANCH   8  26
TORSDOF 6
ENDMDL
MODEL 3
REMARK VINA RESULT:    -3.515      1.613      6.612
REMARK INTER + INTRA:          -4.483
REMARK INTER:                  -4.758
REMARK INTRA:                   0.275
REMARK UNBOUND:                -0.249
REMARK SMILES O=c1c(O)c(-c2ccc(O)c(O)c2)oc2cc(O)cc(O)c12
REMARK SMILES IDX 5 1 3 2 2 3 1 4 22 5 20 6 19 7 17 8 16 9 15 10 14 11 6 12
REMARK SMILES IDX 7 13 8 14 9 15 13 16 11 17 10 18 12 20 4 22 21 24 18 26
REMARK H PARENT 10 19 12 21 4 23 21 25 18 27
REMARK Flexibility Score: inf
ROOT
ATOM      1  C   UNL     1      92.457 101.893  98.331  1.00  0.00     0.180 A 
ATOM      2  C   UNL     1      91.903 102.638  99.389  1.00  0.00     0.208 A 
ATOM      3  C   UNL     1      92.381 103.936  99.628  1.00  0.00     0.238 A 
ATOM      4  O   UNL     1      91.901 104.610 100.580  1.00  0.00    -0.285 OA
ATOM      5  C   UNL     1      93.385 104.473  98.795  1.00  0.00     0.111 A 
ATOM      6  C   UNL     1      93.918 105.774  98.964  1.00  0.00     0.134 A 
ATOM      7  C   UNL     1      94.910 106.239  98.088  1.00  0.00     0.093 A 
ATOM      8  C   UNL     1      95.376 105.430  97.046  1.00  0.00     0.123 A 
ATOM      9  C   UNL     1      94.855 104.147  96.876  1.00  0.00     0.094 A 
ATOM     10  C   UNL     1      93.867 103.664  97.740  1.00  0.00     0.146 A 
ATOM     11  O   UNL     1      93.392 102.437  97.557  1.00  0.00    -0.452 OA
ENDROOT
BRANCH   1  12
ATOM     12  C   UNL     1      92.019 100.510  98.029  1.00  0.00     0.025 A 
ATOM     13  C   UNL     1      91.496  99.673  99.029  1.00  0.00     0.016 A 
ATOM     14  C   UNL     1      91.112  98.364  98.725  1.00  0.00     0.051 A 
ATOM     15  C   UNL     1      91.258  97.870  97.422  1.00  0.00     0.157 A 
ATOM     16  C   UNL     1      92.183 100.002  96.730  1.00  0.00     0.062 A 
ATOM     17  C   UNL     1      91.798  98.689  96.424  1.00  0.00     0.158 A 
BRANCH  15  18
ATOM     18  O   UNL     1      90.875  96.565  97.116  1.00  0.00    -0.504 OA
ATOM     19  H   UNL     1      91.490  95.778  97.286  1.00  0.00     0.293 HD
ENDBRANCH  15  18
BRANCH  17  20
ATOM     20  O   UNL     1      91.948  98.193  95.130  1.00  0.00    -0.504 OA
ATOM     21  H   UNL     1      91.237  98.334  94.422  1.00  0.00     0.293 HD
ENDBRANCH  17  20
ENDBRANCH   1  12
BRANCH   2  22
ATOM     22  O   UNL     1      90.875 102.101 100.169  1.00  0.00    -0.502 OA
ATOM     23  H   UNL     1      90.713 101.103 100.241  1.00  0.00     0.293 HD
ENDBRANCH   2  22
BRANCH   6  24
ATOM     24  O   UNL     1      93.471 106.605  99.993  1.00  0.00    -0.507 OA
ATOM     25  H   UNL     1      93.288 107.590  99.841  1.00  0.00     0.293 HD
ENDBRANCH   6  24
BRANCH   8  26
ATOM     26  O   UNL     1      96.361 105.892  96.175  1.00  0.00    -0.508 OA
ATOM     27  H   UNL     1      97.178 106.386  96.513  1.00  0.00     0.293 HD
ENDBRANCH   8  26
TORSDOF 6
ENDMDL
MODEL 4
REMARK VINA RESULT:    -2.334      1.520      3.189
REMARK INTER + INTRA:          -3.060
REMARK INTER:                  -3.214
REMARK INTRA:                   0.154
REMARK UNBOUND:                -0.249
REMARK SMILES O=c1c(O)c(-c2ccc(O)c(O)c2)oc2cc(O)cc(O)c12
REMARK SMILES IDX 5 1 3 2 2 3 1 4 22 5 20 6 19 7 17 8 16 9 15 10 14 11 6 12
REMARK SMILES IDX 7 13 8 14 9 15 13 16 11 17 10 18 12 20 4 22 21 24 18 26
REMARK H PARENT 10 19 12 21 4 23 21 25 18 27
REMARK Flexibility Score: inf
ROOT
ATOM      1  C   UNL     1      93.122 102.588  97.623  1.00  0.00     0.180 A 
ATOM      2  C   UNL     1      93.378 102.212  96.290  1.00  0.00     0.208 A 
ATOM      3  C   UNL     1      93.095 100.896  95.890  1.00  0.00     0.238 A 
ATOM      4  O   UNL     1      93.330 100.544  94.702  1.00  0.00    -0.285 OA
ATOM      5  C   UNL     1      92.543  99.989  96.819  1.00  0.00     0.111 A 
ATOM      6  C   UNL     1      92.224  98.648  96.495  1.00  0.00     0.134 A 
ATOM      7  C   UNL     1      91.670  97.809  97.474  1.00  0.00     0.093 A 
ATOM      8  C   UNL     1      91.427  98.286  98.766  1.00  0.00     0.123 A 
ATOM      9  C   UNL     1      91.740  99.607  99.090  1.00  0.00     0.094 A 
ATOM     10  C   UNL     1      92.295 100.458  98.130  1.00  0.00     0.146 A 
ATOM     11  O   UNL     1      92.587 101.709  98.467  1.00  0.00    -0.452 OA
ENDROOT
BRANCH   1  12
ATOM     12  C   UNL     1      93.412 103.951  98.125  1.00  0.00     0.025 A 
ATOM     13  C   UNL     1      94.540 104.667  97.690  1.00  0.00     0.016 A 
ATOM     14  C   UNL     1      94.807 105.942  98.196  1.00  0.00     0.051 A 
ATOM     15  C   UNL     1      93.958 106.513  99.154  1.00  0.00     0.157 A 
ATOM     16  C   UNL     1      92.576 104.520  99.100  1.00  0.00     0.062 A 
ATOM     17  C   UNL     1      92.842 105.799  99.609  1.00  0.00     0.158 A 
BRANCH  15  18
ATOM     18  O   UNL     1      94.220 107.785  99.660  1.00  0.00    -0.504 OA
ATOM     19  H   UNL     1      94.249 108.599  99.058  1.00  0.00     0.293 HD
ENDBRANCH  15  18
BRANCH  17  20
ATOM     20  O   UNL     1      92.003 106.367 100.566  1.00  0.00    -0.504 OA
ATOM     21  H   UNL     1      92.111 107.331 100.861  1.00  0.00     0.293 HD
ENDBRANCH  17  20
ENDBRANCH   1  12
BRANCH   2  22
ATOM     22  O   UNL     1      93.878 103.144  95.377  1.00  0.00    -0.502 OA
ATOM     23  H   UNL     1      93.278 103.787  94.875  1.00  0.00     0.293 HD
ENDBRANCH   2  22
BRANCH   6  24
ATOM     24  O   UNL     1      92.454  98.144  95.214  1.00  0.00    -0.507 OA
ATOM     25  H   UNL     1      93.370  97.822  94.925  1.00  0.00     0.293 HD
ENDBRANCH   6  24
BRANCH   8  26
ATOM     26  O   UNL     1      90.876  97.453  99.738  1.00  0.00    -0.508 OA
ATOM     27  H   UNL     1      90.588  97.811 100.641  1.00  0.00     0.293 HD
ENDBRANCH   8  26
TORSDOF 6
ENDMDL
