MODEL 1
REMARK VINA RESULT:    -1.745      0.000      0.000
REMARK INTER + INTRA:          -5.826
REMARK INTER:                  -3.173
REMARK INTRA:                  -2.653
REMARK UNBOUND:                -2.653
REMARK SMILES CCCCCCCCCCCCCCCC(=O)[O-]
REMARK SMILES IDX 9 1 10 2 11 3 12 4 13 5 14 6 15 7 16 8 17 9 18 10 8 11 7 12
REMARK SMILES IDX 6 13 5 14 4 15 3 16 2 17 1 18
REMARK H PARENT
REMARK Flexibility Score: inf
ROOT
ATOM      1  C   UNL     1      41.838  51.055  19.776  1.00  0.00     0.000 C 
ENDROOT
BRANCH   1   2
ATOM      2  C   UNL     1      40.610  51.015  20.705  1.00  0.00     0.000 C 
BRANCH   2   3
ATOM      3  C   UNL     1      39.363  50.331  20.111  1.00  0.00     0.000 C 
BRANCH   3   4
ATOM      4  C   UNL     1      38.202  51.279  19.760  1.00  0.00     0.000 C 
BRANCH   4   5
ATOM      5  C   UNL     1      38.224  52.579  20.577  1.00  0.00     0.000 C 
BRANCH   5   6
ATOM      6  C   UNL     1      36.894  52.786  21.315  1.00  0.00     0.006 C 
BRANCH   6   7
ATOM      7  C   UNL     1      37.086  52.931  22.831  1.00  0.00     0.053 C 
BRANCH   7   8
ATOM      8  C   UNL     1      37.751  51.727  23.425  1.00  0.00     0.041 C 
ATOM      9  O   UNL     1      38.864  51.839  24.002  1.00  0.00    -0.550 OA
ATOM     10  O   UNL     1      37.125  50.488  23.372  1.00  0.00    -0.550 OA
ENDBRANCH   7   8
ENDBRANCH   6   7
ENDBRANCH   5   6
ENDBRANCH   4   5
ENDBRANCH   3   4
ENDBRANCH   2   3
ENDBRANCH   1   2
BRANCH   1  11
ATOM     11  C   UNL     1      42.514  52.433  19.738  1.00  0.00     0.000 C 
BRANCH  11  12
ATOM     12  C   UNL     1      42.189  53.168  18.432  1.00  0.00    -0.000 C 
BRANCH  12  13
ATOM     13  C   UNL     1      41.002  54.125  18.620  1.00  0.00    -0.000 C 
BRANCH  13  14
ATOM     14  C   UNL     1      39.878  53.881  17.601  1.00  0.00    -0.000 C 
BRANCH  14  15
ATOM     15  C   UNL     1      40.227  52.774  16.589  1.00  0.00    -0.000 C 
BRANCH  15  16
ATOM     16  C   UNL     1      39.012  51.912  16.215  1.00  0.00    -0.000 C 
BRANCH  16  17
ATOM     17  C   UNL     1      39.304  50.407  16.311  1.00  0.00    -0.003 C 
ATOM     18  C   UNL     1      40.798  50.149  16.483  1.00  0.00     0.004 C 
ENDBRANCH  16  17
ENDBRANCH  15  16
ENDBRANCH  14  15
ENDBRANCH  13  14
ENDBRANCH  12  13
ENDBRANCH  11  12
ENDBRANCH   1  11
TORSDOF 14
ENDMDL
MODEL 2
REMARK VINA RESULT:    -1.671     14.683     16.352
REMARK INTER + INTRA:          -5.692
REMARK INTER:                  -3.464
REMARK INTRA:                  -2.228
REMARK UNBOUND:                -2.653
REMARK SMILES CCCCCCCCCCCCCCCC(=O)[O-]
REMARK SMILES IDX 9 1 10 2 11 3 12 4 13 5 14 6 15 7 16 8 17 9 18 10 8 11 7 12
REMARK SMILES IDX 6 13 5 14 4 15 3 16 2 17 1 18
REMARK H PARENT
REMARK Flexibility Score: inf
ROOT
ATOM      1  C   UNL     1      37.777  35.063  21.553  1.00  0.00     0.000 C 
ENDROOT
BRANCH   1   2
ATOM      2  C   UNL     1      37.628  34.748  23.053  1.00  0.00     0.000 C 
BRANCH   2   3
ATOM      3  C   UNL     1      38.866  34.110  23.713  1.00  0.00     0.000 C 
BRANCH   3   4
ATOM      4  C   UNL     1      40.208  34.788  23.379  1.00  0.00     0.000 C 
BRANCH   4   5
ATOM      5  C   UNL     1      40.531  35.963  24.312  1.00  0.00     0.000 C 
BRANCH   5   6
ATOM      6  C   UNL     1      40.037  37.290  23.716  1.00  0.00     0.006 C 
BRANCH   6   7
ATOM      7  C   UNL     1      39.537  38.261  24.794  1.00  0.00     0.053 C 
BRANCH   7   8
ATOM      8  C   UNL     1      38.054  38.460  24.718  1.00  0.00     0.041 C 
ATOM      9  O   UNL     1      37.533  38.947  23.681  1.00  0.00    -0.550 OA
ATOM     10  O   UNL     1      37.244  38.076  25.779  1.00  0.00    -0.550 OA
ENDBRANCH   7   8
ENDBRANCH   6   7
ENDBRANCH   5   6
ENDBRANCH   4   5
ENDBRANCH   3   4
ENDBRANCH   2   3
ENDBRANCH   1   2
BRANCH   1  11
ATOM     11  C   UNL     1      37.352  36.496  21.199  1.00  0.00     0.000 C 
BRANCH  11  12
ATOM     12  C   UNL     1      37.091  36.636  19.695  1.00  0.00    -0.000 C 
BRANCH  12  13
ATOM     13  C   UNL     1      36.875  35.261  19.044  1.00  0.00    -0.000 C 
BRANCH  13  14
ATOM     14  C   UNL     1      37.728  35.064  17.782  1.00  0.00    -0.000 C 
BRANCH  14  15
ATOM     15  C   UNL     1      39.214  35.392  18.014  1.00  0.00    -0.000 C 
BRANCH  15  16
ATOM     16  C   UNL     1      39.992  34.211  18.615  1.00  0.00    -0.000 C 
BRANCH  16  17
ATOM     17  C   UNL     1      40.939  34.642  19.745  1.00  0.00    -0.003 C 
ATOM     18  C   UNL     1      40.922  36.157  19.927  1.00  0.00     0.004 C 
ENDBRANCH  16  17
ENDBRANCH  15  16
ENDBRANCH  14  15
ENDBRANCH  13  14
ENDBRANCH  12  13
ENDBRANCH  11  12
ENDBRANCH   1  11
TORSDOF 14
ENDMDL
MODEL 3
REMARK VINA RESULT:    -1.628      3.294      5.567
REMARK INTER + INTRA:          -5.613
REMARK INTER:                  -3.099
REMARK INTRA:                  -2.514
REMARK UNBOUND:                -2.653
REMARK SMILES CCCCCCCCCCCCCCCC(=O)[O-]
REMARK SMILES IDX 9 1 10 2 11 3 12 4 13 5 14 6 15 7 16 8 17 9 18 10 8 11 7 12
REMARK SMILES IDX 6 13 5 14 4 15 3 16 2 17 1 18
REMARK H PARENT
REMARK Flexibility Score: inf
ROOT
ATOM      1  C   UNL     1      40.841  53.722  22.133  1.00  0.00     0.000 C 
ENDROOT
BRANCH   1   2
ATOM      2  C   UNL     1      41.749  52.580  21.642  1.00  0.00     0.000 C 
BRANCH   2   3
ATOM      3  C   UNL     1      42.106  52.627  20.143  1.00  0.00     0.000 C 
BRANCH   3   4
ATOM      4  C   UNL     1      41.788  53.957  19.436  1.00  0.00     0.000 C 
BRANCH   4   5
ATOM      5  C   UNL     1      41.276  53.763  18.002  1.00  0.00     0.000 C 
BRANCH   5   6
ATOM      6  C   UNL     1      39.787  53.389  17.996  1.00  0.00     0.006 C 
BRANCH   6   7
ATOM      7  C   UNL     1      39.529  52.040  17.312  1.00  0.00     0.053 C 
BRANCH   7   8
ATOM      8  C   UNL     1      39.417  52.181  15.825  1.00  0.00     0.041 C 
ATOM      9  O   UNL     1      38.298  52.403  15.293  1.00  0.00    -0.550 OA
ATOM     10  O   UNL     1      40.554  52.103  15.030  1.00  0.00    -0.550 OA
ENDBRANCH   7   8
ENDBRANCH   6   7
ENDBRANCH   5   6
ENDBRANCH   4   5
ENDBRANCH   3   4
ENDBRANCH   2   3
ENDBRANCH   1   2
BRANCH   1  11
ATOM     11  C   UNL     1      39.440  53.240  22.537  1.00  0.00     0.000 C 
BRANCH  11  12
ATOM     12  C   UNL     1      38.463  53.344  21.360  1.00  0.00    -0.000 C 
BRANCH  12  13
ATOM     13  C   UNL     1      37.352  52.290  21.473  1.00  0.00    -0.000 C 
BRANCH  13  14
ATOM     14  C   UNL     1      37.354  51.299  20.299  1.00  0.00    -0.000 C 
BRANCH  14  15
ATOM     15  C   UNL     1      37.959  49.934  20.677  1.00  0.00    -0.000 C 
BRANCH  15  16
ATOM     16  C   UNL     1      39.471  49.865  20.411  1.00  0.00    -0.000 C 
BRANCH  16  17
ATOM     17  C   UNL     1      40.255  49.313  21.611  1.00  0.00    -0.003 C 
ATOM     18  C   UNL     1      39.470  49.487  22.907  1.00  0.00     0.004 C 
ENDBRANCH  16  17
ENDBRANCH  15  16
ENDBRANCH  14  15
ENDBRANCH  13  14
ENDBRANCH  12  13
ENDBRANCH  11  12
ENDBRANCH   1  11
TORSDOF 14
ENDMDL
MODEL 4
REMARK VINA RESULT:    -1.619     14.382     16.943
REMARK INTER + INTRA:          -5.596
REMARK INTER:                  -3.137
REMARK INTRA:                  -2.459
REMARK UNBOUND:                -2.653
REMARK SMILES CCCCCCCCCCCCCCCC(=O)[O-]
REMARK SMILES IDX 9 1 10 2 11 3 12 4 13 5 14 6 15 7 16 8 17 9 18 10 8 11 7 12
REMARK SMILES IDX 6 13 5 14 4 15 3 16 2 17 1 18
REMARK H PARENT
REMARK Flexibility Score: inf
ROOT
ATOM      1  C   UNL     1      52.377  51.142  14.747  1.00  0.00     0.000 C 
ENDROOT
BRANCH   1   2
ATOM      2  C   UNL     1      53.790  51.253  14.148  1.00  0.00     0.000 C 
BRANCH   2   3
ATOM      3  C   UNL     1      54.941  50.946  15.127  1.00  0.00     0.000 C 
BRANCH   3   4
ATOM      4  C   UNL     1      56.107  51.952  15.101  1.00  0.00     0.000 C 
BRANCH   4   5
ATOM      5  C   UNL     1      55.657  53.379  14.761  1.00  0.00     0.000 C 
BRANCH   5   6
ATOM      6  C   UNL     1      56.492  53.960  13.611  1.00  0.00     0.006 C 
BRANCH   6   7
ATOM      7  C   UNL     1      55.706  54.023  12.295  1.00  0.00     0.053 C 
BRANCH   7   8
ATOM      8  C   UNL     1      55.899  52.785  11.472  1.00  0.00     0.041 C 
ATOM      9  O   UNL     1      54.962  52.352  10.751  1.00  0.00    -0.550 OA
ATOM     10  O   UNL     1      57.125  52.131  11.475  1.00  0.00    -0.550 OA
ENDBRANCH   7   8
ENDBRANCH   6   7
ENDBRANCH   5   6
ENDBRANCH   4   5
ENDBRANCH   3   4
ENDBRANCH   2   3
ENDBRANCH   1   2
BRANCH   1  11
ATOM     11  C   UNL     1      52.253  51.824  16.117  1.00  0.00     0.000 C 
BRANCH  11  12
ATOM     12  C   UNL     1      52.135  53.345  15.964  1.00  0.00    -0.000 C 
BRANCH  12  13
ATOM     13  C   UNL     1      52.910  54.071  17.073  1.00  0.00    -0.000 C 
BRANCH  13  14
ATOM     14  C   UNL     1      53.341  53.129  18.208  1.00  0.00    -0.000 C 
BRANCH  14  15
ATOM     15  C   UNL     1      54.863  53.143  18.442  1.00  0.00    -0.000 C 
BRANCH  15  16
ATOM     16  C   UNL     1      55.321  52.037  19.405  1.00  0.00    -0.000 C 
BRANCH  16  17
ATOM     17  C   UNL     1      55.781  50.769  18.670  1.00  0.00    -0.003 C 
ATOM     18  C   UNL     1      54.679  49.714  18.655  1.00  0.00     0.004 C 
ENDBRANCH  16  17
ENDBRANCH  15  16
ENDBRANCH  14  15
ENDBRANCH  13  14
ENDBRANCH  12  13
ENDBRANCH  11  12
ENDBRANCH   1  11
TORSDOF 14
ENDMDL
MODEL 5
REMARK VINA RESULT:    -1.595     14.465     16.494
REMARK INTER + INTRA:          -5.552
REMARK INTER:                  -3.616
REMARK INTRA:                  -1.936
REMARK UNBOUND:                -2.653
REMARK SMILES CCCCCCCCCCCCCCCC(=O)[O-]
REMARK SMILES IDX 9 1 10 2 11 3 12 4 13 5 14 6 15 7 16 8 17 9 18 10 8 11 7 12
REMARK SMILES IDX 6 13 5 14 4 15 3 16 2 17 1 18
REMARK H PARENT
REMARK Flexibility Score: inf
ROOT
ATOM      1  C   UNL     1      54.667  51.287  15.027  1.00  0.00     0.000 C 
ENDROOT
BRANCH   1   2
ATOM      2  C   UNL     1      53.574  52.361  14.891  1.00  0.00     0.000 C 
BRANCH   2   3
ATOM      3  C   UNL     1      52.755  52.627  16.171  1.00  0.00     0.000 C 
BRANCH   3   4
ATOM      4  C   UNL     1      52.869  54.055  16.735  1.00  0.00     0.000 C 
BRANCH   4   5
ATOM      5  C   UNL     1      53.669  54.118  18.044  1.00  0.00     0.000 C 
BRANCH   5   6
ATOM      6  C   UNL     1      54.342  52.770  18.341  1.00  0.00     0.006 C 
BRANCH   6   7
ATOM      7  C   UNL     1      55.847  52.916  18.604  1.00  0.00     0.053 C 
BRANCH   7   8
ATOM      8  C   UNL     1      56.433  51.668  19.189  1.00  0.00     0.041 C 
ATOM      9  O   UNL     1      56.995  51.700  20.315  1.00  0.00    -0.550 OA
ATOM     10  O   UNL     1      56.329  50.463  18.506  1.00  0.00    -0.550 OA
ENDBRANCH   7   8
ENDBRANCH   6   7
ENDBRANCH   5   6
ENDBRANCH   4   5
ENDBRANCH   3   4
ENDBRANCH   2   3
ENDBRANCH   1   2
BRANCH   1  11
ATOM     11  C   UNL     1      56.085  51.853  14.860  1.00  0.00     0.000 C 
BRANCH  11  12
ATOM     12  C   UNL     1      56.078  53.384  14.945  1.00  0.00    -0.000 C 
BRANCH  12  13
ATOM     13  C   UNL     1      57.059  53.995  13.934  1.00  0.00    -0.000 C 
BRANCH  13  14
ATOM     14  C   UNL     1      57.123  53.204  12.618  1.00  0.00    -0.000 C 
BRANCH  14  15
ATOM     15  C   UNL     1      56.293  53.854  11.496  1.00  0.00    -0.000 C 
BRANCH  15  16
ATOM     16  C   UNL     1      55.300  52.873  10.854  1.00  0.00    -0.000 C 
BRANCH  16  17
ATOM     17  C   UNL     1      53.870  53.049  11.386  1.00  0.00    -0.003 C 
ATOM     18  C   UNL     1      53.121  54.125  10.606  1.00  0.00     0.004 C 
ENDBRANCH  16  17
ENDBRANCH  15  16
ENDBRANCH  14  15
ENDBRANCH  13  14
ENDBRANCH  12  13
ENDBRANCH  11  12
ENDBRANCH   1  11
TORSDOF 14
ENDMDL
MODEL 6
REMARK VINA RESULT:    -1.570     14.492     17.276
REMARK INTER + INTRA:          -5.508
REMARK INTER:                  -3.459
REMARK INTRA:                  -2.049
REMARK UNBOUND:                -2.653
REMARK SMILES CCCCCCCCCCCCCCCC(=O)[O-]
REMARK SMILES IDX 9 1 10 2 11 3 12 4 13 5 14 6 15 7 16 8 17 9 18 10 8 11 7 12
REMARK SMILES IDX 6 13 5 14 4 15 3 16 2 17 1 18
REMARK H PARENT
REMARK Flexibility Score: inf
ROOT
ATOM      1  C   UNL     1      52.442  50.785  17.288  1.00  0.00     0.000 C 
ENDROOT
BRANCH   1   2
ATOM      2  C   UNL     1      53.092  50.028  16.116  1.00  0.00     0.000 C 
BRANCH   2   3
ATOM      3  C   UNL     1      54.094  50.851  15.281  1.00  0.00     0.000 C 
BRANCH   3   4
ATOM      4  C   UNL     1      53.509  52.107  14.609  1.00  0.00     0.000 C 
BRANCH   4   5
ATOM      5  C   UNL     1      54.223  53.398  15.034  1.00  0.00     0.000 C 
BRANCH   5   6
ATOM      6  C   UNL     1      55.744  53.264  14.869  1.00  0.00     0.006 C 
BRANCH   6   7
ATOM      7  C   UNL     1      56.240  53.862  13.546  1.00  0.00     0.053 C 
BRANCH   7   8
ATOM      8  C   UNL     1      56.715  52.802  12.600  1.00  0.00     0.041 C 
ATOM      9  O   UNL     1      56.811  51.607  12.985  1.00  0.00    -0.550 OA
ATOM     10  O   UNL     1      57.018  53.128  11.284  1.00  0.00    -0.550 OA
ENDBRANCH   7   8
ENDBRANCH   6   7
ENDBRANCH   5   6
ENDBRANCH   4   5
ENDBRANCH   3   4
ENDBRANCH   2   3
ENDBRANCH   1   2
BRANCH   1  11
ATOM     11  C   UNL     1      53.432  51.099  18.418  1.00  0.00     0.000 C 
BRANCH  11  12
ATOM     12  C   UNL     1      53.484  52.605  18.700  1.00  0.00    -0.000 C 
BRANCH  12  13
ATOM     13  C   UNL     1      54.913  53.146  18.542  1.00  0.00    -0.000 C 
BRANCH  13  14
ATOM     14  C   UNL     1      55.951  52.028  18.355  1.00  0.00    -0.000 C 
BRANCH  14  15
ATOM     15  C   UNL     1      57.030  52.034  19.453  1.00  0.00    -0.000 C 
BRANCH  15  16
ATOM     16  C   UNL     1      57.081  53.362  20.224  1.00  0.00    -0.000 C 
BRANCH  16  17
ATOM     17  C   UNL     1      56.742  53.193  21.713  1.00  0.00    -0.003 C 
ATOM     18  C   UNL     1      56.516  51.724  22.061  1.00  0.00     0.004 C 
ENDBRANCH  16  17
ENDBRANCH  15  16
ENDBRANCH  14  15
ENDBRANCH  13  14
ENDBRANCH  12  13
ENDBRANCH  11  12
ENDBRANCH   1  11
TORSDOF 14
ENDMDL
MODEL 7
REMARK VINA RESULT:    -1.541     14.977     16.598
REMARK INTER + INTRA:          -5.455
REMARK INTER:                  -3.227
REMARK INTRA:                  -2.227
REMARK UNBOUND:                -2.653
REMARK SMILES CCCCCCCCCCCCCCCC(=O)[O-]
REMARK SMILES IDX 9 1 10 2 11 3 12 4 13 5 14 6 15 7 16 8 17 9 18 10 8 11 7 12
REMARK SMILES IDX 6 13 5 14 4 15 3 16 2 17 1 18
REMARK H PARENT
REMARK Flexibility Score: inf
ROOT
ATOM      1  C   UNL     1      41.129  37.036  18.560  1.00  0.00     0.000 C 
ENDROOT
BRANCH   1   2
ATOM      2  C   UNL     1      41.707  37.278  19.966  1.00  0.00     0.000 C 
BRANCH   2   3
ATOM      3  C   UNL     1      40.795  36.843  21.132  1.00  0.00     0.000 C 
BRANCH   3   4
ATOM      4  C   UNL     1      41.167  35.499  21.785  1.00  0.00     0.000 C 
BRANCH   4   5
ATOM      5  C   UNL     1      40.117  34.407  21.542  1.00  0.00     0.000 C 
BRANCH   5   6
ATOM      6  C   UNL     1      39.534  33.899  22.869  1.00  0.00     0.006 C 
BRANCH   6   7
ATOM      7  C   UNL     1      38.075  34.330  23.067  1.00  0.00     0.053 C 
BRANCH   7   8
ATOM      8  C   UNL     1      37.973  35.620  23.821  1.00  0.00     0.041 C 
ATOM      9  O   UNL     1      38.679  35.811  24.846  1.00  0.00    -0.550 OA
ATOM     10  O   UNL     1      37.124  36.624  23.373  1.00  0.00    -0.550 OA
ENDBRANCH   7   8
ENDBRANCH   6   7
ENDBRANCH   5   6
ENDBRANCH   4   5
ENDBRANCH   3   4
ENDBRANCH   2   3
ENDBRANCH   1   2
BRANCH   1  11
ATOM     11  C   UNL     1      41.375  35.609  18.051  1.00  0.00     0.000 C 
BRANCH  11  12
ATOM     12  C   UNL     1      40.825  35.430  16.631  1.00  0.00    -0.000 C 
BRANCH  12  13
ATOM     13  C   UNL     1      39.536  34.594  16.641  1.00  0.00    -0.000 C 
BRANCH  13  14
ATOM     14  C   UNL     1      38.297  35.414  16.250  1.00  0.00    -0.000 C 
BRANCH  14  15
ATOM     15  C   UNL     1      37.193  35.366  17.322  1.00  0.00    -0.000 C 
BRANCH  15  16
ATOM     16  C   UNL     1      37.735  34.991  18.710  1.00  0.00    -0.000 C 
BRANCH  16  17
ATOM     17  C   UNL     1      37.070  35.793  19.839  1.00  0.00    -0.003 C 
ATOM     18  C   UNL     1      37.481  37.261  19.786  1.00  0.00     0.004 C 
ENDBRANCH  16  17
ENDBRANCH  15  16
ENDBRANCH  14  15
ENDBRANCH  13  14
ENDBRANCH  12  13
ENDBRANCH  11  12
ENDBRANCH   1  11
TORSDOF 14
ENDMDL
MODEL 8
REMARK VINA RESULT:    -1.527     14.924     17.002
REMARK INTER + INTRA:          -5.429
REMARK INTER:                  -2.896
REMARK INTRA:                  -2.533
REMARK UNBOUND:                -2.653
REMARK SMILES CCCCCCCCCCCCCCCC(=O)[O-]
REMARK SMILES IDX 9 1 10 2 11 3 12 4 13 5 14 6 15 7 16 8 17 9 18 10 8 11 7 12
REMARK SMILES IDX 6 13 5 14 4 15 3 16 2 17 1 18
REMARK H PARENT
REMARK Flexibility Score: inf
ROOT
ATOM      1  C   UNL     1      40.077  38.369  19.921  1.00  0.00     0.000 C 
ENDROOT
BRANCH   1   2
ATOM      2  C   UNL     1      38.710  38.684  19.285  1.00  0.00     0.000 C 
BRANCH   2   3
ATOM      3  C   UNL     1      37.536  37.828  19.801  1.00  0.00     0.000 C 
BRANCH   3   4
ATOM      4  C   UNL     1      36.876  36.921  18.747  1.00  0.00     0.000 C 
BRANCH   4   5
ATOM      5  C   UNL     1      36.990  35.429  19.088  1.00  0.00     0.000 C 
BRANCH   5   6
ATOM      6  C   UNL     1      37.927  34.711  18.105  1.00  0.00     0.006 C 
BRANCH   6   7
ATOM      7  C   UNL     1      38.499  35.663  17.047  1.00  0.00     0.053 C 
BRANCH   7   8
ATOM      8  C   UNL     1      39.950  35.398  16.786  1.00  0.00     0.041 C 
ATOM      9  O   UNL     1      40.354  34.221  16.598  1.00  0.00    -0.550 OA
ATOM     10  O   UNL     1      40.850  36.454  16.716  1.00  0.00    -0.550 OA
ENDBRANCH   7   8
ENDBRANCH   6   7
ENDBRANCH   5   6
ENDBRANCH   4   5
ENDBRANCH   3   4
ENDBRANCH   2   3
ENDBRANCH   1   2
BRANCH   1  11
ATOM     11  C   UNL     1      40.102  37.013  20.640  1.00  0.00     0.000 C 
BRANCH  11  12
ATOM     12  C   UNL     1      41.329  36.193  20.221  1.00  0.00    -0.000 C 
BRANCH  12  13
ATOM     13  C   UNL     1      41.179  34.724  20.644  1.00  0.00    -0.000 C 
BRANCH  13  14
ATOM     14  C   UNL     1      39.804  34.423  21.259  1.00  0.00    -0.000 C 
BRANCH  14  15
ATOM     15  C   UNL     1      39.904  33.878  22.695  1.00  0.00    -0.000 C 
BRANCH  15  16
ATOM     16  C   UNL     1      38.629  34.134  23.514  1.00  0.00    -0.000 C 
BRANCH  16  17
ATOM     17  C   UNL     1      37.570  34.919  22.725  1.00  0.00    -0.003 C 
ATOM     18  C   UNL     1      37.419  36.337  23.269  1.00  0.00     0.004 C 
ENDBRANCH  16  17
ENDBRANCH  15  16
ENDBRANCH  14  15
ENDBRANCH  13  14
ENDBRANCH  12  13
ENDBRANCH  11  12
ENDBRANCH   1  11
TORSDOF 14
ENDMDL
MODEL 9
REMARK VINA RESULT:    -1.505     15.112     16.679
REMARK INTER + INTRA:          -5.390
REMARK INTER:                  -3.308
REMARK INTRA:                  -2.081
REMARK UNBOUND:                -2.653
REMARK SMILES CCCCCCCCCCCCCCCC(=O)[O-]
REMARK SMILES IDX 9 1 10 2 11 3 12 4 13 5 14 6 15 7 16 8 17 9 18 10 8 11 7 12
REMARK SMILES IDX 6 13 5 14 4 15 3 16 2 17 1 18
REMARK H PARENT
REMARK Flexibility Score: inf
ROOT
ATOM      1  C   UNL     1      41.332  36.734  20.232  1.00  0.00     0.000 C 
ENDROOT
BRANCH   1   2
ATOM      2  C   UNL     1      40.050  37.399  20.762  1.00  0.00     0.000 C 
BRANCH   2   3
ATOM      3  C   UNL     1      39.267  36.575  21.804  1.00  0.00     0.000 C 
BRANCH   3   4
ATOM      4  C   UNL     1      37.864  36.123  21.360  1.00  0.00     0.000 C 
BRANCH   4   5
ATOM      5  C   UNL     1      37.292  35.002  22.239  1.00  0.00     0.000 C 
BRANCH   5   6
ATOM      6  C   UNL     1      38.174  34.769  23.475  1.00  0.00     0.006 C 
BRANCH   6   7
ATOM      7  C   UNL     1      37.346  34.560  24.750  1.00  0.00     0.053 C 
BRANCH   7   8
ATOM      8  C   UNL     1      37.432  35.740  25.669  1.00  0.00     0.041 C 
ATOM      9  O   UNL     1      37.196  35.603  26.898  1.00  0.00    -0.550 OA
ATOM     10  O   UNL     1      37.806  36.983  25.174  1.00  0.00    -0.550 OA
ENDBRANCH   7   8
ENDBRANCH   6   7
ENDBRANCH   5   6
ENDBRANCH   4   5
ENDBRANCH   3   4
ENDBRANCH   2   3
ENDBRANCH   1   2
BRANCH   1  11
ATOM     11  C   UNL     1      41.681  35.435  20.973  1.00  0.00     0.000 C 
BRANCH  11  12
ATOM     12  C   UNL     1      41.726  34.246  20.006  1.00  0.00    -0.000 C 
BRANCH  12  13
ATOM     13  C   UNL     1      40.389  34.088  19.266  1.00  0.00    -0.000 C 
BRANCH  13  14
ATOM     14  C   UNL     1      40.563  33.999  17.742  1.00  0.00    -0.000 C 
BRANCH  14  15
ATOM     15  C   UNL     1      39.385  34.627  16.974  1.00  0.00    -0.000 C 
BRANCH  15  16
ATOM     16  C   UNL     1      39.068  36.054  17.444  1.00  0.00    -0.000 C 
BRANCH  16  17
ATOM     17  C   UNL     1      37.565  36.283  17.663  1.00  0.00    -0.003 C 
ATOM     18  C   UNL     1      36.875  34.999  18.114  1.00  0.00     0.004 C 
ENDBRANCH  16  17
ENDBRANCH  15  16
ENDBRANCH  14  15
ENDBRANCH  13  14
ENDBRANCH  12  13
ENDBRANCH  11  12
ENDBRANCH   1  11
TORSDOF 14
ENDMDL
