MODEL 1
REMARK VINA RESULT:    -4.398      0.000      0.000
REMARK INTER + INTRA:         -11.354
REMARK INTER:                  -9.540
REMARK INTRA:                  -1.814
REMARK UNBOUND:                -1.814
REMARK SMILES CCCCCCCCCCCCCCCCCCCCCC(=O)[O-]
REMARK SMILES IDX 12 1 11 2 10 3 9 4 8 5 7 6 6 7 5 8 4 9 3 10 2 11 1 12 13 13
REMARK SMILES IDX 14 14 15 15 16 16 17 17 18 18 19 19 20 20 21 21 22 22 23 23
REMARK SMILES IDX 24 24
REMARK H PARENT
REMARK Flexibility Score: inf
ROOT
ATOM      1  C   UNL     1     131.179 137.032 130.422  1.00  0.00     0.000 C 
ENDROOT
BRANCH   1   2
ATOM      2  C   UNL     1     131.326 137.978 131.624  1.00  0.00     0.000 C 
BRANCH   2   3
ATOM      3  C   UNL     1     132.728 137.932 132.260  1.00  0.00     0.000 C 
BRANCH   3   4
ATOM      4  C   UNL     1     133.324 136.523 132.428  1.00  0.00    -0.000 C 
BRANCH   4   5
ATOM      5  C   UNL     1     132.805 135.795 133.677  1.00  0.00    -0.000 C 
BRANCH   5   6
ATOM      6  C   UNL     1     133.510 134.442 133.857  1.00  0.00    -0.000 C 
BRANCH   6   7
ATOM      7  C   UNL     1     132.711 133.276 133.254  1.00  0.00    -0.000 C 
BRANCH   7   8
ATOM      8  C   UNL     1     131.210 133.353 133.588  1.00  0.00    -0.000 C 
BRANCH   8   9
ATOM      9  C   UNL     1     130.853 132.621 134.890  1.00  0.00    -0.000 C 
BRANCH   9  10
ATOM     10  C   UNL     1     129.613 131.722 134.740  1.00  0.00    -0.000 C 
BRANCH  10  11
ATOM     11  C   UNL     1     129.119 131.172 136.088  1.00  0.00    -0.003 C 
ATOM     12  C   UNL     1     127.748 130.503 135.989  1.00  0.00     0.004 C 
ENDBRANCH  10  11
ENDBRANCH   9  10
ENDBRANCH   8   9
ENDBRANCH   7   8
ENDBRANCH   6   7
ENDBRANCH   5   6
ENDBRANCH   4   5
ENDBRANCH   3   4
ENDBRANCH   2   3
ENDBRANCH   1   2
BRANCH   1  13
ATOM     13  C   UNL     1     129.843 136.278 130.478  1.00  0.00     0.000 C 
BRANCH  13  14
ATOM     14  C   UNL     1     130.027 134.752 130.509  1.00  0.00     0.000 C 
BRANCH  14  15
ATOM     15  C   UNL     1     131.319 134.299 129.809  1.00  0.00     0.000 C 
BRANCH  15  16
ATOM     16  C   UNL     1     131.059 133.649 128.438  1.00  0.00     0.000 C 
BRANCH  16  17
ATOM     17  C   UNL     1     130.210 132.363 128.516  1.00  0.00     0.000 C 
BRANCH  17  18
ATOM     18  C   UNL     1     128.833 132.534 127.852  1.00  0.00     0.000 C 
BRANCH  18  19
ATOM     19  C   UNL     1     128.411 131.301 127.038  1.00  0.00     0.000 C 
BRANCH  19  20
ATOM     20  C   UNL     1     129.313 131.060 125.816  1.00  0.00     0.006 C 
BRANCH  20  21
ATOM     21  C   UNL     1     128.503 130.817 124.536  1.00  0.00     0.053 C 
BRANCH  21  22
ATOM     22  C   UNL     1     129.364 130.300 123.424  1.00  0.00     0.041 C 
ATOM     23  O   UNL     1     128.875 129.543 122.545  1.00  0.00    -0.550 OA
ATOM     24  O   UNL     1     130.714 130.625 123.380  1.00  0.00    -0.550 OA
ENDBRANCH  21  22
ENDBRANCH  20  21
ENDBRANCH  19  20
ENDBRANCH  18  19
ENDBRANCH  17  18
ENDBRANCH  16  17
ENDBRANCH  15  16
ENDBRANCH  14  15
ENDBRANCH  13  14
ENDBRANCH   1  13
TORSDOF 20
ENDMDL
MODEL 2
REMARK VINA RESULT:    -4.386     10.551     15.449
REMARK INTER + INTRA:         -11.328
REMARK INTER:                  -9.168
REMARK INTRA:                  -2.160
REMARK UNBOUND:                -1.814
REMARK SMILES CCCCCCCCCCCCCCCCCCCCCC(=O)[O-]
REMARK SMILES IDX 12 1 11 2 10 3 9 4 8 5 7 6 6 7 5 8 4 9 3 10 2 11 1 12 13 13
REMARK SMILES IDX 14 14 15 15 16 16 17 17 18 18 19 19 20 20 21 21 22 22 23 23
REMARK SMILES IDX 24 24
REMARK H PARENT
REMARK Flexibility Score: inf
ROOT
ATOM      1  C   UNL     1     122.455 118.687 134.252  1.00  0.00     0.000 C 
ENDROOT
BRANCH   1   2
ATOM      2  C   UNL     1     122.519 118.135 132.820  1.00  0.00     0.000 C 
BRANCH   2   3
ATOM      3  C   UNL     1     123.490 118.917 131.915  1.00  0.00     0.000 C 
BRANCH   3   4
ATOM      4  C   UNL     1     124.743 118.139 131.476  1.00  0.00    -0.000 C 
BRANCH   4   5
ATOM      5  C   UNL     1     125.523 118.839 130.352  1.00  0.00    -0.000 C 
BRANCH   5   6
ATOM      6  C   UNL     1     125.618 120.350 130.611  1.00  0.00    -0.000 C 
BRANCH   6   7
ATOM      7  C   UNL     1     124.785 121.173 129.615  1.00  0.00    -0.000 C 
BRANCH   7   8
ATOM      8  C   UNL     1     124.352 122.534 130.190  1.00  0.00    -0.000 C 
BRANCH   8   9
ATOM      9  C   UNL     1     124.913 123.720 129.389  1.00  0.00    -0.000 C 
BRANCH   9  10
ATOM     10  C   UNL     1     125.551 123.284 128.059  1.00  0.00    -0.000 C 
BRANCH  10  11
ATOM     11  C   UNL     1     126.556 124.316 127.522  1.00  0.00    -0.003 C 
ATOM     12  C   UNL     1     126.938 125.370 128.563  1.00  0.00     0.004 C 
ENDBRANCH  10  11
ENDBRANCH   9  10
ENDBRANCH   8   9
ENDBRANCH   7   8
ENDBRANCH   6   7
ENDBRANCH   5   6
ENDBRANCH   4   5
ENDBRANCH   3   4
ENDBRANCH   2   3
ENDBRANCH   1   2
BRANCH   1  13
ATOM     13  C   UNL     1     121.108 119.376 134.514  1.00  0.00     0.000 C 
BRANCH  13  14
ATOM     14  C   UNL     1     120.936 120.667 133.697  1.00  0.00     0.000 C 
BRANCH  14  15
ATOM     15  C   UNL     1     121.552 121.892 134.393  1.00  0.00     0.000 C 
BRANCH  15  16
ATOM     16  C   UNL     1     122.654 122.564 133.556  1.00  0.00     0.000 C 
BRANCH  16  17
ATOM     17  C   UNL     1     124.050 121.935 133.756  1.00  0.00     0.000 C 
BRANCH  17  18
ATOM     18  C   UNL     1     125.085 122.963 134.247  1.00  0.00     0.000 C 
BRANCH  18  19
ATOM     19  C   UNL     1     125.335 122.874 135.760  1.00  0.00     0.000 C 
BRANCH  19  20
ATOM     20  C   UNL     1     126.166 124.054 136.293  1.00  0.00     0.006 C 
BRANCH  20  21
ATOM     21  C   UNL     1     127.119 124.619 135.232  1.00  0.00     0.053 C 
BRANCH  21  22
ATOM     22  C   UNL     1     126.984 126.104 135.097  1.00  0.00     0.041 C 
ATOM     23  O   UNL     1     127.992 126.846 135.226  1.00  0.00    -0.550 OA
ATOM     24  O   UNL     1     125.737 126.671 134.864  1.00  0.00    -0.550 OA
ENDBRANCH  21  22
ENDBRANCH  20  21
ENDBRANCH  19  20
ENDBRANCH  18  19
ENDBRANCH  17  18
ENDBRANCH  16  17
ENDBRANCH  15  16
ENDBRANCH  14  15
ENDBRANCH  13  14
ENDBRANCH   1  13
TORSDOF 20
ENDMDL
MODEL 3
REMARK VINA RESULT:    -4.300      9.283     14.349
REMARK INTER + INTRA:         -11.141
REMARK INTER:                  -9.369
REMARK INTRA:                  -1.772
REMARK UNBOUND:                -1.814
REMARK SMILES CCCCCCCCCCCCCCCCCCCCCC(=O)[O-]
REMARK SMILES IDX 12 1 11 2 10 3 9 4 8 5 7 6 6 7 5 8 4 9 3 10 2 11 1 12 13 13
REMARK SMILES IDX 14 14 15 15 16 16 17 17 18 18 19 19 20 20 21 21 22 22 23 23
REMARK SMILES IDX 24 24
REMARK H PARENT
REMARK Flexibility Score: inf
ROOT
ATOM      1  C   UNL     1     121.931 121.488 133.778  1.00  0.00     0.000 C 
ENDROOT
BRANCH   1   2
ATOM      2  C   UNL     1     123.022 120.467 133.420  1.00  0.00     0.000 C 
BRANCH   2   3
ATOM      3  C   UNL     1     122.751 119.736 132.092  1.00  0.00     0.000 C 
BRANCH   3   4
ATOM      4  C   UNL     1     123.608 118.480 131.851  1.00  0.00    -0.000 C 
BRANCH   4   5
ATOM      5  C   UNL     1     124.967 118.795 131.205  1.00  0.00    -0.000 C 
BRANCH   5   6
ATOM      6  C   UNL     1     124.825 119.882 130.130  1.00  0.00    -0.000 C 
BRANCH   6   7
ATOM      7  C   UNL     1     125.424 121.228 130.570  1.00  0.00    -0.000 C 
BRANCH   7   8
ATOM      8  C   UNL     1     124.588 122.430 130.094  1.00  0.00    -0.000 C 
BRANCH   8   9
ATOM      9  C   UNL     1     124.793 122.741 128.603  1.00  0.00    -0.000 C 
BRANCH   9  10
ATOM     10  C   UNL     1     126.280 122.814 128.215  1.00  0.00    -0.000 C 
BRANCH  10  11
ATOM     11  C   UNL     1     126.648 124.145 127.540  1.00  0.00    -0.003 C 
ATOM     12  C   UNL     1     126.475 125.348 128.467  1.00  0.00     0.004 C 
ENDBRANCH  10  11
ENDBRANCH   9  10
ENDBRANCH   8   9
ENDBRANCH   7   8
ENDBRANCH   6   7
ENDBRANCH   5   6
ENDBRANCH   4   5
ENDBRANCH   3   4
ENDBRANCH   2   3
ENDBRANCH   1   2
BRANCH   1  13
ATOM     13  C   UNL     1     122.485 122.582 134.702  1.00  0.00     0.000 C 
BRANCH  13  14
ATOM     14  C   UNL     1     123.988 122.414 134.979  1.00  0.00     0.000 C 
BRANCH  14  15
ATOM     15  C   UNL     1     124.808 123.645 134.558  1.00  0.00     0.000 C 
BRANCH  15  16
ATOM     16  C   UNL     1     126.303 123.512 134.895  1.00  0.00     0.000 C 
BRANCH  16  17
ATOM     17  C   UNL     1     126.761 124.433 136.045  1.00  0.00     0.000 C 
BRANCH  17  18
ATOM     18  C   UNL     1     128.074 125.166 135.715  1.00  0.00     0.000 C 
BRANCH  18  19
ATOM     19  C   UNL     1     128.141 126.568 136.339  1.00  0.00     0.000 C 
BRANCH  19  20
ATOM     20  C   UNL     1     128.133 127.687 135.283  1.00  0.00     0.006 C 
BRANCH  20  21
ATOM     21  C   UNL     1     126.765 128.372 135.174  1.00  0.00     0.053 C 
BRANCH  21  22
ATOM     22  C   UNL     1     125.889 127.703 134.160  1.00  0.00     0.041 C 
ATOM     23  O   UNL     1     124.636 127.799 134.243  1.00  0.00    -0.550 OA
ATOM     24  O   UNL     1     126.455 126.944 133.143  1.00  0.00    -0.550 OA
ENDBRANCH  21  22
ENDBRANCH  20  21
ENDBRANCH  19  20
ENDBRANCH  18  19
ENDBRANCH  17  18
ENDBRANCH  16  17
ENDBRANCH  15  16
ENDBRANCH  14  15
ENDBRANCH  13  14
ENDBRANCH   1  13
TORSDOF 20
ENDMDL
MODEL 4
REMARK VINA RESULT:    -4.292      8.192     11.685
REMARK INTER + INTRA:         -11.124
REMARK INTER:                  -8.324
REMARK INTRA:                  -2.800
REMARK UNBOUND:                -1.814
REMARK SMILES CCCCCCCCCCCCCCCCCCCCCC(=O)[O-]
REMARK SMILES IDX 12 1 11 2 10 3 9 4 8 5 7 6 6 7 5 8 4 9 3 10 2 11 1 12 13 13
REMARK SMILES IDX 14 14 15 15 16 16 17 17 18 18 19 19 20 20 21 21 22 22 23 23
REMARK SMILES IDX 24 24
REMARK H PARENT
REMARK Flexibility Score: inf
ROOT
ATOM      1  C   UNL     1     125.868 123.915 134.678  1.00  0.00     0.000 C 
ENDROOT
BRANCH   1   2
ATOM      2  C   UNL     1     125.743 125.430 134.454  1.00  0.00     0.000 C 
BRANCH   2   3
ATOM      3  C   UNL     1     124.717 126.095 135.389  1.00  0.00     0.000 C 
BRANCH   3   4
ATOM      4  C   UNL     1     124.419 125.324 136.687  1.00  0.00    -0.000 C 
BRANCH   4   5
ATOM      5  C   UNL     1     125.281 125.785 137.872  1.00  0.00    -0.000 C 
BRANCH   5   6
ATOM      6  C   UNL     1     126.322 124.718 138.241  1.00  0.00    -0.000 C 
BRANCH   6   7
ATOM      7  C   UNL     1     127.723 125.048 137.700  1.00  0.00    -0.000 C 
BRANCH   7   8
ATOM      8  C   UNL     1     128.370 126.242 138.426  1.00  0.00    -0.000 C 
BRANCH   8   9
ATOM      9  C   UNL     1     128.790 127.364 137.463  1.00  0.00    -0.000 C 
BRANCH   9  10
ATOM     10  C   UNL     1     128.685 126.943 135.987  1.00  0.00    -0.000 C 
BRANCH  10  11
ATOM     11  C   UNL     1     128.151 128.071 135.090  1.00  0.00    -0.003 C 
ATOM     12  C   UNL     1     127.206 129.019 135.829  1.00  0.00     0.004 C 
ENDBRANCH  10  11
ENDBRANCH   9  10
ENDBRANCH   8   9
ENDBRANCH   7   8
ENDBRANCH   6   7
ENDBRANCH   5   6
ENDBRANCH   4   5
ENDBRANCH   3   4
ENDBRANCH   2   3
ENDBRANCH   1   2
BRANCH   1  13
ATOM     13  C   UNL     1     124.997 123.139 133.679  1.00  0.00     0.000 C 
BRANCH  13  14
ATOM     14  C   UNL     1     123.839 122.392 134.361  1.00  0.00     0.000 C 
BRANCH  14  15
ATOM     15  C   UNL     1     122.543 122.431 133.535  1.00  0.00     0.000 C 
BRANCH  15  16
ATOM     16  C   UNL     1     122.712 121.831 132.128  1.00  0.00     0.000 C 
BRANCH  16  17
ATOM     17  C   UNL     1     123.257 120.387 132.136  1.00  0.00     0.000 C 
BRANCH  17  18
ATOM     18  C   UNL     1     124.155 120.099 130.920  1.00  0.00     0.000 C 
BRANCH  18  19
ATOM     19  C   UNL     1     125.125 121.251 130.615  1.00  0.00     0.000 C 
BRANCH  19  20
ATOM     20  C   UNL     1     124.931 121.832 129.204  1.00  0.00     0.006 C 
BRANCH  20  21
ATOM     21  C   UNL     1     124.923 123.366 129.204  1.00  0.00     0.053 C 
BRANCH  21  22
ATOM     22  C   UNL     1     126.029 123.927 128.364  1.00  0.00     0.041 C 
ATOM     23  O   UNL     1     126.067 125.159 128.108  1.00  0.00    -0.550 OA
ATOM     24  O   UNL     1     126.997 123.083 127.835  1.00  0.00    -0.550 OA
ENDBRANCH  21  22
ENDBRANCH  20  21
ENDBRANCH  19  20
ENDBRANCH  18  19
ENDBRANCH  17  18
ENDBRANCH  16  17
ENDBRANCH  15  16
ENDBRANCH  14  15
ENDBRANCH  13  14
ENDBRANCH   1  13
TORSDOF 20
ENDMDL
MODEL 5
REMARK VINA RESULT:    -4.279      8.079     11.769
REMARK INTER + INTRA:         -11.095
REMARK INTER:                  -9.123
REMARK INTRA:                  -1.972
REMARK UNBOUND:                -1.814
REMARK SMILES CCCCCCCCCCCCCCCCCCCCCC(=O)[O-]
REMARK SMILES IDX 12 1 11 2 10 3 9 4 8 5 7 6 6 7 5 8 4 9 3 10 2 11 1 12 13 13
REMARK SMILES IDX 14 14 15 15 16 16 17 17 18 18 19 19 20 20 21 21 22 22 23 23
REMARK SMILES IDX 24 24
REMARK H PARENT
REMARK Flexibility Score: inf
ROOT
ATOM      1  C   UNL     1     123.210 122.354 133.838  1.00  0.00     0.000 C 
ENDROOT
BRANCH   1   2
ATOM      2  C   UNL     1     124.570 123.038 133.636  1.00  0.00     0.000 C 
BRANCH   2   3
ATOM      3  C   UNL     1     125.387 123.153 134.937  1.00  0.00     0.000 C 
BRANCH   3   4
ATOM      4  C   UNL     1     126.731 123.891 134.802  1.00  0.00    -0.000 C 
BRANCH   4   5
ATOM      5  C   UNL     1     126.679 125.335 135.323  1.00  0.00    -0.000 C 
BRANCH   5   6
ATOM      6  C   UNL     1     127.925 125.662 136.159  1.00  0.00    -0.000 C 
BRANCH   6   7
ATOM      7  C   UNL     1     127.635 125.684 137.668  1.00  0.00    -0.000 C 
BRANCH   7   8
ATOM      8  C   UNL     1     128.763 126.350 138.477  1.00  0.00    -0.000 C 
BRANCH   8   9
ATOM      9  C   UNL     1     128.964 127.828 138.108  1.00  0.00    -0.000 C 
BRANCH   9  10
ATOM     10  C   UNL     1     127.733 128.690 138.437  1.00  0.00    -0.000 C 
BRANCH  10  11
ATOM     11  C   UNL     1     127.518 129.822 137.419  1.00  0.00    -0.003 C 
ATOM     12  C   UNL     1     127.638 129.347 135.971  1.00  0.00     0.004 C 
ENDBRANCH  10  11
ENDBRANCH   9  10
ENDBRANCH   8   9
ENDBRANCH   7   8
ENDBRANCH   6   7
ENDBRANCH   5   6
ENDBRANCH   4   5
ENDBRANCH   3   4
ENDBRANCH   2   3
ENDBRANCH   1   2
BRANCH   1  13
ATOM     13  C   UNL     1     122.462 122.214 132.504  1.00  0.00     0.000 C 
BRANCH  13  14
ATOM     14  C   UNL     1     122.259 120.747 132.093  1.00  0.00     0.000 C 
BRANCH  14  15
ATOM     15  C   UNL     1     123.510 119.886 132.335  1.00  0.00     0.000 C 
BRANCH  15  16
ATOM     16  C   UNL     1     124.330 119.650 131.056  1.00  0.00     0.000 C 
BRANCH  16  17
ATOM     17  C   UNL     1     125.356 120.766 130.765  1.00  0.00     0.000 C 
BRANCH  17  18
ATOM     18  C   UNL     1     124.992 121.577 129.509  1.00  0.00     0.000 C 
BRANCH  18  19
ATOM     19  C   UNL     1     124.808 123.074 129.804  1.00  0.00     0.000 C 
BRANCH  19  20
ATOM     20  C   UNL     1     124.993 123.951 128.554  1.00  0.00     0.006 C 
BRANCH  20  21
ATOM     21  C   UNL     1     126.377 124.612 128.509  1.00  0.00     0.053 C 
BRANCH  21  22
ATOM     22  C   UNL     1     127.280 123.943 127.518  1.00  0.00     0.041 C 
ATOM     23  O   UNL     1     127.398 124.409 126.355  1.00  0.00    -0.550 OA
ATOM     24  O   UNL     1     127.962 122.786 127.869  1.00  0.00    -0.550 OA
ENDBRANCH  21  22
ENDBRANCH  20  21
ENDBRANCH  19  20
ENDBRANCH  18  19
ENDBRANCH  17  18
ENDBRANCH  16  17
ENDBRANCH  15  16
ENDBRANCH  14  15
ENDBRANCH  13  14
ENDBRANCH   1  13
TORSDOF 20
ENDMDL
MODEL 6
REMARK VINA RESULT:    -4.246      2.834      6.406
REMARK INTER + INTRA:         -11.023
REMARK INTER:                  -9.017
REMARK INTRA:                  -2.006
REMARK UNBOUND:                -1.814
REMARK SMILES CCCCCCCCCCCCCCCCCCCCCC(=O)[O-]
REMARK SMILES IDX 12 1 11 2 10 3 9 4 8 5 7 6 6 7 5 8 4 9 3 10 2 11 1 12 13 13
REMARK SMILES IDX 14 14 15 15 16 16 17 17 18 18 19 19 20 20 21 21 22 22 23 23
REMARK SMILES IDX 24 24
REMARK H PARENT
REMARK Flexibility Score: inf
ROOT
ATOM      1  C   UNL     1     130.260 132.794 134.612  1.00  0.00     0.000 C 
ENDROOT
BRANCH   1   2
ATOM      2  C   UNL     1     130.395 131.331 135.062  1.00  0.00     0.000 C 
BRANCH   2   3
ATOM      3  C   UNL     1     129.183 130.465 134.671  1.00  0.00     0.000 C 
BRANCH   3   4
ATOM      4  C   UNL     1     128.074 130.376 135.734  1.00  0.00    -0.000 C 
BRANCH   4   5
ATOM      5  C   UNL     1     128.231 129.166 136.668  1.00  0.00    -0.000 C 
BRANCH   5   6
ATOM      6  C   UNL     1     126.899 128.417 136.825  1.00  0.00    -0.000 C 
BRANCH   6   7
ATOM      7  C   UNL     1     126.761 127.246 135.839  1.00  0.00    -0.000 C 
BRANCH   7   8
ATOM      8  C   UNL     1     125.895 127.602 134.616  1.00  0.00    -0.000 C 
BRANCH   8   9
ATOM      9  C   UNL     1     126.388 126.930 133.326  1.00  0.00    -0.000 C 
BRANCH   9  10
ATOM     10  C   UNL     1     127.583 127.667 132.696  1.00  0.00    -0.000 C 
BRANCH  10  11
ATOM     11  C   UNL     1     127.592 127.570 131.162  1.00  0.00    -0.003 C 
ATOM     12  C   UNL     1     128.212 128.798 130.494  1.00  0.00     0.004 C 
ENDBRANCH  10  11
ENDBRANCH   9  10
ENDBRANCH   8   9
ENDBRANCH   7   8
ENDBRANCH   6   7
ENDBRANCH   5   6
ENDBRANCH   4   5
ENDBRANCH   3   4
ENDBRANCH   2   3
ENDBRANCH   1   2
BRANCH   1  13
ATOM     13  C   UNL     1     131.514 133.599 134.980  1.00  0.00     0.000 C 
BRANCH  13  14
ATOM     14  C   UNL     1     132.814 132.891 134.564  1.00  0.00     0.000 C 
BRANCH  14  15
ATOM     15  C   UNL     1     133.459 133.522 133.320  1.00  0.00     0.000 C 
BRANCH  15  16
ATOM     16  C   UNL     1     132.829 134.873 132.940  1.00  0.00     0.000 C 
BRANCH  16  17
ATOM     17  C   UNL     1     132.437 134.974 131.450  1.00  0.00     0.000 C 
BRANCH  17  18
ATOM     18  C   UNL     1     131.124 134.234 131.143  1.00  0.00     0.000 C 
BRANCH  18  19
ATOM     19  C   UNL     1     131.357 132.831 130.561  1.00  0.00     0.000 C 
BRANCH  19  20
ATOM     20  C   UNL     1     131.272 132.805 129.025  1.00  0.00     0.006 C 
BRANCH  20  21
ATOM     21  C   UNL     1     129.845 133.059 128.520  1.00  0.00     0.053 C 
BRANCH  21  22
ATOM     22  C   UNL     1     129.199 131.800 128.028  1.00  0.00     0.041 C 
ATOM     23  O   UNL     1     129.843 130.719 128.020  1.00  0.00    -0.550 OA
ATOM     24  O   UNL     1     127.896 131.829 127.547  1.00  0.00    -0.550 OA
ENDBRANCH  21  22
ENDBRANCH  20  21
ENDBRANCH  19  20
ENDBRANCH  18  19
ENDBRANCH  17  18
ENDBRANCH  16  17
ENDBRANCH  15  16
ENDBRANCH  14  15
ENDBRANCH  13  14
ENDBRANCH   1  13
TORSDOF 20
ENDMDL
MODEL 7
REMARK VINA RESULT:    -4.238      8.999     14.006
REMARK INTER + INTRA:         -11.006
REMARK INTER:                  -8.912
REMARK INTRA:                  -2.094
REMARK UNBOUND:                -1.814
REMARK SMILES CCCCCCCCCCCCCCCCCCCCCC(=O)[O-]
REMARK SMILES IDX 12 1 11 2 10 3 9 4 8 5 7 6 6 7 5 8 4 9 3 10 2 11 1 12 13 13
REMARK SMILES IDX 14 14 15 15 16 16 17 17 18 18 19 19 20 20 21 21 22 22 23 23
REMARK SMILES IDX 24 24
REMARK H PARENT
REMARK Flexibility Score: inf
ROOT
ATOM      1  C   UNL     1     123.082 120.383 134.850  1.00  0.00     0.000 C 
ENDROOT
BRANCH   1   2
ATOM      2  C   UNL     1     121.754 120.558 134.098  1.00  0.00     0.000 C 
BRANCH   2   3
ATOM      3  C   UNL     1     121.797 120.006 132.661  1.00  0.00     0.000 C 
BRANCH   3   4
ATOM      4  C   UNL     1     122.613 120.846 131.662  1.00  0.00    -0.000 C 
BRANCH   4   5
ATOM      5  C   UNL     1     123.949 120.193 131.278  1.00  0.00    -0.000 C 
BRANCH   5   6
ATOM      6  C   UNL     1     124.795 121.141 130.416  1.00  0.00    -0.000 C 
BRANCH   6   7
ATOM      7  C   UNL     1     124.442 122.620 130.643  1.00  0.00    -0.000 C 
BRANCH   7   8
ATOM      8  C   UNL     1     124.450 123.437 129.338  1.00  0.00    -0.000 C 
BRANCH   8   9
ATOM      9  C   UNL     1     125.414 122.865 128.287  1.00  0.00    -0.000 C 
BRANCH   9  10
ATOM     10  C   UNL     1     126.451 123.899 127.814  1.00  0.00    -0.000 C 
BRANCH  10  11
ATOM     11  C   UNL     1     127.896 123.417 128.014  1.00  0.00    -0.003 C 
ATOM     12  C   UNL     1     127.991 121.910 128.254  1.00  0.00     0.004 C 
ENDBRANCH  10  11
ENDBRANCH   9  10
ENDBRANCH   8   9
ENDBRANCH   7   8
ENDBRANCH   6   7
ENDBRANCH   5   6
ENDBRANCH   4   5
ENDBRANCH   3   4
ENDBRANCH   2   3
ENDBRANCH   1   2
BRANCH   1  13
ATOM     13  C   UNL     1     123.454 121.662 135.613  1.00  0.00     0.000 C 
BRANCH  13  14
ATOM     14  C   UNL     1     123.568 122.887 134.691  1.00  0.00     0.000 C 
BRANCH  14  15
ATOM     15  C   UNL     1     125.014 123.157 134.243  1.00  0.00     0.000 C 
BRANCH  15  16
ATOM     16  C   UNL     1     125.728 124.195 135.126  1.00  0.00     0.000 C 
BRANCH  16  17
ATOM     17  C   UNL     1     124.847 125.410 135.487  1.00  0.00     0.000 C 
BRANCH  17  18
ATOM     18  C   UNL     1     125.110 126.612 134.564  1.00  0.00     0.000 C 
BRANCH  18  19
ATOM     19  C   UNL     1     126.437 126.492 133.799  1.00  0.00     0.000 C 
BRANCH  19  20
ATOM     20  C   UNL     1     127.502 127.481 134.300  1.00  0.00     0.006 C 
BRANCH  20  21
ATOM     21  C   UNL     1     128.469 127.906 133.187  1.00  0.00     0.053 C 
BRANCH  21  22
ATOM     22  C   UNL     1     129.641 128.665 133.730  1.00  0.00     0.041 C 
ATOM     23  O   UNL     1     130.778 128.127 133.775  1.00  0.00    -0.550 OA
ATOM     24  O   UNL     1     129.470 129.955 134.218  1.00  0.00    -0.550 OA
ENDBRANCH  21  22
ENDBRANCH  20  21
ENDBRANCH  19  20
ENDBRANCH  18  19
ENDBRANCH  17  18
ENDBRANCH  16  17
ENDBRANCH  15  16
ENDBRANCH  14  15
ENDBRANCH  13  14
ENDBRANCH   1  13
TORSDOF 20
ENDMDL
MODEL 8
REMARK VINA RESULT:    -4.219      2.923      5.844
REMARK INTER + INTRA:         -10.964
REMARK INTER:                  -8.444
REMARK INTRA:                  -2.520
REMARK UNBOUND:                -1.814
REMARK SMILES CCCCCCCCCCCCCCCCCCCCCC(=O)[O-]
REMARK SMILES IDX 12 1 11 2 10 3 9 4 8 5 7 6 6 7 5 8 4 9 3 10 2 11 1 12 13 13
REMARK SMILES IDX 14 14 15 15 16 16 17 17 18 18 19 19 20 20 21 21 22 22 23 23
REMARK SMILES IDX 24 24
REMARK H PARENT
REMARK Flexibility Score: inf
ROOT
ATOM      1  C   UNL     1     132.636 133.087 135.657  1.00  0.00     0.000 C 
ENDROOT
BRANCH   1   2
ATOM      2  C   UNL     1     131.411 133.116 136.584  1.00  0.00     0.000 C 
BRANCH   2   3
ATOM      3  C   UNL     1     130.694 131.757 136.680  1.00  0.00     0.000 C 
BRANCH   3   4
ATOM      4  C   UNL     1     129.170 131.805 136.469  1.00  0.00    -0.000 C 
BRANCH   4   5
ATOM      5  C   UNL     1     128.748 131.420 135.043  1.00  0.00    -0.000 C 
BRANCH   5   6
ATOM      6  C   UNL     1     129.915 130.776 134.280  1.00  0.00    -0.000 C 
BRANCH   6   7
ATOM      7  C   UNL     1     129.643 129.308 133.913  1.00  0.00    -0.000 C 
BRANCH   7   8
ATOM      8  C   UNL     1     130.067 128.333 135.026  1.00  0.00    -0.000 C 
BRANCH   8   9
ATOM      9  C   UNL     1     128.977 127.302 135.357  1.00  0.00    -0.000 C 
BRANCH   9  10
ATOM     10  C   UNL     1     127.602 127.696 134.790  1.00  0.00    -0.000 C 
BRANCH  10  11
ATOM     11  C   UNL     1     126.588 128.041 135.892  1.00  0.00    -0.003 C 
ATOM     12  C   UNL     1     127.241 128.669 137.124  1.00  0.00     0.004 C 
ENDBRANCH  10  11
ENDBRANCH   9  10
ENDBRANCH   8   9
ENDBRANCH   7   8
ENDBRANCH   6   7
ENDBRANCH   5   6
ENDBRANCH   4   5
ENDBRANCH   3   4
ENDBRANCH   2   3
ENDBRANCH   1   2
BRANCH   1  13
ATOM     13  C   UNL     1     132.673 134.331 134.758  1.00  0.00     0.000 C 
BRANCH  13  14
ATOM     14  C   UNL     1     132.157 134.049 133.338  1.00  0.00     0.000 C 
BRANCH  14  15
ATOM     15  C   UNL     1     133.126 134.537 132.248  1.00  0.00     0.000 C 
BRANCH  15  16
ATOM     16  C   UNL     1     133.383 136.052 132.313  1.00  0.00     0.000 C 
BRANCH  16  17
ATOM     17  C   UNL     1     132.092 136.899 132.294  1.00  0.00     0.000 C 
BRANCH  17  18
ATOM     18  C   UNL     1     131.629 137.220 130.862  1.00  0.00     0.000 C 
BRANCH  18  19
ATOM     19  C   UNL     1     130.171 136.808 130.606  1.00  0.00     0.000 C 
BRANCH  19  20
ATOM     20  C   UNL     1     130.006 135.289 130.434  1.00  0.00     0.006 C 
BRANCH  20  21
ATOM     21  C   UNL     1     131.015 134.705 129.435  1.00  0.00     0.053 C 
BRANCH  21  22
ATOM     22  C   UNL     1     130.664 133.301 129.049  1.00  0.00     0.041 C 
ATOM     23  O   UNL     1     129.762 133.085 128.197  1.00  0.00    -0.550 OA
ATOM     24  O   UNL     1     131.310 132.231 129.654  1.00  0.00    -0.550 OA
ENDBRANCH  21  22
ENDBRANCH  20  21
ENDBRANCH  19  20
ENDBRANCH  18  19
ENDBRANCH  17  18
ENDBRANCH  16  17
ENDBRANCH  15  16
ENDBRANCH  14  15
ENDBRANCH  13  14
ENDBRANCH   1  13
TORSDOF 20
ENDMDL
MODEL 9
REMARK VINA RESULT:    -4.155      4.478      8.051
REMARK INTER + INTRA:         -10.826
REMARK INTER:                  -7.435
REMARK INTRA:                  -3.391
REMARK UNBOUND:                -1.814
REMARK SMILES CCCCCCCCCCCCCCCCCCCCCC(=O)[O-]
REMARK SMILES IDX 12 1 11 2 10 3 9 4 8 5 7 6 6 7 5 8 4 9 3 10 2 11 1 12 13 13
REMARK SMILES IDX 14 14 15 15 16 16 17 17 18 18 19 19 20 20 21 21 22 22 23 23
REMARK SMILES IDX 24 24
REMARK H PARENT
REMARK Flexibility Score: inf
ROOT
ATOM      1  C   UNL     1     129.424 132.081 137.187  1.00  0.00     0.000 C 
ENDROOT
BRANCH   1   2
ATOM      2  C   UNL     1     130.250 130.905 137.730  1.00  0.00     0.000 C 
BRANCH   2   3
ATOM      3  C   UNL     1     131.768 131.152 137.660  1.00  0.00     0.000 C 
BRANCH   3   4
ATOM      4  C   UNL     1     132.510 130.350 136.575  1.00  0.00    -0.000 C 
BRANCH   4   5
ATOM      5  C   UNL     1     133.341 131.236 135.635  1.00  0.00    -0.000 C 
BRANCH   5   6
ATOM      6  C   UNL     1     133.017 132.722 135.852  1.00  0.00    -0.000 C 
BRANCH   6   7
ATOM      7  C   UNL     1     133.490 133.606 134.688  1.00  0.00    -0.000 C 
BRANCH   7   8
ATOM      8  C   UNL     1     132.328 134.079 133.794  1.00  0.00    -0.000 C 
BRANCH   8   9
ATOM      9  C   UNL     1     132.738 134.229 132.321  1.00  0.00    -0.000 C 
BRANCH   9  10
ATOM     10  C   UNL     1     131.832 133.424 131.373  1.00  0.00    -0.000 C 
BRANCH  10  11
ATOM     11  C   UNL     1     131.026 134.325 130.423  1.00  0.00    -0.003 C 
ATOM     12  C   UNL     1     131.141 135.809 130.772  1.00  0.00     0.004 C 
ENDBRANCH  10  11
ENDBRANCH   9  10
ENDBRANCH   8   9
ENDBRANCH   7   8
ENDBRANCH   6   7
ENDBRANCH   5   6
ENDBRANCH   4   5
ENDBRANCH   3   4
ENDBRANCH   2   3
ENDBRANCH   1   2
BRANCH   1  13
ATOM     13  C   UNL     1     128.722 131.699 135.876  1.00  0.00     0.000 C 
BRANCH  13  14
ATOM     14  C   UNL     1     129.620 131.903 134.645  1.00  0.00     0.000 C 
BRANCH  14  15
ATOM     15  C   UNL     1     130.032 130.575 133.988  1.00  0.00     0.000 C 
BRANCH  15  16
ATOM     16  C   UNL     1     129.089 129.413 134.346  1.00  0.00     0.000 C 
BRANCH  16  17
ATOM     17  C   UNL     1     129.796 128.246 135.069  1.00  0.00     0.000 C 
BRANCH  17  18
ATOM     18  C   UNL     1     128.978 127.720 136.261  1.00  0.00     0.000 C 
BRANCH  18  19
ATOM     19  C   UNL     1     127.558 128.306 136.308  1.00  0.00     0.000 C 
BRANCH  19  20
ATOM     20  C   UNL     1     126.470 127.219 136.351  1.00  0.00     0.006 C 
BRANCH  20  21
ATOM     21  C   UNL     1     126.426 126.390 135.060  1.00  0.00     0.053 C 
BRANCH  21  22
ATOM     22  C   UNL     1     126.066 127.230 133.873  1.00  0.00     0.041 C 
ATOM     23  O   UNL     1     126.802 127.232 132.852  1.00  0.00    -0.550 OA
ATOM     24  O   UNL     1     124.936 128.037 133.909  1.00  0.00    -0.550 OA
ENDBRANCH  21  22
ENDBRANCH  20  21
ENDBRANCH  19  20
ENDBRANCH  18  19
ENDBRANCH  17  18
ENDBRANCH  16  17
ENDBRANCH  15  16
ENDBRANCH  14  15
ENDBRANCH  13  14
ENDBRANCH   1  13
TORSDOF 20
ENDMDL
