MODEL 1
REMARK VINA RESULT:    37.749      0.000      0.000
REMARK INTER + INTRA:          52.625
REMARK INTER:                  52.093
REMARK INTRA:                   0.532
REMARK UNBOUND:                 0.532
REMARK SMILES CC[C@H](CC[C@@H](C)[C@@H]1CC[C@H]2C3=CC[C@@H]4C[C@H](O)CC[C@@]4(C)[C@@H]3CC[C@]21C)C(C)C
REMARK SMILES IDX 5 1 4 2 3 3 2 4 1 5 28 6 29 7 30 8 6 9 7 10 8 11 9 12 26 13
REMARK SMILES IDX 10 14 11 15 25 16 27 17 12 18 24 19 23 20 13 21 21 22 14 23
REMARK SMILES IDX 15 24 20 25 22 26 16 27 19 28 17 29 18 30
REMARK H PARENT 18 31
REMARK Flexibility Score: inf
ROOT
ATOM      1  C   UNL     1       0.606  45.640  48.031  1.00  0.00     0.004 C 
ENDROOT
BRANCH   1   2
ATOM      2  C   UNL     1       0.078  47.095  47.976  1.00  0.00     0.004 C 
BRANCH   2   3
ATOM      3  C   UNL     1       0.790  48.124  48.907  1.00  0.00    -0.009 C 
BRANCH   3   4
ATOM      4  C   UNL     1       0.351  47.915  50.392  1.00  0.00     0.000 C 
ATOM      5  C   UNL     1      -1.109  47.475  50.519  1.00  0.00     0.004 C 
ENDBRANCH   3   4
BRANCH   3   6
ATOM      6  C   UNL     1       2.352  48.038  48.763  1.00  0.00    -0.014 C 
ATOM      7  C   UNL     1       2.784  47.765  47.309  1.00  0.00     0.007 C 
ATOM      8  C   UNL     1       2.973  46.950  49.664  1.00  0.00     0.007 C 
ENDBRANCH   3   6
ENDBRANCH   2   3
ENDBRANCH   1   2
BRANCH   1   9
ATOM      9  C   UNL     1      -0.204  44.631  48.896  1.00  0.00    -0.011 C 
ATOM     10  C   UNL     1      -1.125  43.783  47.989  1.00  0.00     0.008 C 
BRANCH   9  11
ATOM     11  C   UNL     1       0.770  43.715  49.728  1.00  0.00    -0.002 C 
ATOM     12  C   UNL     1       1.155  44.302  51.087  1.00  0.00     0.005 C 
ATOM     13  C   UNL     1       2.147  43.277  49.078  1.00  0.00    -0.023 C 
ATOM     14  C   UNL     1       2.348  43.489  51.534  1.00  0.00     0.009 C 
ATOM     15  C   UNL     1       3.174  43.309  50.268  1.00  0.00     0.021 C 
ATOM     16  C   UNL     1       2.001  41.857  48.450  1.00  0.00     0.008 C 
ATOM     17  C   UNL     1       2.648  44.274  47.997  1.00  0.00     0.012 C 
ATOM     18  C   UNL     1       4.166  42.152  50.401  1.00  0.00    -0.067 C 
ATOM     19  C   UNL     1       3.338  41.153  48.251  1.00  0.00     0.009 C 
ATOM     20  C   UNL     1       3.984  40.856  49.615  1.00  0.00     0.021 C 
ATOM     21  C   UNL     1       5.152  42.272  51.323  1.00  0.00    -0.027 C 
ATOM     22  C   UNL     1       5.303  40.003  49.517  1.00  0.00    -0.023 C 
ATOM     23  C   UNL     1       6.222  41.239  51.559  1.00  0.00     0.031 C 
ATOM     24  C   UNL     1       5.853  39.869  50.973  1.00  0.00     0.002 C 
ATOM     25  C   UNL     1       4.977  38.575  48.974  1.00  0.00     0.010 C 
ATOM     26  C   UNL     1       6.330  40.693  48.570  1.00  0.00     0.012 C 
ATOM     27  C   UNL     1       7.031  38.881  51.099  1.00  0.00     0.036 C 
ATOM     28  C   UNL     1       6.155  37.596  49.100  1.00  0.00     0.032 C 
ATOM     29  C   UNL     1       6.644  37.498  50.552  1.00  0.00     0.114 C 
BRANCH  29  30
ATOM     30  O   UNL     1       7.722  36.603  50.653  1.00  0.00    -0.393 OA
ATOM     31  H   UNL     1       7.364  35.683  50.537  1.00  0.00     0.210 HD
ENDBRANCH  29  30
ENDBRANCH   9  11
ENDBRANCH   1   9
TORSDOF 7
ENDMDL
MODEL 2
REMARK VINA RESULT:    38.971      0.774      1.305
REMARK INTER + INTRA:          54.311
REMARK INTER:                  51.544
REMARK INTRA:                   2.767
REMARK UNBOUND:                 0.532
REMARK SMILES CC[C@H](CC[C@@H](C)[C@@H]1CC[C@H]2C3=CC[C@@H]4C[C@H](O)CC[C@@]4(C)[C@@H]3CC[C@]21C)C(C)C
REMARK SMILES IDX 5 1 4 2 3 3 2 4 1 5 28 6 29 7 30 8 6 9 7 10 8 11 9 12 26 13
REMARK SMILES IDX 10 14 11 15 25 16 27 17 12 18 24 19 23 20 13 21 21 22 14 23
REMARK SMILES IDX 15 24 20 25 22 26 16 27 19 28 17 29 18 30
REMARK H PARENT 18 31
REMARK Flexibility Score: inf
ROOT
ATOM      1  C   UNL     1      -1.124  45.917  49.840  1.00  0.00     0.004 C 
ENDROOT
BRANCH   1   2
ATOM      2  C   UNL     1      -1.056  47.271  49.092  1.00  0.00     0.004 C 
BRANCH   2   3
ATOM      3  C   UNL     1       0.325  47.997  49.102  1.00  0.00    -0.009 C 
BRANCH   3   4
ATOM      4  C   UNL     1       1.325  47.261  50.050  1.00  0.00     0.000 C 
ATOM      5  C   UNL     1       2.742  47.835  49.974  1.00  0.00     0.004 C 
ENDBRANCH   3   4
BRANCH   3   6
ATOM      6  C   UNL     1       0.913  48.124  47.650  1.00  0.00    -0.014 C 
ATOM      7  C   UNL     1      -0.130  47.773  46.572  1.00  0.00     0.007 C 
ATOM      8  C   UNL     1       2.154  47.233  47.432  1.00  0.00     0.007 C 
ENDBRANCH   3   6
ENDBRANCH   2   3
ENDBRANCH   1   2
BRANCH   1   9
ATOM      9  C   UNL     1      -0.736  44.646  49.029  1.00  0.00    -0.011 C 
ATOM     10  C   UNL     1      -0.179  45.055  47.646  1.00  0.00     0.008 C 
BRANCH   9  11
ATOM     11  C   UNL     1       0.311  43.782  49.828  1.00  0.00    -0.002 C 
ATOM     12  C   UNL     1       0.702  44.385  51.179  1.00  0.00     0.005 C 
ATOM     13  C   UNL     1       1.690  43.423  49.136  1.00  0.00    -0.023 C 
ATOM     14  C   UNL     1       1.950  43.637  51.587  1.00  0.00     0.009 C 
ATOM     15  C   UNL     1       2.748  43.508  50.297  1.00  0.00     0.021 C 
ATOM     16  C   UNL     1       1.605  42.000  48.506  1.00  0.00     0.008 C 
ATOM     17  C   UNL     1       2.104  44.451  48.047  1.00  0.00     0.012 C 
ATOM     18  C   UNL     1       3.806  42.407  50.396  1.00  0.00    -0.067 C 
ATOM     19  C   UNL     1       2.972  41.372  48.265  1.00  0.00     0.009 C 
ATOM     20  C   UNL     1       3.673  41.106  49.608  1.00  0.00     0.021 C 
ATOM     21  C   UNL     1       4.810  42.578  51.290  1.00  0.00    -0.027 C 
ATOM     22  C   UNL     1       5.033  40.328  49.467  1.00  0.00    -0.023 C 
ATOM     23  C   UNL     1       5.942  41.604  51.489  1.00  0.00     0.031 C 
ATOM     24  C   UNL     1       5.632  40.218  50.906  1.00  0.00     0.002 C 
ATOM     25  C   UNL     1       4.771  38.886  48.926  1.00  0.00     0.010 C 
ATOM     26  C   UNL     1       5.993  41.077  48.495  1.00  0.00     0.012 C 
ATOM     27  C   UNL     1       6.865  39.296  50.993  1.00  0.00     0.036 C 
ATOM     28  C   UNL     1       6.004  37.973  49.013  1.00  0.00     0.032 C 
ATOM     29  C   UNL     1       6.540  37.897  50.450  1.00  0.00     0.114 C 
BRANCH  29  30
ATOM     30  O   UNL     1       7.668  37.062  50.515  1.00  0.00    -0.393 OA
ATOM     31  H   UNL     1       8.357  37.435  49.902  1.00  0.00     0.210 HD
ENDBRANCH  29  30
ENDBRANCH   9  11
ENDBRANCH   1   9
TORSDOF 7
ENDMDL
