MODEL 1
REMARK VINA RESULT:    -8.343      0.000      0.000
REMARK INTER + INTRA:         -10.115
REMARK INTER:                  -9.806
REMARK INTRA:                  -0.309
REMARK UNBOUND:                -0.309
REMARK SMILES O=c1cc(-c2ccc(O)c(O)c2)oc2cc(O)cc(O)c12
REMARK SMILES IDX 4 1 3 2 2 3 1 4 21 5 19 6 18 7 16 8 15 9 14 10 13 11 5 12
REMARK SMILES IDX 6 13 7 14 8 15 12 16 10 17 9 18 11 20 20 22 17 24
REMARK H PARENT 9 19 11 21 20 23 17 25
REMARK Flexibility Score: inf
ROOT
ATOM      1  C   UNL     1     -33.855  43.572  40.172  1.00  0.00     0.138 A 
ATOM      2  C   UNL     1     -34.995  43.659  40.989  1.00  0.00     0.100 A 
ATOM      3  C   UNL     1     -35.129  42.791  42.073  1.00  0.00     0.197 A 
ATOM      4  O   UNL     1     -36.155  42.875  42.800  1.00  0.00    -0.289 OA
ATOM      5  C   UNL     1     -34.122  41.839  42.331  1.00  0.00     0.107 A 
ATOM      6  C   UNL     1     -34.180  40.923  43.408  1.00  0.00     0.134 A 
ATOM      7  C   UNL     1     -33.138  40.001  43.594  1.00  0.00     0.093 A 
ATOM      8  C   UNL     1     -32.043  39.979  42.722  1.00  0.00     0.123 A 
ATOM      9  C   UNL     1     -31.983  40.881  41.657  1.00  0.00     0.094 A 
ATOM     10  C   UNL     1     -33.010  41.807  41.456  1.00  0.00     0.146 A 
ATOM     11  O   UNL     1     -32.927  42.655  40.437  1.00  0.00    -0.456 OA
ENDROOT
BRANCH   1  12
ATOM     12  C   UNL     1     -33.659  44.469  39.004  1.00  0.00     0.021 A 
ATOM     13  C   UNL     1     -34.781  45.021  38.360  1.00  0.00     0.016 A 
ATOM     14  C   UNL     1     -34.624  45.861  37.255  1.00  0.00     0.051 A 
ATOM     15  C   UNL     1     -33.344  46.155  36.768  1.00  0.00     0.157 A 
ATOM     16  C   UNL     1     -32.376  44.759  38.500  1.00  0.00     0.062 A 
ATOM     17  C   UNL     1     -32.219  45.601  37.390  1.00  0.00     0.158 A 
BRANCH  15  18
ATOM     18  O   UNL     1     -33.184  46.995  35.667  1.00  0.00    -0.504 OA
ATOM     19  H   UNL     1     -33.502  46.725  34.743  1.00  0.00     0.293 HD
ENDBRANCH  15  18
BRANCH  17  20
ATOM     20  O   UNL     1     -30.947  45.888  36.895  1.00  0.00    -0.504 OA
ATOM     21  H   UNL     1     -30.795  46.105  35.917  1.00  0.00     0.293 HD
ENDBRANCH  17  20
ENDBRANCH   1  12
BRANCH   6  22
ATOM     22  O   UNL     1     -35.259  40.923  44.293  1.00  0.00    -0.507 OA
ATOM     23  H   UNL     1     -35.840  40.103  44.424  1.00  0.00     0.293 HD
ENDBRANCH   6  22
BRANCH   8  24
ATOM     24  O   UNL     1     -31.010  39.063  42.905  1.00  0.00    -0.508 OA
ATOM     25  H   UNL     1     -30.145  39.127  42.380  1.00  0.00     0.293 HD
ENDBRANCH   8  24
TORSDOF 5
ENDMDL
MODEL 2
REMARK VINA RESULT:    -8.205      2.149      2.187
REMARK INTER + INTRA:          -9.953
REMARK INTER:                  -9.686
REMARK INTRA:                  -0.267
REMARK UNBOUND:                -0.309
REMARK SMILES O=c1cc(-c2ccc(O)c(O)c2)oc2cc(O)cc(O)c12
REMARK SMILES IDX 4 1 3 2 2 3 1 4 21 5 19 6 18 7 16 8 15 9 14 10 13 11 5 12
REMARK SMILES IDX 6 13 7 14 8 15 12 16 10 17 9 18 11 20 20 22 17 24
REMARK H PARENT 9 19 11 21 20 23 17 25
REMARK Flexibility Score: inf
ROOT
ATOM      1  C   UNL     1     -34.730  44.249  39.778  1.00  0.00     0.138 A 
ATOM      2  C   UNL     1     -35.068  44.878  40.988  1.00  0.00     0.100 A 
ATOM      3  C   UNL     1     -35.524  44.107  42.058  1.00  0.00     0.197 A 
ATOM      4  O   UNL     1     -35.825  44.681  43.139  1.00  0.00    -0.289 OA
ATOM      5  C   UNL     1     -35.643  42.711  41.909  1.00  0.00     0.107 A 
ATOM      6  C   UNL     1     -36.096  41.858  42.943  1.00  0.00     0.134 A 
ATOM      7  C   UNL     1     -36.192  40.477  42.713  1.00  0.00     0.093 A 
ATOM      8  C   UNL     1     -35.844  39.936  41.469  1.00  0.00     0.123 A 
ATOM      9  C   UNL     1     -35.397  40.775  40.447  1.00  0.00     0.094 A 
ATOM     10  C   UNL     1     -35.293  42.152  40.656  1.00  0.00     0.146 A 
ATOM     11  O   UNL     1     -34.863  42.929  39.667  1.00  0.00    -0.456 OA
ENDROOT
BRANCH   1  12
ATOM     12  C   UNL     1     -34.240  45.017  38.606  1.00  0.00     0.021 A 
ATOM     13  C   UNL     1     -35.165  45.664  37.768  1.00  0.00     0.016 A 
ATOM     14  C   UNL     1     -34.731  46.388  36.654  1.00  0.00     0.051 A 
ATOM     15  C   UNL     1     -33.365  46.468  36.353  1.00  0.00     0.157 A 
ATOM     16  C   UNL     1     -32.869  45.092  38.289  1.00  0.00     0.062 A 
ATOM     17  C   UNL     1     -32.434  45.817  37.171  1.00  0.00     0.158 A 
BRANCH  15  18
ATOM     18  O   UNL     1     -32.929  47.191  35.244  1.00  0.00    -0.504 OA
ATOM     19  H   UNL     1     -32.918  46.784  34.317  1.00  0.00     0.293 HD
ENDBRANCH  15  18
BRANCH  17  20
ATOM     20  O   UNL     1     -31.076  45.891  36.862  1.00  0.00    -0.504 OA
ATOM     21  H   UNL     1     -30.670  46.723  36.451  1.00  0.00     0.293 HD
ENDBRANCH  17  20
ENDBRANCH   1  12
BRANCH   6  22
ATOM     22  O   UNL     1     -36.450  42.369  44.193  1.00  0.00    -0.507 OA
ATOM     23  H   UNL     1     -35.811  42.936  44.737  1.00  0.00     0.293 HD
ENDBRANCH   6  22
BRANCH   8  24
ATOM     24  O   UNL     1     -35.940  38.565  41.240  1.00  0.00    -0.508 OA
ATOM     25  H   UNL     1     -35.754  38.166  40.328  1.00  0.00     0.293 HD
ENDBRANCH   8  24
TORSDOF 5
ENDMDL
MODEL 3
REMARK VINA RESULT:    -8.088      7.208     11.797
REMARK INTER + INTRA:          -9.815
REMARK INTER:                  -9.506
REMARK INTRA:                  -0.309
REMARK UNBOUND:                -0.309
REMARK SMILES O=c1cc(-c2ccc(O)c(O)c2)oc2cc(O)cc(O)c12
REMARK SMILES IDX 4 1 3 2 2 3 1 4 21 5 19 6 18 7 16 8 15 9 14 10 13 11 5 12
REMARK SMILES IDX 6 13 7 14 8 15 12 16 10 17 9 18 11 20 20 22 17 24
REMARK H PARENT 9 19 11 21 20 23 17 25
REMARK Flexibility Score: inf
ROOT
ATOM      1  C   UNL     1     -39.022  37.663  46.947  1.00  0.00     0.138 A 
ATOM      2  C   UNL     1     -39.235  38.814  46.170  1.00  0.00     0.100 A 
ATOM      3  C   UNL     1     -38.412  39.061  45.071  1.00  0.00     0.197 A 
ATOM      4  O   UNL     1     -38.610  40.097  44.380  1.00  0.00    -0.289 OA
ATOM      5  C   UNL     1     -37.379  38.155  44.757  1.00  0.00     0.107 A 
ATOM      6  C   UNL     1     -36.502  38.331  43.660  1.00  0.00     0.134 A 
ATOM      7  C   UNL     1     -35.494  37.384  43.419  1.00  0.00     0.093 A 
ATOM      8  C   UNL     1     -35.348  36.270  44.254  1.00  0.00     0.123 A 
ATOM      9  C   UNL     1     -36.211  36.094  45.337  1.00  0.00     0.094 A 
ATOM     10  C   UNL     1     -37.222  37.024  45.594  1.00  0.00     0.146 A 
ATOM     11  O   UNL     1     -38.031  36.833  46.630  1.00  0.00    -0.456 OA
ENDROOT
BRANCH   1  12
ATOM     12  C   UNL     1     -39.865  37.350  48.129  1.00  0.00     0.021 A 
ATOM     13  C   UNL     1     -40.496  38.395  48.825  1.00  0.00     0.016 A 
ATOM     14  C   UNL     1     -41.288  38.128  49.945  1.00  0.00     0.051 A 
ATOM     15  C   UNL     1     -41.455  36.811  50.393  1.00  0.00     0.157 A 
ATOM     16  C   UNL     1     -40.027  36.029  48.594  1.00  0.00     0.062 A 
ATOM     17  C   UNL     1     -40.821  35.761  49.719  1.00  0.00     0.158 A 
BRANCH  15  18
ATOM     18  O   UNL     1     -42.246  36.541  51.508  1.00  0.00    -0.504 OA
ATOM     19  H   UNL     1     -41.850  36.485  52.439  1.00  0.00     0.293 HD
ENDBRANCH  15  18
BRANCH  17  20
ATOM     20  O   UNL     1     -40.981  34.454  50.175  1.00  0.00    -0.504 OA
ATOM     21  H   UNL     1     -40.364  34.057  50.874  1.00  0.00     0.293 HD
ENDBRANCH  17  20
ENDBRANCH   1  12
BRANCH   6  22
ATOM     22  O   UNL     1     -36.624  39.432  42.812  1.00  0.00    -0.507 OA
ATOM     23  H   UNL     1     -36.345  39.389  41.839  1.00  0.00     0.293 HD
ENDBRANCH   6  22
BRANCH   8  24
ATOM     24  O   UNL     1     -34.346  35.332  44.015  1.00  0.00    -0.508 OA
ATOM     25  H   UNL     1     -33.666  35.089  44.726  1.00  0.00     0.293 HD
ENDBRANCH   8  24
TORSDOF 5
ENDMDL
MODEL 4
REMARK VINA RESULT:    -8.060      1.156      2.670
REMARK INTER + INTRA:          -9.783
REMARK INTER:                  -9.494
REMARK INTRA:                  -0.290
REMARK UNBOUND:                -0.309
REMARK SMILES O=c1cc(-c2ccc(O)c(O)c2)oc2cc(O)cc(O)c12
REMARK SMILES IDX 4 1 3 2 2 3 1 4 21 5 19 6 18 7 16 8 15 9 14 10 13 11 5 12
REMARK SMILES IDX 6 13 7 14 8 15 12 16 10 17 9 18 11 20 20 22 17 24
REMARK H PARENT 9 19 11 21 20 23 17 25
REMARK Flexibility Score: inf
ROOT
ATOM      1  C   UNL     1     -33.531  43.376  40.229  1.00  0.00     0.138 A 
ATOM      2  C   UNL     1     -32.508  42.422  40.361  1.00  0.00     0.100 A 
ATOM      3  C   UNL     1     -32.549  41.516  41.422  1.00  0.00     0.197 A 
ATOM      4  O   UNL     1     -31.626  40.664  41.533  1.00  0.00    -0.289 OA
ATOM      5  C   UNL     1     -33.612  41.573  42.346  1.00  0.00     0.107 A 
ATOM      6  C   UNL     1     -33.728  40.692  43.447  1.00  0.00     0.134 A 
ATOM      7  C   UNL     1     -34.815  40.818  44.326  1.00  0.00     0.093 A 
ATOM      8  C   UNL     1     -35.785  41.808  44.122  1.00  0.00     0.123 A 
ATOM      9  C   UNL     1     -35.672  42.679  43.037  1.00  0.00     0.094 A 
ATOM     10  C   UNL     1     -34.598  42.569  42.150  1.00  0.00     0.146 A 
ATOM     11  O   UNL     1     -34.516  43.410  41.124  1.00  0.00    -0.456 OA
ENDROOT
BRANCH   1  12
ATOM     12  C   UNL     1     -33.540  44.366  39.122  1.00  0.00     0.021 A 
ATOM     13  C   UNL     1     -34.764  44.897  38.679  1.00  0.00     0.016 A 
ATOM     14  C   UNL     1     -34.800  45.825  37.635  1.00  0.00     0.051 A 
ATOM     15  C   UNL     1     -33.615  46.228  37.007  1.00  0.00     0.157 A 
ATOM     16  C   UNL     1     -32.352  44.767  38.477  1.00  0.00     0.062 A 
ATOM     17  C   UNL     1     -32.390  45.697  37.427  1.00  0.00     0.158 A 
BRANCH  15  18
ATOM     18  O   UNL     1     -33.647  47.155  35.966  1.00  0.00    -0.504 OA
ATOM     19  H   UNL     1     -34.073  48.067  36.081  1.00  0.00     0.293 HD
ENDBRANCH  15  18
BRANCH  17  20
ATOM     20  O   UNL     1     -31.213  46.093  36.793  1.00  0.00    -0.504 OA
ATOM     21  H   UNL     1     -30.725  46.938  37.062  1.00  0.00     0.293 HD
ENDBRANCH  17  20
ENDBRANCH   1  12
BRANCH   6  22
ATOM     22  O   UNL     1     -32.777  39.696  43.674  1.00  0.00    -0.507 OA
ATOM     23  H   UNL     1     -32.099  39.436  42.968  1.00  0.00     0.293 HD
ENDBRANCH   6  22
BRANCH   8  24
ATOM     24  O   UNL     1     -36.863  41.934  44.995  1.00  0.00    -0.508 OA
ATOM     25  H   UNL     1     -37.711  41.394  44.872  1.00  0.00     0.293 HD
ENDBRANCH   8  24
TORSDOF 5
ENDMDL
MODEL 5
REMARK VINA RESULT:    -8.059      5.473      9.941
REMARK INTER + INTRA:          -9.781
REMARK INTER:                  -9.484
REMARK INTRA:                  -0.297
REMARK UNBOUND:                -0.309
REMARK SMILES O=c1cc(-c2ccc(O)c(O)c2)oc2cc(O)cc(O)c12
REMARK SMILES IDX 4 1 3 2 2 3 1 4 21 5 19 6 18 7 16 8 15 9 14 10 13 11 5 12
REMARK SMILES IDX 6 13 7 14 8 15 12 16 10 17 9 18 11 20 20 22 17 24
REMARK H PARENT 9 19 11 21 20 23 17 25
REMARK Flexibility Score: inf
ROOT
ATOM      1  C   UNL     1     -37.705  38.716  44.901  1.00  0.00     0.138 A 
ATOM      2  C   UNL     1     -36.312  38.580  45.022  1.00  0.00     0.100 A 
ATOM      3  C   UNL     1     -35.508  38.720  43.891  1.00  0.00     0.197 A 
ATOM      4  O   UNL     1     -34.259  38.595  44.010  1.00  0.00    -0.289 OA
ATOM      5  C   UNL     1     -36.104  38.992  42.643  1.00  0.00     0.107 A 
ATOM      6  C   UNL     1     -35.362  39.149  41.449  1.00  0.00     0.134 A 
ATOM      7  C   UNL     1     -36.032  39.413  40.244  1.00  0.00     0.093 A 
ATOM      8  C   UNL     1     -37.428  39.522  40.214  1.00  0.00     0.123 A 
ATOM      9  C   UNL     1     -38.163  39.367  41.391  1.00  0.00     0.094 A 
ATOM     10  C   UNL     1     -37.514  39.105  42.600  1.00  0.00     0.146 A 
ATOM     11  O   UNL     1     -38.237  38.963  43.706  1.00  0.00    -0.456 OA
ENDROOT
BRANCH   1  12
ATOM     12  C   UNL     1     -38.610  38.576  46.070  1.00  0.00     0.021 A 
ATOM     13  C   UNL     1     -39.997  38.718  45.891  1.00  0.00     0.016 A 
ATOM     14  C   UNL     1     -40.870  38.599  46.976  1.00  0.00     0.051 A 
ATOM     15  C   UNL     1     -40.370  38.345  48.259  1.00  0.00     0.157 A 
ATOM     16  C   UNL     1     -38.114  38.334  47.367  1.00  0.00     0.062 A 
ATOM     17  C   UNL     1     -38.990  38.215  48.456  1.00  0.00     0.158 A 
BRANCH  15  18
ATOM     18  O   UNL     1     -41.238  38.223  49.343  1.00  0.00    -0.504 OA
ATOM     19  H   UNL     1     -40.931  37.834  50.227  1.00  0.00     0.293 HD
ENDBRANCH  15  18
BRANCH  17  20
ATOM     20  O   UNL     1     -38.496  37.974  49.736  1.00  0.00    -0.504 OA
ATOM     21  H   UNL     1     -38.137  38.723  50.316  1.00  0.00     0.293 HD
ENDBRANCH  17  20
ENDBRANCH   1  12
BRANCH   6  22
ATOM     22  O   UNL     1     -33.970  39.046  41.449  1.00  0.00    -0.507 OA
ATOM     23  H   UNL     1     -33.417  39.301  40.639  1.00  0.00     0.293 HD
ENDBRANCH   6  22
BRANCH   8  24
ATOM     24  O   UNL     1     -38.093  39.783  39.018  1.00  0.00    -0.508 OA
ATOM     25  H   UNL     1     -39.095  39.663  38.932  1.00  0.00     0.293 HD
ENDBRANCH   8  24
TORSDOF 5
ENDMDL
MODEL 6
REMARK VINA RESULT:    -7.972      4.449      7.215
REMARK INTER + INTRA:          -9.679
REMARK INTER:                  -9.376
REMARK INTRA:                  -0.302
REMARK UNBOUND:                -0.309
REMARK SMILES O=c1cc(-c2ccc(O)c(O)c2)oc2cc(O)cc(O)c12
REMARK SMILES IDX 4 1 3 2 2 3 1 4 21 5 19 6 18 7 16 8 15 9 14 10 13 11 5 12
REMARK SMILES IDX 6 13 7 14 8 15 12 16 10 17 9 18 11 20 20 22 17 24
REMARK H PARENT 9 19 11 21 20 23 17 25
REMARK Flexibility Score: inf
ROOT
ATOM      1  C   UNL     1     -36.225  39.346  44.066  1.00  0.00     0.138 A 
ATOM      2  C   UNL     1     -35.434  38.956  45.159  1.00  0.00     0.100 A 
ATOM      3  C   UNL     1     -36.050  38.609  46.362  1.00  0.00     0.197 A 
ATOM      4  O   UNL     1     -35.332  38.261  47.338  1.00  0.00    -0.289 OA
ATOM      5  C   UNL     1     -37.455  38.657  46.464  1.00  0.00     0.107 A 
ATOM      6  C   UNL     1     -38.157  38.320  47.646  1.00  0.00     0.134 A 
ATOM      7  C   UNL     1     -39.558  38.400  47.668  1.00  0.00     0.093 A 
ATOM      8  C   UNL     1     -40.267  38.810  46.531  1.00  0.00     0.123 A 
ATOM      9  C   UNL     1     -39.577  39.143  45.364  1.00  0.00     0.094 A 
ATOM     10  C   UNL     1     -38.182  39.069  45.322  1.00  0.00     0.146 A 
ATOM     11  O   UNL     1     -37.549  39.390  44.198  1.00  0.00    -0.456 OA
ENDROOT
BRANCH   1  12
ATOM     12  C   UNL     1     -35.626  39.728  42.762  1.00  0.00     0.021 A 
ATOM     13  C   UNL     1     -34.452  39.088  42.327  1.00  0.00     0.016 A 
ATOM     14  C   UNL     1     -33.863  39.434  41.108  1.00  0.00     0.051 A 
ATOM     15  C   UNL     1     -34.433  40.432  40.307  1.00  0.00     0.157 A 
ATOM     16  C   UNL     1     -36.185  40.740  41.957  1.00  0.00     0.062 A 
ATOM     17  C   UNL     1     -35.594  41.088  40.734  1.00  0.00     0.158 A 
BRANCH  15  18
ATOM     18  O   UNL     1     -33.850  40.778  39.089  1.00  0.00    -0.504 OA
ATOM     19  H   UNL     1     -33.205  41.556  39.012  1.00  0.00     0.293 HD
ENDBRANCH  15  18
BRANCH  17  20
ATOM     20  O   UNL     1     -36.151  42.088  39.939  1.00  0.00    -0.504 OA
ATOM     21  H   UNL     1     -37.105  42.028  39.602  1.00  0.00     0.293 HD
ENDBRANCH  17  20
ENDBRANCH   1  12
BRANCH   6  22
ATOM     22  O   UNL     1     -37.478  37.909  48.793  1.00  0.00    -0.507 OA
ATOM     23  H   UNL     1     -37.104  36.971  48.884  1.00  0.00     0.293 HD
ENDBRANCH   6  22
BRANCH   8  24
ATOM     24  O   UNL     1     -41.657  38.890  46.554  1.00  0.00    -0.508 OA
ATOM     25  H   UNL     1     -42.180  38.797  47.417  1.00  0.00     0.293 HD
ENDBRANCH   8  24
TORSDOF 5
ENDMDL
MODEL 7
REMARK VINA RESULT:    -7.870      4.769      9.266
REMARK INTER + INTRA:          -9.559
REMARK INTER:                  -9.244
REMARK INTRA:                  -0.315
REMARK UNBOUND:                -0.309
REMARK SMILES O=c1cc(-c2ccc(O)c(O)c2)oc2cc(O)cc(O)c12
REMARK SMILES IDX 4 1 3 2 2 3 1 4 21 5 19 6 18 7 16 8 15 9 14 10 13 11 5 12
REMARK SMILES IDX 6 13 7 14 8 15 12 16 10 17 9 18 11 20 20 22 17 24
REMARK H PARENT 9 19 11 21 20 23 17 25
REMARK Flexibility Score: inf
ROOT
ATOM      1  C   UNL     1     -37.638  39.662  44.854  1.00  0.00     0.138 A 
ATOM      2  C   UNL     1     -38.016  39.709  43.502  1.00  0.00     0.100 A 
ATOM      3  C   UNL     1     -37.109  40.178  42.552  1.00  0.00     0.197 A 
ATOM      4  O   UNL     1     -37.458  40.218  41.341  1.00  0.00    -0.289 OA
ATOM      5  C   UNL     1     -35.828  40.601  42.961  1.00  0.00     0.107 A 
ATOM      6  C   UNL     1     -34.849  41.088  42.063  1.00  0.00     0.134 A 
ATOM      7  C   UNL     1     -33.598  41.495  42.552  1.00  0.00     0.093 A 
ATOM      8  C   UNL     1     -33.310  41.423  43.920  1.00  0.00     0.123 A 
ATOM      9  C   UNL     1     -34.274  40.944  44.809  1.00  0.00     0.094 A 
ATOM     10  C   UNL     1     -35.525  40.533  44.342  1.00  0.00     0.146 A 
ATOM     11  O   UNL     1     -36.424  40.078  45.209  1.00  0.00    -0.456 OA
ENDROOT
BRANCH   1  12
ATOM     12  C   UNL     1     -38.561  39.174  45.909  1.00  0.00     0.021 A 
ATOM     13  C   UNL     1     -39.937  39.083  45.636  1.00  0.00     0.016 A 
ATOM     14  C   UNL     1     -40.829  38.634  46.613  1.00  0.00     0.051 A 
ATOM     15  C   UNL     1     -40.361  38.278  47.885  1.00  0.00     0.157 A 
ATOM     16  C   UNL     1     -38.100  38.827  47.195  1.00  0.00     0.062 A 
ATOM     17  C   UNL     1     -38.996  38.378  48.177  1.00  0.00     0.158 A 
BRANCH  15  18
ATOM     18  O   UNL     1     -41.247  37.828  48.862  1.00  0.00    -0.504 OA
ATOM     19  H   UNL     1     -41.494  38.402  49.659  1.00  0.00     0.293 HD
ENDBRANCH  15  18
BRANCH  17  20
ATOM     20  O   UNL     1     -38.536  38.033  49.447  1.00  0.00    -0.504 OA
ATOM     21  H   UNL     1     -38.688  38.635  50.247  1.00  0.00     0.293 HD
ENDBRANCH  17  20
ENDBRANCH   1  12
BRANCH   6  22
ATOM     22  O   UNL     1     -35.108  41.170  40.694  1.00  0.00    -0.507 OA
ATOM     23  H   UNL     1     -34.759  41.937  40.131  1.00  0.00     0.293 HD
ENDBRANCH   6  22
BRANCH   8  24
ATOM     24  O   UNL     1     -32.069  41.828  44.405  1.00  0.00    -0.508 OA
ATOM     25  H   UNL     1     -31.976  42.299  45.298  1.00  0.00     0.293 HD
ENDBRANCH   8  24
TORSDOF 5
ENDMDL
MODEL 8
REMARK VINA RESULT:    -7.798      2.207      3.796
REMARK INTER + INTRA:          -9.474
REMARK INTER:                  -9.181
REMARK INTRA:                  -0.294
REMARK UNBOUND:                -0.309
REMARK SMILES O=c1cc(-c2ccc(O)c(O)c2)oc2cc(O)cc(O)c12
REMARK SMILES IDX 4 1 3 2 2 3 1 4 21 5 19 6 18 7 16 8 15 9 14 10 13 11 5 12
REMARK SMILES IDX 6 13 7 14 8 15 12 16 10 17 9 18 11 20 20 22 17 24
REMARK H PARENT 9 19 11 21 20 23 17 25
REMARK Flexibility Score: inf
ROOT
ATOM      1  C   UNL     1     -34.760  42.122  41.888  1.00  0.00     0.138 A 
ATOM      2  C   UNL     1     -34.107  40.889  41.726  1.00  0.00     0.100 A 
ATOM      3  C   UNL     1     -34.153  39.948  42.754  1.00  0.00     0.197 A 
ATOM      4  O   UNL     1     -33.563  38.844  42.599  1.00  0.00    -0.289 OA
ATOM      5  C   UNL     1     -34.850  40.248  43.941  1.00  0.00     0.107 A 
ATOM      6  C   UNL     1     -34.946  39.349  45.031  1.00  0.00     0.134 A 
ATOM      7  C   UNL     1     -35.654  39.726  46.182  1.00  0.00     0.093 A 
ATOM      8  C   UNL     1     -36.267  40.983  46.262  1.00  0.00     0.123 A 
ATOM      9  C   UNL     1     -36.174  41.872  45.189  1.00  0.00     0.094 A 
ATOM     10  C   UNL     1     -35.474  41.515  44.034  1.00  0.00     0.146 A 
ATOM     11  O   UNL     1     -35.402  42.378  43.026  1.00  0.00    -0.456 OA
ENDROOT
BRANCH   1  12
ATOM     12  C   UNL     1     -34.744  43.163  40.829  1.00  0.00     0.021 A 
ATOM     13  C   UNL     1     -35.083  44.487  41.156  1.00  0.00     0.016 A 
ATOM     14  C   UNL     1     -35.083  45.484  40.177  1.00  0.00     0.051 A 
ATOM     15  C   UNL     1     -34.755  45.171  38.852  1.00  0.00     0.157 A 
ATOM     16  C   UNL     1     -34.428  42.853  39.491  1.00  0.00     0.062 A 
ATOM     17  C   UNL     1     -34.429  43.854  38.508  1.00  0.00     0.158 A 
BRANCH  15  18
ATOM     18  O   UNL     1     -34.752  46.163  37.872  1.00  0.00    -0.504 OA
ATOM     19  H   UNL     1     -34.392  45.989  36.941  1.00  0.00     0.293 HD
ENDBRANCH  15  18
BRANCH  17  20
ATOM     20  O   UNL     1     -34.113  43.545  37.186  1.00  0.00    -0.504 OA
ATOM     21  H   UNL     1     -34.605  42.819  36.679  1.00  0.00     0.293 HD
ENDBRANCH  17  20
ENDBRANCH   1  12
BRANCH   6  22
ATOM     22  O   UNL     1     -34.346  38.091  44.979  1.00  0.00    -0.507 OA
ATOM     23  H   UNL     1     -33.715  37.831  44.229  1.00  0.00     0.293 HD
ENDBRANCH   6  22
BRANCH   8  24
ATOM     24  O   UNL     1     -36.969  41.357  47.405  1.00  0.00    -0.508 OA
ATOM     25  H   UNL     1     -36.491  41.626  48.257  1.00  0.00     0.293 HD
ENDBRANCH   8  24
TORSDOF 5
ENDMDL
MODEL 9
REMARK VINA RESULT:    -7.792      2.808      8.146
REMARK INTER + INTRA:          -9.468
REMARK INTER:                  -9.154
REMARK INTRA:                  -0.314
REMARK UNBOUND:                -0.309
REMARK SMILES O=c1cc(-c2ccc(O)c(O)c2)oc2cc(O)cc(O)c12
REMARK SMILES IDX 4 1 3 2 2 3 1 4 21 5 19 6 18 7 16 8 15 9 14 10 13 11 5 12
REMARK SMILES IDX 6 13 7 14 8 15 12 16 10 17 9 18 11 20 20 22 17 24
REMARK H PARENT 9 19 11 21 20 23 17 25
REMARK Flexibility Score: inf
ROOT
ATOM      1  C   UNL     1     -34.658  40.080  43.018  1.00  0.00     0.138 A 
ATOM      2  C   UNL     1     -34.267  39.511  41.795  1.00  0.00     0.100 A 
ATOM      3  C   UNL     1     -34.179  40.317  40.660  1.00  0.00     0.197 A 
ATOM      4  O   UNL     1     -33.828  39.796  39.566  1.00  0.00    -0.289 OA
ATOM      5  C   UNL     1     -34.486  41.689  40.755  1.00  0.00     0.107 A 
ATOM      6  C   UNL     1     -34.421  42.575  39.654  1.00  0.00     0.134 A 
ATOM      7  C   UNL     1     -34.749  43.928  39.830  1.00  0.00     0.093 A 
ATOM      8  C   UNL     1     -35.140  44.409  41.086  1.00  0.00     0.123 A 
ATOM      9  C   UNL     1     -35.206  43.536  42.175  1.00  0.00     0.094 A 
ATOM     10  C   UNL     1     -34.882  42.186  42.020  1.00  0.00     0.146 A 
ATOM     11  O   UNL     1     -34.951  41.378  43.072  1.00  0.00    -0.456 OA
ENDROOT
BRANCH   1  12
ATOM     12  C   UNL     1     -34.771  39.271  44.258  1.00  0.00     0.021 A 
ATOM     13  C   UNL     1     -34.870  37.872  44.165  1.00  0.00     0.016 A 
ATOM     14  C   UNL     1     -34.984  37.088  45.316  1.00  0.00     0.051 A 
ATOM     15  C   UNL     1     -35.012  37.691  46.580  1.00  0.00     0.157 A 
ATOM     16  C   UNL     1     -34.814  39.871  45.533  1.00  0.00     0.062 A 
ATOM     17  C   UNL     1     -34.930  39.085  46.688  1.00  0.00     0.158 A 
BRANCH  15  18
ATOM     18  O   UNL     1     -35.124  36.912  47.731  1.00  0.00    -0.504 OA
ATOM     19  H   UNL     1     -35.457  37.302  48.604  1.00  0.00     0.293 HD
ENDBRANCH  15  18
BRANCH  17  20
ATOM     20  O   UNL     1     -34.969  39.681  47.947  1.00  0.00    -0.504 OA
ATOM     21  H   UNL     1     -35.844  39.962  48.374  1.00  0.00     0.293 HD
ENDBRANCH  17  20
ENDBRANCH   1  12
BRANCH   6  22
ATOM     22  O   UNL     1     -34.034  42.124  38.391  1.00  0.00    -0.507 OA
ATOM     23  H   UNL     1     -33.462  42.690  37.775  1.00  0.00     0.293 HD
ENDBRANCH   6  22
BRANCH   8  24
ATOM     24  O   UNL     1     -35.467  45.751  41.261  1.00  0.00    -0.508 OA
ATOM     25  H   UNL     1     -34.931  46.352  41.877  1.00  0.00     0.293 HD
ENDBRANCH   8  24
TORSDOF 5
ENDMDL
