MODEL 1
REMARK VINA RESULT:    -5.686      0.000      0.000
REMARK INTER + INTRA:         -15.057
REMARK INTER:                 -12.333
REMARK INTRA:                  -2.724
REMARK UNBOUND:                -2.724
REMARK SMILES CCCCCCCCCCCCCCCCCCCCCC(=O)[O-]
REMARK SMILES IDX 12 1 11 2 10 3 9 4 8 5 7 6 6 7 5 8 4 9 3 10 2 11 1 12 13 13
REMARK SMILES IDX 14 14 15 15 16 16 17 17 18 18 19 19 20 20 21 21 22 22 23 23
REMARK SMILES IDX 24 24
REMARK H PARENT
REMARK Flexibility Score: inf
ROOT
ATOM      1  C   UNL     1     137.421 137.929 113.992  1.00  0.00     0.000 C 
ENDROOT
BRANCH   1   2
ATOM      2  C   UNL     1     138.853 138.410 114.250  1.00  0.00     0.000 C 
BRANCH   2   3
ATOM      3  C   UNL     1     139.091 139.796 113.632  1.00  0.00     0.000 C 
BRANCH   3   4
ATOM      4  C   UNL     1     140.425 139.877 112.860  1.00  0.00    -0.000 C 
BRANCH   4   5
ATOM      5  C   UNL     1     140.628 141.204 112.108  1.00  0.00    -0.000 C 
BRANCH   5   6
ATOM      6  C   UNL     1     141.537 142.186 112.860  1.00  0.00    -0.000 C 
BRANCH   6   7
ATOM      7  C   UNL     1     143.018 141.770 112.835  1.00  0.00    -0.000 C 
BRANCH   7   8
ATOM      8  C   UNL     1     143.573 141.369 114.217  1.00  0.00    -0.000 C 
BRANCH   8   9
ATOM      9  C   UNL     1     142.593 141.699 115.357  1.00  0.00    -0.000 C 
BRANCH   9  10
ATOM     10  C   UNL     1     142.105 140.447 116.101  1.00  0.00    -0.000 C 
BRANCH  10  11
ATOM     11  C   UNL     1     140.767 140.669 116.823  1.00  0.00    -0.003 C 
ATOM     12  C   UNL     1     140.127 141.989 116.403  1.00  0.00     0.004 C 
ENDBRANCH  10  11
ENDBRANCH   9  10
ENDBRANCH   8   9
ENDBRANCH   7   8
ENDBRANCH   6   7
ENDBRANCH   5   6
ENDBRANCH   4   5
ENDBRANCH   3   4
ENDBRANCH   2   3
ENDBRANCH   1   2
BRANCH   1  13
ATOM     13  C   UNL     1     137.292 137.302 112.596  1.00  0.00     0.000 C 
BRANCH  13  14
ATOM     14  C   UNL     1     135.897 136.718 112.329  1.00  0.00     0.000 C 
BRANCH  14  15
ATOM     15  C   UNL     1     135.878 135.183 112.362  1.00  0.00     0.000 C 
BRANCH  15  16
ATOM     16  C   UNL     1     134.455 134.656 112.596  1.00  0.00     0.000 C 
BRANCH  16  17
ATOM     17  C   UNL     1     134.359 133.702 113.798  1.00  0.00     0.000 C 
BRANCH  17  18
ATOM     18  C   UNL     1     133.480 134.239 114.947  1.00  0.00     0.000 C 
BRANCH  18  19
ATOM     19  C   UNL     1     133.466 135.777 114.995  1.00  0.00     0.000 C 
BRANCH  19  20
ATOM     20  C   UNL     1     134.436 136.352 116.043  1.00  0.00     0.006 C 
BRANCH  20  21
ATOM     21  C   UNL     1     134.997 135.314 117.027  1.00  0.00     0.053 C 
BRANCH  21  22
ATOM     22  C   UNL     1     136.485 135.183 116.921  1.00  0.00     0.041 C 
ATOM     23  O   UNL     1     137.020 134.915 115.813  1.00  0.00    -0.550 OA
ATOM     24  O   UNL     1     137.279 135.325 118.052  1.00  0.00    -0.550 OA
ENDBRANCH  21  22
ENDBRANCH  20  21
ENDBRANCH  19  20
ENDBRANCH  18  19
ENDBRANCH  17  18
ENDBRANCH  16  17
ENDBRANCH  15  16
ENDBRANCH  14  15
ENDBRANCH  13  14
ENDBRANCH   1  13
TORSDOF 20
ENDMDL
MODEL 2
REMARK VINA RESULT:    -5.659      1.354      2.583
REMARK INTER + INTRA:         -14.999
REMARK INTER:                 -12.230
REMARK INTRA:                  -2.770
REMARK UNBOUND:                -2.724
REMARK SMILES CCCCCCCCCCCCCCCCCCCCCC(=O)[O-]
REMARK SMILES IDX 12 1 11 2 10 3 9 4 8 5 7 6 6 7 5 8 4 9 3 10 2 11 1 12 13 13
REMARK SMILES IDX 14 14 15 15 16 16 17 17 18 18 19 19 20 20 21 21 22 22 23 23
REMARK SMILES IDX 24 24
REMARK H PARENT
REMARK Flexibility Score: inf
ROOT
ATOM      1  C   UNL     1     135.792 137.241 112.271  1.00  0.00     0.000 C 
ENDROOT
BRANCH   1   2
ATOM      2  C   UNL     1     136.899 136.803 113.236  1.00  0.00     0.000 C 
BRANCH   2   3
ATOM      3  C   UNL     1     138.105 137.750 113.160  1.00  0.00     0.000 C 
BRANCH   3   4
ATOM      4  C   UNL     1     138.239 138.636 114.417  1.00  0.00    -0.000 C 
BRANCH   4   5
ATOM      5  C   UNL     1     139.047 139.926 114.184  1.00  0.00    -0.000 C 
BRANCH   5   6
ATOM      6  C   UNL     1     140.054 139.801 113.031  1.00  0.00    -0.000 C 
BRANCH   6   7
ATOM      7  C   UNL     1     140.586 141.163 112.552  1.00  0.00    -0.000 C 
BRANCH   7   8
ATOM      8  C   UNL     1     140.683 142.219 113.672  1.00  0.00    -0.000 C 
BRANCH   8   9
ATOM      9  C   UNL     1     142.112 142.766 113.835  1.00  0.00    -0.000 C 
BRANCH   9  10
ATOM     10  C   UNL     1     142.734 142.404 115.193  1.00  0.00    -0.000 C 
BRANCH  10  11
ATOM     11  C   UNL     1     141.780 141.594 116.085  1.00  0.00    -0.003 C 
ATOM     12  C   UNL     1     142.216 140.135 116.174  1.00  0.00     0.004 C 
ENDBRANCH  10  11
ENDBRANCH   9  10
ENDBRANCH   8   9
ENDBRANCH   7   8
ENDBRANCH   6   7
ENDBRANCH   5   6
ENDBRANCH   4   5
ENDBRANCH   3   4
ENDBRANCH   2   3
ENDBRANCH   1   2
BRANCH   1  13
ATOM     13  C   UNL     1     134.403 137.039 112.896  1.00  0.00     0.000 C 
BRANCH  13  14
ATOM     14  C   UNL     1     134.455 136.854 114.420  1.00  0.00     0.000 C 
BRANCH  14  15
ATOM     15  C   UNL     1     133.233 136.103 114.970  1.00  0.00     0.000 C 
BRANCH  15  16
ATOM     16  C   UNL     1     133.040 134.763 114.244  1.00  0.00     0.000 C 
BRANCH  16  17
ATOM     17  C   UNL     1     133.947 133.648 114.792  1.00  0.00     0.000 C 
BRANCH  17  18
ATOM     18  C   UNL     1     135.247 133.454 113.984  1.00  0.00     0.000 C 
BRANCH  18  19
ATOM     19  C   UNL     1     136.495 133.458 114.886  1.00  0.00     0.000 C 
BRANCH  19  20
ATOM     20  C   UNL     1     136.182 133.855 116.340  1.00  0.00     0.006 C 
BRANCH  20  21
ATOM     21  C   UNL     1     136.716 135.237 116.750  1.00  0.00     0.053 C 
BRANCH  21  22
ATOM     22  C   UNL     1     136.090 135.731 118.017  1.00  0.00     0.041 C 
ATOM     23  O   UNL     1     134.982 136.328 117.985  1.00  0.00    -0.550 OA
ATOM     24  O   UNL     1     136.745 135.559 119.230  1.00  0.00    -0.550 OA
ENDBRANCH  21  22
ENDBRANCH  20  21
ENDBRANCH  19  20
ENDBRANCH  18  19
ENDBRANCH  17  18
ENDBRANCH  16  17
ENDBRANCH  15  16
ENDBRANCH  14  15
ENDBRANCH  13  14
ENDBRANCH   1  13
TORSDOF 20
ENDMDL
MODEL 3
REMARK VINA RESULT:    -5.633      2.336      8.385
REMARK INTER + INTRA:         -14.942
REMARK INTER:                 -12.144
REMARK INTRA:                  -2.798
REMARK UNBOUND:                -2.724
REMARK SMILES CCCCCCCCCCCCCCCCCCCCCC(=O)[O-]
REMARK SMILES IDX 12 1 11 2 10 3 9 4 8 5 7 6 6 7 5 8 4 9 3 10 2 11 1 12 13 13
REMARK SMILES IDX 14 14 15 15 16 16 17 17 18 18 19 19 20 20 21 21 22 22 23 23
REMARK SMILES IDX 24 24
REMARK H PARENT
REMARK Flexibility Score: inf
ROOT
ATOM      1  C   UNL     1     137.693 137.066 114.185  1.00  0.00     0.000 C 
ENDROOT
BRANCH   1   2
ATOM      2  C   UNL     1     136.652 136.489 113.220  1.00  0.00     0.000 C 
BRANCH   2   3
ATOM      3  C   UNL     1     135.264 137.096 113.477  1.00  0.00     0.000 C 
BRANCH   3   4
ATOM      4  C   UNL     1     134.800 136.908 114.937  1.00  0.00    -0.000 C 
BRANCH   4   5
ATOM      5  C   UNL     1     133.591 135.967 115.088  1.00  0.00    -0.000 C 
BRANCH   5   6
ATOM      6  C   UNL     1     133.177 135.308 113.765  1.00  0.00    -0.000 C 
BRANCH   6   7
ATOM      7  C   UNL     1     133.798 133.914 113.570  1.00  0.00    -0.000 C 
BRANCH   7   8
ATOM      8  C   UNL     1     134.435 133.336 114.851  1.00  0.00    -0.000 C 
BRANCH   8   9
ATOM      9  C   UNL     1     135.916 132.971 114.652  1.00  0.00    -0.000 C 
BRANCH   9  10
ATOM     10  C   UNL     1     136.841 133.676 115.657  1.00  0.00    -0.000 C 
BRANCH  10  11
ATOM     11  C   UNL     1     136.105 134.115 116.933  1.00  0.00    -0.003 C 
ATOM     12  C   UNL     1     136.837 135.260 117.625  1.00  0.00     0.004 C 
ENDBRANCH  10  11
ENDBRANCH   9  10
ENDBRANCH   8   9
ENDBRANCH   7   8
ENDBRANCH   6   7
ENDBRANCH   5   6
ENDBRANCH   4   5
ENDBRANCH   3   4
ENDBRANCH   2   3
ENDBRANCH   1   2
BRANCH   1  13
ATOM     13  C   UNL     1     138.129 138.474 113.751  1.00  0.00     0.000 C 
BRANCH  13  14
ATOM     14  C   UNL     1     139.614 138.752 114.026  1.00  0.00     0.000 C 
BRANCH  14  15
ATOM     15  C   UNL     1     140.368 139.244 112.782  1.00  0.00     0.000 C 
BRANCH  15  16
ATOM     16  C   UNL     1     141.870 139.384 113.070  1.00  0.00     0.000 C 
BRANCH  16  17
ATOM     17  C   UNL     1     142.297 140.838 113.331  1.00  0.00     0.000 C 
BRANCH  17  18
ATOM     18  C   UNL     1     141.328 141.884 112.741  1.00  0.00     0.000 C 
BRANCH  18  19
ATOM     19  C   UNL     1     140.658 142.736 113.834  1.00  0.00     0.000 C 
BRANCH  19  20
ATOM     20  C   UNL     1     140.999 142.260 115.257  1.00  0.00     0.006 C 
BRANCH  20  21
ATOM     21  C   UNL     1     139.782 141.828 116.091  1.00  0.00     0.053 C 
BRANCH  21  22
ATOM     22  C   UNL     1     140.100 141.744 117.552  1.00  0.00     0.041 C 
ATOM     23  O   UNL     1     141.213 142.144 117.982  1.00  0.00    -0.550 OA
ATOM     24  O   UNL     1     139.178 141.193 118.434  1.00  0.00    -0.550 OA
ENDBRANCH  21  22
ENDBRANCH  20  21
ENDBRANCH  19  20
ENDBRANCH  18  19
ENDBRANCH  17  18
ENDBRANCH  16  17
ENDBRANCH  15  16
ENDBRANCH  14  15
ENDBRANCH  13  14
ENDBRANCH   1  13
TORSDOF 20
ENDMDL
MODEL 4
REMARK VINA RESULT:    -5.625      2.813      8.762
REMARK INTER + INTRA:         -14.925
REMARK INTER:                 -12.289
REMARK INTRA:                  -2.636
REMARK UNBOUND:                -2.724
REMARK SMILES CCCCCCCCCCCCCCCCCCCCCC(=O)[O-]
REMARK SMILES IDX 12 1 11 2 10 3 9 4 8 5 7 6 6 7 5 8 4 9 3 10 2 11 1 12 13 13
REMARK SMILES IDX 14 14 15 15 16 16 17 17 18 18 19 19 20 20 21 21 22 22 23 23
REMARK SMILES IDX 24 24
REMARK H PARENT
REMARK Flexibility Score: inf
ROOT
ATOM      1  C   UNL     1     137.999 137.255 114.412  1.00  0.00     0.000 C 
ENDROOT
BRANCH   1   2
ATOM      2  C   UNL     1     136.844 136.558 113.684  1.00  0.00     0.000 C 
BRANCH   2   3
ATOM      3  C   UNL     1     135.486 137.090 114.166  1.00  0.00     0.000 C 
BRANCH   3   4
ATOM      4  C   UNL     1     134.356 136.834 113.145  1.00  0.00    -0.000 C 
BRANCH   4   5
ATOM      5  C   UNL     1     133.380 135.721 113.566  1.00  0.00    -0.000 C 
BRANCH   5   6
ATOM      6  C   UNL     1     133.864 134.318 113.170  1.00  0.00    -0.000 C 
BRANCH   6   7
ATOM      7  C   UNL     1     134.185 133.431 114.385  1.00  0.00    -0.000 C 
BRANCH   7   8
ATOM      8  C   UNL     1     135.696 133.281 114.660  1.00  0.00    -0.000 C 
BRANCH   8   9
ATOM      9  C   UNL     1     136.099 133.850 116.031  1.00  0.00    -0.000 C 
BRANCH   9  10
ATOM     10  C   UNL     1     134.932 134.547 116.749  1.00  0.00    -0.000 C 
BRANCH  10  11
ATOM     11  C   UNL     1     135.400 135.670 117.688  1.00  0.00    -0.003 C 
ATOM     12  C   UNL     1     136.912 135.631 117.883  1.00  0.00     0.004 C 
ENDBRANCH  10  11
ENDBRANCH   9  10
ENDBRANCH   8   9
ENDBRANCH   7   8
ENDBRANCH   6   7
ENDBRANCH   5   6
ENDBRANCH   4   5
ENDBRANCH   3   4
ENDBRANCH   2   3
ENDBRANCH   1   2
BRANCH   1  13
ATOM     13  C   UNL     1     138.025 138.758 114.095  1.00  0.00     0.000 C 
BRANCH  13  14
ATOM     14  C   UNL     1     139.370 139.416 114.433  1.00  0.00     0.000 C 
BRANCH  14  15
ATOM     15  C   UNL     1     140.290 139.552 113.210  1.00  0.00     0.000 C 
BRANCH  15  16
ATOM     16  C   UNL     1     141.756 139.302 113.596  1.00  0.00     0.000 C 
BRANCH  16  17
ATOM     17  C   UNL     1     142.751 139.911 112.594  1.00  0.00     0.000 C 
BRANCH  17  18
ATOM     18  C   UNL     1     142.990 141.421 112.799  1.00  0.00     0.000 C 
BRANCH  18  19
ATOM     19  C   UNL     1     143.280 141.767 114.271  1.00  0.00     0.000 C 
BRANCH  19  20
ATOM     20  C   UNL     1     142.487 142.990 114.766  1.00  0.00     0.006 C 
BRANCH  20  21
ATOM     21  C   UNL     1     141.033 143.047 114.271  1.00  0.00     0.053 C 
BRANCH  21  22
ATOM     22  C   UNL     1     140.062 143.244 115.394  1.00  0.00     0.041 C 
ATOM     23  O   UNL     1     139.944 142.369 116.291  1.00  0.00    -0.550 OA
ATOM     24  O   UNL     1     139.264 144.381 115.432  1.00  0.00    -0.550 OA
ENDBRANCH  21  22
ENDBRANCH  20  21
ENDBRANCH  19  20
ENDBRANCH  18  19
ENDBRANCH  17  18
ENDBRANCH  16  17
ENDBRANCH  15  16
ENDBRANCH  14  15
ENDBRANCH  13  14
ENDBRANCH   1  13
TORSDOF 20
ENDMDL
MODEL 5
REMARK VINA RESULT:    -5.615      2.386      8.496
REMARK INTER + INTRA:         -14.903
REMARK INTER:                 -12.333
REMARK INTRA:                  -2.570
REMARK UNBOUND:                -2.724
REMARK SMILES CCCCCCCCCCCCCCCCCCCCCC(=O)[O-]
REMARK SMILES IDX 12 1 11 2 10 3 9 4 8 5 7 6 6 7 5 8 4 9 3 10 2 11 1 12 13 13
REMARK SMILES IDX 14 14 15 15 16 16 17 17 18 18 19 19 20 20 21 21 22 22 23 23
REMARK SMILES IDX 24 24
REMARK H PARENT
REMARK Flexibility Score: inf
ROOT
ATOM      1  C   UNL     1     140.398 139.870 112.538  1.00  0.00     0.000 C 
ENDROOT
BRANCH   1   2
ATOM      2  C   UNL     1     139.399 138.762 112.187  1.00  0.00     0.000 C 
BRANCH   2   3
ATOM      3  C   UNL     1     138.373 138.567 113.313  1.00  0.00     0.000 C 
BRANCH   3   4
ATOM      4  C   UNL     1     137.429 137.373 113.050  1.00  0.00    -0.000 C 
BRANCH   4   5
ATOM      5  C   UNL     1     136.500 137.045 114.233  1.00  0.00    -0.000 C 
BRANCH   5   6
ATOM      6  C   UNL     1     137.169 136.154 115.290  1.00  0.00    -0.000 C 
BRANCH   6   7
ATOM      7  C   UNL     1     136.250 135.028 115.793  1.00  0.00    -0.000 C 
BRANCH   7   8
ATOM      8  C   UNL     1     136.441 133.692 115.046  1.00  0.00    -0.000 C 
BRANCH   8   9
ATOM      9  C   UNL     1     135.133 133.182 114.417  1.00  0.00    -0.000 C 
BRANCH   9  10
ATOM     10  C   UNL     1     133.913 134.025 114.823  1.00  0.00    -0.000 C 
BRANCH  10  11
ATOM     11  C   UNL     1     133.240 134.709 113.622  1.00  0.00    -0.003 C 
ATOM     12  C   UNL     1     132.335 135.850 114.075  1.00  0.00     0.004 C 
ENDBRANCH  10  11
ENDBRANCH   9  10
ENDBRANCH   8   9
ENDBRANCH   7   8
ENDBRANCH   6   7
ENDBRANCH   5   6
ENDBRANCH   4   5
ENDBRANCH   3   4
ENDBRANCH   2   3
ENDBRANCH   1   2
BRANCH   1  13
ATOM     13  C   UNL     1     141.723 139.277 113.042  1.00  0.00     0.000 C 
BRANCH  13  14
ATOM     14  C   UNL     1     142.853 140.315 113.112  1.00  0.00     0.000 C 
BRANCH  14  15
ATOM     15  C   UNL     1     143.322 140.587 114.549  1.00  0.00     0.000 C 
BRANCH  15  16
ATOM     16  C   UNL     1     143.117 142.062 114.923  1.00  0.00     0.000 C 
BRANCH  16  17
ATOM     17  C   UNL     1     142.389 142.863 113.831  1.00  0.00     0.000 C 
BRANCH  17  18
ATOM     18  C   UNL     1     140.921 143.189 114.176  1.00  0.00     0.000 C 
BRANCH  18  19
ATOM     19  C   UNL     1     140.530 142.687 115.577  1.00  0.00     0.000 C 
BRANCH  19  20
ATOM     20  C   UNL     1     139.532 141.516 115.537  1.00  0.00     0.006 C 
BRANCH  20  21
ATOM     21  C   UNL     1     139.932 140.310 116.400  1.00  0.00     0.053 C 
BRANCH  21  22
ATOM     22  C   UNL     1     140.265 140.707 117.805  1.00  0.00     0.041 C 
ATOM     23  O   UNL     1     139.376 141.188 118.555  1.00  0.00    -0.550 OA
ATOM     24  O   UNL     1     141.565 140.574 118.277  1.00  0.00    -0.550 OA
ENDBRANCH  21  22
ENDBRANCH  20  21
ENDBRANCH  19  20
ENDBRANCH  18  19
ENDBRANCH  17  18
ENDBRANCH  16  17
ENDBRANCH  15  16
ENDBRANCH  14  15
ENDBRANCH  13  14
ENDBRANCH   1  13
TORSDOF 20
ENDMDL
MODEL 6
REMARK VINA RESULT:    -5.551      1.415      2.656
REMARK INTER + INTRA:         -14.766
REMARK INTER:                 -12.098
REMARK INTRA:                  -2.667
REMARK UNBOUND:                -2.724
REMARK SMILES CCCCCCCCCCCCCCCCCCCCCC(=O)[O-]
REMARK SMILES IDX 12 1 11 2 10 3 9 4 8 5 7 6 6 7 5 8 4 9 3 10 2 11 1 12 13 13
REMARK SMILES IDX 14 14 15 15 16 16 17 17 18 18 19 19 20 20 21 21 22 22 23 23
REMARK SMILES IDX 24 24
REMARK H PARENT
REMARK Flexibility Score: inf
ROOT
ATOM      1  C   UNL     1     139.502 139.390 112.736  1.00  0.00     0.000 C 
ENDROOT
BRANCH   1   2
ATOM      2  C   UNL     1     140.575 139.165 113.807  1.00  0.00     0.000 C 
BRANCH   2   3
ATOM      3  C   UNL     1     141.930 139.732 113.358  1.00  0.00     0.000 C 
BRANCH   3   4
ATOM      4  C   UNL     1     142.817 140.155 114.549  1.00  0.00    -0.000 C 
BRANCH   4   5
ATOM      5  C   UNL     1     143.448 141.549 114.389  1.00  0.00    -0.000 C 
BRANCH   5   6
ATOM      6  C   UNL     1     142.692 142.641 115.160  1.00  0.00    -0.000 C 
BRANCH   6   7
ATOM      7  C   UNL     1     141.579 143.300 114.327  1.00  0.00    -0.000 C 
BRANCH   7   8
ATOM      8  C   UNL     1     140.156 142.892 114.763  1.00  0.00    -0.000 C 
BRANCH   8   9
ATOM      9  C   UNL     1     140.074 142.577 116.267  1.00  0.00    -0.000 C 
BRANCH   9  10
ATOM     10  C   UNL     1     139.552 141.159 116.548  1.00  0.00    -0.000 C 
BRANCH  10  11
ATOM     11  C   UNL     1     139.985 140.630 117.925  1.00  0.00    -0.003 C 
ATOM     12  C   UNL     1     141.489 140.385 117.973  1.00  0.00     0.004 C 
ENDBRANCH  10  11
ENDBRANCH   9  10
ENDBRANCH   8   9
ENDBRANCH   7   8
ENDBRANCH   6   7
ENDBRANCH   5   6
ENDBRANCH   4   5
ENDBRANCH   3   4
ENDBRANCH   2   3
ENDBRANCH   1   2
BRANCH   1  13
ATOM     13  C   UNL     1     138.349 138.386 112.891  1.00  0.00     0.000 C 
BRANCH  13  14
ATOM     14  C   UNL     1     138.368 137.659 114.243  1.00  0.00     0.000 C 
BRANCH  14  15
ATOM     15  C   UNL     1     137.142 136.757 114.451  1.00  0.00     0.000 C 
BRANCH  15  16
ATOM     16  C   UNL     1     136.177 136.860 113.261  1.00  0.00     0.000 C 
BRANCH  16  17
ATOM     17  C   UNL     1     136.015 135.532 112.503  1.00  0.00     0.000 C 
BRANCH  17  18
ATOM     18  C   UNL     1     134.563 135.010 112.472  1.00  0.00     0.000 C 
BRANCH  18  19
ATOM     19  C   UNL     1     133.634 135.825 113.390  1.00  0.00     0.000 C 
BRANCH  19  20
ATOM     20  C   UNL     1     133.140 135.022 114.606  1.00  0.00     0.006 C 
BRANCH  20  21
ATOM     21  C   UNL     1     134.251 134.300 115.386  1.00  0.00     0.053 C 
BRANCH  21  22
ATOM     22  C   UNL     1     134.636 135.037 116.631  1.00  0.00     0.041 C 
ATOM     23  O   UNL     1     134.527 136.290 116.686  1.00  0.00    -0.550 OA
ATOM     24  O   UNL     1     135.146 134.342 117.721  1.00  0.00    -0.550 OA
ENDBRANCH  21  22
ENDBRANCH  20  21
ENDBRANCH  19  20
ENDBRANCH  18  19
ENDBRANCH  17  18
ENDBRANCH  16  17
ENDBRANCH  15  16
ENDBRANCH  14  15
ENDBRANCH  13  14
ENDBRANCH   1  13
TORSDOF 20
ENDMDL
MODEL 7
REMARK VINA RESULT:    -5.547      1.290      2.659
REMARK INTER + INTRA:         -14.756
REMARK INTER:                 -12.326
REMARK INTRA:                  -2.430
REMARK UNBOUND:                -2.724
REMARK SMILES CCCCCCCCCCCCCCCCCCCCCC(=O)[O-]
REMARK SMILES IDX 12 1 11 2 10 3 9 4 8 5 7 6 6 7 5 8 4 9 3 10 2 11 1 12 13 13
REMARK SMILES IDX 14 14 15 15 16 16 17 17 18 18 19 19 20 20 21 21 22 22 23 23
REMARK SMILES IDX 24 24
REMARK H PARENT
REMARK Flexibility Score: inf
ROOT
ATOM      1  C   UNL     1     137.974 137.231 113.906  1.00  0.00     0.000 C 
ENDROOT
BRANCH   1   2
ATOM      2  C   UNL     1     138.839 138.473 113.662  1.00  0.00     0.000 C 
BRANCH   2   3
ATOM      3  C   UNL     1     138.660 139.501 114.790  1.00  0.00     0.000 C 
BRANCH   3   4
ATOM      4  C   UNL     1     139.998 139.880 115.460  1.00  0.00    -0.000 C 
BRANCH   4   5
ATOM      5  C   UNL     1     139.835 140.717 116.741  1.00  0.00    -0.000 C 
BRANCH   5   6
ATOM      6  C   UNL     1     140.446 142.120 116.621  1.00  0.00    -0.000 C 
BRANCH   6   7
ATOM      7  C   UNL     1     139.795 142.964 115.512  1.00  0.00    -0.000 C 
BRANCH   7   8
ATOM      8  C   UNL     1     140.811 143.586 114.530  1.00  0.00    -0.000 C 
BRANCH   8   9
ATOM      9  C   UNL     1     141.279 142.582 113.462  1.00  0.00    -0.000 C 
BRANCH   9  10
ATOM     10  C   UNL     1     142.804 142.394 113.454  1.00  0.00    -0.000 C 
BRANCH  10  11
ATOM     11  C   UNL     1     143.261 141.219 114.334  1.00  0.00    -0.003 C 
ATOM     12  C   UNL     1     144.575 140.633 113.830  1.00  0.00     0.004 C 
ENDBRANCH  10  11
ENDBRANCH   9  10
ENDBRANCH   8   9
ENDBRANCH   7   8
ENDBRANCH   6   7
ENDBRANCH   5   6
ENDBRANCH   4   5
ENDBRANCH   3   4
ENDBRANCH   2   3
ENDBRANCH   1   2
BRANCH   1  13
ATOM     13  C   UNL     1     136.485 137.600 113.974  1.00  0.00     0.000 C 
BRANCH  13  14
ATOM     14  C   UNL     1     135.734 137.299 112.668  1.00  0.00     0.000 C 
BRANCH  14  15
ATOM     15  C   UNL     1     136.297 136.076 111.928  1.00  0.00     0.000 C 
BRANCH  15  16
ATOM     16  C   UNL     1     135.288 134.918 111.936  1.00  0.00     0.000 C 
BRANCH  16  17
ATOM     17  C   UNL     1     133.839 135.386 112.153  1.00  0.00     0.000 C 
BRANCH  17  18
ATOM     18  C   UNL     1     133.066 134.544 113.190  1.00  0.00     0.000 C 
BRANCH  18  19
ATOM     19  C   UNL     1     133.366 134.984 114.634  1.00  0.00     0.000 C 
BRANCH  19  20
ATOM     20  C   UNL     1     134.216 133.959 115.407  1.00  0.00     0.006 C 
BRANCH  20  21
ATOM     21  C   UNL     1     135.701 134.332 115.533  1.00  0.00     0.053 C 
BRANCH  21  22
ATOM     22  C   UNL     1     136.043 134.833 116.902  1.00  0.00     0.041 C 
ATOM     23  O   UNL     1     136.950 135.693 117.054  1.00  0.00    -0.550 OA
ATOM     24  O   UNL     1     135.381 134.328 118.014  1.00  0.00    -0.550 OA
ENDBRANCH  21  22
ENDBRANCH  20  21
ENDBRANCH  19  20
ENDBRANCH  18  19
ENDBRANCH  17  18
ENDBRANCH  16  17
ENDBRANCH  15  16
ENDBRANCH  14  15
ENDBRANCH  13  14
ENDBRANCH   1  13
TORSDOF 20
ENDMDL
MODEL 8
REMARK VINA RESULT:    -5.518      2.939      8.343
REMARK INTER + INTRA:         -14.692
REMARK INTER:                 -12.110
REMARK INTRA:                  -2.582
REMARK UNBOUND:                -2.724
REMARK SMILES CCCCCCCCCCCCCCCCCCCCCC(=O)[O-]
REMARK SMILES IDX 12 1 11 2 10 3 9 4 8 5 7 6 6 7 5 8 4 9 3 10 2 11 1 12 13 13
REMARK SMILES IDX 14 14 15 15 16 16 17 17 18 18 19 19 20 20 21 21 22 22 23 23
REMARK SMILES IDX 24 24
REMARK H PARENT
REMARK Flexibility Score: inf
ROOT
ATOM      1  C   UNL     1     135.899 136.667 112.193  1.00  0.00     0.000 C 
ENDROOT
BRANCH   1   2
ATOM      2  C   UNL     1     134.792 137.259 113.071  1.00  0.00     0.000 C 
BRANCH   2   3
ATOM      3  C   UNL     1     133.406 136.787 112.607  1.00  0.00     0.000 C 
BRANCH   3   4
ATOM      4  C   UNL     1     132.660 135.987 113.696  1.00  0.00    -0.000 C 
BRANCH   4   5
ATOM      5  C   UNL     1     133.130 134.527 113.826  1.00  0.00    -0.000 C 
BRANCH   5   6
ATOM      6  C   UNL     1     133.950 134.274 115.099  1.00  0.00    -0.000 C 
BRANCH   6   7
ATOM      7  C   UNL     1     135.221 133.446 114.838  1.00  0.00    -0.000 C 
BRANCH   7   8
ATOM      8  C   UNL     1     136.529 134.233 115.058  1.00  0.00    -0.000 C 
BRANCH   8   9
ATOM      9  C   UNL     1     136.332 135.442 115.990  1.00  0.00    -0.000 C 
BRANCH   9  10
ATOM     10  C   UNL     1     136.891 135.200 117.400  1.00  0.00    -0.000 C 
BRANCH  10  11
ATOM     11  C   UNL     1     135.826 134.681 118.379  1.00  0.00    -0.003 C 
ATOM     12  C   UNL     1     135.071 135.833 119.034  1.00  0.00     0.004 C 
ENDBRANCH  10  11
ENDBRANCH   9  10
ENDBRANCH   8   9
ENDBRANCH   7   8
ENDBRANCH   6   7
ENDBRANCH   5   6
ENDBRANCH   4   5
ENDBRANCH   3   4
ENDBRANCH   2   3
ENDBRANCH   1   2
BRANCH   1  13
ATOM     13  C   UNL     1     137.287 137.107 112.682  1.00  0.00     0.000 C 
BRANCH  13  14
ATOM     14  C   UNL     1     137.220 138.114 113.840  1.00  0.00     0.000 C 
BRANCH  14  15
ATOM     15  C   UNL     1     138.598 138.412 114.449  1.00  0.00     0.000 C 
BRANCH  15  16
ATOM     16  C   UNL     1     139.196 139.695 113.854  1.00  0.00     0.000 C 
BRANCH  16  17
ATOM     17  C   UNL     1     140.329 139.421 112.851  1.00  0.00     0.000 C 
BRANCH  17  18
ATOM     18  C   UNL     1     141.705 139.205 113.515  1.00  0.00     0.000 C 
BRANCH  18  19
ATOM     19  C   UNL     1     141.812 139.924 114.872  1.00  0.00     0.000 C 
BRANCH  19  20
ATOM     20  C   UNL     1     142.939 140.973 114.907  1.00  0.00     0.006 C 
BRANCH  20  21
ATOM     21  C   UNL     1     142.463 142.407 115.183  1.00  0.00     0.053 C 
BRANCH  21  22
ATOM     22  C   UNL     1     141.349 142.818 114.270  1.00  0.00     0.041 C 
ATOM     23  O   UNL     1     141.510 142.791 113.022  1.00  0.00    -0.550 OA
ATOM     24  O   UNL     1     140.144 143.262 114.800  1.00  0.00    -0.550 OA
ENDBRANCH  21  22
ENDBRANCH  20  21
ENDBRANCH  19  20
ENDBRANCH  18  19
ENDBRANCH  17  18
ENDBRANCH  16  17
ENDBRANCH  15  16
ENDBRANCH  14  15
ENDBRANCH  13  14
ENDBRANCH   1  13
TORSDOF 20
ENDMDL
MODEL 9
REMARK VINA RESULT:    -5.510      2.703      8.557
REMARK INTER + INTRA:         -14.676
REMARK INTER:                 -12.007
REMARK INTRA:                  -2.669
REMARK UNBOUND:                -2.724
REMARK SMILES CCCCCCCCCCCCCCCCCCCCCC(=O)[O-]
REMARK SMILES IDX 12 1 11 2 10 3 9 4 8 5 7 6 6 7 5 8 4 9 3 10 2 11 1 12 13 13
REMARK SMILES IDX 14 14 15 15 16 16 17 17 18 18 19 19 20 20 21 21 22 22 23 23
REMARK SMILES IDX 24 24
REMARK H PARENT
REMARK Flexibility Score: inf
ROOT
ATOM      1  C   UNL     1     137.046 137.203 113.324  1.00  0.00     0.000 C 
ENDROOT
BRANCH   1   2
ATOM      2  C   UNL     1     135.690 137.309 114.031  1.00  0.00     0.000 C 
BRANCH   2   3
ATOM      3  C   UNL     1     134.534 137.080 113.046  1.00  0.00     0.000 C 
BRANCH   3   4
ATOM      4  C   UNL     1     133.506 136.055 113.572  1.00  0.00    -0.000 C 
BRANCH   4   5
ATOM      5  C   UNL     1     133.681 135.707 115.061  1.00  0.00    -0.000 C 
BRANCH   5   6
ATOM      6  C   UNL     1     133.913 134.209 115.302  1.00  0.00    -0.000 C 
BRANCH   6   7
ATOM      7  C   UNL     1     134.940 133.598 114.334  1.00  0.00    -0.000 C 
BRANCH   7   8
ATOM      8  C   UNL     1     136.401 133.753 114.804  1.00  0.00    -0.000 C 
BRANCH   8   9
ATOM      9  C   UNL     1     136.520 133.792 116.337  1.00  0.00    -0.000 C 
BRANCH   9  10
ATOM     10  C   UNL     1     136.956 135.168 116.863  1.00  0.00    -0.000 C 
BRANCH  10  11
ATOM     11  C   UNL     1     136.601 135.377 118.344  1.00  0.00    -0.003 C 
ATOM     12  C   UNL     1     135.233 136.033 118.495  1.00  0.00     0.004 C 
ENDBRANCH  10  11
ENDBRANCH   9  10
ENDBRANCH   8   9
ENDBRANCH   7   8
ENDBRANCH   6   7
ENDBRANCH   5   6
ENDBRANCH   4   5
ENDBRANCH   3   4
ENDBRANCH   2   3
ENDBRANCH   1   2
BRANCH   1  13
ATOM     13  C   UNL     1     138.183 137.688 114.236  1.00  0.00     0.000 C 
BRANCH  13  14
ATOM     14  C   UNL     1     138.896 138.934 113.691  1.00  0.00     0.000 C 
BRANCH  14  15
ATOM     15  C   UNL     1     139.055 140.038 114.748  1.00  0.00     0.000 C 
BRANCH  15  16
ATOM     16  C   UNL     1     140.494 140.079 115.285  1.00  0.00     0.000 C 
BRANCH  16  17
ATOM     17  C   UNL     1     140.956 141.499 115.653  1.00  0.00     0.000 C 
BRANCH  17  18
ATOM     18  C   UNL     1     140.484 142.580 114.658  1.00  0.00     0.000 C 
BRANCH  18  19
ATOM     19  C   UNL     1     141.535 142.867 113.571  1.00  0.00     0.000 C 
BRANCH  19  20
ATOM     20  C   UNL     1     141.313 142.042 112.291  1.00  0.00     0.006 C 
BRANCH  20  21
ATOM     21  C   UNL     1     142.572 141.334 111.766  1.00  0.00     0.053 C 
BRANCH  21  22
ATOM     22  C   UNL     1     142.972 140.178 112.629  1.00  0.00     0.041 C 
ATOM     23  O   UNL     1     143.894 140.308 113.476  1.00  0.00    -0.550 OA
ATOM     24  O   UNL     1     142.346 138.947 112.477  1.00  0.00    -0.550 OA
ENDBRANCH  21  22
ENDBRANCH  20  21
ENDBRANCH  19  20
ENDBRANCH  18  19
ENDBRANCH  17  18
ENDBRANCH  16  17
ENDBRANCH  15  16
ENDBRANCH  14  15
ENDBRANCH  13  14
ENDBRANCH   1  13
TORSDOF 20
ENDMDL
