MODEL 1
REMARK VINA RESULT:    -3.384      0.000      0.000
REMARK INTER + INTRA:         -15.575
REMARK INTER:                  -8.923
REMARK INTRA:                  -6.652
REMARK UNBOUND:                -6.652
REMARK SMILES CCCCCCCCCCCCCCCCCCCCCCCCCCCCCC(=O)[O-]
REMARK SMILES IDX 16 1 17 2 18 3 19 4 20 5 21 6 22 7 23 8 24 9 25 10 26 11
REMARK SMILES IDX 27 12 28 13 29 14 30 15 31 16 32 17 15 18 14 19 13 20 12 21
REMARK SMILES IDX 11 22 10 23 9 24 8 25 7 26 6 27 5 28 4 29 3 30 2 31 1 32
REMARK H PARENT
REMARK Flexibility Score: inf
ROOT
ATOM      1  C   UNL     1      77.421  81.317  77.728  1.00  0.00     0.000 C 
ENDROOT
BRANCH   1   2
ATOM      2  C   UNL     1      76.242  82.188  78.209  1.00  0.00     0.000 C 
BRANCH   2   3
ATOM      3  C   UNL     1      75.121  81.427  78.938  1.00  0.00     0.000 C 
BRANCH   3   4
ATOM      4  C   UNL     1      74.746  80.110  78.237  1.00  0.00     0.000 C 
BRANCH   4   5
ATOM      5  C   UNL     1      74.761  78.932  79.225  1.00  0.00     0.000 C 
BRANCH   5   6
ATOM      6  C   UNL     1      75.853  79.080  80.298  1.00  0.00     0.000 C 
BRANCH   6   7
ATOM      7  C   UNL     1      77.160  78.359  79.931  1.00  0.00     0.000 C 
BRANCH   7   8
ATOM      8  C   UNL     1      76.974  77.313  78.817  1.00  0.00     0.000 C 
BRANCH   8   9
ATOM      9  C   UNL     1      77.706  77.651  77.502  1.00  0.00     0.000 C 
BRANCH   9  10
ATOM     10  C   UNL     1      76.815  77.455  76.262  1.00  0.00     0.000 C 
BRANCH  10  11
ATOM     11  C   UNL     1      76.917  78.663  75.322  1.00  0.00     0.000 C 
BRANCH  11  12
ATOM     12  C   UNL     1      78.369  79.115  75.087  1.00  0.00     0.000 C 
BRANCH  12  13
ATOM     13  C   UNL     1      78.839  79.053  73.618  1.00  0.00     0.006 C 
BRANCH  13  14
ATOM     14  C   UNL     1      77.969  79.851  72.630  1.00  0.00     0.053 C 
BRANCH  14  15
ATOM     15  C   UNL     1      78.794  80.610  71.633  1.00  0.00     0.041 C 
ATOM     16  O   UNL     1      80.053  80.558  71.681  1.00  0.00    -0.550 OA
ATOM     17  O   UNL     1      78.172  81.349  70.635  1.00  0.00    -0.550 OA
ENDBRANCH  14  15
ENDBRANCH  13  14
ENDBRANCH  12  13
ENDBRANCH  11  12
ENDBRANCH  10  11
ENDBRANCH   9  10
ENDBRANCH   8   9
ENDBRANCH   7   8
ENDBRANCH   6   7
ENDBRANCH   5   6
ENDBRANCH   4   5
ENDBRANCH   3   4
ENDBRANCH   2   3
ENDBRANCH   1   2
BRANCH   1  18
ATOM     18  C   UNL     1      78.723  81.530  78.530  1.00  0.00     0.000 C 
BRANCH  18  19
ATOM     19  C   UNL     1      79.871  80.619  78.054  1.00  0.00     0.000 C 
BRANCH  19  20
ATOM     20  C   UNL     1      81.192  81.379  77.830  1.00  0.00     0.000 C 
BRANCH  20  21
ATOM     21  C   UNL     1      81.737  81.335  76.389  1.00  0.00     0.000 C 
BRANCH  21  22
ATOM     22  C   UNL     1      81.393  82.596  75.577  1.00  0.00     0.000 C 
BRANCH  22  23
ATOM     23  C   UNL     1      80.135  82.415  74.697  1.00  0.00     0.000 C 
BRANCH  23  24
ATOM     24  C   UNL     1      78.983  83.382  75.029  1.00  0.00    -0.000 C 
BRANCH  24  25
ATOM     25  C   UNL     1      77.591  82.947  74.542  1.00  0.00    -0.000 C 
BRANCH  25  26
ATOM     26  C   UNL     1      76.462  83.834  75.089  1.00  0.00    -0.000 C 
BRANCH  26  27
ATOM     27  C   UNL     1      75.080  83.211  74.835  1.00  0.00    -0.000 C 
BRANCH  27  28
ATOM     28  C   UNL     1      75.147  81.683  74.681  1.00  0.00    -0.000 C 
BRANCH  28  29
ATOM     29  C   UNL     1      73.756  81.026  74.656  1.00  0.00    -0.000 C 
BRANCH  29  30
ATOM     30  C   UNL     1      72.624  82.023  74.951  1.00  0.00    -0.000 C 
BRANCH  30  31
ATOM     31  C   UNL     1      71.818  81.649  76.206  1.00  0.00    -0.003 C 
ATOM     32  C   UNL     1      71.939  82.728  77.280  1.00  0.00     0.004 C 
ENDBRANCH  30  31
ENDBRANCH  29  30
ENDBRANCH  28  29
ENDBRANCH  27  28
ENDBRANCH  26  27
ENDBRANCH  25  26
ENDBRANCH  24  25
ENDBRANCH  23  24
ENDBRANCH  22  23
ENDBRANCH  21  22
ENDBRANCH  20  21
ENDBRANCH  19  20
ENDBRANCH  18  19
ENDBRANCH   1  18
TORSDOF 28
ENDMDL
MODEL 2
REMARK VINA RESULT:    -3.262      1.956      6.067
REMARK INTER + INTRA:         -15.253
REMARK INTER:                  -9.233
REMARK INTRA:                  -6.020
REMARK UNBOUND:                -6.652
REMARK SMILES CCCCCCCCCCCCCCCCCCCCCCCCCCCCCC(=O)[O-]
REMARK SMILES IDX 16 1 17 2 18 3 19 4 20 5 21 6 22 7 23 8 24 9 25 10 26 11
REMARK SMILES IDX 27 12 28 13 29 14 30 15 31 16 32 17 15 18 14 19 13 20 12 21
REMARK SMILES IDX 11 22 10 23 9 24 8 25 7 26 6 27 5 28 4 29 3 30 2 31 1 32
REMARK H PARENT
REMARK Flexibility Score: inf
ROOT
ATOM      1  C   UNL     1      72.211  79.929  76.090  1.00  0.00     0.000 C 
ENDROOT
BRANCH   1   2
ATOM      2  C   UNL     1      71.113  81.013  76.095  1.00  0.00     0.000 C 
BRANCH   2   3
ATOM      3  C   UNL     1      71.626  82.462  76.025  1.00  0.00     0.000 C 
BRANCH   3   4
ATOM      4  C   UNL     1      72.111  82.852  74.619  1.00  0.00     0.000 C 
BRANCH   4   5
ATOM      5  C   UNL     1      73.646  82.901  74.555  1.00  0.00     0.000 C 
BRANCH   5   6
ATOM      6  C   UNL     1      74.263  83.589  75.784  1.00  0.00     0.000 C 
BRANCH   6   7
ATOM      7  C   UNL     1      75.457  82.816  76.370  1.00  0.00     0.000 C 
BRANCH   7   8
ATOM      8  C   UNL     1      75.027  81.664  77.295  1.00  0.00     0.000 C 
BRANCH   8   9
ATOM      9  C   UNL     1      75.752  81.641  78.657  1.00  0.00     0.000 C 
BRANCH   9  10
ATOM     10  C   UNL     1      77.256  81.941  78.531  1.00  0.00     0.000 C 
BRANCH  10  11
ATOM     11  C   UNL     1      78.026  80.688  78.092  1.00  0.00     0.000 C 
BRANCH  11  12
ATOM     12  C   UNL     1      79.392  81.017  77.466  1.00  0.00     0.000 C 
BRANCH  12  13
ATOM     13  C   UNL     1      79.357  82.085  76.352  1.00  0.00     0.006 C 
BRANCH  13  14
ATOM     14  C   UNL     1      78.630  81.650  75.067  1.00  0.00     0.053 C 
BRANCH  14  15
ATOM     15  C   UNL     1      78.475  82.780  74.093  1.00  0.00     0.041 C 
ATOM     16  O   UNL     1      78.221  83.944  74.506  1.00  0.00    -0.550 OA
ATOM     17  O   UNL     1      78.640  82.553  72.733  1.00  0.00    -0.550 OA
ENDBRANCH  14  15
ENDBRANCH  13  14
ENDBRANCH  12  13
ENDBRANCH  11  12
ENDBRANCH  10  11
ENDBRANCH   9  10
ENDBRANCH   8   9
ENDBRANCH   7   8
ENDBRANCH   6   7
ENDBRANCH   5   6
ENDBRANCH   4   5
ENDBRANCH   3   4
ENDBRANCH   2   3
ENDBRANCH   1   2
BRANCH   1  18
ATOM     18  C   UNL     1      72.077  78.909  74.939  1.00  0.00     0.000 C 
BRANCH  18  19
ATOM     19  C   UNL     1      71.339  79.487  73.715  1.00  0.00     0.000 C 
BRANCH  19  20
ATOM     20  C   UNL     1      72.275  79.768  72.524  1.00  0.00     0.000 C 
BRANCH  20  21
ATOM     21  C   UNL     1      73.507  78.846  72.428  1.00  0.00     0.000 C 
BRANCH  21  22
ATOM     22  C   UNL     1      74.731  79.541  71.805  1.00  0.00     0.000 C 
BRANCH  22  23
ATOM     23  C   UNL     1      75.522  80.389  72.826  1.00  0.00     0.000 C 
BRANCH  23  24
ATOM     24  C   UNL     1      75.636  79.755  74.226  1.00  0.00    -0.000 C 
BRANCH  24  25
ATOM     25  C   UNL     1      76.591  78.555  74.334  1.00  0.00    -0.000 C 
BRANCH  25  26
ATOM     26  C   UNL     1      76.033  77.426  75.214  1.00  0.00    -0.000 C 
BRANCH  26  27
ATOM     27  C   UNL     1      75.430  77.972  76.519  1.00  0.00    -0.000 C 
BRANCH  27  28
ATOM     28  C   UNL     1      76.236  77.548  77.758  1.00  0.00    -0.000 C 
BRANCH  28  29
ATOM     29  C   UNL     1      75.528  77.902  79.077  1.00  0.00    -0.000 C 
BRANCH  29  30
ATOM     30  C   UNL     1      76.510  78.087  80.246  1.00  0.00    -0.000 C 
BRANCH  30  31
ATOM     31  C   UNL     1      75.797  78.333  81.585  1.00  0.00    -0.003 C 
ATOM     32  C   UNL     1      75.425  79.804  81.750  1.00  0.00     0.004 C 
ENDBRANCH  30  31
ENDBRANCH  29  30
ENDBRANCH  28  29
ENDBRANCH  27  28
ENDBRANCH  26  27
ENDBRANCH  25  26
ENDBRANCH  24  25
ENDBRANCH  23  24
ENDBRANCH  22  23
ENDBRANCH  21  22
ENDBRANCH  20  21
ENDBRANCH  19  20
ENDBRANCH  18  19
ENDBRANCH   1  18
TORSDOF 28
ENDMDL
MODEL 3
REMARK VINA RESULT:    -3.195      2.713      5.759
REMARK INTER + INTRA:         -15.076
REMARK INTER:                  -8.589
REMARK INTRA:                  -6.487
REMARK UNBOUND:                -6.652
REMARK SMILES CCCCCCCCCCCCCCCCCCCCCCCCCCCCCC(=O)[O-]
REMARK SMILES IDX 16 1 17 2 18 3 19 4 20 5 21 6 22 7 23 8 24 9 25 10 26 11
REMARK SMILES IDX 27 12 28 13 29 14 30 15 31 16 32 17 15 18 14 19 13 20 12 21
REMARK SMILES IDX 11 22 10 23 9 24 8 25 7 26 6 27 5 28 4 29 3 30 2 31 1 32
REMARK H PARENT
REMARK Flexibility Score: inf
ROOT
ATOM      1  C   UNL     1      81.617  81.763  74.972  1.00  0.00     0.000 C 
ENDROOT
BRANCH   1   2
ATOM      2  C   UNL     1      81.345  83.079  75.732  1.00  0.00     0.000 C 
BRANCH   2   3
ATOM      3  C   UNL     1      79.900  83.598  75.643  1.00  0.00     0.000 C 
BRANCH   3   4
ATOM      4  C   UNL     1      79.063  82.846  74.595  1.00  0.00     0.000 C 
BRANCH   4   5
ATOM      5  C   UNL     1      77.584  83.259  74.665  1.00  0.00     0.000 C 
BRANCH   5   6
ATOM      6  C   UNL     1      76.720  82.226  75.409  1.00  0.00     0.000 C 
BRANCH   6   7
ATOM      7  C   UNL     1      75.901  82.840  76.556  1.00  0.00     0.000 C 
BRANCH   7   8
ATOM      8  C   UNL     1      76.342  82.337  77.942  1.00  0.00     0.000 C 
BRANCH   8   9
ATOM      9  C   UNL     1      75.202  81.736  78.790  1.00  0.00     0.000 C 
BRANCH   9  10
ATOM     10  C   UNL     1      75.451  80.261  79.154  1.00  0.00     0.000 C 
BRANCH  10  11
ATOM     11  C   UNL     1      74.407  79.354  78.489  1.00  0.00     0.000 C 
BRANCH  11  12
ATOM     12  C   UNL     1      74.508  79.353  76.954  1.00  0.00     0.000 C 
BRANCH  12  13
ATOM     13  C   UNL     1      73.161  79.498  76.215  1.00  0.00     0.006 C 
BRANCH  13  14
ATOM     14  C   UNL     1      72.833  80.927  75.748  1.00  0.00     0.053 C 
BRANCH  14  15
ATOM     15  C   UNL     1      71.931  81.645  76.709  1.00  0.00     0.041 C 
ATOM     16  O   UNL     1      70.875  81.093  77.120  1.00  0.00    -0.550 OA
ATOM     17  O   UNL     1      72.274  82.909  77.171  1.00  0.00    -0.550 OA
ENDBRANCH  14  15
ENDBRANCH  13  14
ENDBRANCH  12  13
ENDBRANCH  11  12
ENDBRANCH  10  11
ENDBRANCH   9  10
ENDBRANCH   8   9
ENDBRANCH   7   8
ENDBRANCH   6   7
ENDBRANCH   5   6
ENDBRANCH   4   5
ENDBRANCH   3   4
ENDBRANCH   2   3
ENDBRANCH   1   2
BRANCH   1  18
ATOM     18  C   UNL     1      82.926  81.060  75.389  1.00  0.00     0.000 C 
BRANCH  18  19
ATOM     19  C   UNL     1      83.721  81.860  76.441  1.00  0.00     0.000 C 
BRANCH  19  20
ATOM     20  C   UNL     1      83.690  81.214  77.840  1.00  0.00     0.000 C 
BRANCH  20  21
ATOM     21  C   UNL     1      83.123  79.782  77.887  1.00  0.00     0.000 C 
BRANCH  21  22
ATOM     22  C   UNL     1      81.875  79.658  78.779  1.00  0.00     0.000 C 
BRANCH  22  23
ATOM     23  C   UNL     1      81.137  81.004  78.965  1.00  0.00     0.000 C 
BRANCH  23  24
ATOM     24  C   UNL     1      79.644  80.968  78.586  1.00  0.00    -0.000 C 
BRANCH  24  25
ATOM     25  C   UNL     1      79.318  80.299  77.240  1.00  0.00    -0.000 C 
BRANCH  25  26
ATOM     26  C   UNL     1      78.333  79.128  77.379  1.00  0.00    -0.000 C 
BRANCH  26  27
ATOM     27  C   UNL     1      77.955  78.543  76.009  1.00  0.00    -0.000 C 
BRANCH  27  28
ATOM     28  C   UNL     1      78.755  79.178  74.860  1.00  0.00    -0.000 C 
BRANCH  28  29
ATOM     29  C   UNL     1      78.206  78.803  73.473  1.00  0.00    -0.000 C 
BRANCH  29  30
ATOM     30  C   UNL     1      77.921  80.032  72.595  1.00  0.00    -0.000 C 
BRANCH  30  31
ATOM     31  C   UNL     1      76.418  80.278  72.391  1.00  0.00    -0.003 C 
ATOM     32  C   UNL     1      75.582  79.260  73.163  1.00  0.00     0.004 C 
ENDBRANCH  30  31
ENDBRANCH  29  30
ENDBRANCH  28  29
ENDBRANCH  27  28
ENDBRANCH  26  27
ENDBRANCH  25  26
ENDBRANCH  24  25
ENDBRANCH  23  24
ENDBRANCH  22  23
ENDBRANCH  21  22
ENDBRANCH  20  21
ENDBRANCH  19  20
ENDBRANCH  18  19
ENDBRANCH   1  18
TORSDOF 28
ENDMDL
MODEL 4
REMARK VINA RESULT:    -3.187      2.963      5.963
REMARK INTER + INTRA:         -15.055
REMARK INTER:                  -9.678
REMARK INTRA:                  -5.377
REMARK UNBOUND:                -6.652
REMARK SMILES CCCCCCCCCCCCCCCCCCCCCCCCCCCCCC(=O)[O-]
REMARK SMILES IDX 16 1 17 2 18 3 19 4 20 5 21 6 22 7 23 8 24 9 25 10 26 11
REMARK SMILES IDX 27 12 28 13 29 14 30 15 31 16 32 17 15 18 14 19 13 20 12 21
REMARK SMILES IDX 11 22 10 23 9 24 8 25 7 26 6 27 5 28 4 29 3 30 2 31 1 32
REMARK H PARENT
REMARK Flexibility Score: inf
ROOT
ATOM      1  C   UNL     1      78.564  80.543  74.370  1.00  0.00     0.000 C 
ENDROOT
BRANCH   1   2
ATOM      2  C   UNL     1      78.141  82.008  74.606  1.00  0.00     0.000 C 
BRANCH   2   3
ATOM      3  C   UNL     1      79.250  83.051  74.389  1.00  0.00     0.000 C 
BRANCH   3   4
ATOM      4  C   UNL     1      80.141  83.238  75.629  1.00  0.00     0.000 C 
BRANCH   4   5
ATOM      5  C   UNL     1      81.411  82.378  75.534  1.00  0.00     0.000 C 
BRANCH   5   6
ATOM      6  C   UNL     1      81.497  81.331  76.657  1.00  0.00     0.000 C 
BRANCH   6   7
ATOM      7  C   UNL     1      80.415  81.512  77.734  1.00  0.00     0.000 C 
BRANCH   7   8
ATOM      8  C   UNL     1      80.768  80.814  79.059  1.00  0.00     0.000 C 
BRANCH   8   9
ATOM      9  C   UNL     1      81.664  79.567  78.900  1.00  0.00     0.000 C 
BRANCH   9  10
ATOM     10  C   UNL     1      82.961  79.663  79.721  1.00  0.00     0.000 C 
BRANCH  10  11
ATOM     11  C   UNL     1      83.134  81.072  80.303  1.00  0.00     0.000 C 
BRANCH  11  12
ATOM     12  C   UNL     1      84.213  81.890  79.573  1.00  0.00     0.000 C 
BRANCH  12  13
ATOM     13  C   UNL     1      85.062  81.090  78.563  1.00  0.00     0.006 C 
BRANCH  13  14
ATOM     14  C   UNL     1      85.179  81.732  77.169  1.00  0.00     0.053 C 
BRANCH  14  15
ATOM     15  C   UNL     1      86.292  82.735  77.098  1.00  0.00     0.041 C 
ATOM     16  O   UNL     1      87.375  82.526  77.710  1.00  0.00    -0.550 OA
ATOM     17  O   UNL     1      86.145  83.884  76.332  1.00  0.00    -0.550 OA
ENDBRANCH  14  15
ENDBRANCH  13  14
ENDBRANCH  12  13
ENDBRANCH  11  12
ENDBRANCH  10  11
ENDBRANCH   9  10
ENDBRANCH   8   9
ENDBRANCH   7   8
ENDBRANCH   6   7
ENDBRANCH   5   6
ENDBRANCH   4   5
ENDBRANCH   3   4
ENDBRANCH   2   3
ENDBRANCH   1   2
BRANCH   1  18
ATOM     18  C   UNL     1      77.891  79.536  75.326  1.00  0.00     0.000 C 
BRANCH  18  19
ATOM     19  C   UNL     1      78.909  78.648  76.069  1.00  0.00     0.000 C 
BRANCH  19  20
ATOM     20  C   UNL     1      78.418  78.201  77.460  1.00  0.00     0.000 C 
BRANCH  20  21
ATOM     21  C   UNL     1      76.993  78.656  77.828  1.00  0.00     0.000 C 
BRANCH  21  22
ATOM     22  C   UNL     1      76.908  79.294  79.226  1.00  0.00     0.000 C 
BRANCH  22  23
ATOM     23  C   UNL     1      76.180  80.658  79.217  1.00  0.00     0.000 C 
BRANCH  23  24
ATOM     24  C   UNL     1      76.849  81.730  78.337  1.00  0.00    -0.000 C 
BRANCH  24  25
ATOM     25  C   UNL     1      75.909  82.488  77.385  1.00  0.00    -0.000 C 
BRANCH  25  26
ATOM     26  C   UNL     1      74.646  81.687  77.030  1.00  0.00    -0.000 C 
BRANCH  26  27
ATOM     27  C   UNL     1      74.694  81.172  75.582  1.00  0.00    -0.000 C 
BRANCH  27  28
ATOM     28  C   UNL     1      74.269  82.243  74.565  1.00  0.00    -0.000 C 
BRANCH  28  29
ATOM     29  C   UNL     1      72.989  82.986  74.982  1.00  0.00    -0.000 C 
BRANCH  29  30
ATOM     30  C   UNL     1      71.720  82.369  74.373  1.00  0.00    -0.000 C 
BRANCH  30  31
ATOM     31  C   UNL     1      70.723  81.889  75.440  1.00  0.00    -0.003 C 
ATOM     32  C   UNL     1      71.037  82.501  76.802  1.00  0.00     0.004 C 
ENDBRANCH  30  31
ENDBRANCH  29  30
ENDBRANCH  28  29
ENDBRANCH  27  28
ENDBRANCH  26  27
ENDBRANCH  25  26
ENDBRANCH  24  25
ENDBRANCH  23  24
ENDBRANCH  22  23
ENDBRANCH  21  22
ENDBRANCH  20  21
ENDBRANCH  19  20
ENDBRANCH  18  19
ENDBRANCH   1  18
TORSDOF 28
ENDMDL
MODEL 5
REMARK VINA RESULT:    -3.184      1.717      4.975
REMARK INTER + INTRA:         -15.047
REMARK INTER:                  -9.457
REMARK INTRA:                  -5.590
REMARK UNBOUND:                -6.652
REMARK SMILES CCCCCCCCCCCCCCCCCCCCCCCCCCCCCC(=O)[O-]
REMARK SMILES IDX 16 1 17 2 18 3 19 4 20 5 21 6 22 7 23 8 24 9 25 10 26 11
REMARK SMILES IDX 27 12 28 13 29 14 30 15 31 16 32 17 15 18 14 19 13 20 12 21
REMARK SMILES IDX 11 22 10 23 9 24 8 25 7 26 6 27 5 28 4 29 3 30 2 31 1 32
REMARK H PARENT
REMARK Flexibility Score: inf
ROOT
ATOM      1  C   UNL     1      75.373  81.230  78.063  1.00  0.00     0.000 C 
ENDROOT
BRANCH   1   2
ATOM      2  C   UNL     1      75.530  80.894  79.562  1.00  0.00     0.000 C 
BRANCH   2   3
ATOM      3  C   UNL     1      75.179  79.447  79.947  1.00  0.00     0.000 C 
BRANCH   3   4
ATOM      4  C   UNL     1      75.424  79.153  81.437  1.00  0.00     0.000 C 
BRANCH   4   5
ATOM      5  C   UNL     1      76.339  77.932  81.618  1.00  0.00     0.000 C 
BRANCH   5   6
ATOM      6  C   UNL     1      76.832  77.362  80.277  1.00  0.00     0.000 C 
BRANCH   6   7
ATOM      7  C   UNL     1      78.364  77.275  80.186  1.00  0.00     0.000 C 
BRANCH   7   8
ATOM      8  C   UNL     1      78.971  78.353  79.271  1.00  0.00     0.000 C 
BRANCH   8   9
ATOM      9  C   UNL     1      78.182  78.595  77.967  1.00  0.00     0.000 C 
BRANCH   9  10
ATOM     10  C   UNL     1      78.656  79.851  77.214  1.00  0.00     0.000 C 
BRANCH  10  11
ATOM     11  C   UNL     1      79.185  80.906  78.195  1.00  0.00     0.000 C 
BRANCH  11  12
ATOM     12  C   UNL     1      80.492  81.562  77.717  1.00  0.00     0.000 C 
BRANCH  12  13
ATOM     13  C   UNL     1      80.682  81.591  76.186  1.00  0.00     0.006 C 
BRANCH  13  14
ATOM     14  C   UNL     1      80.444  82.964  75.534  1.00  0.00     0.053 C 
BRANCH  14  15
ATOM     15  C   UNL     1      79.153  83.014  74.771  1.00  0.00     0.041 C 
ATOM     16  O   UNL     1      78.720  81.982  74.189  1.00  0.00    -0.550 OA
ATOM     17  O   UNL     1      78.416  84.190  74.728  1.00  0.00    -0.550 OA
ENDBRANCH  14  15
ENDBRANCH  13  14
ENDBRANCH  12  13
ENDBRANCH  11  12
ENDBRANCH  10  11
ENDBRANCH   9  10
ENDBRANCH   8   9
ENDBRANCH   7   8
ENDBRANCH   6   7
ENDBRANCH   5   6
ENDBRANCH   4   5
ENDBRANCH   3   4
ENDBRANCH   2   3
ENDBRANCH   1   2
BRANCH   1  18
ATOM     18  C   UNL     1      76.052  82.551  77.645  1.00  0.00     0.000 C 
BRANCH  18  19
ATOM     19  C   UNL     1      75.645  83.007  76.230  1.00  0.00     0.000 C 
BRANCH  19  20
ATOM     20  C   UNL     1      75.438  81.833  75.253  1.00  0.00     0.000 C 
BRANCH  20  21
ATOM     21  C   UNL     1      74.291  82.019  74.241  1.00  0.00     0.000 C 
BRANCH  21  22
ATOM     22  C   UNL     1      73.217  83.011  74.723  1.00  0.00     0.000 C 
BRANCH  22  23
ATOM     23  C   UNL     1      71.795  82.628  74.254  1.00  0.00     0.000 C 
BRANCH  23  24
ATOM     24  C   UNL     1      70.838  82.224  75.392  1.00  0.00    -0.000 C 
BRANCH  24  25
ATOM     25  C   UNL     1      71.456  81.355  76.501  1.00  0.00    -0.000 C 
BRANCH  25  26
ATOM     26  C   UNL     1      71.572  79.875  76.105  1.00  0.00    -0.000 C 
BRANCH  26  27
ATOM     27  C   UNL     1      72.884  79.256  76.613  1.00  0.00    -0.000 C 
BRANCH  27  28
ATOM     28  C   UNL     1      73.702  78.610  75.483  1.00  0.00    -0.000 C 
BRANCH  28  29
ATOM     29  C   UNL     1      75.096  78.152  75.945  1.00  0.00    -0.000 C 
BRANCH  29  30
ATOM     30  C   UNL     1      75.769  77.198  74.945  1.00  0.00    -0.000 C 
BRANCH  30  31
ATOM     31  C   UNL     1      77.142  77.704  74.476  1.00  0.00    -0.003 C 
ATOM     32  C   UNL     1      77.003  78.952  73.608  1.00  0.00     0.004 C 
ENDBRANCH  30  31
ENDBRANCH  29  30
ENDBRANCH  28  29
ENDBRANCH  27  28
ENDBRANCH  26  27
ENDBRANCH  25  26
ENDBRANCH  24  25
ENDBRANCH  23  24
ENDBRANCH  22  23
ENDBRANCH  21  22
ENDBRANCH  20  21
ENDBRANCH  19  20
ENDBRANCH  18  19
ENDBRANCH   1  18
TORSDOF 28
ENDMDL
MODEL 6
REMARK VINA RESULT:    -3.163      1.814      5.082
REMARK INTER + INTRA:         -14.992
REMARK INTER:                  -8.936
REMARK INTRA:                  -6.056
REMARK UNBOUND:                -6.652
REMARK SMILES CCCCCCCCCCCCCCCCCCCCCCCCCCCCCC(=O)[O-]
REMARK SMILES IDX 16 1 17 2 18 3 19 4 20 5 21 6 22 7 23 8 24 9 25 10 26 11
REMARK SMILES IDX 27 12 28 13 29 14 30 15 31 16 32 17 15 18 14 19 13 20 12 21
REMARK SMILES IDX 11 22 10 23 9 24 8 25 7 26 6 27 5 28 4 29 3 30 2 31 1 32
REMARK H PARENT
REMARK Flexibility Score: inf
ROOT
ATOM      1  C   UNL     1      74.826  82.158  77.476  1.00  0.00     0.000 C 
ENDROOT
BRANCH   1   2
ATOM      2  C   UNL     1      75.421  81.714  78.829  1.00  0.00     0.000 C 
BRANCH   2   3
ATOM      3  C   UNL     1      75.149  80.250  79.214  1.00  0.00     0.000 C 
BRANCH   3   4
ATOM      4  C   UNL     1      75.568  79.928  80.658  1.00  0.00     0.000 C 
BRANCH   4   5
ATOM      5  C   UNL     1      76.157  78.512  80.761  1.00  0.00     0.000 C 
BRANCH   5   6
ATOM      6  C   UNL     1      76.442  77.891  79.383  1.00  0.00     0.000 C 
BRANCH   6   7
ATOM      7  C   UNL     1      77.861  77.312  79.264  1.00  0.00     0.000 C 
BRANCH   7   8
ATOM      8  C   UNL     1      78.940  78.400  79.123  1.00  0.00     0.000 C 
BRANCH   8   9
ATOM      9  C   UNL     1      78.656  79.434  78.014  1.00  0.00     0.000 C 
BRANCH   9  10
ATOM     10  C   UNL     1      78.834  80.884  78.498  1.00  0.00     0.000 C 
BRANCH  10  11
ATOM     11  C   UNL     1      79.434  81.758  77.389  1.00  0.00     0.000 C 
BRANCH  11  12
ATOM     12  C   UNL     1      80.518  81.030  76.576  1.00  0.00     0.000 C 
BRANCH  12  13
ATOM     13  C   UNL     1      80.390  81.177  75.045  1.00  0.00     0.006 C 
BRANCH  13  14
ATOM     14  C   UNL     1      78.944  81.271  74.526  1.00  0.00     0.053 C 
BRANCH  14  15
ATOM     15  C   UNL     1      78.695  82.541  73.768  1.00  0.00     0.041 C 
ATOM     16  O   UNL     1      78.578  82.518  72.513  1.00  0.00    -0.550 OA
ATOM     17  O   UNL     1      78.562  83.743  74.450  1.00  0.00    -0.550 OA
ENDBRANCH  14  15
ENDBRANCH  13  14
ENDBRANCH  12  13
ENDBRANCH  11  12
ENDBRANCH  10  11
ENDBRANCH   9  10
ENDBRANCH   8   9
ENDBRANCH   7   8
ENDBRANCH   6   7
ENDBRANCH   5   6
ENDBRANCH   4   5
ENDBRANCH   3   4
ENDBRANCH   2   3
ENDBRANCH   1   2
BRANCH   1  18
ATOM     18  C   UNL     1      75.882  82.382  76.373  1.00  0.00     0.000 C 
BRANCH  18  19
ATOM     19  C   UNL     1      75.254  82.771  75.020  1.00  0.00     0.000 C 
BRANCH  19  20
ATOM     20  C   UNL     1      73.786  83.222  75.142  1.00  0.00     0.000 C 
BRANCH  20  21
ATOM     21  C   UNL     1      72.765  82.339  74.398  1.00  0.00     0.000 C 
BRANCH  21  22
ATOM     22  C   UNL     1      71.470  82.111  75.198  1.00  0.00     0.000 C 
BRANCH  22  23
ATOM     23  C   UNL     1      71.476  80.777  75.979  1.00  0.00     0.000 C 
BRANCH  23  24
ATOM     24  C   UNL     1      72.561  79.781  75.526  1.00  0.00    -0.000 C 
BRANCH  24  25
ATOM     25  C   UNL     1      73.170  78.913  76.640  1.00  0.00    -0.000 C 
BRANCH  25  26
ATOM     26  C   UNL     1      74.348  78.056  76.152  1.00  0.00    -0.000 C 
BRANCH  26  27
ATOM     27  C   UNL     1      75.594  78.912  75.875  1.00  0.00    -0.000 C 
BRANCH  27  28
ATOM     28  C   UNL     1      76.371  78.432  74.638  1.00  0.00    -0.000 C 
BRANCH  28  29
ATOM     29  C   UNL     1      75.604  78.666  73.325  1.00  0.00    -0.000 C 
BRANCH  29  30
ATOM     30  C   UNL     1      75.832  80.072  72.747  1.00  0.00    -0.000 C 
BRANCH  30  31
ATOM     31  C   UNL     1      76.299  80.041  71.283  1.00  0.00    -0.003 C 
ATOM     32  C   UNL     1      75.193  79.531  70.362  1.00  0.00     0.004 C 
ENDBRANCH  30  31
ENDBRANCH  29  30
ENDBRANCH  28  29
ENDBRANCH  27  28
ENDBRANCH  26  27
ENDBRANCH  25  26
ENDBRANCH  24  25
ENDBRANCH  23  24
ENDBRANCH  22  23
ENDBRANCH  21  22
ENDBRANCH  20  21
ENDBRANCH  19  20
ENDBRANCH  18  19
ENDBRANCH   1  18
TORSDOF 28
ENDMDL
MODEL 7
REMARK VINA RESULT:    -3.123      1.410      5.751
REMARK INTER + INTRA:         -14.888
REMARK INTER:                  -8.413
REMARK INTRA:                  -6.474
REMARK UNBOUND:                -6.652
REMARK SMILES CCCCCCCCCCCCCCCCCCCCCCCCCCCCCC(=O)[O-]
REMARK SMILES IDX 16 1 17 2 18 3 19 4 20 5 21 6 22 7 23 8 24 9 25 10 26 11
REMARK SMILES IDX 27 12 28 13 29 14 30 15 31 16 32 17 15 18 14 19 13 20 12 21
REMARK SMILES IDX 11 22 10 23 9 24 8 25 7 26 6 27 5 28 4 29 3 30 2 31 1 32
REMARK H PARENT
REMARK Flexibility Score: inf
ROOT
ATOM      1  C   UNL     1      76.610  82.097  76.697  1.00  0.00     0.000 C 
ENDROOT
BRANCH   1   2
ATOM      2  C   UNL     1      75.267  81.881  75.968  1.00  0.00     0.000 C 
BRANCH   2   3
ATOM      3  C   UNL     1      74.864  83.002  74.995  1.00  0.00     0.000 C 
BRANCH   3   4
ATOM      4  C   UNL     1      73.340  83.124  74.828  1.00  0.00     0.000 C 
BRANCH   4   5
ATOM      5  C   UNL     1      72.604  82.659  76.094  1.00  0.00     0.000 C 
BRANCH   5   6
ATOM      6  C   UNL     1      71.346  81.833  75.773  1.00  0.00     0.000 C 
BRANCH   6   7
ATOM      7  C   UNL     1      71.570  80.806  74.651  1.00  0.00     0.000 C 
BRANCH   7   8
ATOM      8  C   UNL     1      72.220  79.505  75.153  1.00  0.00     0.000 C 
BRANCH   8   9
ATOM      9  C   UNL     1      73.316  78.944  74.222  1.00  0.00     0.000 C 
BRANCH   9  10
ATOM     10  C   UNL     1      73.495  79.786  72.946  1.00  0.00     0.000 C 
BRANCH  10  11
ATOM     11  C   UNL     1      74.961  80.205  72.772  1.00  0.00     0.000 C 
BRANCH  11  12
ATOM     12  C   UNL     1      75.903  79.006  72.566  1.00  0.00     0.000 C 
BRANCH  12  13
ATOM     13  C   UNL     1      77.320  79.186  73.150  1.00  0.00     0.006 C 
BRANCH  13  14
ATOM     14  C   UNL     1      77.687  80.635  73.515  1.00  0.00     0.053 C 
BRANCH  14  15
ATOM     15  C   UNL     1      78.668  81.233  72.550  1.00  0.00     0.041 C 
ATOM     16  O   UNL     1      78.722  82.482  72.393  1.00  0.00    -0.550 OA
ATOM     17  O   UNL     1      79.542  80.412  71.849  1.00  0.00    -0.550 OA
ENDBRANCH  14  15
ENDBRANCH  13  14
ENDBRANCH  12  13
ENDBRANCH  11  12
ENDBRANCH  10  11
ENDBRANCH   9  10
ENDBRANCH   8   9
ENDBRANCH   7   8
ENDBRANCH   6   7
ENDBRANCH   5   6
ENDBRANCH   4   5
ENDBRANCH   3   4
ENDBRANCH   2   3
ENDBRANCH   1   2
BRANCH   1  18
ATOM     18  C   UNL     1      76.478  82.203  78.231  1.00  0.00     0.000 C 
BRANCH  18  19
ATOM     19  C   UNL     1      75.225  81.487  78.771  1.00  0.00     0.000 C 
BRANCH  19  20
ATOM     20  C   UNL     1      75.542  80.477  79.891  1.00  0.00     0.000 C 
BRANCH  20  21
ATOM     21  C   UNL     1      74.982  79.058  79.671  1.00  0.00     0.000 C 
BRANCH  21  22
ATOM     22  C   UNL     1      74.328  78.877  78.289  1.00  0.00     0.000 C 
BRANCH  22  23
ATOM     23  C   UNL     1      75.072  77.851  77.405  1.00  0.00     0.000 C 
BRANCH  23  24
ATOM     24  C   UNL     1      76.189  78.455  76.534  1.00  0.00    -0.000 C 
BRANCH  24  25
ATOM     25  C   UNL     1      77.556  77.756  76.629  1.00  0.00    -0.000 C 
BRANCH  25  26
ATOM     26  C   UNL     1      78.717  78.740  76.837  1.00  0.00    -0.000 C 
BRANCH  26  27
ATOM     27  C   UNL     1      78.750  79.277  78.277  1.00  0.00    -0.000 C 
BRANCH  27  28
ATOM     28  C   UNL     1      79.709  80.469  78.436  1.00  0.00    -0.000 C 
BRANCH  28  29
ATOM     29  C   UNL     1      79.943  81.224  77.117  1.00  0.00    -0.000 C 
BRANCH  29  30
ATOM     30  C   UNL     1      81.432  81.486  76.839  1.00  0.00    -0.000 C 
BRANCH  30  31
ATOM     31  C   UNL     1      81.654  82.592  75.795  1.00  0.00    -0.003 C 
ATOM     32  C   UNL     1      80.350  83.320  75.477  1.00  0.00     0.004 C 
ENDBRANCH  30  31
ENDBRANCH  29  30
ENDBRANCH  28  29
ENDBRANCH  27  28
ENDBRANCH  26  27
ENDBRANCH  25  26
ENDBRANCH  24  25
ENDBRANCH  23  24
ENDBRANCH  22  23
ENDBRANCH  21  22
ENDBRANCH  20  21
ENDBRANCH  19  20
ENDBRANCH  18  19
ENDBRANCH   1  18
TORSDOF 28
ENDMDL
MODEL 8
REMARK VINA RESULT:    -3.087      2.638      6.141
REMARK INTER + INTRA:         -14.792
REMARK INTER:                  -9.044
REMARK INTRA:                  -5.748
REMARK UNBOUND:                -6.652
REMARK SMILES CCCCCCCCCCCCCCCCCCCCCCCCCCCCCC(=O)[O-]
REMARK SMILES IDX 16 1 17 2 18 3 19 4 20 5 21 6 22 7 23 8 24 9 25 10 26 11
REMARK SMILES IDX 27 12 28 13 29 14 30 15 31 16 32 17 15 18 14 19 13 20 12 21
REMARK SMILES IDX 11 22 10 23 9 24 8 25 7 26 6 27 5 28 4 29 3 30 2 31 1 32
REMARK H PARENT
REMARK Flexibility Score: inf
ROOT
ATOM      1  C   UNL     1      75.468  80.065  79.467  1.00  0.00     0.000 C 
ENDROOT
BRANCH   1   2
ATOM      2  C   UNL     1      75.236  81.368  78.674  1.00  0.00     0.000 C 
BRANCH   2   3
ATOM      3  C   UNL     1      76.511  82.145  78.304  1.00  0.00     0.000 C 
BRANCH   3   4
ATOM      4  C   UNL     1      76.692  82.300  76.785  1.00  0.00     0.000 C 
BRANCH   4   5
ATOM      5  C   UNL     1      75.761  83.387  76.225  1.00  0.00     0.000 C 
BRANCH   5   6
ATOM      6  C   UNL     1      74.916  82.884  75.042  1.00  0.00     0.000 C 
BRANCH   6   7
ATOM      7  C   UNL     1      74.908  81.352  74.915  1.00  0.00     0.000 C 
BRANCH   7   8
ATOM      8  C   UNL     1      75.105  80.871  73.467  1.00  0.00     0.000 C 
BRANCH   8   9
ATOM      9  C   UNL     1      74.491  79.487  73.170  1.00  0.00     0.000 C 
BRANCH   9  10
ATOM     10  C   UNL     1      73.103  79.584  72.512  1.00  0.00     0.000 C 
BRANCH  10  11
ATOM     11  C   UNL     1      71.992  79.470  73.564  1.00  0.00     0.000 C 
BRANCH  11  12
ATOM     12  C   UNL     1      70.963  80.609  73.471  1.00  0.00     0.000 C 
BRANCH  12  13
ATOM     13  C   UNL     1      71.378  81.919  74.175  1.00  0.00     0.006 C 
BRANCH  13  14
ATOM     14  C   UNL     1      70.733  82.141  75.554  1.00  0.00     0.053 C 
BRANCH  14  15
ATOM     15  C   UNL     1      71.693  81.879  76.678  1.00  0.00     0.041 C 
ATOM     16  O   UNL     1      72.134  82.836  77.370  1.00  0.00    -0.550 OA
ATOM     17  O   UNL     1      72.074  80.578  76.977  1.00  0.00    -0.550 OA
ENDBRANCH  14  15
ENDBRANCH  13  14
ENDBRANCH  12  13
ENDBRANCH  11  12
ENDBRANCH  10  11
ENDBRANCH   9  10
ENDBRANCH   8   9
ENDBRANCH   7   8
ENDBRANCH   6   7
ENDBRANCH   5   6
ENDBRANCH   4   5
ENDBRANCH   3   4
ENDBRANCH   2   3
ENDBRANCH   1   2
BRANCH   1  18
ATOM     18  C   UNL     1      76.586  79.172  78.887  1.00  0.00     0.000 C 
BRANCH  18  19
ATOM     19  C   UNL     1      76.077  78.227  77.780  1.00  0.00     0.000 C 
BRANCH  19  20
ATOM     20  C   UNL     1      76.757  78.471  76.419  1.00  0.00     0.000 C 
BRANCH  20  21
ATOM     21  C   UNL     1      78.056  79.299  76.475  1.00  0.00     0.000 C 
BRANCH  21  22
ATOM     22  C   UNL     1      79.325  78.434  76.366  1.00  0.00     0.000 C 
BRANCH  22  23
ATOM     23  C   UNL     1      80.454  78.910  77.308  1.00  0.00     0.000 C 
BRANCH  23  24
ATOM     24  C   UNL     1      80.055  80.064  78.247  1.00  0.00    -0.000 C 
BRANCH  24  25
ATOM     25  C   UNL     1      80.697  81.426  77.933  1.00  0.00    -0.000 C 
BRANCH  25  26
ATOM     26  C   UNL     1      81.805  81.334  76.872  1.00  0.00    -0.000 C 
BRANCH  26  27
ATOM     27  C   UNL     1      81.714  82.486  75.859  1.00  0.00    -0.000 C 
BRANCH  27  28
ATOM     28  C   UNL     1      80.260  82.832  75.495  1.00  0.00    -0.000 C 
BRANCH  28  29
ATOM     29  C   UNL     1      79.648  81.844  74.487  1.00  0.00    -0.000 C 
BRANCH  29  30
ATOM     30  C   UNL     1      78.568  82.490  73.605  1.00  0.00    -0.000 C 
BRANCH  30  31
ATOM     31  C   UNL     1      78.567  81.939  72.170  1.00  0.00    -0.003 C 
ATOM     32  C   UNL     1      78.563  80.412  72.165  1.00  0.00     0.004 C 
ENDBRANCH  30  31
ENDBRANCH  29  30
ENDBRANCH  28  29
ENDBRANCH  27  28
ENDBRANCH  26  27
ENDBRANCH  25  26
ENDBRANCH  24  25
ENDBRANCH  23  24
ENDBRANCH  22  23
ENDBRANCH  21  22
ENDBRANCH  20  21
ENDBRANCH  19  20
ENDBRANCH  18  19
ENDBRANCH   1  18
TORSDOF 28
ENDMDL
MODEL 9
REMARK VINA RESULT:    -3.060      3.071      5.468
REMARK INTER + INTRA:         -14.720
REMARK INTER:                  -8.492
REMARK INTRA:                  -6.228
REMARK UNBOUND:                -6.652
REMARK SMILES CCCCCCCCCCCCCCCCCCCCCCCCCCCCCC(=O)[O-]
REMARK SMILES IDX 16 1 17 2 18 3 19 4 20 5 21 6 22 7 23 8 24 9 25 10 26 11
REMARK SMILES IDX 27 12 28 13 29 14 30 15 31 16 32 17 15 18 14 19 13 20 12 21
REMARK SMILES IDX 11 22 10 23 9 24 8 25 7 26 6 27 5 28 4 29 3 30 2 31 1 32
REMARK H PARENT
REMARK Flexibility Score: inf
ROOT
ATOM      1  C   UNL     1      76.779  81.891  76.226  1.00  0.00     0.000 C 
ENDROOT
BRANCH   1   2
ATOM      2  C   UNL     1      76.077  82.802  75.196  1.00  0.00     0.000 C 
BRANCH   2   3
ATOM      3  C   UNL     1      74.940  83.671  75.761  1.00  0.00     0.000 C 
BRANCH   3   4
ATOM      4  C   UNL     1      73.563  83.286  75.196  1.00  0.00     0.000 C 
BRANCH   4   5
ATOM      5  C   UNL     1      73.648  82.004  74.351  1.00  0.00     0.000 C 
BRANCH   5   6
ATOM      6  C   UNL     1      72.813  80.855  74.942  1.00  0.00     0.000 C 
BRANCH   6   7
ATOM      7  C   UNL     1      72.671  80.938  76.471  1.00  0.00     0.000 C 
BRANCH   7   8
ATOM      8  C   UNL     1      73.553  79.916  77.209  1.00  0.00     0.000 C 
BRANCH   8   9
ATOM      9  C   UNL     1      74.443  79.061  76.282  1.00  0.00     0.000 C 
BRANCH   9  10
ATOM     10  C   UNL     1      75.085  77.870  77.014  1.00  0.00     0.000 C 
BRANCH  10  11
ATOM     11  C   UNL     1      76.611  78.021  77.066  1.00  0.00     0.000 C 
BRANCH  11  12
ATOM     12  C   UNL     1      77.248  77.247  78.233  1.00  0.00     0.000 C 
BRANCH  12  13
ATOM     13  C   UNL     1      76.360  77.121  79.490  1.00  0.00     0.006 C 
BRANCH  13  14
ATOM     14  C   UNL     1      76.625  78.180  80.574  1.00  0.00     0.053 C 
BRANCH  14  15
ATOM     15  C   UNL     1      75.361  78.833  81.051  1.00  0.00     0.041 C 
ATOM     16  O   UNL     1      75.412  79.904  81.713  1.00  0.00    -0.550 OA
ATOM     17  O   UNL     1      74.129  78.274  80.738  1.00  0.00    -0.550 OA
ENDBRANCH  14  15
ENDBRANCH  13  14
ENDBRANCH  12  13
ENDBRANCH  11  12
ENDBRANCH  10  11
ENDBRANCH   9  10
ENDBRANCH   8   9
ENDBRANCH   7   8
ENDBRANCH   6   7
ENDBRANCH   5   6
ENDBRANCH   4   5
ENDBRANCH   3   4
ENDBRANCH   2   3
ENDBRANCH   1   2
BRANCH   1  18
ATOM     18  C   UNL     1      76.341  82.144  77.684  1.00  0.00     0.000 C 
BRANCH  18  19
ATOM     19  C   UNL     1      77.051  81.214  78.688  1.00  0.00     0.000 C 
BRANCH  19  20
ATOM     20  C   UNL     1      78.576  81.427  78.734  1.00  0.00     0.000 C 
BRANCH  20  21
ATOM     21  C   UNL     1      79.418  80.247  78.211  1.00  0.00     0.000 C 
BRANCH  21  22
ATOM     22  C   UNL     1      80.305  80.625  77.011  1.00  0.00     0.000 C 
BRANCH  22  23
ATOM     23  C   UNL     1      80.423  82.153  76.813  1.00  0.00     0.000 C 
BRANCH  23  24
ATOM     24  C   UNL     1      80.813  82.580  75.385  1.00  0.00    -0.000 C 
BRANCH  24  25
ATOM     25  C   UNL     1      79.709  82.431  74.324  1.00  0.00    -0.000 C 
BRANCH  25  26
ATOM     26  C   UNL     1      80.189  81.696  73.063  1.00  0.00    -0.000 C 
BRANCH  26  27
ATOM     27  C   UNL     1      79.200  80.600  72.637  1.00  0.00    -0.000 C 
BRANCH  27  28
ATOM     28  C   UNL     1      78.656  79.805  73.835  1.00  0.00    -0.000 C 
BRANCH  28  29
ATOM     29  C   UNL     1      77.267  79.201  73.567  1.00  0.00    -0.000 C 
BRANCH  29  30
ATOM     30  C   UNL     1      76.298  80.204  72.922  1.00  0.00    -0.000 C 
BRANCH  30  31
ATOM     31  C   UNL     1      75.514  79.598  71.747  1.00  0.00    -0.003 C 
ATOM     32  C   UNL     1      76.229  79.846  70.421  1.00  0.00     0.004 C 
ENDBRANCH  30  31
ENDBRANCH  29  30
ENDBRANCH  28  29
ENDBRANCH  27  28
ENDBRANCH  26  27
ENDBRANCH  25  26
ENDBRANCH  24  25
ENDBRANCH  23  24
ENDBRANCH  22  23
ENDBRANCH  21  22
ENDBRANCH  20  21
ENDBRANCH  19  20
ENDBRANCH  18  19
ENDBRANCH   1  18
TORSDOF 28
ENDMDL
