MODEL 1
REMARK VINA RESULT:    -4.858      0.000      0.000
REMARK INTER + INTRA:          -5.720
REMARK INTER:                  -5.568
REMARK INTRA:                  -0.152
REMARK UNBOUND:                -0.152
REMARK SMILES O=C([O-])C=Cc1ccc(O)cc1
REMARK SMILES IDX 6 1 7 2 12 3 8 4 11 5 9 6 5 7 4 8 2 9 1 10 3 11 10 12
REMARK H PARENT 10 13
REMARK Flexibility Score: inf
ROOT
ATOM      1  C   UNL     1      13.077 -21.220  19.191  1.00  0.00    -0.025 A 
ATOM      2  C   UNL     1      11.851 -20.647  18.796  1.00  0.00     0.012 A 
ATOM      3  C   UNL     1      14.269 -20.533  18.907  1.00  0.00     0.012 A 
ATOM      4  C   UNL     1      11.828 -19.427  18.112  1.00  0.00     0.047 A 
ATOM      5  C   UNL     1      14.242 -19.315  18.222  1.00  0.00     0.047 A 
ATOM      6  C   UNL     1      13.021 -18.759  17.821  1.00  0.00     0.115 A 
ENDROOT
BRANCH   1   7
ATOM      7  C   UNL     1      13.157 -22.505  19.929  1.00  0.00     0.010 C 
ATOM      8  C   UNL     1      14.308 -23.060  20.337  1.00  0.00     0.025 C 
BRANCH   8   9
ATOM      9  C   UNL     1      14.349 -24.332  21.077  1.00  0.00     0.064 C 
ATOM     10  O   UNL     1      15.029 -25.309  20.661  1.00  0.00    -0.545 OA
ATOM     11  O   UNL     1      13.627 -24.458  22.256  1.00  0.00    -0.545 OA
ENDBRANCH   8   9
ENDBRANCH   1   7
BRANCH   6  12
ATOM     12  O   UNL     1      12.982 -17.547  17.137  1.00  0.00    -0.508 OA
ATOM     13  H   UNL     1      12.372 -17.407  16.340  1.00  0.00     0.293 HD
ENDBRANCH   6  12
TORSDOF 3
ENDMDL
MODEL 2
REMARK VINA RESULT:    -4.839      0.098      1.400
REMARK INTER + INTRA:          -5.698
REMARK INTER:                  -5.559
REMARK INTRA:                  -0.139
REMARK UNBOUND:                -0.152
REMARK SMILES O=C([O-])C=Cc1ccc(O)cc1
REMARK SMILES IDX 6 1 7 2 12 3 8 4 11 5 9 6 5 7 4 8 2 9 1 10 3 11 10 12
REMARK H PARENT 10 13
REMARK Flexibility Score: inf
ROOT
ATOM      1  C   UNL     1      13.200 -21.178  19.230  1.00  0.00    -0.025 A 
ATOM      2  C   UNL     1      14.364 -20.443  18.924  1.00  0.00     0.012 A 
ATOM      3  C   UNL     1      11.955 -20.677  18.816  1.00  0.00     0.012 A 
ATOM      4  C   UNL     1      14.273 -19.225  18.242  1.00  0.00     0.047 A 
ATOM      5  C   UNL     1      11.868 -19.459  18.135  1.00  0.00     0.047 A 
ATOM      6  C   UNL     1      13.027 -18.728  17.848  1.00  0.00     0.115 A 
ENDROOT
BRANCH   1   7
ATOM      7  C   UNL     1      13.241 -22.479  19.940  1.00  0.00     0.010 C 
ATOM      8  C   UNL     1      14.376 -23.103  20.291  1.00  0.00     0.025 C 
BRANCH   8   9
ATOM      9  C   UNL     1      14.378 -24.389  21.006  1.00  0.00     0.064 C 
ATOM     10  O   UNL     1      15.064 -25.364  20.595  1.00  0.00    -0.545 OA
ATOM     11  O   UNL     1      13.611 -24.533  22.154  1.00  0.00    -0.545 OA
ENDBRANCH   8   9
ENDBRANCH   1   7
BRANCH   6  12
ATOM     12  O   UNL     1      12.953 -17.514  17.171  1.00  0.00    -0.508 OA
ATOM     13  H   UNL     1      13.278 -17.419  16.216  1.00  0.00     0.293 HD
ENDBRANCH   6  12
TORSDOF 3
ENDMDL
MODEL 3
REMARK VINA RESULT:    -4.700     13.609     14.889
REMARK INTER + INTRA:          -5.538
REMARK INTER:                  -5.389
REMARK INTRA:                  -0.149
REMARK UNBOUND:                -0.152
REMARK SMILES O=C([O-])C=Cc1ccc(O)cc1
REMARK SMILES IDX 6 1 7 2 12 3 8 4 11 5 9 6 5 7 4 8 2 9 1 10 3 11 10 12
REMARK H PARENT 10 13
REMARK Flexibility Score: inf
ROOT
ATOM      1  C   UNL     1      21.031 -15.604  29.349  1.00  0.00    -0.025 A 
ATOM      2  C   UNL     1      21.609 -16.868  29.584  1.00  0.00     0.012 A 
ATOM      3  C   UNL     1      21.193 -14.595  30.314  1.00  0.00     0.012 A 
ATOM      4  C   UNL     1      22.310 -17.117  30.769  1.00  0.00     0.047 A 
ATOM      5  C   UNL     1      21.894 -14.848  31.497  1.00  0.00     0.047 A 
ATOM      6  C   UNL     1      22.452 -16.111  31.728  1.00  0.00     0.115 A 
ENDROOT
BRANCH   1   7
ATOM      7  C   UNL     1      20.288 -15.283  28.106  1.00  0.00     0.010 C 
ATOM      8  C   UNL     1      20.109 -14.037  27.644  1.00  0.00     0.025 C 
BRANCH   8   9
ATOM      9  C   UNL     1      19.375 -13.757  26.399  1.00  0.00     0.064 C 
ATOM     10  O   UNL     1      18.115 -13.778  26.365  1.00  0.00    -0.545 OA
ATOM     11  O   UNL     1      20.082 -13.464  25.241  1.00  0.00    -0.545 OA
ENDBRANCH   8   9
ENDBRANCH   1   7
BRANCH   6  12
ATOM     12  O   UNL     1      23.152 -16.374  32.903  1.00  0.00    -0.508 OA
ATOM     13  H   UNL     1      23.115 -17.283  33.350  1.00  0.00     0.293 HD
ENDBRANCH   6  12
TORSDOF 3
ENDMDL
MODEL 4
REMARK VINA RESULT:    -4.571      1.893      2.680
REMARK INTER + INTRA:          -5.391
REMARK INTER:                  -5.241
REMARK INTRA:                  -0.150
REMARK UNBOUND:                -0.152
REMARK SMILES O=C([O-])C=Cc1ccc(O)cc1
REMARK SMILES IDX 6 1 7 2 12 3 8 4 11 5 9 6 5 7 4 8 2 9 1 10 3 11 10 12
REMARK H PARENT 10 13
REMARK Flexibility Score: inf
ROOT
ATOM      1  C   UNL     1      13.761 -23.409  20.203  1.00  0.00    -0.025 A 
ATOM      2  C   UNL     1      13.250 -23.583  18.901  1.00  0.00     0.012 A 
ATOM      3  C   UNL     1      14.039 -22.108  20.653  1.00  0.00     0.012 A 
ATOM      4  C   UNL     1      13.047 -22.478  18.067  1.00  0.00     0.047 A 
ATOM      5  C   UNL     1      13.835 -21.006  19.817  1.00  0.00     0.047 A 
ATOM      6  C   UNL     1      13.340 -21.189  18.520  1.00  0.00     0.115 A 
ENDROOT
BRANCH   1   7
ATOM      7  C   UNL     1      13.985 -24.545  21.131  1.00  0.00     0.010 C 
ATOM      8  C   UNL     1      13.835 -24.460  22.462  1.00  0.00     0.025 C 
BRANCH   8   9
ATOM      9  C   UNL     1      14.055 -25.612  23.352  1.00  0.00     0.064 C 
ATOM     10  O   UNL     1      14.633 -26.655  22.940  1.00  0.00    -0.545 OA
ATOM     11  O   UNL     1      13.621 -25.550  24.669  1.00  0.00    -0.545 OA
ENDBRANCH   8   9
ENDBRANCH   1   7
BRANCH   6  12
ATOM     12  O   UNL     1      13.134 -20.099  17.678  1.00  0.00    -0.508 OA
ATOM     13  H   UNL     1      13.646 -19.996  16.810  1.00  0.00     0.293 HD
ENDBRANCH   6  12
TORSDOF 3
ENDMDL
MODEL 5
REMARK VINA RESULT:    -4.563      3.279      6.432
REMARK INTER + INTRA:          -5.382
REMARK INTER:                  -5.238
REMARK INTRA:                  -0.144
REMARK UNBOUND:                -0.152
REMARK SMILES O=C([O-])C=Cc1ccc(O)cc1
REMARK SMILES IDX 6 1 7 2 12 3 8 4 11 5 9 6 5 7 4 8 2 9 1 10 3 11 10 12
REMARK H PARENT 10 13
REMARK Flexibility Score: inf
ROOT
ATOM      1  C   UNL     1      14.265 -24.230  22.473  1.00  0.00    -0.025 A 
ATOM      2  C   UNL     1      13.890 -25.291  23.322  1.00  0.00     0.012 A 
ATOM      3  C   UNL     1      14.923 -23.119  23.028  1.00  0.00     0.012 A 
ATOM      4  C   UNL     1      14.149 -25.225  24.695  1.00  0.00     0.047 A 
ATOM      5  C   UNL     1      15.179 -23.055  24.401  1.00  0.00     0.047 A 
ATOM      6  C   UNL     1      14.790 -24.108  25.239  1.00  0.00     0.115 A 
ENDROOT
BRANCH   1   7
ATOM      7  C   UNL     1      14.025 -24.255  21.010  1.00  0.00     0.010 C 
ATOM      8  C   UNL     1      13.557 -23.208  20.313  1.00  0.00     0.025 C 
BRANCH   8   9
ATOM      9  C   UNL     1      13.342 -23.266  18.858  1.00  0.00     0.064 C 
ATOM     10  O   UNL     1      12.896 -24.308  18.304  1.00  0.00    -0.545 OA
ATOM     11  O   UNL     1      13.633 -22.154  18.080  1.00  0.00    -0.545 OA
ENDBRANCH   8   9
ENDBRANCH   1   7
BRANCH   6  12
ATOM     12  O   UNL     1      15.040 -24.055  26.608  1.00  0.00    -0.508 OA
ATOM     13  H   UNL     1      15.942 -23.773  26.971  1.00  0.00     0.293 HD
ENDBRANCH   6  12
TORSDOF 3
ENDMDL
MODEL 6
REMARK VINA RESULT:    -4.551      3.474      5.347
REMARK INTER + INTRA:          -5.368
REMARK INTER:                  -5.215
REMARK INTRA:                  -0.153
REMARK UNBOUND:                -0.152
REMARK SMILES O=C([O-])C=Cc1ccc(O)cc1
REMARK SMILES IDX 6 1 7 2 12 3 8 4 11 5 9 6 5 7 4 8 2 9 1 10 3 11 10 12
REMARK H PARENT 10 13
REMARK Flexibility Score: inf
ROOT
ATOM      1  C   UNL     1      13.481 -19.214  19.925  1.00  0.00    -0.025 A 
ATOM      2  C   UNL     1      12.222 -19.708  19.527  1.00  0.00     0.012 A 
ATOM      3  C   UNL     1      14.638 -19.887  19.499  1.00  0.00     0.012 A 
ATOM      4  C   UNL     1      12.130 -20.862  18.741  1.00  0.00     0.047 A 
ATOM      5  C   UNL     1      14.543 -21.040  18.714  1.00  0.00     0.047 A 
ATOM      6  C   UNL     1      13.288 -21.532  18.335  1.00  0.00     0.115 A 
ENDROOT
BRANCH   1   7
ATOM      7  C   UNL     1      13.634 -17.989  20.748  1.00  0.00     0.010 C 
ATOM      8  C   UNL     1      14.807 -17.566  21.244  1.00  0.00     0.025 C 
BRANCH   8   9
ATOM      9  C   UNL     1      14.923 -16.339  22.047  1.00  0.00     0.064 C 
ATOM     10  O   UNL     1      13.940 -15.886  22.694  1.00  0.00    -0.545 OA
ATOM     11  O   UNL     1      16.137 -15.667  22.095  1.00  0.00    -0.545 OA
ENDBRANCH   8   9
ENDBRANCH   1   7
BRANCH   6  12
ATOM     12  O   UNL     1      13.181 -22.680  17.554  1.00  0.00    -0.508 OA
ATOM     13  H   UNL     1      13.098 -23.599  17.973  1.00  0.00     0.293 HD
ENDBRANCH   6  12
TORSDOF 3
ENDMDL
MODEL 7
REMARK VINA RESULT:    -4.535      1.396      5.847
REMARK INTER + INTRA:          -5.350
REMARK INTER:                  -5.211
REMARK INTRA:                  -0.139
REMARK UNBOUND:                -0.152
REMARK SMILES O=C([O-])C=Cc1ccc(O)cc1
REMARK SMILES IDX 6 1 7 2 12 3 8 4 11 5 9 6 5 7 4 8 2 9 1 10 3 11 10 12
REMARK H PARENT 10 13
REMARK Flexibility Score: inf
ROOT
ATOM      1  C   UNL     1      14.090 -22.454  19.324  1.00  0.00    -0.025 A 
ATOM      2  C   UNL     1      15.280 -22.075  19.975  1.00  0.00     0.012 A 
ATOM      3  C   UNL     1      13.637 -23.778  19.457  1.00  0.00     0.012 A 
ATOM      4  C   UNL     1      16.009 -23.008  20.720  1.00  0.00     0.047 A 
ATOM      5  C   UNL     1      14.368 -24.708  20.202  1.00  0.00     0.047 A 
ATOM      6  C   UNL     1      15.557 -24.326  20.834  1.00  0.00     0.115 A 
ENDROOT
BRANCH   1   7
ATOM      7  C   UNL     1      13.274 -21.502  18.531  1.00  0.00     0.010 C 
ATOM      8  C   UNL     1      13.106 -20.212  18.858  1.00  0.00     0.025 C 
BRANCH   8   9
ATOM      9  C   UNL     1      12.298 -19.292  18.040  1.00  0.00     0.064 C 
ATOM     10  O   UNL     1      11.038 -19.345  18.052  1.00  0.00    -0.545 OA
ATOM     11  O   UNL     1      12.933 -18.350  17.244  1.00  0.00    -0.545 OA
ENDBRANCH   8   9
ENDBRANCH   1   7
BRANCH   6  12
ATOM     12  O   UNL     1      16.293 -25.244  21.578  1.00  0.00    -0.508 OA
ATOM     13  H   UNL     1      16.125 -25.380  22.568  1.00  0.00     0.293 HD
ENDBRANCH   6  12
TORSDOF 3
ENDMDL
MODEL 8
REMARK VINA RESULT:    -4.385      3.195      6.928
REMARK INTER + INTRA:          -5.177
REMARK INTER:                  -5.034
REMARK INTRA:                  -0.143
REMARK UNBOUND:                -0.152
REMARK SMILES O=C([O-])C=Cc1ccc(O)cc1
REMARK SMILES IDX 6 1 7 2 12 3 8 4 11 5 9 6 5 7 4 8 2 9 1 10 3 11 10 12
REMARK H PARENT 10 13
REMARK Flexibility Score: inf
ROOT
ATOM      1  C   UNL     1      14.661 -25.147  21.319  1.00  0.00    -0.025 A 
ATOM      2  C   UNL     1      16.008 -25.558  21.366  1.00  0.00     0.012 A 
ATOM      3  C   UNL     1      13.851 -25.353  22.448  1.00  0.00     0.012 A 
ATOM      4  C   UNL     1      16.520 -26.180  22.510  1.00  0.00     0.047 A 
ATOM      5  C   UNL     1      14.364 -25.976  23.589  1.00  0.00     0.047 A 
ATOM      6  C   UNL     1      15.700 -26.394  23.622  1.00  0.00     0.115 A 
ENDROOT
BRANCH   1   7
ATOM      7  C   UNL     1      14.072 -24.472  20.136  1.00  0.00     0.010 C 
ATOM      8  C   UNL     1      13.391 -23.318  20.198  1.00  0.00     0.025 C 
BRANCH   8   9
ATOM      9  C   UNL     1      12.830 -22.671  19.001  1.00  0.00     0.064 C 
ATOM     10  O   UNL     1      13.490 -22.597  17.929  1.00  0.00    -0.545 OA
ATOM     11  O   UNL     1      11.551 -22.134  19.051  1.00  0.00    -0.545 OA
ENDBRANCH   8   9
ENDBRANCH   1   7
BRANCH   6  12
ATOM     12  O   UNL     1      16.223 -27.016  24.752  1.00  0.00    -0.508 OA
ATOM     13  H   UNL     1      16.065 -26.645  25.682  1.00  0.00     0.293 HD
ENDBRANCH   6  12
TORSDOF 3
ENDMDL
MODEL 9
REMARK VINA RESULT:    -4.259      4.648      6.375
REMARK INTER + INTRA:          -5.033
REMARK INTER:                  -4.884
REMARK INTRA:                  -0.149
REMARK UNBOUND:                -0.152
REMARK SMILES O=C([O-])C=Cc1ccc(O)cc1
REMARK SMILES IDX 6 1 7 2 12 3 8 4 11 5 9 6 5 7 4 8 2 9 1 10 3 11 10 12
REMARK H PARENT 10 13
REMARK Flexibility Score: inf
ROOT
ATOM      1  C   UNL     1      14.602 -17.692  20.778  1.00  0.00    -0.025 A 
ATOM      2  C   UNL     1      15.431 -18.127  19.724  1.00  0.00     0.012 A 
ATOM      3  C   UNL     1      13.300 -18.212  20.874  1.00  0.00     0.012 A 
ATOM      4  C   UNL     1      14.954 -19.041  18.779  1.00  0.00     0.047 A 
ATOM      5  C   UNL     1      12.826 -19.124  19.927  1.00  0.00     0.047 A 
ATOM      6  C   UNL     1      13.652 -19.540  18.875  1.00  0.00     0.115 A 
ENDROOT
BRANCH   1   7
ATOM      7  C   UNL     1      15.062 -16.733  21.813  1.00  0.00     0.010 C 
ATOM      8  C   UNL     1      14.234 -15.978  22.550  1.00  0.00     0.025 C 
BRANCH   8   9
ATOM      9  C   UNL     1      14.726 -15.045  23.577  1.00  0.00     0.064 C 
ATOM     10  O   UNL     1      15.688 -14.265  23.342  1.00  0.00    -0.545 OA
ATOM     11  O   UNL     1      14.120 -15.022  24.825  1.00  0.00    -0.545 OA
ENDBRANCH   8   9
ENDBRANCH   1   7
BRANCH   6  12
ATOM     12  O   UNL     1      13.191 -20.449  17.926  1.00  0.00    -0.508 OA
ATOM     13  H   UNL     1      12.277 -20.880  18.006  1.00  0.00     0.293 HD
ENDBRANCH   6  12
TORSDOF 3
ENDMDL
