MODEL 1
REMARK VINA RESULT:    -6.567      0.000      0.000
REMARK INTER + INTRA:         -10.448
REMARK INTER:                  -9.063
REMARK INTRA:                  -1.385
REMARK UNBOUND:                -1.385
REMARK SMILES CC[C@@H](CC[C@H](C)[C@@H]1CC[C@H]2C3=CC[C@@H]4C[C@@H](O)CC[C@@]4(C)[C@H]3CC[C@]21C)C(C)C
REMARK SMILES IDX 5 1 4 2 3 3 2 4 1 5 28 6 29 7 30 8 6 9 7 10 8 11 9 12 26 13
REMARK SMILES IDX 10 14 11 15 25 16 27 17 12 18 24 19 23 20 13 21 21 22 14 23
REMARK SMILES IDX 15 24 20 25 22 26 16 27 19 28 17 29 18 30
REMARK H PARENT 18 31
REMARK Flexibility Score: inf
ROOT
ATOM      1  C   UNL     1      46.464   8.079 113.317  1.00  0.00     0.004 C 
ENDROOT
BRANCH   1   2
ATOM      2  C   UNL     1      46.742   6.573 113.080  1.00  0.00     0.004 C 
BRANCH   2   3
ATOM      3  C   UNL     1      48.258   6.226 112.926  1.00  0.00    -0.009 C 
BRANCH   3   4
ATOM      4  C   UNL     1      49.122   7.419 113.416  1.00  0.00     0.000 C 
ATOM      5  C   UNL     1      50.279   7.006 114.328  1.00  0.00     0.004 C 
ENDBRANCH   3   4
BRANCH   3   6
ATOM      6  C   UNL     1      48.647   5.736 111.487  1.00  0.00    -0.014 C 
ATOM      7  C   UNL     1      49.055   6.892 110.564  1.00  0.00     0.007 C 
ATOM      8  C   UNL     1      49.724   4.635 111.462  1.00  0.00     0.007 C 
ENDBRANCH   3   6
ENDBRANCH   2   3
ENDBRANCH   1   2
BRANCH   1   9
ATOM      9  C   UNL     1      45.201   8.355 114.184  1.00  0.00    -0.011 C 
ATOM     10  C   UNL     1      44.055   8.877 113.295  1.00  0.00     0.008 C 
BRANCH   9  11
ATOM     11  C   UNL     1      45.436   9.333 115.399  1.00  0.00    -0.002 C 
ATOM     12  C   UNL     1      46.919   9.649 115.652  1.00  0.00     0.005 C 
ATOM     13  C   UNL     1      44.847   8.936 116.810  1.00  0.00    -0.023 C 
ATOM     14  C   UNL     1      47.340   8.773 116.815  1.00  0.00     0.009 C 
ATOM     15  C   UNL     1      46.102   8.650 117.715  1.00  0.00     0.021 C 
ATOM     16  C   UNL     1      44.019  10.149 117.365  1.00  0.00     0.008 C 
ATOM     17  C   UNL     1      43.895   7.709 116.788  1.00  0.00     0.012 C 
ATOM     18  C   UNL     1      46.083   9.516 118.981  1.00  0.00    -0.067 C 
ATOM     19  C   UNL     1      43.647  10.034 118.866  1.00  0.00     0.009 C 
ATOM     20  C   UNL     1      44.776   9.414 119.749  1.00  0.00     0.021 C 
ATOM     21  C   UNL     1      46.947  10.536 119.227  1.00  0.00    -0.027 C 
ATOM     22  C   UNL     1      44.890   9.978 121.210  1.00  0.00    -0.023 C 
ATOM     23  C   UNL     1      46.902  11.379 120.479  1.00  0.00     0.031 C 
ATOM     24  C   UNL     1      45.511  11.407 121.133  1.00  0.00     0.002 C 
ATOM     25  C   UNL     1      43.494  10.053 121.902  1.00  0.00     0.010 C 
ATOM     26  C   UNL     1      45.789   8.997 122.026  1.00  0.00     0.012 C 
ATOM     27  C   UNL     1      45.554  12.113 122.506  1.00  0.00     0.036 C 
ATOM     28  C   UNL     1      43.542  10.765 123.266  1.00  0.00     0.032 C 
ATOM     29  C   UNL     1      44.159  12.168 123.157  1.00  0.00     0.114 C 
BRANCH  29  30
ATOM     30  O   UNL     1      43.304  13.002 122.419  1.00  0.00    -0.393 OA
ATOM     31  H   UNL     1      43.655  13.027 121.492  1.00  0.00     0.210 HD
ENDBRANCH  29  30
ENDBRANCH   9  11
ENDBRANCH   1   9
TORSDOF 7
ENDMDL
MODEL 2
REMARK VINA RESULT:    -6.344      1.490      2.938
REMARK INTER + INTRA:         -10.140
REMARK INTER:                  -8.874
REMARK INTRA:                  -1.267
REMARK UNBOUND:                -1.385
REMARK SMILES CC[C@@H](CC[C@H](C)[C@@H]1CC[C@H]2C3=CC[C@@H]4C[C@@H](O)CC[C@@]4(C)[C@H]3CC[C@]21C)C(C)C
REMARK SMILES IDX 5 1 4 2 3 3 2 4 1 5 28 6 29 7 30 8 6 9 7 10 8 11 9 12 26 13
REMARK SMILES IDX 10 14 11 15 25 16 27 17 12 18 24 19 23 20 13 21 21 22 14 23
REMARK SMILES IDX 15 24 20 25 22 26 16 27 19 28 17 29 18 30
REMARK H PARENT 18 31
REMARK Flexibility Score: inf
ROOT
ATOM      1  C   UNL     1      46.814   7.222 113.735  1.00  0.00     0.004 C 
ENDROOT
BRANCH   1   2
ATOM      2  C   UNL     1      47.610   7.519 112.438  1.00  0.00     0.004 C 
BRANCH   2   3
ATOM      3  C   UNL     1      48.026   6.240 111.644  1.00  0.00    -0.009 C 
BRANCH   3   4
ATOM      4  C   UNL     1      47.750   4.976 112.502  1.00  0.00     0.000 C 
ATOM      5  C   UNL     1      48.531   3.741 112.046  1.00  0.00     0.004 C 
ENDBRANCH   3   4
BRANCH   3   6
ATOM      6  C   UNL     1      49.493   6.295 111.087  1.00  0.00    -0.014 C 
ATOM      7  C   UNL     1      49.597   7.114 109.792  1.00  0.00     0.007 C 
ATOM      8  C   UNL     1      50.540   6.781 112.106  1.00  0.00     0.007 C 
ENDBRANCH   3   6
ENDBRANCH   2   3
ENDBRANCH   1   2
BRANCH   1   9
ATOM      9  C   UNL     1      47.426   7.873 115.010  1.00  0.00    -0.011 C 
ATOM     10  C   UNL     1      48.769   7.199 115.352  1.00  0.00     0.008 C 
BRANCH   9  11
ATOM     11  C   UNL     1      46.478   7.869 116.270  1.00  0.00    -0.002 C 
ATOM     12  C   UNL     1      45.051   7.389 115.962  1.00  0.00     0.005 C 
ATOM     13  C   UNL     1      46.300   9.212 117.082  1.00  0.00    -0.023 C 
ATOM     14  C   UNL     1      44.204   8.640 115.848  1.00  0.00     0.009 C 
ATOM     15  C   UNL     1      44.806   9.643 116.843  1.00  0.00     0.021 C 
ATOM     16  C   UNL     1      46.564   8.917 118.602  1.00  0.00     0.008 C 
ATOM     17  C   UNL     1      47.272  10.350 116.665  1.00  0.00     0.012 C 
ATOM     18  C   UNL     1      44.061   9.823 118.172  1.00  0.00    -0.067 C 
ATOM     19  C   UNL     1      46.120  10.054 119.558  1.00  0.00     0.009 C 
ATOM     20  C   UNL     1      44.786  10.746 119.137  1.00  0.00     0.021 C 
ATOM     21  C   UNL     1      43.074   9.002 118.618  1.00  0.00    -0.027 C 
ATOM     22  C   UNL     1      43.866  11.231 120.314  1.00  0.00    -0.023 C 
ATOM     23  C   UNL     1      42.361   9.197 119.935  1.00  0.00     0.031 C 
ATOM     24  C   UNL     1      43.200   9.977 120.960  1.00  0.00     0.002 C 
ATOM     25  C   UNL     1      44.683  12.004 121.395  1.00  0.00     0.010 C 
ATOM     26  C   UNL     1      42.806  12.207 119.713  1.00  0.00     0.012 C 
ATOM     27  C   UNL     1      42.367  10.324 122.214  1.00  0.00     0.036 C 
ATOM     28  C   UNL     1      43.850  12.339 122.646  1.00  0.00     0.032 C 
ATOM     29  C   UNL     1      43.208  11.085 123.258  1.00  0.00     0.114 C 
BRANCH  29  30
ATOM     30  O   UNL     1      44.209  10.252 123.785  1.00  0.00    -0.393 OA
ATOM     31  H   UNL     1      45.066  10.746 123.703  1.00  0.00     0.210 HD
ENDBRANCH  29  30
ENDBRANCH   9  11
ENDBRANCH   1   9
TORSDOF 7
ENDMDL
MODEL 3
REMARK VINA RESULT:    -6.341      8.607     12.877
REMARK INTER + INTRA:         -10.135
REMARK INTER:                  -8.354
REMARK INTRA:                  -1.781
REMARK UNBOUND:                -1.385
REMARK SMILES CC[C@@H](CC[C@H](C)[C@@H]1CC[C@H]2C3=CC[C@@H]4C[C@@H](O)CC[C@@]4(C)[C@H]3CC[C@]21C)C(C)C
REMARK SMILES IDX 5 1 4 2 3 3 2 4 1 5 28 6 29 7 30 8 6 9 7 10 8 11 9 12 26 13
REMARK SMILES IDX 10 14 11 15 25 16 27 17 12 18 24 19 23 20 13 21 21 22 14 23
REMARK SMILES IDX 15 24 20 25 22 26 16 27 19 28 17 29 18 30
REMARK H PARENT 18 31
REMARK Flexibility Score: inf
ROOT
ATOM      1  C   UNL     1      41.030  13.727 114.205  1.00  0.00     0.004 C 
ENDROOT
BRANCH   1   2
ATOM      2  C   UNL     1      42.233  12.750 114.224  1.00  0.00     0.004 C 
BRANCH   2   3
ATOM      3  C   UNL     1      41.853  11.272 113.891  1.00  0.00    -0.009 C 
BRANCH   3   4
ATOM      4  C   UNL     1      42.996  10.322 114.339  1.00  0.00     0.000 C 
ATOM      5  C   UNL     1      43.485  10.578 115.766  1.00  0.00     0.004 C 
ENDBRANCH   3   4
BRANCH   3   6
ATOM      6  C   UNL     1      41.423  11.054 112.397  1.00  0.00    -0.014 C 
ATOM      7  C   UNL     1      42.612  11.128 111.429  1.00  0.00     0.007 C 
ATOM      8  C   UNL     1      40.619   9.764 112.150  1.00  0.00     0.007 C 
ENDBRANCH   3   6
ENDBRANCH   2   3
ENDBRANCH   1   2
BRANCH   1   9
ATOM      9  C   UNL     1      41.372  15.131 113.625  1.00  0.00    -0.011 C 
ATOM     10  C   UNL     1      41.096  16.219 114.682  1.00  0.00     0.008 C 
BRANCH   9  11
ATOM     11  C   UNL     1      40.634  15.483 112.276  1.00  0.00    -0.002 C 
ATOM     12  C   UNL     1      39.271  14.790 112.124  1.00  0.00     0.005 C 
ATOM     13  C   UNL     1      41.391  15.219 110.914  1.00  0.00    -0.023 C 
ATOM     14  C   UNL     1      39.503  13.609 111.204  1.00  0.00     0.009 C 
ATOM     15  C   UNL     1      40.594  14.054 110.219  1.00  0.00     0.021 C 
ATOM     16  C   UNL     1      41.336  16.530 110.050  1.00  0.00     0.008 C 
ATOM     17  C   UNL     1      42.889  14.842 111.072  1.00  0.00     0.012 C 
ATOM     18  C   UNL     1      40.129  14.459 108.815  1.00  0.00    -0.067 C 
ATOM     19  C   UNL     1      41.753  16.334 108.569  1.00  0.00     0.009 C 
ATOM     20  C   UNL     1      41.257  14.991 107.948  1.00  0.00     0.021 C 
ATOM     21  C   UNL     1      38.833  14.680 108.469  1.00  0.00    -0.027 C 
ATOM     22  C   UNL     1      40.875  15.041 106.425  1.00  0.00    -0.023 C 
ATOM     23  C   UNL     1      38.402  15.086 107.079  1.00  0.00     0.031 C 
ATOM     24  C   UNL     1      39.515  15.794 106.289  1.00  0.00     0.002 C 
ATOM     25  C   UNL     1      41.965  15.779 105.588  1.00  0.00     0.010 C 
ATOM     26  C   UNL     1      40.778  13.570 105.914  1.00  0.00     0.012 C 
ATOM     27  C   UNL     1      39.101  16.015 104.818  1.00  0.00     0.036 C 
ATOM     28  C   UNL     1      41.543  16.004 104.125  1.00  0.00     0.032 C 
ATOM     29  C   UNL     1      40.201  16.746 104.025  1.00  0.00     0.114 C 
BRANCH  29  30
ATOM     30  O   UNL     1      40.354  18.061 104.493  1.00  0.00    -0.393 OA
ATOM     31  H   UNL     1      40.319  18.020 105.484  1.00  0.00     0.210 HD
ENDBRANCH  29  30
ENDBRANCH   9  11
ENDBRANCH   1   9
TORSDOF 7
ENDMDL
MODEL 4
REMARK VINA RESULT:    -6.232      9.376     11.860
REMARK INTER + INTRA:          -9.985
REMARK INTER:                  -7.588
REMARK INTRA:                  -2.398
REMARK UNBOUND:                -1.385
REMARK SMILES CC[C@@H](CC[C@H](C)[C@@H]1CC[C@H]2C3=CC[C@@H]4C[C@@H](O)CC[C@@]4(C)[C@H]3CC[C@]21C)C(C)C
REMARK SMILES IDX 5 1 4 2 3 3 2 4 1 5 28 6 29 7 30 8 6 9 7 10 8 11 9 12 26 13
REMARK SMILES IDX 10 14 11 15 25 16 27 17 12 18 24 19 23 20 13 21 21 22 14 23
REMARK SMILES IDX 15 24 20 25 22 26 16 27 19 28 17 29 18 30
REMARK H PARENT 18 31
REMARK Flexibility Score: inf
ROOT
ATOM      1  C   UNL     1      36.130  11.476 106.130  1.00  0.00     0.004 C 
ENDROOT
BRANCH   1   2
ATOM      2  C   UNL     1      37.199  10.933 105.149  1.00  0.00     0.004 C 
BRANCH   2   3
ATOM      3  C   UNL     1      38.614  10.757 105.789  1.00  0.00    -0.009 C 
BRANCH   3   4
ATOM      4  C   UNL     1      39.580  11.838 105.233  1.00  0.00     0.000 C 
ATOM      5  C   UNL     1      40.780  12.115 106.141  1.00  0.00     0.004 C 
ENDBRANCH   3   4
BRANCH   3   6
ATOM      6  C   UNL     1      39.185   9.301 105.663  1.00  0.00    -0.014 C 
ATOM      7  C   UNL     1      38.311   8.264 106.382  1.00  0.00     0.007 C 
ATOM      8  C   UNL     1      39.457   8.850 104.215  1.00  0.00     0.007 C 
ENDBRANCH   3   6
ENDBRANCH   2   3
ENDBRANCH   1   2
BRANCH   1   9
ATOM      9  C   UNL     1      36.427  11.154 107.624  1.00  0.00    -0.011 C 
ATOM     10  C   UNL     1      35.296  10.287 108.211  1.00  0.00     0.008 C 
BRANCH   9  11
ATOM     11  C   UNL     1      36.672  12.418 108.534  1.00  0.00    -0.002 C 
ATOM     12  C   UNL     1      36.669  13.743 107.755  1.00  0.00     0.005 C 
ATOM     13  C   UNL     1      37.976  12.462 109.426  1.00  0.00    -0.023 C 
ATOM     14  C   UNL     1      38.125  14.118 107.562  1.00  0.00     0.009 C 
ATOM     15  C   UNL     1      38.856  13.613 108.814  1.00  0.00     0.021 C 
ATOM     16  C   UNL     1      37.560  12.797 110.903  1.00  0.00     0.008 C 
ATOM     17  C   UNL     1      38.770  11.128 109.471  1.00  0.00     0.012 C 
ATOM     18  C   UNL     1      39.211  14.663 109.874  1.00  0.00    -0.067 C 
ATOM     19  C   UNL     1      38.743  13.186 111.826  1.00  0.00     0.009 C 
ATOM     20  C   UNL     1      39.829  14.060 111.123  1.00  0.00     0.021 C 
ATOM     21  C   UNL     1      38.721  15.931 109.894  1.00  0.00    -0.027 C 
ATOM     22  C   UNL     1      40.534  15.134 112.027  1.00  0.00    -0.023 C 
ATOM     23  C   UNL     1      39.080  16.945 110.953  1.00  0.00     0.031 C 
ATOM     24  C   UNL     1      39.525  16.298 112.275  1.00  0.00     0.002 C 
ATOM     25  C   UNL     1      40.976  14.527 113.394  1.00  0.00     0.010 C 
ATOM     26  C   UNL     1      41.810  15.622 111.273  1.00  0.00     0.012 C 
ATOM     27  C   UNL     1      40.068  17.357 113.260  1.00  0.00     0.036 C 
ATOM     28  C   UNL     1      41.508  15.588 114.374  1.00  0.00     0.032 C 
ATOM     29  C   UNL     1      40.494  16.720 114.597  1.00  0.00     0.114 C 
BRANCH  29  30
ATOM     30  O   UNL     1      39.374  16.221 115.282  1.00  0.00    -0.393 OA
ATOM     31  H   UNL     1      38.669  16.060 114.603  1.00  0.00     0.210 HD
ENDBRANCH  29  30
ENDBRANCH   9  11
ENDBRANCH   1   9
TORSDOF 7
ENDMDL
MODEL 5
REMARK VINA RESULT:    -6.202      2.874      8.848
REMARK INTER + INTRA:          -9.943
REMARK INTER:                  -8.524
REMARK INTRA:                  -1.420
REMARK UNBOUND:                -1.385
REMARK SMILES CC[C@@H](CC[C@H](C)[C@@H]1CC[C@H]2C3=CC[C@@H]4C[C@@H](O)CC[C@@]4(C)[C@H]3CC[C@]21C)C(C)C
REMARK SMILES IDX 5 1 4 2 3 3 2 4 1 5 28 6 29 7 30 8 6 9 7 10 8 11 9 12 26 13
REMARK SMILES IDX 10 14 11 15 25 16 27 17 12 18 24 19 23 20 13 21 21 22 14 23
REMARK SMILES IDX 15 24 20 25 22 26 16 27 19 28 17 29 18 30
REMARK H PARENT 18 31
REMARK Flexibility Score: inf
ROOT
ATOM      1  C   UNL     1      44.335  10.880 120.073  1.00  0.00     0.004 C 
ENDROOT
BRANCH   1   2
ATOM      2  C   UNL     1      43.944  10.330 121.468  1.00  0.00     0.004 C 
BRANCH   2   3
ATOM      3  C   UNL     1      44.851  10.847 122.629  1.00  0.00    -0.009 C 
BRANCH   3   4
ATOM      4  C   UNL     1      44.998  12.390 122.534  1.00  0.00     0.000 C 
ATOM      5  C   UNL     1      44.734  13.116 123.855  1.00  0.00     0.004 C 
ENDBRANCH   3   4
BRANCH   3   6
ATOM      6  C   UNL     1      46.230  10.105 122.729  1.00  0.00    -0.014 C 
ATOM      7  C   UNL     1      46.143   8.642 122.273  1.00  0.00     0.007 C 
ATOM      8  C   UNL     1      47.388  10.817 122.004  1.00  0.00     0.007 C 
ENDBRANCH   3   6
ENDBRANCH   2   3
ENDBRANCH   1   2
BRANCH   1   9
ATOM      9  C   UNL     1      44.020   9.903 118.902  1.00  0.00    -0.011 C 
ATOM     10  C   UNL     1      42.855   8.973 119.291  1.00  0.00     0.008 C 
BRANCH   9  11
ATOM     11  C   UNL     1      45.253   9.053 118.405  1.00  0.00    -0.002 C 
ATOM     12  C   UNL     1      46.608   9.618 118.856  1.00  0.00     0.005 C 
ATOM     13  C   UNL     1      45.406   8.787 116.855  1.00  0.00    -0.023 C 
ATOM     14  C   UNL     1      47.170  10.361 117.662  1.00  0.00     0.009 C 
ATOM     15  C   UNL     1      46.690   9.589 116.425  1.00  0.00     0.021 C 
ATOM     16  C   UNL     1      45.605   7.246 116.629  1.00  0.00     0.008 C 
ATOM     17  C   UNL     1      44.181   9.216 116.003  1.00  0.00     0.012 C 
ATOM     18  C   UNL     1      47.715   8.672 115.746  1.00  0.00    -0.067 C 
ATOM     19  C   UNL     1      46.084   6.866 115.205  1.00  0.00     0.009 C 
ATOM     20  C   UNL     1      47.123   7.864 114.603  1.00  0.00     0.021 C 
ATOM     21  C   UNL     1      48.909   8.318 116.291  1.00  0.00    -0.027 C 
ATOM     22  C   UNL     1      48.224   7.231 113.679  1.00  0.00    -0.023 C 
ATOM     23  C   UNL     1      49.899   7.407 115.604  1.00  0.00     0.031 C 
ATOM     24  C   UNL     1      49.239   6.466 114.583  1.00  0.00     0.002 C 
ATOM     25  C   UNL     1      47.600   6.244 112.644  1.00  0.00     0.010 C 
ATOM     26  C   UNL     1      48.907   8.395 112.894  1.00  0.00     0.012 C 
ATOM     27  C   UNL     1      50.300   5.695 113.768  1.00  0.00     0.036 C 
ATOM     28  C   UNL     1      48.663   5.472 111.841  1.00  0.00     0.032 C 
ATOM     29  C   UNL     1      49.647   4.731 112.759  1.00  0.00     0.114 C 
BRANCH  29  30
ATOM     30  O   UNL     1      48.975   3.696 113.430  1.00  0.00    -0.393 OA
ATOM     31  H   UNL     1      48.450   4.119 114.159  1.00  0.00     0.210 HD
ENDBRANCH  29  30
ENDBRANCH   9  11
ENDBRANCH   1   9
TORSDOF 7
ENDMDL
MODEL 6
REMARK VINA RESULT:    -6.184      8.459     13.467
REMARK INTER + INTRA:          -9.919
REMARK INTER:                  -7.951
REMARK INTRA:                  -1.968
REMARK UNBOUND:                -1.385
REMARK SMILES CC[C@@H](CC[C@H](C)[C@@H]1CC[C@H]2C3=CC[C@@H]4C[C@@H](O)CC[C@@]4(C)[C@H]3CC[C@]21C)C(C)C
REMARK SMILES IDX 5 1 4 2 3 3 2 4 1 5 28 6 29 7 30 8 6 9 7 10 8 11 9 12 26 13
REMARK SMILES IDX 10 14 11 15 25 16 27 17 12 18 24 19 23 20 13 21 21 22 14 23
REMARK SMILES IDX 15 24 20 25 22 26 16 27 19 28 17 29 18 30
REMARK H PARENT 18 31
REMARK Flexibility Score: inf
ROOT
ATOM      1  C   UNL     1      42.260  14.482 113.687  1.00  0.00     0.004 C 
ENDROOT
BRANCH   1   2
ATOM      2  C   UNL     1      41.608  15.879 113.523  1.00  0.00     0.004 C 
BRANCH   2   3
ATOM      3  C   UNL     1      40.117  15.940 113.987  1.00  0.00    -0.009 C 
BRANCH   3   4
ATOM      4  C   UNL     1      39.211  16.340 112.792  1.00  0.00     0.000 C 
ATOM      5  C   UNL     1      39.973  16.980 111.630  1.00  0.00     0.004 C 
ENDBRANCH   3   4
BRANCH   3   6
ATOM      6  C   UNL     1      39.890  16.835 115.256  1.00  0.00    -0.014 C 
ATOM      7  C   UNL     1      41.208  17.288 115.898  1.00  0.00     0.007 C 
ATOM      8  C   UNL     1      38.972  18.049 115.020  1.00  0.00     0.007 C 
ENDBRANCH   3   6
ENDBRANCH   2   3
ENDBRANCH   1   2
BRANCH   1   9
ATOM      9  C   UNL     1      41.291  13.300 113.392  1.00  0.00    -0.011 C 
ATOM     10  C   UNL     1      41.498  12.178 114.429  1.00  0.00     0.008 C 
BRANCH   9  11
ATOM     11  C   UNL     1      41.392  12.715 111.930  1.00  0.00    -0.002 C 
ATOM     12  C   UNL     1      42.495  13.370 111.084  1.00  0.00     0.005 C 
ATOM     13  C   UNL     1      40.100  12.737 111.021  1.00  0.00    -0.023 C 
ATOM     14  C   UNL     1      41.796  14.371 110.187  1.00  0.00     0.009 C 
ATOM     15  C   UNL     1      40.422  13.761 109.871  1.00  0.00     0.021 C 
ATOM     16  C   UNL     1      39.873  11.295 110.442  1.00  0.00     0.008 C 
ATOM     17  C   UNL     1      38.797  13.138 111.764  1.00  0.00     0.012 C 
ATOM     18  C   UNL     1      40.259  13.114 108.490  1.00  0.00    -0.067 C 
ATOM     19  C   UNL     1      38.840  11.227 109.288  1.00  0.00     0.009 C 
ATOM     20  C   UNL     1      38.910  12.440 108.307  1.00  0.00     0.021 C 
ATOM     21  C   UNL     1      41.287  12.834 107.646  1.00  0.00    -0.027 C 
ATOM     22  C   UNL     1      38.594  12.122 106.802  1.00  0.00    -0.023 C 
ATOM     23  C   UNL     1      41.100  12.190 106.293  1.00  0.00     0.031 C 
ATOM     24  C   UNL     1      39.812  11.356 106.200  1.00  0.00     0.002 C 
ATOM     25  C   UNL     1      37.308  11.250 106.662  1.00  0.00     0.010 C 
ATOM     26  C   UNL     1      38.344  13.480 106.075  1.00  0.00     0.012 C 
ATOM     27  C   UNL     1      39.559  10.879 104.752  1.00  0.00     0.036 C 
ATOM     28  C   UNL     1      37.066  10.771 105.219  1.00  0.00     0.032 C 
ATOM     29  C   UNL     1      38.283  10.022 104.654  1.00  0.00     0.114 C 
BRANCH  29  30
ATOM     30  O   UNL     1      38.450   8.809 105.343  1.00  0.00    -0.393 OA
ATOM     31  H   UNL     1      39.080   8.987 106.090  1.00  0.00     0.210 HD
ENDBRANCH  29  30
ENDBRANCH   9  11
ENDBRANCH   1   9
TORSDOF 7
ENDMDL
MODEL 7
REMARK VINA RESULT:    -6.072      5.234      8.830
REMARK INTER + INTRA:          -9.764
REMARK INTER:                  -8.176
REMARK INTRA:                  -1.589
REMARK UNBOUND:                -1.385
REMARK SMILES CC[C@@H](CC[C@H](C)[C@@H]1CC[C@H]2C3=CC[C@@H]4C[C@@H](O)CC[C@@]4(C)[C@H]3CC[C@]21C)C(C)C
REMARK SMILES IDX 5 1 4 2 3 3 2 4 1 5 28 6 29 7 30 8 6 9 7 10 8 11 9 12 26 13
REMARK SMILES IDX 10 14 11 15 25 16 27 17 12 18 24 19 23 20 13 21 21 22 14 23
REMARK SMILES IDX 15 24 20 25 22 26 16 27 19 28 17 29 18 30
REMARK H PARENT 18 31
REMARK Flexibility Score: inf
ROOT
ATOM      1  C   UNL     1      43.382   7.967 115.840  1.00  0.00     0.004 C 
ENDROOT
BRANCH   1   2
ATOM      2  C   UNL     1      44.677   7.413 116.485  1.00  0.00     0.004 C 
BRANCH   2   3
ATOM      3  C   UNL     1      45.225   8.288 117.658  1.00  0.00    -0.009 C 
BRANCH   3   4
ATOM      4  C   UNL     1      44.182   9.375 118.033  1.00  0.00     0.000 C 
ATOM      5  C   UNL     1      43.367   9.040 119.284  1.00  0.00     0.004 C 
ENDBRANCH   3   4
BRANCH   3   6
ATOM      6  C   UNL     1      46.655   8.877 117.388  1.00  0.00    -0.014 C 
ATOM      7  C   UNL     1      46.972   8.985 115.890  1.00  0.00     0.007 C 
ATOM      8  C   UNL     1      46.928  10.223 118.085  1.00  0.00     0.007 C 
ENDBRANCH   3   6
ENDBRANCH   2   3
ENDBRANCH   1   2
BRANCH   1   9
ATOM      9  C   UNL     1      43.462   8.106 114.291  1.00  0.00    -0.011 C 
ATOM     10  C   UNL     1      44.685   7.336 113.756  1.00  0.00     0.008 C 
BRANCH   9  11
ATOM     11  C   UNL     1      43.481   9.593 113.764  1.00  0.00    -0.002 C 
ATOM     12  C   UNL     1      43.802  10.625 114.856  1.00  0.00     0.005 C 
ATOM     13  C   UNL     1      42.195  10.147 113.031  1.00  0.00    -0.023 C 
ATOM     14  C   UNL     1      42.474  11.228 115.266  1.00  0.00     0.009 C 
ATOM     15  C   UNL     1      41.613  11.245 113.995  1.00  0.00     0.021 C 
ATOM     16  C   UNL     1      42.634  10.777 111.661  1.00  0.00     0.008 C 
ATOM     17  C   UNL     1      41.121   9.071 112.713  1.00  0.00     0.012 C 
ATOM     18  C   UNL     1      41.472  12.594 113.278  1.00  0.00    -0.067 C 
ATOM     19  C   UNL     1      41.542  11.639 110.977  1.00  0.00     0.009 C 
ATOM     20  C   UNL     1      40.699  12.495 111.974  1.00  0.00     0.021 C 
ATOM     21  C   UNL     1      42.234  13.689 113.544  1.00  0.00    -0.027 C 
ATOM     22  C   UNL     1      40.228  13.896 111.444  1.00  0.00    -0.023 C 
ATOM     23  C   UNL     1      42.080  15.004 112.818  1.00  0.00     0.031 C 
ATOM     24  C   UNL     1      41.464  14.848 111.418  1.00  0.00     0.002 C 
ATOM     25  C   UNL     1      39.622  13.789 110.010  1.00  0.00     0.010 C 
ATOM     26  C   UNL     1      39.116  14.416 112.407  1.00  0.00     0.012 C 
ATOM     27  C   UNL     1      41.145  16.223 110.792  1.00  0.00     0.036 C 
ATOM     28  C   UNL     1      39.314  15.163 109.389  1.00  0.00     0.032 C 
ATOM     29  C   UNL     1      40.550  16.076 109.379  1.00  0.00     0.114 C 
BRANCH  29  30
ATOM     30  O   UNL     1      41.509  15.560 108.492  1.00  0.00    -0.393 OA
ATOM     31  H   UNL     1      41.373  16.019 107.622  1.00  0.00     0.210 HD
ENDBRANCH  29  30
ENDBRANCH   9  11
ENDBRANCH   1   9
TORSDOF 7
ENDMDL
MODEL 8
REMARK VINA RESULT:    -6.007      7.957     11.301
REMARK INTER + INTRA:          -9.674
REMARK INTER:                  -7.915
REMARK INTRA:                  -1.760
REMARK UNBOUND:                -1.385
REMARK SMILES CC[C@@H](CC[C@H](C)[C@@H]1CC[C@H]2C3=CC[C@@H]4C[C@@H](O)CC[C@@]4(C)[C@H]3CC[C@]21C)C(C)C
REMARK SMILES IDX 5 1 4 2 3 3 2 4 1 5 28 6 29 7 30 8 6 9 7 10 8 11 9 12 26 13
REMARK SMILES IDX 10 14 11 15 25 16 27 17 12 18 24 19 23 20 13 21 21 22 14 23
REMARK SMILES IDX 15 24 20 25 22 26 16 27 19 28 17 29 18 30
REMARK H PARENT 18 31
REMARK Flexibility Score: inf
ROOT
ATOM      1  C   UNL     1      36.521  10.222 106.026  1.00  0.00     0.004 C 
ENDROOT
BRANCH   1   2
ATOM      2  C   UNL     1      36.941   8.812 106.512  1.00  0.00     0.004 C 
BRANCH   2   3
ATOM      3  C   UNL     1      38.473   8.530 106.388  1.00  0.00    -0.009 C 
BRANCH   3   4
ATOM      4  C   UNL     1      38.858   8.365 104.893  1.00  0.00     0.000 C 
ATOM      5  C   UNL     1      40.014   9.266 104.453  1.00  0.00     0.004 C 
ENDBRANCH   3   4
BRANCH   3   6
ATOM      6  C   UNL     1      38.967   7.340 107.285  1.00  0.00    -0.014 C 
ATOM      7  C   UNL     1      38.253   7.292 108.642  1.00  0.00     0.007 C 
ATOM      8  C   UNL     1      38.899   5.961 106.602  1.00  0.00     0.007 C 
ENDBRANCH   3   6
ENDBRANCH   2   3
ENDBRANCH   1   2
BRANCH   1   9
ATOM      9  C   UNL     1      35.978  11.141 107.160  1.00  0.00    -0.011 C 
ATOM     10  C   UNL     1      34.774  11.955 106.646  1.00  0.00     0.008 C 
BRANCH   9  11
ATOM     11  C   UNL     1      37.052  12.101 107.800  1.00  0.00    -0.002 C 
ATOM     12  C   UNL     1      38.183  12.486 106.834  1.00  0.00     0.005 C 
ATOM     13  C   UNL     1      37.776  11.641 109.127  1.00  0.00    -0.023 C 
ATOM     14  C   UNL     1      39.362  11.607 107.197  1.00  0.00     0.009 C 
ATOM     15  C   UNL     1      39.275  11.399 108.716  1.00  0.00     0.021 C 
ATOM     16  C   UNL     1      37.663  12.797 110.185  1.00  0.00     0.008 C 
ATOM     17  C   UNL     1      37.173  10.368 109.781  1.00  0.00     0.012 C 
ATOM     18  C   UNL     1      40.229  12.233 109.580  1.00  0.00    -0.067 C 
ATOM     19  C   UNL     1      38.590  12.627 111.416  1.00  0.00     0.009 C 
ATOM     20  C   UNL     1      39.997  12.046 111.070  1.00  0.00     0.021 C 
ATOM     21  C   UNL     1      40.953  13.290 109.125  1.00  0.00    -0.027 C 
ATOM     22  C   UNL     1      41.191  12.581 111.938  1.00  0.00    -0.023 C 
ATOM     23  C   UNL     1      41.880  14.100 109.999  1.00  0.00     0.031 C 
ATOM     24  C   UNL     1      41.504  14.042 111.488  1.00  0.00     0.002 C 
ATOM     25  C   UNL     1      40.841  12.568 113.459  1.00  0.00     0.010 C 
ATOM     26  C   UNL     1      42.406  11.629 111.708  1.00  0.00     0.012 C 
ATOM     27  C   UNL     1      42.583  14.716 112.363  1.00  0.00     0.036 C 
ATOM     28  C   UNL     1      41.916  13.249 114.324  1.00  0.00     0.032 C 
ATOM     29  C   UNL     1      42.202  14.684 113.855  1.00  0.00     0.114 C 
BRANCH  29  30
ATOM     30  O   UNL     1      41.077  15.490 114.094  1.00  0.00    -0.393 OA
ATOM     31  H   UNL     1      40.548  15.043 114.804  1.00  0.00     0.210 HD
ENDBRANCH  29  30
ENDBRANCH   9  11
ENDBRANCH   1   9
TORSDOF 7
ENDMDL
MODEL 9
REMARK VINA RESULT:    -5.869      7.251     10.726
REMARK INTER + INTRA:          -9.485
REMARK INTER:                  -8.370
REMARK INTRA:                  -1.115
REMARK UNBOUND:                -1.385
REMARK SMILES CC[C@@H](CC[C@H](C)[C@@H]1CC[C@H]2C3=CC[C@@H]4C[C@@H](O)CC[C@@]4(C)[C@H]3CC[C@]21C)C(C)C
REMARK SMILES IDX 5 1 4 2 3 3 2 4 1 5 28 6 29 7 30 8 6 9 7 10 8 11 9 12 26 13
REMARK SMILES IDX 10 14 11 15 25 16 27 17 12 18 24 19 23 20 13 21 21 22 14 23
REMARK SMILES IDX 15 24 20 25 22 26 16 27 19 28 17 29 18 30
REMARK H PARENT 18 31
REMARK Flexibility Score: inf
ROOT
ATOM      1  C   UNL     1      42.990  10.880 115.088  1.00  0.00     0.004 C 
ENDROOT
BRANCH   1   2
ATOM      2  C   UNL     1      44.114   9.848 115.361  1.00  0.00     0.004 C 
BRANCH   2   3
ATOM      3  C   UNL     1      43.647   8.608 116.188  1.00  0.00    -0.009 C 
BRANCH   3   4
ATOM      4  C   UNL     1      44.320   8.626 117.587  1.00  0.00     0.000 C 
ATOM      5  C   UNL     1      43.392   9.099 118.709  1.00  0.00     0.004 C 
ENDBRANCH   3   4
BRANCH   3   6
ATOM      6  C   UNL     1      43.834   7.243 115.435  1.00  0.00    -0.014 C 
ATOM      7  C   UNL     1      42.611   6.869 114.588  1.00  0.00     0.007 C 
ATOM      8  C   UNL     1      45.114   7.160 114.582  1.00  0.00     0.007 C 
ENDBRANCH   3   6
ENDBRANCH   2   3
ENDBRANCH   1   2
BRANCH   1   9
ATOM      9  C   UNL     1      42.407  10.805 113.646  1.00  0.00    -0.011 C 
ATOM     10  C   UNL     1      43.276   9.878 112.774  1.00  0.00     0.008 C 
BRANCH   9  11
ATOM     11  C   UNL     1      42.221  12.202 112.938  1.00  0.00    -0.002 C 
ATOM     12  C   UNL     1      42.133  13.380 113.921  1.00  0.00     0.005 C 
ATOM     13  C   UNL     1      40.999  12.389 111.953  1.00  0.00    -0.023 C 
ATOM     14  C   UNL     1      40.661  13.714 114.044  1.00  0.00     0.009 C 
ATOM     15  C   UNL     1      40.050  13.421 112.666  1.00  0.00     0.021 C 
ATOM     16  C   UNL     1      41.537  12.965 110.594  1.00  0.00     0.008 C 
ATOM     17  C   UNL     1      40.234  11.079 111.620  1.00  0.00     0.012 C 
ATOM     18  C   UNL     1      39.770  14.632 111.766  1.00  0.00    -0.067 C 
ATOM     19  C   UNL     1      40.431  13.498 109.647  1.00  0.00     0.009 C 
ATOM     20  C   UNL     1      39.273  14.241 110.385  1.00  0.00     0.021 C 
ATOM     21  C   UNL     1      40.239  15.886 111.998  1.00  0.00    -0.027 C 
ATOM     22  C   UNL     1      38.633  15.448 109.611  1.00  0.00    -0.023 C 
ATOM     23  C   UNL     1      39.956  17.060 111.092  1.00  0.00     0.031 C 
ATOM     24  C   UNL     1      39.639  16.640 109.648  1.00  0.00     0.002 C 
ATOM     25  C   UNL     1      38.321  15.074 108.128  1.00  0.00     0.010 C 
ATOM     26  C   UNL     1      37.287  15.802 110.319  1.00  0.00     0.012 C 
ATOM     27  C   UNL     1      39.166  17.845 108.807  1.00  0.00     0.036 C 
ATOM     28  C   UNL     1      37.859  16.281 107.293  1.00  0.00     0.032 C 
ATOM     29  C   UNL     1      38.869  17.437 107.351  1.00  0.00     0.114 C 
BRANCH  29  30
ATOM     30  O   UNL     1      40.052  17.061 106.694  1.00  0.00    -0.393 OA
ATOM     31  H   UNL     1      40.043  16.070 106.630  1.00  0.00     0.210 HD
ENDBRANCH  29  30
ENDBRANCH   9  11
ENDBRANCH   1   9
TORSDOF 7
ENDMDL
