MODEL 1
REMARK VINA RESULT:    -7.881      0.000      0.000
REMARK INTER + INTRA:          -9.534
REMARK INTER:                  -9.263
REMARK INTRA:                  -0.271
REMARK UNBOUND:                -0.271
REMARK SMILES O=c1cc(-c2ccc(O)c(O)c2)oc2cc(O)cc(O)c12
REMARK SMILES IDX 4 1 3 2 2 3 1 4 21 5 19 6 18 7 16 8 15 9 14 10 13 11 5 12
REMARK SMILES IDX 6 13 7 14 8 15 12 16 10 17 9 18 11 20 20 22 17 24
REMARK H PARENT 9 19 11 21 20 23 17 25
REMARK Flexibility Score: inf
ROOT
ATOM      1  C   UNL     1     -44.327 -11.320  11.967  1.00  0.00     0.138 A 
ATOM      2  C   UNL     1     -44.456 -11.187  13.356  1.00  0.00     0.100 A 
ATOM      3  C   UNL     1     -45.591 -11.688  13.996  1.00  0.00     0.197 A 
ATOM      4  O   UNL     1     -45.649 -11.609  15.250  1.00  0.00    -0.289 OA
ATOM      5  C   UNL     1     -46.616 -12.297  13.234  1.00  0.00     0.107 A 
ATOM      6  C   UNL     1     -47.836 -12.805  13.772  1.00  0.00     0.134 A 
ATOM      7  C   UNL     1     -48.726 -13.492  12.936  1.00  0.00     0.093 A 
ATOM      8  C   UNL     1     -48.468 -13.634  11.571  1.00  0.00     0.123 A 
ATOM      9  C   UNL     1     -47.306 -13.093  11.026  1.00  0.00     0.094 A 
ATOM     10  C   UNL     1     -46.382 -12.433  11.839  1.00  0.00     0.146 A 
ATOM     11  O   UNL     1     -45.279 -11.944  11.281  1.00  0.00    -0.456 OA
ENDROOT
BRANCH   1  12
ATOM     12  C   UNL     1     -43.141 -10.805  11.237  1.00  0.00     0.021 A 
ATOM     13  C   UNL     1     -42.976  -9.418  11.078  1.00  0.00     0.016 A 
ATOM     14  C   UNL     1     -41.865  -8.908  10.401  1.00  0.00     0.051 A 
ATOM     15  C   UNL     1     -40.897  -9.770   9.879  1.00  0.00     0.157 A 
ATOM     16  C   UNL     1     -42.156 -11.669  10.720  1.00  0.00     0.062 A 
ATOM     17  C   UNL     1     -41.041 -11.157  10.042  1.00  0.00     0.158 A 
BRANCH  15  18
ATOM     18  O   UNL     1     -39.801  -9.231   9.207  1.00  0.00    -0.504 OA
ATOM     19  H   UNL     1     -39.079  -9.814   8.801  1.00  0.00     0.293 HD
ENDBRANCH  15  18
BRANCH  17  20
ATOM     20  O   UNL     1     -40.073 -12.022   9.534  1.00  0.00    -0.504 OA
ATOM     21  H   UNL     1     -39.799 -11.999   8.559  1.00  0.00     0.293 HD
ENDBRANCH  17  20
ENDBRANCH   1  12
BRANCH   6  22
ATOM     22  O   UNL     1     -48.229 -12.644  15.104  1.00  0.00    -0.507 OA
ATOM     23  H   UNL     1     -48.416 -11.757  15.546  1.00  0.00     0.293 HD
ENDBRANCH   6  22
BRANCH   8  24
ATOM     24  O   UNL     1     -49.367 -14.305  10.745  1.00  0.00    -0.508 OA
ATOM     25  H   UNL     1     -50.343 -14.410  10.997  1.00  0.00     0.293 HD
ENDBRANCH   8  24
TORSDOF 5
ENDMDL
MODEL 2
REMARK VINA RESULT:    -7.872      1.796      6.913
REMARK INTER + INTRA:          -9.524
REMARK INTER:                  -9.257
REMARK INTRA:                  -0.267
REMARK UNBOUND:                -0.271
REMARK SMILES O=c1cc(-c2ccc(O)c(O)c2)oc2cc(O)cc(O)c12
REMARK SMILES IDX 4 1 3 2 2 3 1 4 21 5 19 6 18 7 16 8 15 9 14 10 13 11 5 12
REMARK SMILES IDX 6 13 7 14 8 15 12 16 10 17 9 18 11 20 20 22 17 24
REMARK H PARENT 9 19 11 21 20 23 17 25
REMARK Flexibility Score: inf
ROOT
ATOM      1  C   UNL     1     -45.173 -11.275  11.739  1.00  0.00     0.138 A 
ATOM      2  C   UNL     1     -45.166 -10.224  12.666  1.00  0.00     0.100 A 
ATOM      3  C   UNL     1     -44.091  -9.332  12.691  1.00  0.00     0.197 A 
ATOM      4  O   UNL     1     -44.143  -8.363  13.491  1.00  0.00    -0.289 OA
ATOM      5  C   UNL     1     -43.005  -9.516  11.803  1.00  0.00     0.107 A 
ATOM      6  C   UNL     1     -41.837  -8.696  11.766  1.00  0.00     0.134 A 
ATOM      7  C   UNL     1     -40.879  -8.904  10.766  1.00  0.00     0.093 A 
ATOM      8  C   UNL     1     -41.018  -9.940   9.839  1.00  0.00     0.123 A 
ATOM      9  C   UNL     1     -42.127 -10.781   9.901  1.00  0.00     0.094 A 
ATOM     10  C   UNL     1     -43.116 -10.578  10.865  1.00  0.00     0.146 A 
ATOM     11  O   UNL     1     -44.166 -11.394  10.880  1.00  0.00    -0.456 OA
ENDROOT
BRANCH   1  12
ATOM     12  C   UNL     1     -46.290 -12.251  11.670  1.00  0.00     0.021 A 
ATOM     13  C   UNL     1     -46.029 -13.615  11.886  1.00  0.00     0.016 A 
ATOM     14  C   UNL     1     -47.064 -14.553  11.834  1.00  0.00     0.051 A 
ATOM     15  C   UNL     1     -48.375 -14.146  11.575  1.00  0.00     0.157 A 
ATOM     16  C   UNL     1     -47.615 -11.844  11.423  1.00  0.00     0.062 A 
ATOM     17  C   UNL     1     -48.654 -12.785  11.372  1.00  0.00     0.158 A 
BRANCH  15  18
ATOM     18  O   UNL     1     -49.386 -15.106  11.528  1.00  0.00    -0.504 OA
ATOM     19  H   UNL     1     -49.308 -15.993  12.010  1.00  0.00     0.293 HD
ENDBRANCH  15  18
BRANCH  17  20
ATOM     20  O   UNL     1     -49.962 -12.371  11.124  1.00  0.00    -0.504 OA
ATOM     21  H   UNL     1     -50.742 -13.016  11.173  1.00  0.00     0.293 HD
ENDBRANCH  17  20
ENDBRANCH   1  12
BRANCH   6  22
ATOM     22  O   UNL     1     -41.561  -7.689  12.696  1.00  0.00    -0.507 OA
ATOM     23  H   UNL     1     -40.648  -7.489  13.074  1.00  0.00     0.293 HD
ENDBRANCH   6  22
BRANCH   8  24
ATOM     24  O   UNL     1     -40.051 -10.148   8.857  1.00  0.00    -0.508 OA
ATOM     25  H   UNL     1     -39.694 -11.074   8.651  1.00  0.00     0.293 HD
ENDBRANCH   8  24
TORSDOF 5
ENDMDL
MODEL 3
REMARK VINA RESULT:    -7.721      1.296      2.685
REMARK INTER + INTRA:          -9.346
REMARK INTER:                  -9.066
REMARK INTRA:                  -0.280
REMARK UNBOUND:                -0.271
REMARK SMILES O=c1cc(-c2ccc(O)c(O)c2)oc2cc(O)cc(O)c12
REMARK SMILES IDX 4 1 3 2 2 3 1 4 21 5 19 6 18 7 16 8 15 9 14 10 13 11 5 12
REMARK SMILES IDX 6 13 7 14 8 15 12 16 10 17 9 18 11 20 20 22 17 24
REMARK H PARENT 9 19 11 21 20 23 17 25
REMARK Flexibility Score: inf
ROOT
ATOM      1  C   UNL     1     -44.521 -11.290  11.867  1.00  0.00     0.138 A 
ATOM      2  C   UNL     1     -45.244 -12.239  11.132  1.00  0.00     0.100 A 
ATOM      3  C   UNL     1     -46.395 -12.808  11.681  1.00  0.00     0.197 A 
ATOM      4  O   UNL     1     -47.056 -13.610  10.973  1.00  0.00    -0.289 OA
ATOM      5  C   UNL     1     -46.804 -12.445  12.986  1.00  0.00     0.107 A 
ATOM      6  C   UNL     1     -47.936 -12.990  13.664  1.00  0.00     0.134 A 
ATOM      7  C   UNL     1     -48.311 -12.469  14.909  1.00  0.00     0.093 A 
ATOM      8  C   UNL     1     -47.560 -11.466  15.527  1.00  0.00     0.123 A 
ATOM      9  C   UNL     1     -46.422 -10.966  14.898  1.00  0.00     0.094 A 
ATOM     10  C   UNL     1     -46.041 -11.441  13.641  1.00  0.00     0.146 A 
ATOM     11  O   UNL     1     -44.957 -10.926  13.069  1.00  0.00    -0.456 OA
ENDROOT
BRANCH   1  12
ATOM     12  C   UNL     1     -43.291 -10.655  11.332  1.00  0.00     0.021 A 
ATOM     13  C   UNL     1     -43.100  -9.272  11.494  1.00  0.00     0.016 A 
ATOM     14  C   UNL     1     -41.947  -8.651  11.006  1.00  0.00     0.051 A 
ATOM     15  C   UNL     1     -40.962  -9.400  10.356  1.00  0.00     0.157 A 
ATOM     16  C   UNL     1     -42.289 -11.407  10.687  1.00  0.00     0.062 A 
ATOM     17  C   UNL     1     -41.131 -10.785  10.199  1.00  0.00     0.158 A 
BRANCH  15  18
ATOM     18  O   UNL     1     -39.823  -8.752   9.878  1.00  0.00    -0.504 OA
ATOM     19  H   UNL     1     -39.805  -7.754   9.705  1.00  0.00     0.293 HD
ENDBRANCH  15  18
BRANCH  17  20
ATOM     20  O   UNL     1     -40.147 -11.539   9.561  1.00  0.00    -0.504 OA
ATOM     21  H   UNL     1     -40.382 -12.332   8.976  1.00  0.00     0.293 HD
ENDBRANCH  17  20
ENDBRANCH   1  12
BRANCH   6  22
ATOM     22  O   UNL     1     -48.704 -14.050  13.174  1.00  0.00    -0.507 OA
ATOM     23  H   UNL     1     -49.705 -14.030  13.055  1.00  0.00     0.293 HD
ENDBRANCH   6  22
BRANCH   8  24
ATOM     24  O   UNL     1     -47.933 -10.966  16.773  1.00  0.00    -0.508 OA
ATOM     25  H   UNL     1     -47.329 -11.053  17.582  1.00  0.00     0.293 HD
ENDBRANCH   8  24
TORSDOF 5
ENDMDL
MODEL 4
REMARK VINA RESULT:    -7.499      1.183      1.828
REMARK INTER + INTRA:          -9.085
REMARK INTER:                  -8.818
REMARK INTRA:                  -0.268
REMARK UNBOUND:                -0.271
REMARK SMILES O=c1cc(-c2ccc(O)c(O)c2)oc2cc(O)cc(O)c12
REMARK SMILES IDX 4 1 3 2 2 3 1 4 21 5 19 6 18 7 16 8 15 9 14 10 13 11 5 12
REMARK SMILES IDX 6 13 7 14 8 15 12 16 10 17 9 18 11 20 20 22 17 24
REMARK H PARENT 9 19 11 21 20 23 17 25
REMARK Flexibility Score: inf
ROOT
ATOM      1  C   UNL     1     -44.910 -11.323  12.498  1.00  0.00     0.138 A 
ATOM      2  C   UNL     1     -45.065 -11.439  13.885  1.00  0.00     0.100 A 
ATOM      3  C   UNL     1     -46.169 -12.120  14.402  1.00  0.00     0.197 A 
ATOM      4  O   UNL     1     -46.248 -12.261  15.650  1.00  0.00    -0.289 OA
ATOM      5  C   UNL     1     -47.138 -12.658  13.523  1.00  0.00     0.107 A 
ATOM      6  C   UNL     1     -48.325 -13.335  13.937  1.00  0.00     0.134 A 
ATOM      7  C   UNL     1     -49.153 -13.927  12.975  1.00  0.00     0.093 A 
ATOM      8  C   UNL     1     -48.868 -13.816  11.612  1.00  0.00     0.123 A 
ATOM      9  C   UNL     1     -47.741 -13.110  11.195  1.00  0.00     0.094 A 
ATOM     10  C   UNL     1     -46.878 -12.537  12.131  1.00  0.00     0.146 A 
ATOM     11  O   UNL     1     -45.806 -11.885  11.692  1.00  0.00    -0.456 OA
ENDROOT
BRANCH   1  12
ATOM     12  C   UNL     1     -43.756 -10.610  11.894  1.00  0.00     0.021 A 
ATOM     13  C   UNL     1     -42.880 -11.307  11.045  1.00  0.00     0.016 A 
ATOM     14  C   UNL     1     -41.790 -10.657  10.459  1.00  0.00     0.051 A 
ATOM     15  C   UNL     1     -41.562  -9.300  10.703  1.00  0.00     0.157 A 
ATOM     16  C   UNL     1     -43.529  -9.239  12.126  1.00  0.00     0.062 A 
ATOM     17  C   UNL     1     -42.437  -8.586  11.537  1.00  0.00     0.158 A 
BRANCH  15  18
ATOM     18  O   UNL     1     -40.465  -8.680  10.105  1.00  0.00    -0.504 OA
ATOM     19  H   UNL     1     -40.048  -7.839  10.488  1.00  0.00     0.293 HD
ENDBRANCH  15  18
BRANCH  17  20
ATOM     20  O   UNL     1     -42.221  -7.230  11.775  1.00  0.00    -0.504 OA
ATOM     21  H   UNL     1     -42.547  -6.780  12.623  1.00  0.00     0.293 HD
ENDBRANCH  17  20
ENDBRANCH   1  12
BRANCH   6  22
ATOM     22  O   UNL     1     -48.746 -13.431  15.267  1.00  0.00    -0.507 OA
ATOM     23  H   UNL     1     -48.494 -12.785  15.999  1.00  0.00     0.293 HD
ENDBRANCH   6  22
BRANCH   8  24
ATOM     24  O   UNL     1     -49.706 -14.396  10.662  1.00  0.00    -0.508 OA
ATOM     25  H   UNL     1     -50.695 -14.179  10.624  1.00  0.00     0.293 HD
ENDBRANCH   8  24
TORSDOF 5
ENDMDL
MODEL 5
REMARK VINA RESULT:    -7.367      1.939      7.182
REMARK INTER + INTRA:          -8.930
REMARK INTER:                  -8.633
REMARK INTRA:                  -0.297
REMARK UNBOUND:                -0.271
REMARK SMILES O=c1cc(-c2ccc(O)c(O)c2)oc2cc(O)cc(O)c12
REMARK SMILES IDX 4 1 3 2 2 3 1 4 21 5 19 6 18 7 16 8 15 9 14 10 13 11 5 12
REMARK SMILES IDX 6 13 7 14 8 15 12 16 10 17 9 18 11 20 20 22 17 24
REMARK H PARENT 9 19 11 21 20 23 17 25
REMARK Flexibility Score: inf
ROOT
ATOM      1  C   UNL     1     -44.692 -11.255  11.425  1.00  0.00     0.138 A 
ATOM      2  C   UNL     1     -43.722 -11.515  10.448  1.00  0.00     0.100 A 
ATOM      3  C   UNL     1     -42.587 -10.705  10.368  1.00  0.00     0.197 A 
ATOM      4  O   UNL     1     -41.705 -11.001   9.521  1.00  0.00    -0.289 OA
ATOM      5  C   UNL     1     -42.442  -9.609  11.252  1.00  0.00     0.107 A 
ATOM      6  C   UNL     1     -41.350  -8.691  11.235  1.00  0.00     0.134 A 
ATOM      7  C   UNL     1     -41.255  -7.713  12.234  1.00  0.00     0.093 A 
ATOM      8  C   UNL     1     -42.243  -7.584  13.212  1.00  0.00     0.123 A 
ATOM      9  C   UNL     1     -43.342  -8.441  13.204  1.00  0.00     0.094 A 
ATOM     10  C   UNL     1     -43.448  -9.447  12.242  1.00  0.00     0.146 A 
ATOM     11  O   UNL     1     -44.505 -10.253  12.278  1.00  0.00    -0.456 OA
ENDROOT
BRANCH   1  12
ATOM     12  C   UNL     1     -45.916 -12.084  11.555  1.00  0.00     0.021 A 
ATOM     13  C   UNL     1     -46.585 -12.514  10.396  1.00  0.00     0.016 A 
ATOM     14  C   UNL     1     -47.736 -13.302  10.490  1.00  0.00     0.051 A 
ATOM     15  C   UNL     1     -48.233 -13.680  11.741  1.00  0.00     0.157 A 
ATOM     16  C   UNL     1     -46.414 -12.479  12.812  1.00  0.00     0.062 A 
ATOM     17  C   UNL     1     -47.568 -13.270  12.907  1.00  0.00     0.158 A 
BRANCH  15  18
ATOM     18  O   UNL     1     -49.384 -14.465  11.803  1.00  0.00    -0.504 OA
ATOM     19  H   UNL     1     -50.005 -14.573  11.009  1.00  0.00     0.293 HD
ENDBRANCH  15  18
BRANCH  17  20
ATOM     20  O   UNL     1     -48.052 -13.654  14.157  1.00  0.00    -0.504 OA
ATOM     21  H   UNL     1     -47.874 -13.103  14.988  1.00  0.00     0.293 HD
ENDBRANCH  17  20
ENDBRANCH   1  12
BRANCH   6  22
ATOM     22  O   UNL     1     -40.354  -8.680  10.254  1.00  0.00    -0.507 OA
ATOM     23  H   UNL     1     -40.516  -8.801   9.266  1.00  0.00     0.293 HD
ENDBRANCH   6  22
BRANCH   8  24
ATOM     24  O   UNL     1     -42.147  -6.598  14.192  1.00  0.00    -0.508 OA
ATOM     25  H   UNL     1     -41.480  -5.839  14.117  1.00  0.00     0.293 HD
ENDBRANCH   8  24
TORSDOF 5
ENDMDL
MODEL 6
REMARK VINA RESULT:    -7.282      1.485      3.090
REMARK INTER + INTRA:          -8.829
REMARK INTER:                  -8.534
REMARK INTRA:                  -0.296
REMARK UNBOUND:                -0.271
REMARK SMILES O=c1cc(-c2ccc(O)c(O)c2)oc2cc(O)cc(O)c12
REMARK SMILES IDX 4 1 3 2 2 3 1 4 21 5 19 6 18 7 16 8 15 9 14 10 13 11 5 12
REMARK SMILES IDX 6 13 7 14 8 15 12 16 10 17 9 18 11 20 20 22 17 24
REMARK H PARENT 9 19 11 21 20 23 17 25
REMARK Flexibility Score: inf
ROOT
ATOM      1  C   UNL     1     -44.813 -11.442  11.817  1.00  0.00     0.138 A 
ATOM      2  C   UNL     1     -45.431 -12.278  10.877  1.00  0.00     0.100 A 
ATOM      3  C   UNL     1     -46.594 -12.968  11.225  1.00  0.00     0.197 A 
ATOM      4  O   UNL     1     -47.160 -13.661  10.341  1.00  0.00    -0.289 OA
ATOM      5  C   UNL     1     -47.121 -12.843  12.533  1.00  0.00     0.107 A 
ATOM      6  C   UNL     1     -48.275 -13.531  13.013  1.00  0.00     0.134 A 
ATOM      7  C   UNL     1     -48.770 -13.240  14.290  1.00  0.00     0.093 A 
ATOM      8  C   UNL     1     -48.118 -12.331  15.127  1.00  0.00     0.123 A 
ATOM      9  C   UNL     1     -46.958 -11.695  14.687  1.00  0.00     0.094 A 
ATOM     10  C   UNL     1     -46.459 -11.939  13.406  1.00  0.00     0.146 A 
ATOM     11  O   UNL     1     -45.358 -11.301  13.021  1.00  0.00    -0.456 OA
ENDROOT
BRANCH   1  12
ATOM     12  C   UNL     1     -43.575 -10.686  11.500  1.00  0.00     0.021 A 
ATOM     13  C   UNL     1     -42.553 -11.311  10.766  1.00  0.00     0.016 A 
ATOM     14  C   UNL     1     -41.381 -10.619  10.448  1.00  0.00     0.051 A 
ATOM     15  C   UNL     1     -41.214  -9.290  10.849  1.00  0.00     0.157 A 
ATOM     16  C   UNL     1     -43.407  -9.343  11.891  1.00  0.00     0.062 A 
ATOM     17  C   UNL     1     -42.232  -8.648  11.571  1.00  0.00     0.158 A 
BRANCH  15  18
ATOM     18  O   UNL     1     -40.033  -8.627  10.519  1.00  0.00    -0.504 OA
ATOM     19  H   UNL     1     -39.530  -8.818   9.660  1.00  0.00     0.293 HD
ENDBRANCH  15  18
BRANCH  17  20
ATOM     20  O   UNL     1     -42.076  -7.319  11.964  1.00  0.00    -0.504 OA
ATOM     21  H   UNL     1     -42.836  -6.797  12.384  1.00  0.00     0.293 HD
ENDBRANCH  17  20
ENDBRANCH   1  12
BRANCH   6  22
ATOM     22  O   UNL     1     -48.953 -14.519  12.291  1.00  0.00    -0.507 OA
ATOM     23  H   UNL     1     -49.938 -14.715  12.370  1.00  0.00     0.293 HD
ENDBRANCH   6  22
BRANCH   8  24
ATOM     24  O   UNL     1     -48.610 -12.060  16.401  1.00  0.00    -0.508 OA
ATOM     25  H   UNL     1     -48.647 -12.774  17.119  1.00  0.00     0.293 HD
ENDBRANCH   8  24
TORSDOF 5
ENDMDL
MODEL 7
REMARK VINA RESULT:    -7.019      5.106      9.231
REMARK INTER + INTRA:          -8.520
REMARK INTER:                  -8.247
REMARK INTRA:                  -0.274
REMARK UNBOUND:                -0.271
REMARK SMILES O=c1cc(-c2ccc(O)c(O)c2)oc2cc(O)cc(O)c12
REMARK SMILES IDX 4 1 3 2 2 3 1 4 21 5 19 6 18 7 16 8 15 9 14 10 13 11 5 12
REMARK SMILES IDX 6 13 7 14 8 15 12 16 10 17 9 18 11 20 20 22 17 24
REMARK H PARENT 9 19 11 21 20 23 17 25
REMARK Flexibility Score: inf
ROOT
ATOM      1  C   UNL     1     -41.334  -9.363   6.701  1.00  0.00     0.138 A 
ATOM      2  C   UNL     1     -40.204  -8.608   6.362  1.00  0.00     0.100 A 
ATOM      3  C   UNL     1     -39.863  -8.441   5.018  1.00  0.00     0.197 A 
ATOM      4  O   UNL     1     -38.879  -7.707   4.742  1.00  0.00    -0.289 OA
ATOM      5  C   UNL     1     -40.642  -9.062   4.013  1.00  0.00     0.107 A 
ATOM      6  C   UNL     1     -40.366  -8.997   2.614  1.00  0.00     0.134 A 
ATOM      7  C   UNL     1     -41.274  -9.554   1.705  1.00  0.00     0.093 A 
ATOM      8  C   UNL     1     -42.416 -10.226   2.147  1.00  0.00     0.123 A 
ATOM      9  C   UNL     1     -42.666 -10.343   3.512  1.00  0.00     0.094 A 
ATOM     10  C   UNL     1     -41.797  -9.769   4.443  1.00  0.00     0.146 A 
ATOM     11  O   UNL     1     -42.080  -9.891   5.736  1.00  0.00    -0.456 OA
ENDROOT
BRANCH   1  12
ATOM     12  C   UNL     1     -41.741  -9.573   8.114  1.00  0.00     0.021 A 
ATOM     13  C   UNL     1     -42.009 -10.875   8.570  1.00  0.00     0.016 A 
ATOM     14  C   UNL     1     -42.387 -11.100   9.896  1.00  0.00     0.051 A 
ATOM     15  C   UNL     1     -42.495 -10.032  10.792  1.00  0.00     0.157 A 
ATOM     16  C   UNL     1     -41.839  -8.502   9.023  1.00  0.00     0.062 A 
ATOM     17  C   UNL     1     -42.216  -8.727  10.355  1.00  0.00     0.158 A 
BRANCH  15  18
ATOM     18  O   UNL     1     -42.876 -10.288  12.108  1.00  0.00    -0.504 OA
ATOM     19  H   UNL     1     -42.200 -10.515  12.829  1.00  0.00     0.293 HD
ENDBRANCH  15  18
BRANCH  17  20
ATOM     20  O   UNL     1     -42.311  -7.659  11.246  1.00  0.00    -0.504 OA
ATOM     21  H   UNL     1     -43.120  -7.050  11.262  1.00  0.00     0.293 HD
ENDBRANCH  17  20
ENDBRANCH   1  12
BRANCH   6  22
ATOM     22  O   UNL     1     -39.212  -8.422   2.072  1.00  0.00    -0.507 OA
ATOM     23  H   UNL     1     -39.047  -7.431   1.987  1.00  0.00     0.293 HD
ENDBRANCH   6  22
BRANCH   8  24
ATOM     24  O   UNL     1     -43.305 -10.791   1.234  1.00  0.00    -0.508 OA
ATOM     25  H   UNL     1     -43.167 -10.701   0.235  1.00  0.00     0.293 HD
ENDBRANCH   8  24
TORSDOF 5
ENDMDL
MODEL 8
REMARK VINA RESULT:    -7.010      8.519     13.508
REMARK INTER + INTRA:          -8.510
REMARK INTER:                  -8.214
REMARK INTRA:                  -0.297
REMARK UNBOUND:                -0.271
REMARK SMILES O=c1cc(-c2ccc(O)c(O)c2)oc2cc(O)cc(O)c12
REMARK SMILES IDX 4 1 3 2 2 3 1 4 21 5 19 6 18 7 16 8 15 9 14 10 13 11 5 12
REMARK SMILES IDX 6 13 7 14 8 15 12 16 10 17 9 18 11 20 20 22 17 24
REMARK H PARENT 9 19 11 21 20 23 17 25
REMARK Flexibility Score: inf
ROOT
ATOM      1  C   UNL     1     -39.199  -6.271   3.525  1.00  0.00     0.138 A 
ATOM      2  C   UNL     1     -38.466  -6.296   2.331  1.00  0.00     0.100 A 
ATOM      3  C   UNL     1     -37.569  -5.264   2.050  1.00  0.00     0.197 A 
ATOM      4  O   UNL     1     -36.881  -5.346   1.000  1.00  0.00    -0.289 OA
ATOM      5  C   UNL     1     -37.430  -4.187   2.956  1.00  0.00     0.107 A 
ATOM      6  C   UNL     1     -36.578  -3.060   2.755  1.00  0.00     0.134 A 
ATOM      7  C   UNL     1     -36.436  -2.111   3.776  1.00  0.00     0.093 A 
ATOM      8  C   UNL     1     -37.160  -2.218   4.965  1.00  0.00     0.123 A 
ATOM      9  C   UNL     1     -38.036  -3.286   5.149  1.00  0.00     0.094 A 
ATOM     10  C   UNL     1     -38.175  -4.266   4.164  1.00  0.00     0.146 A 
ATOM     11  O   UNL     1     -39.010  -5.276   4.385  1.00  0.00    -0.456 OA
ENDROOT
BRANCH   1  12
ATOM     12  C   UNL     1     -40.167  -7.342   3.874  1.00  0.00     0.021 A 
ATOM     13  C   UNL     1     -40.965  -7.205   5.022  1.00  0.00     0.016 A 
ATOM     14  C   UNL     1     -41.889  -8.195   5.368  1.00  0.00     0.051 A 
ATOM     15  C   UNL     1     -42.037  -9.333   4.570  1.00  0.00     0.157 A 
ATOM     16  C   UNL     1     -40.330  -8.485   3.066  1.00  0.00     0.062 A 
ATOM     17  C   UNL     1     -41.258  -9.478   3.411  1.00  0.00     0.158 A 
BRANCH  15  18
ATOM     18  O   UNL     1     -42.966 -10.305   4.942  1.00  0.00    -0.504 OA
ATOM     19  H   UNL     1     -43.955 -10.100   5.024  1.00  0.00     0.293 HD
ENDBRANCH  15  18
BRANCH  17  20
ATOM     20  O   UNL     1     -41.410 -10.605   2.605  1.00  0.00    -0.504 OA
ATOM     21  H   UNL     1     -41.817 -10.545   1.680  1.00  0.00     0.293 HD
ENDBRANCH  17  20
ENDBRANCH   1  12
BRANCH   6  22
ATOM     22  O   UNL     1     -35.875  -2.813   1.572  1.00  0.00    -0.507 OA
ATOM     23  H   UNL     1     -35.628  -1.898   1.228  1.00  0.00     0.293 HD
ENDBRANCH   6  22
BRANCH   8  24
ATOM     24  O   UNL     1     -37.023  -1.261   5.969  1.00  0.00    -0.508 OA
ATOM     25  H   UNL     1     -37.070  -1.510   6.950  1.00  0.00     0.293 HD
ENDBRANCH   8  24
TORSDOF 5
ENDMDL
MODEL 9
REMARK VINA RESULT:    -6.835      1.718      2.055
REMARK INTER + INTRA:          -8.305
REMARK INTER:                  -8.006
REMARK INTRA:                  -0.299
REMARK UNBOUND:                -0.271
REMARK SMILES O=c1cc(-c2ccc(O)c(O)c2)oc2cc(O)cc(O)c12
REMARK SMILES IDX 4 1 3 2 2 3 1 4 21 5 19 6 18 7 16 8 15 9 14 10 13 11 5 12
REMARK SMILES IDX 6 13 7 14 8 15 12 16 10 17 9 18 11 20 20 22 17 24
REMARK H PARENT 9 19 11 21 20 23 17 25
REMARK Flexibility Score: inf
ROOT
ATOM      1  C   UNL     1     -43.393 -10.221  11.483  1.00  0.00     0.138 A 
ATOM      2  C   UNL     1     -43.954  -9.313  12.391  1.00  0.00     0.100 A 
ATOM      3  C   UNL     1     -45.035  -9.706  13.182  1.00  0.00     0.197 A 
ATOM      4  O   UNL     1     -45.476  -8.890  14.032  1.00  0.00    -0.289 OA
ATOM      5  C   UNL     1     -45.576 -11.006  13.038  1.00  0.00     0.107 A 
ATOM      6  C   UNL     1     -46.703 -11.502  13.760  1.00  0.00     0.134 A 
ATOM      7  C   UNL     1     -47.077 -12.844  13.618  1.00  0.00     0.093 A 
ATOM      8  C   UNL     1     -46.402 -13.691  12.735  1.00  0.00     0.123 A 
ATOM      9  C   UNL     1     -45.335 -13.201  11.985  1.00  0.00     0.094 A 
ATOM     10  C   UNL     1     -44.917 -11.877  12.129  1.00  0.00     0.146 A 
ATOM     11  O   UNL     1     -43.886 -11.454  11.405  1.00  0.00    -0.456 OA
ENDROOT
BRANCH   1  12
ATOM     12  C   UNL     1     -42.244  -9.856  10.617  1.00  0.00     0.021 A 
ATOM     13  C   UNL     1     -41.225  -9.035  11.131  1.00  0.00     0.016 A 
ATOM     14  C   UNL     1     -40.129  -8.683  10.339  1.00  0.00     0.051 A 
ATOM     15  C   UNL     1     -40.026  -9.150   9.026  1.00  0.00     0.157 A 
ATOM     16  C   UNL     1     -42.129 -10.334   9.297  1.00  0.00     0.062 A 
ATOM     17  C   UNL     1     -41.028  -9.982   8.503  1.00  0.00     0.158 A 
BRANCH  15  18
ATOM     18  O   UNL     1     -38.921  -8.780   8.260  1.00  0.00    -0.504 OA
ATOM     19  H   UNL     1     -37.972  -8.885   8.598  1.00  0.00     0.293 HD
ENDBRANCH  15  18
BRANCH  17  20
ATOM     20  O   UNL     1     -40.926 -10.461   7.197  1.00  0.00    -0.504 OA
ATOM     21  H   UNL     1     -41.745 -10.613   6.622  1.00  0.00     0.293 HD
ENDBRANCH  17  20
ENDBRANCH   1  12
BRANCH   6  22
ATOM     22  O   UNL     1     -47.497 -10.719  14.603  1.00  0.00    -0.507 OA
ATOM     23  H   UNL     1     -47.620 -10.879  15.591  1.00  0.00     0.293 HD
ENDBRANCH   6  22
BRANCH   8  24
ATOM     24  O   UNL     1     -46.792 -15.021  12.590  1.00  0.00    -0.508 OA
ATOM     25  H   UNL     1     -47.315 -15.335  11.781  1.00  0.00     0.293 HD
ENDBRANCH   8  24
TORSDOF 5
ENDMDL
