MODEL 1
REMARK VINA RESULT:    -4.066      0.000      0.000
REMARK INTER + INTRA:          -8.379
REMARK INTER:                  -6.919
REMARK INTRA:                  -1.460
REMARK UNBOUND:                -1.460
REMARK SMILES CCCCCCCCCCCCCC(=O)[O-]
REMARK SMILES IDX 8 1 9 2 10 3 11 4 12 5 13 6 14 7 15 8 16 9 7 10 6 11 5 12
REMARK SMILES IDX 4 13 3 14 2 15 1 16
REMARK H PARENT
REMARK Flexibility Score: inf
ROOT
ATOM      1  C   UNL     1      -8.366 -37.145  -9.024  1.00  0.00     0.000 C 
ENDROOT
BRANCH   1   2
ATOM      2  C   UNL     1      -7.429 -38.347  -8.857  1.00  0.00     0.000 C 
BRANCH   2   3
ATOM      3  C   UNL     1      -6.438 -38.441 -10.024  1.00  0.00     0.000 C 
BRANCH   3   4
ATOM      4  C   UNL     1      -6.080 -39.904 -10.325  1.00  0.00     0.000 C 
BRANCH   4   5
ATOM      5  C   UNL     1      -6.433 -40.321 -11.764  1.00  0.00     0.006 C 
BRANCH   5   6
ATOM      6  C   UNL     1      -7.394 -39.360 -12.483  1.00  0.00     0.053 C 
BRANCH   6   7
ATOM      7  C   UNL     1      -7.738 -39.835 -13.861  1.00  0.00     0.041 C 
ATOM      8  O   UNL     1      -8.941 -39.913 -14.223  1.00  0.00    -0.550 OA
ATOM      9  O   UNL     1      -6.730 -40.223 -14.735  1.00  0.00    -0.550 OA
ENDBRANCH   6   7
ENDBRANCH   5   6
ENDBRANCH   4   5
ENDBRANCH   3   4
ENDBRANCH   2   3
ENDBRANCH   1   2
BRANCH   1  10
ATOM     10  C   UNL     1      -8.224 -36.528 -10.420  1.00  0.00     0.000 C 
BRANCH  10  11
ATOM     11  C   UNL     1      -8.208 -34.996 -10.345  1.00  0.00    -0.000 C 
BRANCH  11  12
ATOM     12  C   UNL     1      -6.778 -34.467 -10.193  1.00  0.00    -0.000 C 
BRANCH  12  13
ATOM     13  C   UNL     1      -6.537 -33.930  -8.776  1.00  0.00    -0.000 C 
BRANCH  13  14
ATOM     14  C   UNL     1      -5.579 -34.845  -7.997  1.00  0.00    -0.000 C 
BRANCH  14  15
ATOM     15  C   UNL     1      -4.612 -35.605  -8.917  1.00  0.00    -0.003 C 
ATOM     16  C   UNL     1      -3.209 -35.734  -8.323  1.00  0.00     0.004 C 
ENDBRANCH  14  15
ENDBRANCH  13  14
ENDBRANCH  12  13
ENDBRANCH  11  12
ENDBRANCH  10  11
ENDBRANCH   1  10
TORSDOF 12
ENDMDL
MODEL 2
REMARK VINA RESULT:    -3.937      1.578      3.002
REMARK INTER + INTRA:          -8.159
REMARK INTER:                  -7.285
REMARK INTRA:                  -0.874
REMARK UNBOUND:                -1.460
REMARK SMILES CCCCCCCCCCCCCC(=O)[O-]
REMARK SMILES IDX 8 1 9 2 10 3 11 4 12 5 13 6 14 7 15 8 16 9 7 10 6 11 5 12
REMARK SMILES IDX 4 13 3 14 2 15 1 16
REMARK H PARENT
REMARK Flexibility Score: inf
ROOT
ATOM      1  C   UNL     1      -5.673 -38.622 -10.402  1.00  0.00     0.000 C 
ENDROOT
BRANCH   1   2
ATOM      2  C   UNL     1      -6.129 -39.975  -9.842  1.00  0.00     0.000 C 
BRANCH   2   3
ATOM      3  C   UNL     1      -6.883 -40.785 -10.903  1.00  0.00     0.000 C 
BRANCH   3   4
ATOM      4  C   UNL     1      -6.988 -40.004 -12.221  1.00  0.00     0.000 C 
BRANCH   4   5
ATOM      5  C   UNL     1      -6.485 -40.808 -13.434  1.00  0.00     0.006 C 
BRANCH   5   6
ATOM      6  C   UNL     1      -6.953 -40.261 -14.792  1.00  0.00     0.053 C 
BRANCH   6   7
ATOM      7  C   UNL     1      -6.243 -40.915 -15.937  1.00  0.00     0.041 C 
ATOM      8  O   UNL     1      -6.491 -40.563 -17.120  1.00  0.00    -0.550 OA
ATOM      9  O   UNL     1      -5.332 -41.936 -15.699  1.00  0.00    -0.550 OA
ENDBRANCH   6   7
ENDBRANCH   5   6
ENDBRANCH   4   5
ENDBRANCH   3   4
ENDBRANCH   2   3
ENDBRANCH   1   2
BRANCH   1  10
ATOM     10  C   UNL     1      -5.751 -37.528  -9.330  1.00  0.00     0.000 C 
BRANCH  10  11
ATOM     11  C   UNL     1      -4.416 -36.785  -9.205  1.00  0.00    -0.000 C 
BRANCH  11  12
ATOM     12  C   UNL     1      -4.626 -35.360  -8.683  1.00  0.00    -0.000 C 
BRANCH  12  13
ATOM     13  C   UNL     1      -6.008 -35.209  -8.033  1.00  0.00    -0.000 C 
BRANCH  13  14
ATOM     14  C   UNL     1      -6.748 -33.986  -8.594  1.00  0.00    -0.000 C 
BRANCH  14  15
ATOM     15  C   UNL     1      -7.025 -34.103 -10.100  1.00  0.00    -0.003 C 
ATOM     16  C   UNL     1      -8.184 -35.048 -10.417  1.00  0.00     0.004 C 
ENDBRANCH  14  15
ENDBRANCH  13  14
ENDBRANCH  12  13
ENDBRANCH  11  12
ENDBRANCH  10  11
ENDBRANCH   1  10
TORSDOF 12
ENDMDL
MODEL 3
REMARK VINA RESULT:    -3.901      1.480      1.725
REMARK INTER + INTRA:          -8.098
REMARK INTER:                  -6.403
REMARK INTRA:                  -1.695
REMARK UNBOUND:                -1.460
REMARK SMILES CCCCCCCCCCCCCC(=O)[O-]
REMARK SMILES IDX 8 1 9 2 10 3 11 4 12 5 13 6 14 7 15 8 16 9 7 10 6 11 5 12
REMARK SMILES IDX 4 13 3 14 2 15 1 16
REMARK H PARENT
REMARK Flexibility Score: inf
ROOT
ATOM      1  C   UNL     1      -8.981 -37.081  -9.414  1.00  0.00     0.000 C 
ENDROOT
BRANCH   1   2
ATOM      2  C   UNL     1      -8.196 -37.631  -8.217  1.00  0.00     0.000 C 
BRANCH   2   3
ATOM      3  C   UNL     1      -7.151 -38.659  -8.667  1.00  0.00     0.000 C 
BRANCH   3   4
ATOM      4  C   UNL     1      -6.437 -38.194  -9.944  1.00  0.00     0.000 C 
BRANCH   4   5
ATOM      5  C   UNL     1      -6.250 -39.326 -10.970  1.00  0.00     0.006 C 
BRANCH   5   6
ATOM      6  C   UNL     1      -6.700 -40.710 -10.474  1.00  0.00     0.053 C 
BRANCH   6   7
ATOM      7  C   UNL     1      -7.131 -41.599 -11.599  1.00  0.00     0.041 C 
ATOM      8  O   UNL     1      -8.130 -42.353 -11.463  1.00  0.00    -0.550 OA
ATOM      9  O   UNL     1      -6.409 -41.619 -12.786  1.00  0.00    -0.550 OA
ENDBRANCH   6   7
ENDBRANCH   5   6
ENDBRANCH   4   5
ENDBRANCH   3   4
ENDBRANCH   2   3
ENDBRANCH   1   2
BRANCH   1  10
ATOM     10  C   UNL     1      -9.068 -35.551  -9.359  1.00  0.00     0.000 C 
BRANCH  10  11
ATOM     11  C   UNL     1      -8.298 -34.914 -10.522  1.00  0.00    -0.000 C 
BRANCH  11  12
ATOM     12  C   UNL     1      -6.887 -34.503 -10.087  1.00  0.00    -0.000 C 
BRANCH  12  13
ATOM     13  C   UNL     1      -6.841 -34.190  -8.586  1.00  0.00    -0.000 C 
BRANCH  13  14
ATOM     14  C   UNL     1      -5.628 -34.857  -7.922  1.00  0.00    -0.000 C 
BRANCH  14  15
ATOM     15  C   UNL     1      -4.546 -35.258  -8.937  1.00  0.00    -0.003 C 
ATOM     16  C   UNL     1      -3.367 -35.984  -8.289  1.00  0.00     0.004 C 
ENDBRANCH  14  15
ENDBRANCH  13  14
ENDBRANCH  12  13
ENDBRANCH  11  12
ENDBRANCH  10  11
ENDBRANCH   1  10
TORSDOF 12
ENDMDL
MODEL 4
REMARK VINA RESULT:    -3.789      1.124      2.020
REMARK INTER + INTRA:          -7.907
REMARK INTER:                  -6.702
REMARK INTRA:                  -1.205
REMARK UNBOUND:                -1.460
REMARK SMILES CCCCCCCCCCCCCC(=O)[O-]
REMARK SMILES IDX 8 1 9 2 10 3 11 4 12 5 13 6 14 7 15 8 16 9 7 10 6 11 5 12
REMARK SMILES IDX 4 13 3 14 2 15 1 16
REMARK H PARENT
REMARK Flexibility Score: inf
ROOT
ATOM      1  C   UNL     1      -7.348 -39.197  -9.254  1.00  0.00     0.000 C 
ENDROOT
BRANCH   1   2
ATOM      2  C   UNL     1      -5.930 -39.333  -9.821  1.00  0.00     0.000 C 
BRANCH   2   3
ATOM      3  C   UNL     1      -5.964 -39.653 -11.320  1.00  0.00     0.000 C 
BRANCH   3   4
ATOM      4  C   UNL     1      -6.991 -40.753 -11.624  1.00  0.00     0.000 C 
BRANCH   4   5
ATOM      5  C   UNL     1      -7.517 -40.697 -13.070  1.00  0.00     0.006 C 
BRANCH   5   6
ATOM      6  C   UNL     1      -6.470 -41.055 -14.138  1.00  0.00     0.053 C 
BRANCH   6   7
ATOM      7  C   UNL     1      -6.733 -40.361 -15.439  1.00  0.00     0.041 C 
ATOM      8  O   UNL     1      -6.157 -40.747 -16.490  1.00  0.00    -0.550 OA
ATOM      9  O   UNL     1      -7.587 -39.267 -15.484  1.00  0.00    -0.550 OA
ENDBRANCH   6   7
ENDBRANCH   5   6
ENDBRANCH   4   5
ENDBRANCH   3   4
ENDBRANCH   2   3
ENDBRANCH   1   2
BRANCH   1  10
ATOM     10  C   UNL     1      -7.716 -37.723  -9.041  1.00  0.00     0.000 C 
BRANCH  10  11
ATOM     11  C   UNL     1      -8.158 -37.071 -10.356  1.00  0.00    -0.000 C 
BRANCH  11  12
ATOM     12  C   UNL     1      -7.988 -35.549 -10.300  1.00  0.00    -0.000 C 
BRANCH  12  13
ATOM     13  C   UNL     1      -6.513 -35.153 -10.448  1.00  0.00    -0.000 C 
BRANCH  13  14
ATOM     14  C   UNL     1      -6.074 -34.231  -9.300  1.00  0.00    -0.000 C 
BRANCH  14  15
ATOM     15  C   UNL     1      -5.068 -34.905  -8.355  1.00  0.00    -0.003 C 
ATOM     16  C   UNL     1      -4.405 -36.134  -8.975  1.00  0.00     0.004 C 
ENDBRANCH  14  15
ENDBRANCH  13  14
ENDBRANCH  12  13
ENDBRANCH  11  12
ENDBRANCH  10  11
ENDBRANCH   1  10
TORSDOF 12
ENDMDL
MODEL 5
REMARK VINA RESULT:    -3.783      3.213      7.000
REMARK INTER + INTRA:          -7.897
REMARK INTER:                  -7.004
REMARK INTRA:                  -0.893
REMARK UNBOUND:                -1.460
REMARK SMILES CCCCCCCCCCCCCC(=O)[O-]
REMARK SMILES IDX 8 1 9 2 10 3 11 4 12 5 13 6 14 7 15 8 16 9 7 10 6 11 5 12
REMARK SMILES IDX 4 13 3 14 2 15 1 16
REMARK H PARENT
REMARK Flexibility Score: inf
ROOT
ATOM      1  C   UNL     1      -7.386 -39.367 -12.157  1.00  0.00     0.000 C 
ENDROOT
BRANCH   1   2
ATOM      2  C   UNL     1      -6.823 -40.481 -11.267  1.00  0.00     0.000 C 
BRANCH   2   3
ATOM      3  C   UNL     1      -6.138 -39.900 -10.023  1.00  0.00     0.000 C 
BRANCH   3   4
ATOM      4  C   UNL     1      -5.259 -38.696 -10.392  1.00  0.00     0.000 C 
BRANCH   4   5
ATOM      5  C   UNL     1      -5.432 -37.511  -9.423  1.00  0.00     0.006 C 
BRANCH   5   6
ATOM      6  C   UNL     1      -6.864 -36.957  -9.352  1.00  0.00     0.053 C 
BRANCH   6   7
ATOM      7  C   UNL     1      -7.053 -35.769 -10.244  1.00  0.00     0.041 C 
ATOM      8  O   UNL     1      -6.053 -35.137 -10.678  1.00  0.00    -0.550 OA
ATOM      9  O   UNL     1      -8.333 -35.340 -10.570  1.00  0.00    -0.550 OA
ENDBRANCH   6   7
ENDBRANCH   5   6
ENDBRANCH   4   5
ENDBRANCH   3   4
ENDBRANCH   2   3
ENDBRANCH   1   2
BRANCH   1  10
ATOM     10  C   UNL     1      -7.450 -39.813 -13.623  1.00  0.00     0.000 C 
BRANCH  10  11
ATOM     11  C   UNL     1      -6.394 -40.886 -13.917  1.00  0.00    -0.000 C 
BRANCH  11  12
ATOM     12  C   UNL     1      -6.470 -41.347 -15.377  1.00  0.00    -0.000 C 
BRANCH  12  13
ATOM     13  C   UNL     1      -6.803 -40.175 -16.308  1.00  0.00    -0.000 C 
BRANCH  13  14
ATOM     14  C   UNL     1      -6.414 -40.498 -17.759  1.00  0.00    -0.000 C 
BRANCH  14  15
ATOM     15  C   UNL     1      -6.661 -39.320 -18.713  1.00  0.00    -0.003 C 
ATOM     16  C   UNL     1      -7.566 -38.247 -18.106  1.00  0.00     0.004 C 
ENDBRANCH  14  15
ENDBRANCH  13  14
ENDBRANCH  12  13
ENDBRANCH  11  12
ENDBRANCH  10  11
ENDBRANCH   1  10
TORSDOF 12
ENDMDL
MODEL 6
REMARK VINA RESULT:    -3.779      2.101      5.687
REMARK INTER + INTRA:          -7.890
REMARK INTER:                  -6.864
REMARK INTRA:                  -1.026
REMARK UNBOUND:                -1.460
REMARK SMILES CCCCCCCCCCCCCC(=O)[O-]
REMARK SMILES IDX 8 1 9 2 10 3 11 4 12 5 13 6 14 7 15 8 16 9 7 10 6 11 5 12
REMARK SMILES IDX 4 13 3 14 2 15 1 16
REMARK H PARENT
REMARK Flexibility Score: inf
ROOT
ATOM      1  C   UNL     1      -4.788 -36.724  -9.358  1.00  0.00     0.000 C 
ENDROOT
BRANCH   1   2
ATOM      2  C   UNL     1      -5.130 -35.524  -8.467  1.00  0.00     0.000 C 
BRANCH   2   3
ATOM      3  C   UNL     1      -5.414 -34.274  -9.310  1.00  0.00     0.000 C 
BRANCH   3   4
ATOM      4  C   UNL     1      -6.896 -33.881  -9.228  1.00  0.00     0.000 C 
BRANCH   4   5
ATOM      5  C   UNL     1      -7.776 -34.656 -10.226  1.00  0.00     0.006 C 
BRANCH   5   6
ATOM      6  C   UNL     1      -8.843 -35.546  -9.570  1.00  0.00     0.053 C 
BRANCH   6   7
ATOM      7  C   UNL     1      -9.356 -36.595 -10.507  1.00  0.00     0.041 C 
ATOM      8  O   UNL     1      -9.898 -36.262 -11.594  1.00  0.00    -0.550 OA
ATOM      9  O   UNL     1      -9.267 -37.938 -10.166  1.00  0.00    -0.550 OA
ENDBRANCH   6   7
ENDBRANCH   5   6
ENDBRANCH   4   5
ENDBRANCH   3   4
ENDBRANCH   2   3
ENDBRANCH   1   2
BRANCH   1  10
ATOM     10  C   UNL     1      -5.898 -37.780  -9.308  1.00  0.00     0.000 C 
BRANCH  10  11
ATOM     11  C   UNL     1      -5.593 -38.944 -10.259  1.00  0.00    -0.000 C 
BRANCH  11  12
ATOM     12  C   UNL     1      -6.404 -40.189  -9.882  1.00  0.00    -0.000 C 
BRANCH  12  13
ATOM     13  C   UNL     1      -6.985 -40.866 -11.130  1.00  0.00    -0.000 C 
BRANCH  13  14
ATOM     14  C   UNL     1      -6.701 -40.033 -12.390  1.00  0.00    -0.000 C 
BRANCH  14  15
ATOM     15  C   UNL     1      -7.435 -40.568 -13.628  1.00  0.00    -0.003 C 
ATOM     16  C   UNL     1      -7.166 -39.736 -14.882  1.00  0.00     0.004 C 
ENDBRANCH  14  15
ENDBRANCH  13  14
ENDBRANCH  12  13
ENDBRANCH  11  12
ENDBRANCH  10  11
ENDBRANCH   1  10
TORSDOF 12
ENDMDL
MODEL 7
REMARK VINA RESULT:    -3.747      2.562      4.373
REMARK INTER + INTRA:          -7.836
REMARK INTER:                  -7.338
REMARK INTRA:                  -0.497
REMARK UNBOUND:                -1.460
REMARK SMILES CCCCCCCCCCCCCC(=O)[O-]
REMARK SMILES IDX 8 1 9 2 10 3 11 4 12 5 13 6 14 7 15 8 16 9 7 10 6 11 5 12
REMARK SMILES IDX 4 13 3 14 2 15 1 16
REMARK H PARENT
REMARK Flexibility Score: inf
ROOT
ATOM      1  C   UNL     1      -6.525 -40.452 -12.182  1.00  0.00     0.000 C 
ENDROOT
BRANCH   1   2
ATOM      2  C   UNL     1      -7.247 -39.834 -13.386  1.00  0.00     0.000 C 
BRANCH   2   3
ATOM      3  C   UNL     1      -6.864 -40.551 -14.686  1.00  0.00     0.000 C 
BRANCH   3   4
ATOM      4  C   UNL     1      -7.675 -40.009 -15.873  1.00  0.00     0.000 C 
BRANCH   4   5
ATOM      5  C   UNL     1      -8.019 -38.515 -15.728  1.00  0.00     0.006 C 
BRANCH   5   6
ATOM      6  C   UNL     1      -9.221 -38.059 -16.571  1.00  0.00     0.053 C 
BRANCH   6   7
ATOM      7  C   UNL     1      -8.854 -36.973 -17.534  1.00  0.00     0.041 C 
ATOM      8  O   UNL     1      -9.709 -36.113 -17.874  1.00  0.00    -0.550 OA
ATOM      9  O   UNL     1      -7.579 -36.930 -18.082  1.00  0.00    -0.550 OA
ENDBRANCH   6   7
ENDBRANCH   5   6
ENDBRANCH   4   5
ENDBRANCH   3   4
ENDBRANCH   2   3
ENDBRANCH   1   2
BRANCH   1  10
ATOM     10  C   UNL     1      -6.835 -39.675 -10.897  1.00  0.00     0.000 C 
BRANCH  10  11
ATOM     11  C   UNL     1      -5.587 -38.949 -10.380  1.00  0.00    -0.000 C 
BRANCH  11  12
ATOM     12  C   UNL     1      -5.962 -37.866  -9.362  1.00  0.00    -0.000 C 
BRANCH  12  13
ATOM     13  C   UNL     1      -5.109 -36.607  -9.557  1.00  0.00    -0.000 C 
BRANCH  13  14
ATOM     14  C   UNL     1      -5.481 -35.526  -8.529  1.00  0.00    -0.000 C 
BRANCH  14  15
ATOM     15  C   UNL     1      -5.869 -34.194  -9.189  1.00  0.00    -0.003 C 
ATOM     16  C   UNL     1      -7.094 -34.317 -10.095  1.00  0.00     0.004 C 
ENDBRANCH  14  15
ENDBRANCH  13  14
ENDBRANCH  12  13
ENDBRANCH  11  12
ENDBRANCH  10  11
ENDBRANCH   1  10
TORSDOF 12
ENDMDL
MODEL 8
REMARK VINA RESULT:    -3.717      2.597      3.066
REMARK INTER + INTRA:          -7.785
REMARK INTER:                  -6.265
REMARK INTRA:                  -1.519
REMARK UNBOUND:                -1.460
REMARK SMILES CCCCCCCCCCCCCC(=O)[O-]
REMARK SMILES IDX 8 1 9 2 10 3 11 4 12 5 13 6 14 7 15 8 16 9 7 10 6 11 5 12
REMARK SMILES IDX 4 13 3 14 2 15 1 16
REMARK H PARENT
REMARK Flexibility Score: inf
ROOT
ATOM      1  C   UNL     1      -7.602 -38.172  -8.729  1.00  0.00     0.000 C 
ENDROOT
BRANCH   1   2
ATOM      2  C   UNL     1      -6.870 -39.488  -9.017  1.00  0.00     0.000 C 
BRANCH   2   3
ATOM      3  C   UNL     1      -5.906 -39.335 -10.200  1.00  0.00     0.000 C 
BRANCH   3   4
ATOM      4  C   UNL     1      -6.405 -40.121 -11.422  1.00  0.00     0.000 C 
BRANCH   4   5
ATOM      5  C   UNL     1      -7.523 -41.121 -11.073  1.00  0.00     0.006 C 
BRANCH   5   6
ATOM      6  C   UNL     1      -7.162 -42.591 -11.340  1.00  0.00     0.053 C 
BRANCH   6   7
ATOM      7  C   UNL     1      -6.881 -43.341 -10.075  1.00  0.00     0.041 C 
ATOM      8  O   UNL     1      -7.139 -42.818  -8.959  1.00  0.00    -0.550 OA
ATOM      9  O   UNL     1      -6.304 -44.603 -10.127  1.00  0.00    -0.550 OA
ENDBRANCH   6   7
ENDBRANCH   5   6
ENDBRANCH   4   5
ENDBRANCH   3   4
ENDBRANCH   2   3
ENDBRANCH   1   2
BRANCH   1  10
ATOM     10  C   UNL     1      -8.835 -38.020  -9.628  1.00  0.00     0.000 C 
BRANCH  10  11
ATOM     11  C   UNL     1      -8.757 -36.730 -10.455  1.00  0.00    -0.000 C 
BRANCH  11  12
ATOM     12  C   UNL     1      -8.478 -35.518  -9.559  1.00  0.00    -0.000 C 
BRANCH  12  13
ATOM     13  C   UNL     1      -7.560 -34.512 -10.264  1.00  0.00    -0.000 C 
BRANCH  13  14
ATOM     14  C   UNL     1      -6.124 -35.052 -10.359  1.00  0.00    -0.000 C 
BRANCH  14  15
ATOM     15  C   UNL     1      -5.416 -35.087  -8.997  1.00  0.00    -0.003 C 
ATOM     16  C   UNL     1      -4.318 -36.149  -8.928  1.00  0.00     0.004 C 
ENDBRANCH  14  15
ENDBRANCH  13  14
ENDBRANCH  12  13
ENDBRANCH  11  12
ENDBRANCH  10  11
ENDBRANCH   1  10
TORSDOF 12
ENDMDL
MODEL 9
REMARK VINA RESULT:    -3.687      2.694      4.437
REMARK INTER + INTRA:          -7.734
REMARK INTER:                  -7.276
REMARK INTRA:                  -0.458
REMARK UNBOUND:                -1.460
REMARK SMILES CCCCCCCCCCCCCC(=O)[O-]
REMARK SMILES IDX 8 1 9 2 10 3 11 4 12 5 13 6 14 7 15 8 16 9 7 10 6 11 5 12
REMARK SMILES IDX 4 13 3 14 2 15 1 16
REMARK H PARENT
REMARK Flexibility Score: inf
ROOT
ATOM      1  C   UNL     1      -7.175 -39.969 -12.202  1.00  0.00     0.000 C 
ENDROOT
BRANCH   1   2
ATOM      2  C   UNL     1      -6.740 -40.842 -13.385  1.00  0.00     0.000 C 
BRANCH   2   3
ATOM      3  C   UNL     1      -7.060 -40.158 -14.721  1.00  0.00     0.000 C 
BRANCH   3   4
ATOM      4  C   UNL     1      -6.396 -40.899 -15.890  1.00  0.00     0.000 C 
BRANCH   4   5
ATOM      5  C   UNL     1      -6.764 -40.302 -17.261  1.00  0.00     0.006 C 
BRANCH   5   6
ATOM      6  C   UNL     1      -7.576 -38.999 -17.186  1.00  0.00     0.053 C 
BRANCH   6   7
ATOM      7  C   UNL     1      -7.426 -38.170 -18.424  1.00  0.00     0.041 C 
ATOM      8  O   UNL     1      -6.864 -38.650 -19.443  1.00  0.00    -0.550 OA
ATOM      9  O   UNL     1      -7.876 -36.856 -18.440  1.00  0.00    -0.550 OA
ENDBRANCH   6   7
ENDBRANCH   5   6
ENDBRANCH   4   5
ENDBRANCH   3   4
ENDBRANCH   2   3
ENDBRANCH   1   2
BRANCH   1  10
ATOM     10  C   UNL     1      -6.703 -40.571 -10.873  1.00  0.00     0.000 C 
BRANCH  10  11
ATOM     11  C   UNL     1      -6.025 -39.508  -9.999  1.00  0.00    -0.000 C 
BRANCH  11  12
ATOM     12  C   UNL     1      -6.766 -38.170 -10.084  1.00  0.00    -0.000 C 
BRANCH  12  13
ATOM     13  C   UNL     1      -6.234 -37.178  -9.043  1.00  0.00    -0.000 C 
BRANCH  13  14
ATOM     14  C   UNL     1      -4.817 -36.708  -9.405  1.00  0.00    -0.000 C 
BRANCH  14  15
ATOM     15  C   UNL     1      -4.357 -35.511  -8.558  1.00  0.00    -0.003 C 
ATOM     16  C   UNL     1      -2.922 -35.659  -8.055  1.00  0.00     0.004 C 
ENDBRANCH  14  15
ENDBRANCH  13  14
ENDBRANCH  12  13
ENDBRANCH  11  12
ENDBRANCH  10  11
ENDBRANCH   1  10
TORSDOF 12
ENDMDL
