MODEL 1
REMARK VINA RESULT:    -3.241      0.000      0.000
REMARK INTER + INTRA:          -3.712
REMARK INTER:                  -3.904
REMARK INTRA:                   0.192
REMARK UNBOUND:                 0.192
REMARK SMILES O=c1c(O)c(-c2ccc(O)c(O)c2)oc2cc(O)cc(O)c12
REMARK SMILES IDX 5 1 3 2 2 3 1 4 22 5 20 6 19 7 17 8 16 9 15 10 14 11 6 12
REMARK SMILES IDX 7 13 8 14 9 15 13 16 11 17 10 18 12 20 4 22 21 24 18 26
REMARK H PARENT 10 19 12 21 4 23 21 25 18 27
REMARK Flexibility Score: inf
ROOT
ATOM      1  C   UNL     1       8.234  75.481 227.242  1.00  0.00     0.180 A 
ATOM      2  C   UNL     1       7.143  75.512 228.129  1.00  0.00     0.208 A 
ATOM      3  C   UNL     1       7.347  75.960 229.443  1.00  0.00     0.238 A 
ATOM      4  O   UNL     1       6.378  75.936 230.248  1.00  0.00    -0.285 OA
ATOM      5  C   UNL     1       8.633  76.387 229.852  1.00  0.00     0.111 A 
ATOM      6  C   UNL     1       8.945  76.898 231.147  1.00  0.00     0.134 A 
ATOM      7  C   UNL     1      10.279  77.167 231.481  1.00  0.00     0.093 A 
ATOM      8  C   UNL     1      11.301  77.006 230.548  1.00  0.00     0.123 A 
ATOM      9  C   UNL     1      11.000  76.564 229.259  1.00  0.00     0.094 A 
ATOM     10  C   UNL     1       9.684  76.252 228.906  1.00  0.00     0.146 A 
ATOM     11  O   UNL     1       9.441  75.824 227.674  1.00  0.00    -0.452 OA
ENDROOT
BRANCH   1  12
ATOM     12  C   UNL     1       8.093  75.044 225.835  1.00  0.00     0.025 A 
ATOM     13  C   UNL     1       7.229  73.993 225.478  1.00  0.00     0.016 A 
ATOM     14  C   UNL     1       7.094  73.614 224.140  1.00  0.00     0.051 A 
ATOM     15  C   UNL     1       7.807  74.286 223.139  1.00  0.00     0.157 A 
ATOM     16  C   UNL     1       8.789  75.729 224.825  1.00  0.00     0.062 A 
ATOM     17  C   UNL     1       8.653  75.348 223.482  1.00  0.00     0.158 A 
BRANCH  15  18
ATOM     18  O   UNL     1       7.676  73.910 221.803  1.00  0.00    -0.504 OA
ATOM     19  H   UNL     1       7.362  74.565 221.097  1.00  0.00     0.293 HD
ENDBRANCH  15  18
BRANCH  17  20
ATOM     20  O   UNL     1       9.357  76.020 222.484  1.00  0.00    -0.504 OA
ATOM     21  H   UNL     1       9.148  75.880 221.502  1.00  0.00     0.293 HD
ENDBRANCH  17  20
ENDBRANCH   1  12
BRANCH   2  22
ATOM     22  O   UNL     1       5.886  75.066 227.712  1.00  0.00    -0.502 OA
ATOM     23  H   UNL     1       5.108  74.954 228.352  1.00  0.00     0.293 HD
ENDBRANCH   2  22
BRANCH   6  24
ATOM     24  O   UNL     1       7.987  77.183 232.125  1.00  0.00    -0.507 OA
ATOM     25  H   UNL     1       7.994  76.809 233.061  1.00  0.00     0.293 HD
ENDBRANCH   6  24
BRANCH   8  26
ATOM     26  O   UNL     1      12.615  77.298 230.909  1.00  0.00    -0.508 OA
ATOM     27  H   UNL     1      13.042  76.889 231.732  1.00  0.00     0.293 HD
ENDBRANCH   8  26
TORSDOF 6
ENDMDL
MODEL 2
REMARK VINA RESULT:    -2.275      2.710      6.505
REMARK INTER + INTRA:          -2.549
REMARK INTER:                  -2.945
REMARK INTRA:                   0.396
REMARK UNBOUND:                 0.192
REMARK SMILES O=c1c(O)c(-c2ccc(O)c(O)c2)oc2cc(O)cc(O)c12
REMARK SMILES IDX 5 1 3 2 2 3 1 4 22 5 20 6 19 7 17 8 16 9 15 10 14 11 6 12
REMARK SMILES IDX 7 13 8 14 9 15 13 16 11 17 10 18 12 20 4 22 21 24 18 26
REMARK H PARENT 10 19 12 21 4 23 21 25 18 27
REMARK Flexibility Score: inf
ROOT
ATOM      1  C   UNL     1       8.552  76.083 229.671  1.00  0.00     0.180 A 
ATOM      2  C   UNL     1       8.276  75.878 228.308  1.00  0.00     0.208 A 
ATOM      3  C   UNL     1       7.099  75.203 227.946  1.00  0.00     0.238 A 
ATOM      4  O   UNL     1       6.883  74.976 226.726  1.00  0.00    -0.285 OA
ATOM      5  C   UNL     1       6.205  74.756 228.948  1.00  0.00     0.111 A 
ATOM      6  C   UNL     1       4.965  74.098 228.694  1.00  0.00     0.134 A 
ATOM      7  C   UNL     1       4.224  73.582 229.765  1.00  0.00     0.093 A 
ATOM      8  C   UNL     1       4.645  73.759 231.083  1.00  0.00     0.123 A 
ATOM      9  C   UNL     1       5.826  74.454 231.346  1.00  0.00     0.094 A 
ATOM     10  C   UNL     1       6.606  74.948 230.297  1.00  0.00     0.146 A 
ATOM     11  O   UNL     1       7.728  75.593 230.590  1.00  0.00    -0.452 OA
ENDROOT
BRANCH   1  12
ATOM     12  C   UNL     1       9.759  76.807 230.130  1.00  0.00     0.025 A 
ATOM     13  C   UNL     1      10.316  76.569 231.399  1.00  0.00     0.016 A 
ATOM     14  C   UNL     1      11.471  77.246 231.801  1.00  0.00     0.051 A 
ATOM     15  C   UNL     1      12.091  78.158 230.939  1.00  0.00     0.157 A 
ATOM     16  C   UNL     1      10.398  77.708 229.262  1.00  0.00     0.062 A 
ATOM     17  C   UNL     1      11.556  78.388 229.666  1.00  0.00     0.158 A 
BRANCH  15  18
ATOM     18  O   UNL     1      13.242  78.838 231.338  1.00  0.00    -0.504 OA
ATOM     19  H   UNL     1      13.700  78.631 232.218  1.00  0.00     0.293 HD
ENDBRANCH  15  18
BRANCH  17  20
ATOM     20  O   UNL     1      12.178  79.292 228.807  1.00  0.00    -0.504 OA
ATOM     21  H   UNL     1      11.783  79.523 227.903  1.00  0.00     0.293 HD
ENDBRANCH  17  20
ENDBRANCH   1  12
BRANCH   2  22
ATOM     22  O   UNL     1       9.182  76.309 227.335  1.00  0.00    -0.502 OA
ATOM     23  H   UNL     1       9.815  77.085 227.486  1.00  0.00     0.293 HD
ENDBRANCH   2  22
BRANCH   6  24
ATOM     24  O   UNL     1       4.407  73.948 227.421  1.00  0.00    -0.507 OA
ATOM     25  H   UNL     1       3.444  73.708 227.240  1.00  0.00     0.293 HD
ENDBRANCH   6  24
BRANCH   8  26
ATOM     26  O   UNL     1       3.875  73.247 232.125  1.00  0.00    -0.508 OA
ATOM     27  H   UNL     1       3.531  72.294 232.112  1.00  0.00     0.293 HD
ENDBRANCH   8  26
TORSDOF 6
ENDMDL
MODEL 3
REMARK VINA RESULT:    -1.716     14.498     15.956
REMARK INTER + INTRA:          -1.875
REMARK INTER:                  -2.390
REMARK INTRA:                   0.515
REMARK UNBOUND:                 0.192
REMARK SMILES O=c1c(O)c(-c2ccc(O)c(O)c2)oc2cc(O)cc(O)c12
REMARK SMILES IDX 5 1 3 2 2 3 1 4 22 5 20 6 19 7 17 8 16 9 15 10 14 11 6 12
REMARK SMILES IDX 7 13 8 14 9 15 13 16 11 17 10 18 12 20 4 22 21 24 18 26
REMARK H PARENT 10 19 12 21 4 23 21 25 18 27
REMARK Flexibility Score: inf
ROOT
ATOM      1  C   UNL     1       9.680  77.929 212.895  1.00  0.00     0.180 A 
ATOM      2  C   UNL     1       9.965  76.648 212.391  1.00  0.00     0.208 A 
ATOM      3  C   UNL     1       8.927  75.707 212.299  1.00  0.00     0.238 A 
ATOM      4  O   UNL     1       9.199  74.545 211.897  1.00  0.00    -0.285 OA
ATOM      5  C   UNL     1       7.615  76.062 212.695  1.00  0.00     0.111 A 
ATOM      6  C   UNL     1       6.481  75.201 212.606  1.00  0.00     0.134 A 
ATOM      7  C   UNL     1       5.257  75.613 213.149  1.00  0.00     0.093 A 
ATOM      8  C   UNL     1       5.111  76.878 213.718  1.00  0.00     0.123 A 
ATOM      9  C   UNL     1       6.198  77.751 213.756  1.00  0.00     0.094 A 
ATOM     10  C   UNL     1       7.442  77.355 213.255  1.00  0.00     0.146 A 
ATOM     11  O   UNL     1       8.454  78.211 213.320  1.00  0.00    -0.452 OA
ENDROOT
BRANCH   1  12
ATOM     12  C   UNL     1      10.715  78.982 213.000  1.00  0.00     0.025 A 
ATOM     13  C   UNL     1      10.493  80.155 213.744  1.00  0.00     0.016 A 
ATOM     14  C   UNL     1      11.493  81.124 213.849  1.00  0.00     0.051 A 
ATOM     15  C   UNL     1      12.733  80.932 213.226  1.00  0.00     0.157 A 
ATOM     16  C   UNL     1      11.967  78.785 212.394  1.00  0.00     0.062 A 
ATOM     17  C   UNL     1      12.971  79.758 212.499  1.00  0.00     0.158 A 
BRANCH  15  18
ATOM     18  O   UNL     1      13.733  81.898 213.327  1.00  0.00    -0.504 OA
ATOM     19  H   UNL     1      13.777  82.533 214.115  1.00  0.00     0.293 HD
ENDBRANCH  15  18
BRANCH  17  20
ATOM     20  O   UNL     1      14.207  79.566 211.885  1.00  0.00    -0.504 OA
ATOM     21  H   UNL     1      14.293  79.496 210.878  1.00  0.00     0.293 HD
ENDBRANCH  17  20
ENDBRANCH   1  12
BRANCH   2  22
ATOM     22  O   UNL     1      11.271  76.311 212.026  1.00  0.00    -0.502 OA
ATOM     23  H   UNL     1      12.054  76.399 212.662  1.00  0.00     0.293 HD
ENDBRANCH   2  22
BRANCH   6  24
ATOM     24  O   UNL     1       6.494  73.953 211.976  1.00  0.00    -0.507 OA
ATOM     25  H   UNL     1       5.679  73.381 211.817  1.00  0.00     0.293 HD
ENDBRANCH   6  24
BRANCH   8  26
ATOM     26  O   UNL     1       3.875  77.261 214.235  1.00  0.00    -0.508 OA
ATOM     27  H   UNL     1       3.563  78.224 214.205  1.00  0.00     0.293 HD
ENDBRANCH   8  26
TORSDOF 6
ENDMDL
MODEL 4
REMARK VINA RESULT:    -1.395      1.536      6.532
REMARK INTER + INTRA:          -1.489
REMARK INTER:                  -1.561
REMARK INTRA:                   0.072
REMARK UNBOUND:                 0.192
REMARK SMILES O=c1c(O)c(-c2ccc(O)c(O)c2)oc2cc(O)cc(O)c12
REMARK SMILES IDX 5 1 3 2 2 3 1 4 22 5 20 6 19 7 17 8 16 9 15 10 14 11 6 12
REMARK SMILES IDX 7 13 8 14 9 15 13 16 11 17 10 18 12 20 4 22 21 24 18 26
REMARK H PARENT 10 19 12 21 4 23 21 25 18 27
REMARK Flexibility Score: inf
ROOT
ATOM      1  C   UNL     1       9.243  76.519 229.596  1.00  0.00     0.180 A 
ATOM      2  C   UNL     1       8.049  76.220 230.275  1.00  0.00     0.208 A 
ATOM      3  C   UNL     1       7.059  75.475 229.616  1.00  0.00     0.238 A 
ATOM      4  O   UNL     1       5.971  75.255 230.211  1.00  0.00    -0.285 OA
ATOM      5  C   UNL     1       7.280  75.024 228.293  1.00  0.00     0.111 A 
ATOM      6  C   UNL     1       6.363  74.227 227.544  1.00  0.00     0.134 A 
ATOM      7  C   UNL     1       6.628  73.950 226.197  1.00  0.00     0.093 A 
ATOM      8  C   UNL     1       7.807  74.383 225.591  1.00  0.00     0.123 A 
ATOM      9  C   UNL     1       8.739  75.111 226.331  1.00  0.00     0.094 A 
ATOM     10  C   UNL     1       8.486  75.436 227.666  1.00  0.00     0.146 A 
ATOM     11  O   UNL     1       9.393  76.140 228.332  1.00  0.00    -0.452 OA
ENDROOT
BRANCH   1  12
ATOM     12  C   UNL     1      10.343  77.280 230.232  1.00  0.00     0.025 A 
ATOM     13  C   UNL     1      10.745  77.016 231.553  1.00  0.00     0.016 A 
ATOM     14  C   UNL     1      11.802  77.730 232.125  1.00  0.00     0.051 A 
ATOM     15  C   UNL     1      12.480  78.705 231.382  1.00  0.00     0.157 A 
ATOM     16  C   UNL     1      11.039  78.244 229.485  1.00  0.00     0.062 A 
ATOM     17  C   UNL     1      12.100  78.961 230.059  1.00  0.00     0.158 A 
BRANCH  15  18
ATOM     18  O   UNL     1      13.533  79.420 231.950  1.00  0.00    -0.504 OA
ATOM     19  H   UNL     1      14.464  79.027 232.017  1.00  0.00     0.293 HD
ENDBRANCH  15  18
BRANCH  17  20
ATOM     20  O   UNL     1      12.779  79.927 229.320  1.00  0.00    -0.504 OA
ATOM     21  H   UNL     1      13.777  79.865 229.157  1.00  0.00     0.293 HD
ENDBRANCH  17  20
ENDBRANCH   1  12
BRANCH   2  22
ATOM     22  O   UNL     1       7.843  76.693 231.574  1.00  0.00    -0.502 OA
ATOM     23  H   UNL     1       7.145  77.394 231.793  1.00  0.00     0.293 HD
ENDBRANCH   2  22
BRANCH   6  24
ATOM     24  O   UNL     1       5.199  73.666 228.079  1.00  0.00    -0.507 OA
ATOM     25  H   UNL     1       4.472  74.186 228.545  1.00  0.00     0.293 HD
ENDBRANCH   6  24
BRANCH   8  26
ATOM     26  O   UNL     1       8.046  74.075 224.254  1.00  0.00    -0.508 OA
ATOM     27  H   UNL     1       7.338  73.641 223.674  1.00  0.00     0.293 HD
ENDBRANCH   8  26
TORSDOF 6
ENDMDL
