MODEL 1
REMARK VINA RESULT:    -3.349      0.000      0.000
REMARK INTER + INTRA:          -4.220
REMARK INTER:                  -3.936
REMARK INTRA:                  -0.284
REMARK UNBOUND:                -0.284
REMARK SMILES O=c1cc(-c2ccc(O)c(O)c2)oc2cc(O)cc(O)c12
REMARK SMILES IDX 4 1 3 2 2 3 1 4 21 5 19 6 18 7 16 8 15 9 14 10 13 11 5 12
REMARK SMILES IDX 6 13 7 14 8 15 12 16 10 17 9 18 11 20 20 22 17 24
REMARK H PARENT 9 19 11 21 20 23 17 25
REMARK Flexibility Score: inf
ROOT
ATOM      1  C   UNL     1      -8.774 -22.422  19.702  1.00  0.00     0.138 A 
ATOM      2  C   UNL     1      -7.500 -22.880  19.329  1.00  0.00     0.100 A 
ATOM      3  C   UNL     1      -7.059 -22.692  18.018  1.00  0.00     0.197 A 
ATOM      4  O   UNL     1      -5.915 -23.108  17.693  1.00  0.00    -0.289 OA
ATOM      5  C   UNL     1      -7.899 -22.047  17.088  1.00  0.00     0.107 A 
ATOM      6  C   UNL     1      -7.529 -21.814  15.742  1.00  0.00     0.134 A 
ATOM      7  C   UNL     1      -8.425 -21.170  14.876  1.00  0.00     0.093 A 
ATOM      8  C   UNL     1      -9.680 -20.756  15.329  1.00  0.00     0.123 A 
ATOM      9  C   UNL     1     -10.051 -20.983  16.659  1.00  0.00     0.094 A 
ATOM     10  C   UNL     1      -9.172 -21.623  17.537  1.00  0.00     0.146 A 
ATOM     11  O   UNL     1      -9.547 -21.826  18.796  1.00  0.00    -0.456 OA
ENDROOT
BRANCH   1  12
ATOM     12  C   UNL     1      -9.297 -22.596  21.081  1.00  0.00     0.021 A 
ATOM     13  C   UNL     1     -10.660 -22.835  21.330  1.00  0.00     0.016 A 
ATOM     14  C   UNL     1     -11.122 -23.003  22.636  1.00  0.00     0.051 A 
ATOM     15  C   UNL     1     -10.240 -22.948  23.720  1.00  0.00     0.157 A 
ATOM     16  C   UNL     1      -8.409 -22.553  22.169  1.00  0.00     0.062 A 
ATOM     17  C   UNL     1      -8.864 -22.721  23.483  1.00  0.00     0.158 A 
BRANCH  15  18
ATOM     18  O   UNL     1     -10.768 -23.122  25.000  1.00  0.00    -0.504 OA
ATOM     19  H   UNL     1     -11.743 -23.303  25.189  1.00  0.00     0.293 HD
ENDBRANCH  15  18
BRANCH  17  20
ATOM     20  O   UNL     1      -7.923 -22.656  24.512  1.00  0.00    -0.504 OA
ATOM     21  H   UNL     1      -7.798 -23.375  25.209  1.00  0.00     0.293 HD
ENDBRANCH  17  20
ENDBRANCH   1  12
BRANCH   6  22
ATOM     22  O   UNL     1      -6.283 -22.218  15.261  1.00  0.00    -0.507 OA
ATOM     23  H   UNL     1      -5.478 -21.601  15.280  1.00  0.00     0.293 HD
ENDBRANCH   6  22
BRANCH   8  24
ATOM     24  O   UNL     1     -10.552 -20.119  14.448  1.00  0.00    -0.508 OA
ATOM     25  H   UNL     1     -11.482 -20.480  14.270  1.00  0.00     0.293 HD
ENDBRANCH   8  24
TORSDOF 5
ENDMDL
MODEL 2
REMARK VINA RESULT:    -0.652     13.973     17.618
REMARK INTER + INTRA:          -1.050
REMARK INTER:                  -0.732
REMARK INTRA:                  -0.318
REMARK UNBOUND:                -0.284
REMARK SMILES O=c1cc(-c2ccc(O)c(O)c2)oc2cc(O)cc(O)c12
REMARK SMILES IDX 4 1 3 2 2 3 1 4 21 5 19 6 18 7 16 8 15 9 14 10 13 11 5 12
REMARK SMILES IDX 6 13 7 14 8 15 12 16 10 17 9 18 11 20 20 22 17 24
REMARK H PARENT 9 19 11 21 20 23 17 25
REMARK Flexibility Score: inf
ROOT
ATOM      1  C   UNL     1       6.748 -22.703  12.810  1.00  0.00     0.138 A 
ATOM      2  C   UNL     1       7.584 -22.427  13.903  1.00  0.00     0.100 A 
ATOM      3  C   UNL     1       7.034 -22.342  15.184  1.00  0.00     0.197 A 
ATOM      4  O   UNL     1       7.793 -22.092  16.159  1.00  0.00    -0.289 OA
ATOM      5  C   UNL     1       5.649 -22.531  15.360  1.00  0.00     0.107 A 
ATOM      6  C   UNL     1       5.012 -22.464  16.622  1.00  0.00     0.134 A 
ATOM      7  C   UNL     1       3.626 -22.659  16.712  1.00  0.00     0.093 A 
ATOM      8  C   UNL     1       2.867 -22.919  15.569  1.00  0.00     0.123 A 
ATOM      9  C   UNL     1       3.491 -22.987  14.318  1.00  0.00     0.094 A 
ATOM     10  C   UNL     1       4.871 -22.796  14.208  1.00  0.00     0.146 A 
ATOM     11  O   UNL     1       5.441 -22.867  13.009  1.00  0.00    -0.456 OA
ENDROOT
BRANCH   1  12
ATOM     12  C   UNL     1       7.276 -22.804  11.425  1.00  0.00     0.021 A 
ATOM     13  C   UNL     1       8.657 -22.822  11.161  1.00  0.00     0.016 A 
ATOM     14  C   UNL     1       9.125 -22.927   9.850  1.00  0.00     0.051 A 
ATOM     15  C   UNL     1       8.233 -23.025   8.777  1.00  0.00     0.157 A 
ATOM     16  C   UNL     1       6.381 -22.916  10.349  1.00  0.00     0.062 A 
ATOM     17  C   UNL     1       6.841 -23.021   9.031  1.00  0.00     0.158 A 
BRANCH  15  18
ATOM     18  O   UNL     1       8.767 -23.125   7.492  1.00  0.00    -0.504 OA
ATOM     19  H   UNL     1       9.329 -22.407   7.057  1.00  0.00     0.293 HD
ENDBRANCH  15  18
BRANCH  17  20
ATOM     20  O   UNL     1       5.890 -23.120   8.013  1.00  0.00    -0.504 OA
ATOM     21  H   UNL     1       6.069 -23.537   7.111  1.00  0.00     0.293 HD
ENDBRANCH  17  20
ENDBRANCH   1  12
BRANCH   6  22
ATOM     22  O   UNL     1       5.744 -22.205  17.782  1.00  0.00    -0.507 OA
ATOM     23  H   UNL     1       6.249 -22.937  18.268  1.00  0.00     0.293 HD
ENDBRANCH   6  22
BRANCH   8  24
ATOM     24  O   UNL     1       1.491 -23.108  15.686  1.00  0.00    -0.508 OA
ATOM     25  H   UNL     1       1.006 -23.814  15.146  1.00  0.00     0.293 HD
ENDBRANCH   8  24
TORSDOF 5
ENDMDL
