MODEL 1
REMARK VINA RESULT:    -6.969      0.000      0.000
REMARK INTER + INTRA:          -8.464
REMARK INTER:                  -8.191
REMARK INTRA:                  -0.273
REMARK UNBOUND:                -0.273
REMARK SMILES O=c1c(O)c(-c2ccc(O)cc2)oc2cc(O)cc(O)c12
REMARK SMILES IDX 5 1 3 2 2 3 1 4 21 5 19 6 18 7 16 8 15 9 14 10 13 11 6 12
REMARK SMILES IDX 7 13 8 14 9 15 12 16 11 17 10 18 4 20 20 22 17 24
REMARK H PARENT 10 19 4 21 20 23 17 25
REMARK Flexibility Score: inf
ROOT
ATOM      1  C   UNL     1      44.983   9.166  20.776  1.00  0.00     0.180 A 
ATOM      2  C   UNL     1      44.026   9.748  19.926  1.00  0.00     0.208 A 
ATOM      3  C   UNL     1      43.989   9.362  18.577  1.00  0.00     0.238 A 
ATOM      4  O   UNL     1      43.180   9.942  17.807  1.00  0.00    -0.285 OA
ATOM      5  C   UNL     1      44.869   8.359  18.106  1.00  0.00     0.111 A 
ATOM      6  C   UNL     1      44.889   7.857  16.768  1.00  0.00     0.134 A 
ATOM      7  C   UNL     1      45.876   6.939  16.390  1.00  0.00     0.093 A 
ATOM      8  C   UNL     1      46.804   6.456  17.315  1.00  0.00     0.123 A 
ATOM      9  C   UNL     1      46.758   6.897  18.634  1.00  0.00     0.094 A 
ATOM     10  C   UNL     1      45.810   7.842  19.034  1.00  0.00     0.146 A 
ATOM     11  O   UNL     1      45.818   8.250  20.297  1.00  0.00    -0.452 OA
ENDROOT
BRANCH   1  12
ATOM     12  C   UNL     1      45.095   9.531  22.206  1.00  0.00     0.021 A 
ATOM     13  C   UNL     1      44.247   8.919  23.144  1.00  0.00     0.016 A 
ATOM     14  C   UNL     1      44.351   9.232  24.503  1.00  0.00     0.047 A 
ATOM     15  C   UNL     1      45.311  10.147  24.943  1.00  0.00     0.115 A 
ATOM     16  C   UNL     1      46.074  10.436  22.658  1.00  0.00     0.016 A 
ATOM     17  C   UNL     1      46.175  10.746  24.018  1.00  0.00     0.047 A 
BRANCH  15  18
ATOM     18  O   UNL     1      45.403  10.450  26.299  1.00  0.00    -0.508 OA
ATOM     19  H   UNL     1      46.299  10.561  26.758  1.00  0.00     0.293 HD
ENDBRANCH  15  18
ENDBRANCH   1  12
BRANCH   2  20
ATOM     20  O   UNL     1      43.116  10.682  20.429  1.00  0.00    -0.502 OA
ATOM     21  H   UNL     1      42.926  10.778  21.419  1.00  0.00     0.293 HD
ENDBRANCH   2  20
BRANCH   6  22
ATOM     22  O   UNL     1      43.954   8.205  15.788  1.00  0.00    -0.507 OA
ATOM     23  H   UNL     1      43.159   8.807  15.935  1.00  0.00     0.293 HD
ENDBRANCH   6  22
BRANCH   8  24
ATOM     24  O   UNL     1      47.771   5.529  16.933  1.00  0.00    -0.508 OA
ATOM     25  H   UNL     1      47.517   4.627  16.545  1.00  0.00     0.293 HD
ENDBRANCH   8  24
TORSDOF 5
ENDMDL
MODEL 2
REMARK VINA RESULT:    -6.668      1.729      2.086
REMARK INTER + INTRA:          -8.110
REMARK INTER:                  -7.990
REMARK INTRA:                  -0.120
REMARK UNBOUND:                -0.273
REMARK SMILES O=c1c(O)c(-c2ccc(O)cc2)oc2cc(O)cc(O)c12
REMARK SMILES IDX 5 1 3 2 2 3 1 4 21 5 19 6 18 7 16 8 15 9 14 10 13 11 6 12
REMARK SMILES IDX 7 13 8 14 9 15 12 16 11 17 10 18 4 20 20 22 17 24
REMARK H PARENT 10 19 4 21 20 23 17 25
REMARK Flexibility Score: inf
ROOT
ATOM      1  C   UNL     1      45.936   8.382  19.453  1.00  0.00     0.180 A 
ATOM      2  C   UNL     1      45.598   9.443  18.595  1.00  0.00     0.208 A 
ATOM      3  C   UNL     1      45.798   9.291  17.214  1.00  0.00     0.238 A 
ATOM      4  O   UNL     1      45.564  10.271  16.459  1.00  0.00    -0.285 OA
ATOM      5  C   UNL     1      46.280   8.063  16.701  1.00  0.00     0.111 A 
ATOM      6  C   UNL     1      46.479   7.782  15.315  1.00  0.00     0.134 A 
ATOM      7  C   UNL     1      47.062   6.567  14.933  1.00  0.00     0.093 A 
ATOM      8  C   UNL     1      47.394   5.597  15.882  1.00  0.00     0.123 A 
ATOM      9  C   UNL     1      47.154   5.840  17.231  1.00  0.00     0.094 A 
ATOM     10  C   UNL     1      46.610   7.057  17.647  1.00  0.00     0.146 A 
ATOM     11  O   UNL     1      46.418   7.254  18.946  1.00  0.00    -0.452 OA
ENDROOT
BRANCH   1  12
ATOM     12  C   UNL     1      45.768   8.471  20.921  1.00  0.00     0.021 A 
ATOM     13  C   UNL     1      44.477   8.582  21.463  1.00  0.00     0.016 A 
ATOM     14  C   UNL     1      44.293   8.644  22.848  1.00  0.00     0.047 A 
ATOM     15  C   UNL     1      45.393   8.581  23.708  1.00  0.00     0.115 A 
ATOM     16  C   UNL     1      46.870   8.387  21.793  1.00  0.00     0.016 A 
ATOM     17  C   UNL     1      46.683   8.449  23.177  1.00  0.00     0.047 A 
BRANCH  15  18
ATOM     18  O   UNL     1      45.196   8.646  25.085  1.00  0.00    -0.508 OA
ATOM     19  H   UNL     1      44.803   7.867  25.601  1.00  0.00     0.293 HD
ENDBRANCH  15  18
ENDBRANCH   1  12
BRANCH   2  20
ATOM     20  O   UNL     1      45.052  10.620  19.113  1.00  0.00    -0.502 OA
ATOM     21  H   UNL     1      44.409  11.199  18.586  1.00  0.00     0.293 HD
ENDBRANCH   2  20
BRANCH   6  22
ATOM     22  O   UNL     1      46.101   8.643  14.279  1.00  0.00    -0.507 OA
ATOM     23  H   UNL     1      45.836   8.350  13.352  1.00  0.00     0.293 HD
ENDBRANCH   6  22
BRANCH   8  24
ATOM     24  O   UNL     1      47.958   4.385  15.491  1.00  0.00    -0.508 OA
ATOM     25  H   UNL     1      48.567   3.860  16.109  1.00  0.00     0.293 HD
ENDBRANCH   8  24
TORSDOF 5
ENDMDL
MODEL 3
REMARK VINA RESULT:    -6.572      1.798      3.368
REMARK INTER + INTRA:          -7.998
REMARK INTER:                  -7.753
REMARK INTRA:                  -0.245
REMARK UNBOUND:                -0.273
REMARK SMILES O=c1c(O)c(-c2ccc(O)cc2)oc2cc(O)cc(O)c12
REMARK SMILES IDX 5 1 3 2 2 3 1 4 21 5 19 6 18 7 16 8 15 9 14 10 13 11 6 12
REMARK SMILES IDX 7 13 8 14 9 15 12 16 11 17 10 18 4 20 20 22 17 24
REMARK H PARENT 10 19 4 21 20 23 17 25
REMARK Flexibility Score: inf
ROOT
ATOM      1  C   UNL     1      46.001   8.249  19.989  1.00  0.00     0.180 A 
ATOM      2  C   UNL     1      46.492   7.005  19.555  1.00  0.00     0.208 A 
ATOM      3  C   UNL     1      46.722   6.805  18.185  1.00  0.00     0.238 A 
ATOM      4  O   UNL     1      47.090   5.666  17.797  1.00  0.00    -0.285 OA
ATOM      5  C   UNL     1      46.513   7.866  17.272  1.00  0.00     0.111 A 
ATOM      6  C   UNL     1      46.757   7.789  15.866  1.00  0.00     0.134 A 
ATOM      7  C   UNL     1      46.412   8.870  15.045  1.00  0.00     0.093 A 
ATOM      8  C   UNL     1      45.893  10.048  15.585  1.00  0.00     0.123 A 
ATOM      9  C   UNL     1      45.703  10.153  16.960  1.00  0.00     0.094 A 
ATOM     10  C   UNL     1      46.000   9.079  17.802  1.00  0.00     0.146 A 
ATOM     11  O   UNL     1      45.783   9.215  19.104  1.00  0.00    -0.452 OA
ENDROOT
BRANCH   1  12
ATOM     12  C   UNL     1      45.720   8.533  21.414  1.00  0.00     0.021 A 
ATOM     13  C   UNL     1      46.782   8.833  22.282  1.00  0.00     0.016 A 
ATOM     14  C   UNL     1      46.538   9.127  23.627  1.00  0.00     0.047 A 
ATOM     15  C   UNL     1      45.229   9.139  24.118  1.00  0.00     0.115 A 
ATOM     16  C   UNL     1      44.402   8.567  21.910  1.00  0.00     0.016 A 
ATOM     17  C   UNL     1      44.161   8.862  23.255  1.00  0.00     0.047 A 
BRANCH  15  18
ATOM     18  O   UNL     1      45.000   9.432  25.460  1.00  0.00    -0.508 OA
ATOM     19  H   UNL     1      45.736   9.788  26.058  1.00  0.00     0.293 HD
ENDBRANCH  15  18
ENDBRANCH   1  12
BRANCH   2  20
ATOM     20  O   UNL     1      46.765   5.996  20.482  1.00  0.00    -0.502 OA
ATOM     21  H   UNL     1      46.963   5.042  20.204  1.00  0.00     0.293 HD
ENDBRANCH   2  20
BRANCH   6  22
ATOM     22  O   UNL     1      47.354   6.693  15.234  1.00  0.00    -0.507 OA
ATOM     23  H   UNL     1      48.324   6.434  15.323  1.00  0.00     0.293 HD
ENDBRANCH   6  22
BRANCH   8  24
ATOM     24  O   UNL     1      45.569  11.125  14.763  1.00  0.00    -0.508 OA
ATOM     25  H   UNL     1      46.227  11.877  14.592  1.00  0.00     0.293 HD
ENDBRANCH   8  24
TORSDOF 5
ENDMDL
MODEL 4
REMARK VINA RESULT:    -6.015      1.617      6.695
REMARK INTER + INTRA:          -7.343
REMARK INTER:                  -7.802
REMARK INTRA:                   0.458
REMARK UNBOUND:                -0.273
REMARK SMILES O=c1c(O)c(-c2ccc(O)cc2)oc2cc(O)cc(O)c12
REMARK SMILES IDX 5 1 3 2 2 3 1 4 21 5 19 6 18 7 16 8 15 9 14 10 13 11 6 12
REMARK SMILES IDX 7 13 8 14 9 15 12 16 11 17 10 18 4 20 20 22 17 24
REMARK H PARENT 10 19 4 21 20 23 17 25
REMARK Flexibility Score: inf
ROOT
ATOM      1  C   UNL     1      45.624   7.789  17.849  1.00  0.00     0.180 A 
ATOM      2  C   UNL     1      44.504   8.596  17.584  1.00  0.00     0.208 A 
ATOM      3  C   UNL     1      43.927   9.326  18.635  1.00  0.00     0.238 A 
ATOM      4  O   UNL     1      42.881   9.987  18.406  1.00  0.00    -0.285 OA
ATOM      5  C   UNL     1      44.509   9.286  19.924  1.00  0.00     0.111 A 
ATOM      6  C   UNL     1      44.035  10.021  21.054  1.00  0.00     0.134 A 
ATOM      7  C   UNL     1      44.627   9.820  22.307  1.00  0.00     0.093 A 
ATOM      8  C   UNL     1      45.717   8.959  22.459  1.00  0.00     0.123 A 
ATOM      9  C   UNL     1      46.221   8.280  21.354  1.00  0.00     0.094 A 
ATOM     10  C   UNL     1      45.628   8.429  20.098  1.00  0.00     0.146 A 
ATOM     11  O   UNL     1      46.128   7.745  19.077  1.00  0.00    -0.452 OA
ENDROOT
BRANCH   1  12
ATOM     12  C   UNL     1      46.279   6.978  16.797  1.00  0.00     0.021 A 
ATOM     13  C   UNL     1      47.154   5.944  17.167  1.00  0.00     0.016 A 
ATOM     14  C   UNL     1      47.766   5.151  16.191  1.00  0.00     0.047 A 
ATOM     15  C   UNL     1      47.500   5.372  14.836  1.00  0.00     0.115 A 
ATOM     16  C   UNL     1      45.999   7.182  15.432  1.00  0.00     0.016 A 
ATOM     17  C   UNL     1      46.612   6.387  14.459  1.00  0.00     0.047 A 
BRANCH  15  18
ATOM     18  O   UNL     1      48.117   4.575  13.875  1.00  0.00    -0.508 OA
ATOM     19  H   UNL     1      47.628   4.278  13.040  1.00  0.00     0.293 HD
ENDBRANCH  15  18
ENDBRANCH   1  12
BRANCH   2  20
ATOM     20  O   UNL     1      43.990   8.682  16.287  1.00  0.00    -0.502 OA
ATOM     21  H   UNL     1      44.308   8.080  15.536  1.00  0.00     0.293 HD
ENDBRANCH   2  20
BRANCH   6  22
ATOM     22  O   UNL     1      43.012  10.972  20.995  1.00  0.00    -0.507 OA
ATOM     23  H   UNL     1      42.957  11.799  21.570  1.00  0.00     0.293 HD
ENDBRANCH   6  22
BRANCH   8  24
ATOM     24  O   UNL     1      46.311   8.779  23.707  1.00  0.00    -0.508 OA
ATOM     25  H   UNL     1      46.935   8.001  23.889  1.00  0.00     0.293 HD
ENDBRANCH   8  24
TORSDOF 5
ENDMDL
MODEL 5
REMARK VINA RESULT:    -5.725      1.318      3.193
REMARK INTER + INTRA:          -7.002
REMARK INTER:                  -6.718
REMARK INTRA:                  -0.284
REMARK UNBOUND:                -0.273
REMARK SMILES O=c1c(O)c(-c2ccc(O)cc2)oc2cc(O)cc(O)c12
REMARK SMILES IDX 5 1 3 2 2 3 1 4 21 5 19 6 18 7 16 8 15 9 14 10 13 11 6 12
REMARK SMILES IDX 7 13 8 14 9 15 12 16 11 17 10 18 4 20 20 22 17 24
REMARK H PARENT 10 19 4 21 20 23 17 25
REMARK Flexibility Score: inf
ROOT
ATOM      1  C   UNL     1      45.633   8.908  21.542  1.00  0.00     0.180 A 
ATOM      2  C   UNL     1      46.406   7.795  21.165  1.00  0.00     0.208 A 
ATOM      3  C   UNL     1      46.332   7.332  19.842  1.00  0.00     0.238 A 
ATOM      4  O   UNL     1      46.968   6.292  19.531  1.00  0.00    -0.285 OA
ATOM      5  C   UNL     1      45.531   8.019  18.898  1.00  0.00     0.111 A 
ATOM      6  C   UNL     1      45.416   7.665  17.519  1.00  0.00     0.134 A 
ATOM      7  C   UNL     1      44.510   8.354  16.702  1.00  0.00     0.093 A 
ATOM      8  C   UNL     1      43.763   9.424  17.198  1.00  0.00     0.123 A 
ATOM      9  C   UNL     1      43.908   9.812  18.527  1.00  0.00     0.094 A 
ATOM     10  C   UNL     1      44.774   9.121  19.377  1.00  0.00     0.146 A 
ATOM     11  O   UNL     1      44.865   9.511  20.642  1.00  0.00    -0.452 OA
ENDROOT
BRANCH   1  12
ATOM     12  C   UNL     1      45.646   9.446  22.921  1.00  0.00     0.021 A 
ATOM     13  C   UNL     1      46.414  10.585  23.211  1.00  0.00     0.016 A 
ATOM     14  C   UNL     1      46.423  11.125  24.501  1.00  0.00     0.047 A 
ATOM     15  C   UNL     1      45.653  10.542  25.513  1.00  0.00     0.115 A 
ATOM     16  C   UNL     1      44.857   8.877  23.939  1.00  0.00     0.016 A 
ATOM     17  C   UNL     1      44.867   9.419  25.228  1.00  0.00     0.047 A 
BRANCH  15  18
ATOM     18  O   UNL     1      45.672  11.089  26.793  1.00  0.00    -0.508 OA
ATOM     19  H   UNL     1      45.671  12.091  26.942  1.00  0.00     0.293 HD
ENDBRANCH  15  18
ENDBRANCH   1  12
BRANCH   2  20
ATOM     20  O   UNL     1      47.248   7.178  22.093  1.00  0.00    -0.502 OA
ATOM     21  H   UNL     1      47.033   7.139  23.082  1.00  0.00     0.293 HD
ENDBRANCH   2  20
BRANCH   6  22
ATOM     22  O   UNL     1      46.180   6.671  16.899  1.00  0.00    -0.507 OA
ATOM     23  H   UNL     1      45.892   5.713  16.776  1.00  0.00     0.293 HD
ENDBRANCH   6  22
BRANCH   8  24
ATOM     24  O   UNL     1      42.877  10.115  16.373  1.00  0.00    -0.508 OA
ATOM     25  H   UNL     1      41.904  10.239  16.628  1.00  0.00     0.293 HD
ENDBRANCH   8  24
TORSDOF 5
ENDMDL
MODEL 6
REMARK VINA RESULT:    -5.474      1.890      7.064
REMARK INTER + INTRA:          -6.707
REMARK INTER:                  -6.419
REMARK INTRA:                  -0.289
REMARK UNBOUND:                -0.273
REMARK SMILES O=c1c(O)c(-c2ccc(O)cc2)oc2cc(O)cc(O)c12
REMARK SMILES IDX 5 1 3 2 2 3 1 4 21 5 19 6 18 7 16 8 15 9 14 10 13 11 6 12
REMARK SMILES IDX 7 13 8 14 9 15 12 16 11 17 10 18 4 20 20 22 17 24
REMARK H PARENT 10 19 4 21 20 23 17 25
REMARK Flexibility Score: inf
ROOT
ATOM      1  C   UNL     1      45.482   8.528  19.557  1.00  0.00     0.180 A 
ATOM      2  C   UNL     1      46.379   7.724  20.282  1.00  0.00     0.208 A 
ATOM      3  C   UNL     1      46.330   7.744  21.685  1.00  0.00     0.238 A 
ATOM      4  O   UNL     1      47.185   7.079  22.327  1.00  0.00    -0.285 OA
ATOM      5  C   UNL     1      45.351   8.523  22.346  1.00  0.00     0.111 A 
ATOM      6  C   UNL     1      45.181   8.585  23.763  1.00  0.00     0.134 A 
ATOM      7  C   UNL     1      44.246   9.474  24.308  1.00  0.00     0.093 A 
ATOM      8  C   UNL     1      43.431  10.256  23.487  1.00  0.00     0.123 A 
ATOM      9  C   UNL     1      43.552  10.164  22.103  1.00  0.00     0.094 A 
ATOM     10  C   UNL     1      44.501   9.315  21.529  1.00  0.00     0.146 A 
ATOM     11  O   UNL     1      44.596   9.275  20.206  1.00  0.00    -0.452 OA
ENDROOT
BRANCH   1  12
ATOM     12  C   UNL     1      45.481   8.573  18.077  1.00  0.00     0.021 A 
ATOM     13  C   UNL     1      46.294   9.506  17.413  1.00  0.00     0.016 A 
ATOM     14  C   UNL     1      46.326   9.550  16.016  1.00  0.00     0.047 A 
ATOM     15  C   UNL     1      45.559   8.654  15.266  1.00  0.00     0.115 A 
ATOM     16  C   UNL     1      44.727   7.659  17.316  1.00  0.00     0.016 A 
ATOM     17  C   UNL     1      44.762   7.706  15.919  1.00  0.00     0.047 A 
BRANCH  15  18
ATOM     18  O   UNL     1      45.600   8.710  13.875  1.00  0.00    -0.508 OA
ATOM     19  H   UNL     1      46.274   9.289  13.387  1.00  0.00     0.293 HD
ENDBRANCH  15  18
ENDBRANCH   1  12
BRANCH   2  20
ATOM     20  O   UNL     1      47.288   6.903  19.609  1.00  0.00    -0.502 OA
ATOM     21  H   UNL     1      47.031   5.995  19.240  1.00  0.00     0.293 HD
ENDBRANCH   2  20
BRANCH   6  22
ATOM     22  O   UNL     1      45.879   7.782  24.670  1.00  0.00    -0.507 OA
ATOM     23  H   UNL     1      46.079   6.803  24.541  1.00  0.00     0.293 HD
ENDBRANCH   6  22
BRANCH   8  24
ATOM     24  O   UNL     1      42.492  11.125  24.038  1.00  0.00    -0.508 OA
ATOM     25  H   UNL     1      41.502  11.030  23.840  1.00  0.00     0.293 HD
ENDBRANCH   8  24
TORSDOF 5
ENDMDL
MODEL 7
REMARK VINA RESULT:    -5.126      1.914      7.168
REMARK INTER + INTRA:          -6.298
REMARK INTER:                  -6.041
REMARK INTRA:                  -0.257
REMARK UNBOUND:                -0.273
REMARK SMILES O=c1c(O)c(-c2ccc(O)cc2)oc2cc(O)cc(O)c12
REMARK SMILES IDX 5 1 3 2 2 3 1 4 21 5 19 6 18 7 16 8 15 9 14 10 13 11 6 12
REMARK SMILES IDX 7 13 8 14 9 15 12 16 11 17 10 18 4 20 20 22 17 24
REMARK H PARENT 10 19 4 21 20 23 17 25
REMARK Flexibility Score: inf
ROOT
ATOM      1  C   UNL     1      45.616   8.705  21.637  1.00  0.00     0.180 A 
ATOM      2  C   UNL     1      46.583   9.142  22.559  1.00  0.00     0.208 A 
ATOM      3  C   UNL     1      46.169   9.555  23.835  1.00  0.00     0.238 A 
ATOM      4  O   UNL     1      47.032  10.015  24.628  1.00  0.00    -0.285 OA
ATOM      5  C   UNL     1      44.803   9.475  24.194  1.00  0.00     0.111 A 
ATOM      6  C   UNL     1      44.277   9.825  25.475  1.00  0.00     0.134 A 
ATOM      7  C   UNL     1      42.892   9.805  25.682  1.00  0.00     0.093 A 
ATOM      8  C   UNL     1      42.018   9.387  24.675  1.00  0.00     0.123 A 
ATOM      9  C   UNL     1      42.525   8.992  23.441  1.00  0.00     0.094 A 
ATOM     10  C   UNL     1      43.899   9.037  23.190  1.00  0.00     0.146 A 
ATOM     11  O   UNL     1      44.337   8.671  21.992  1.00  0.00    -0.452 OA
ENDROOT
BRANCH   1  12
ATOM     12  C   UNL     1      45.972   8.267  20.268  1.00  0.00     0.021 A 
ATOM     13  C   UNL     1      45.825   9.162  19.196  1.00  0.00     0.016 A 
ATOM     14  C   UNL     1      46.176   8.778  17.899  1.00  0.00     0.047 A 
ATOM     15  C   UNL     1      46.692   7.500  17.659  1.00  0.00     0.115 A 
ATOM     16  C   UNL     1      46.511   6.989  20.023  1.00  0.00     0.016 A 
ATOM     17  C   UNL     1      46.862   6.608  18.725  1.00  0.00     0.047 A 
BRANCH  15  18
ATOM     18  O   UNL     1      47.037   7.130  16.361  1.00  0.00    -0.508 OA
ATOM     19  H   UNL     1      47.289   6.177  16.131  1.00  0.00     0.293 HD
ENDBRANCH  15  18
ENDBRANCH   1  12
BRANCH   2  20
ATOM     20  O   UNL     1      47.936   9.142  22.211  1.00  0.00    -0.502 OA
ATOM     21  H   UNL     1      48.670   8.942  22.880  1.00  0.00     0.293 HD
ENDBRANCH   2  20
BRANCH   6  22
ATOM     22  O   UNL     1      45.065  10.171  26.577  1.00  0.00    -0.507 OA
ATOM     23  H   UNL     1      45.885  10.756  26.540  1.00  0.00     0.293 HD
ENDBRANCH   6  22
BRANCH   8  24
ATOM     24  O   UNL     1      40.643   9.355  24.896  1.00  0.00    -0.508 OA
ATOM     25  H   UNL     1      39.984   9.341  24.126  1.00  0.00     0.293 HD
ENDBRANCH   8  24
TORSDOF 5
ENDMDL
