MODEL 1
REMARK VINA RESULT:    -4.221      0.000      0.000
REMARK INTER + INTRA:          -8.158
REMARK INTER:                  -7.182
REMARK INTRA:                  -0.977
REMARK UNBOUND:                -0.977
REMARK SMILES CCCCCCCCCCCCCC(=O)[O-]
REMARK SMILES IDX 8 1 9 2 10 3 11 4 12 5 13 6 14 7 15 8 16 9 7 10 6 11 5 12
REMARK SMILES IDX 4 13 3 14 2 15 1 16
REMARK H PARENT
REMARK Flexibility Score: inf
ROOT
ATOM      1  C   UNL     1      25.642  11.520  21.638  1.00  0.00     0.000 C 
ENDROOT
BRANCH   1   2
ATOM      2  C   UNL     1      24.778  11.594  20.365  1.00  0.00     0.000 C 
BRANCH   2   3
ATOM      3  C   UNL     1      23.270  11.519  20.656  1.00  0.00     0.000 C 
BRANCH   3   4
ATOM      4  C   UNL     1      22.857  10.207  21.347  1.00  0.00     0.000 C 
BRANCH   4   5
ATOM      5  C   UNL     1      22.027  10.372  22.636  1.00  0.00     0.006 C 
BRANCH   5   6
ATOM      6  C   UNL     1      22.860  10.565  23.913  1.00  0.00     0.053 C 
BRANCH   6   7
ATOM      7  C   UNL     1      22.772  11.967  24.431  1.00  0.00     0.041 C 
ATOM      8  O   UNL     1      22.121  12.839  23.796  1.00  0.00    -0.550 OA
ATOM      9  O   UNL     1      23.384  12.305  25.631  1.00  0.00    -0.550 OA
ENDBRANCH   6   7
ENDBRANCH   5   6
ENDBRANCH   4   5
ENDBRANCH   3   4
ENDBRANCH   2   3
ENDBRANCH   1   2
BRANCH   1  10
ATOM     10  C   UNL     1      26.871  10.596  21.548  1.00  0.00     0.000 C 
BRANCH  10  11
ATOM     11  C   UNL     1      27.943  10.922  22.601  1.00  0.00    -0.000 C 
BRANCH  11  12
ATOM     12  C   UNL     1      29.332  10.376  22.228  1.00  0.00    -0.000 C 
BRANCH  12  13
ATOM     13  C   UNL     1      29.334   9.263  21.162  1.00  0.00    -0.000 C 
BRANCH  13  14
ATOM     14  C   UNL     1      30.247   9.558  19.953  1.00  0.00    -0.000 C 
BRANCH  14  15
ATOM     15  C   UNL     1      29.750   8.876  18.669  1.00  0.00    -0.003 C 
ATOM     16  C   UNL     1      28.526   9.591  18.104  1.00  0.00     0.004 C 
ENDBRANCH  14  15
ENDBRANCH  13  14
ENDBRANCH  12  13
ENDBRANCH  11  12
ENDBRANCH  10  11
ENDBRANCH   1  10
TORSDOF 12
ENDMDL
MODEL 2
REMARK VINA RESULT:    -4.138     16.071     17.882
REMARK INTER + INTRA:          -8.018
REMARK INTER:                  -6.642
REMARK INTRA:                  -1.376
REMARK UNBOUND:                -0.977
REMARK SMILES CCCCCCCCCCCCCC(=O)[O-]
REMARK SMILES IDX 8 1 9 2 10 3 11 4 12 5 13 6 14 7 15 8 16 9 7 10 6 11 5 12
REMARK SMILES IDX 4 13 3 14 2 15 1 16
REMARK H PARENT
REMARK Flexibility Score: inf
ROOT
ATOM      1  C   UNL     1      25.555  25.610  23.560  1.00  0.00     0.000 C 
ENDROOT
BRANCH   1   2
ATOM      2  C   UNL     1      26.270  26.617  22.641  1.00  0.00     0.000 C 
BRANCH   2   3
ATOM      3  C   UNL     1      27.201  27.573  23.406  1.00  0.00     0.000 C 
BRANCH   3   4
ATOM      4  C   UNL     1      28.655  27.526  22.901  1.00  0.00     0.000 C 
BRANCH   4   5
ATOM      5  C   UNL     1      29.649  28.423  23.667  1.00  0.00     0.006 C 
BRANCH   5   6
ATOM      6  C   UNL     1      29.058  29.125  24.900  1.00  0.00     0.053 C 
BRANCH   6   7
ATOM      7  C   UNL     1      29.854  28.845  26.138  1.00  0.00     0.041 C 
ATOM      8  O   UNL     1      31.052  28.467  26.050  1.00  0.00    -0.550 OA
ATOM      9  O   UNL     1      29.282  29.032  27.390  1.00  0.00    -0.550 OA
ENDBRANCH   6   7
ENDBRANCH   5   6
ENDBRANCH   4   5
ENDBRANCH   3   4
ENDBRANCH   2   3
ENDBRANCH   1   2
BRANCH   1  10
ATOM     10  C   UNL     1      25.146  26.153  24.942  1.00  0.00     0.000 C 
BRANCH  10  11
ATOM     11  C   UNL     1      23.623  26.292  25.104  1.00  0.00    -0.000 C 
BRANCH  11  12
ATOM     12  C   UNL     1      23.082  27.618  24.544  1.00  0.00    -0.000 C 
BRANCH  12  13
ATOM     13  C   UNL     1      22.058  27.477  23.401  1.00  0.00    -0.000 C 
BRANCH  13  14
ATOM     14  C   UNL     1      22.636  27.786  22.003  1.00  0.00    -0.000 C 
BRANCH  14  15
ATOM     15  C   UNL     1      22.842  26.514  21.165  1.00  0.00    -0.003 C 
ATOM     16  C   UNL     1      22.113  25.325  21.782  1.00  0.00     0.004 C 
ENDBRANCH  14  15
ENDBRANCH  13  14
ENDBRANCH  12  13
ENDBRANCH  11  12
ENDBRANCH  10  11
ENDBRANCH   1  10
TORSDOF 12
ENDMDL
MODEL 3
REMARK VINA RESULT:    -4.020      3.129      6.298
REMARK INTER + INTRA:          -7.818
REMARK INTER:                  -5.734
REMARK INTRA:                  -2.083
REMARK UNBOUND:                -0.977
REMARK SMILES CCCCCCCCCCCCCC(=O)[O-]
REMARK SMILES IDX 8 1 9 2 10 3 11 4 12 5 13 6 14 7 15 8 16 9 7 10 6 11 5 12
REMARK SMILES IDX 4 13 3 14 2 15 1 16
REMARK H PARENT
REMARK Flexibility Score: inf
ROOT
ATOM      1  C   UNL     1      23.278  11.951  20.007  1.00  0.00     0.000 C 
ENDROOT
BRANCH   1   2
ATOM      2  C   UNL     1      24.678  12.564  20.199  1.00  0.00     0.000 C 
BRANCH   2   3
ATOM      3  C   UNL     1      25.710  11.553  20.727  1.00  0.00     0.000 C 
BRANCH   3   4
ATOM      4  C   UNL     1      26.494  12.076  21.944  1.00  0.00     0.000 C 
BRANCH   4   5
ATOM      5  C   UNL     1      26.950  10.999  22.949  1.00  0.00     0.006 C 
BRANCH   5   6
ATOM      6  C   UNL     1      27.485   9.709  22.307  1.00  0.00     0.053 C 
BRANCH   6   7
ATOM      7  C   UNL     1      28.866   9.890  21.757  1.00  0.00     0.041 C 
ATOM      8  O   UNL     1      29.248   9.214  20.766  1.00  0.00    -0.550 OA
ATOM      9  O   UNL     1      29.722  10.828  22.320  1.00  0.00    -0.550 OA
ENDBRANCH   6   7
ENDBRANCH   5   6
ENDBRANCH   4   5
ENDBRANCH   3   4
ENDBRANCH   2   3
ENDBRANCH   1   2
BRANCH   1  10
ATOM     10  C   UNL     1      23.002  10.671  20.818  1.00  0.00     0.000 C 
BRANCH  10  11
ATOM     11  C   UNL     1      22.294  10.950  22.154  1.00  0.00    -0.000 C 
BRANCH  11  12
ATOM     12  C   UNL     1      23.222  10.784  23.368  1.00  0.00    -0.000 C 
BRANCH  12  13
ATOM     13  C   UNL     1      23.494  12.073  24.168  1.00  0.00    -0.000 C 
BRANCH  13  14
ATOM     14  C   UNL     1      23.052  13.362  23.442  1.00  0.00    -0.000 C 
BRANCH  14  15
ATOM     15  C   UNL     1      24.102  14.479  23.552  1.00  0.00    -0.003 C 
ATOM     16  C   UNL     1      25.140  14.156  24.622  1.00  0.00     0.004 C 
ENDBRANCH  14  15
ENDBRANCH  13  14
ENDBRANCH  12  13
ENDBRANCH  11  12
ENDBRANCH  10  11
ENDBRANCH   1  10
TORSDOF 12
ENDMDL
MODEL 4
REMARK VINA RESULT:    -3.931      1.550      3.052
REMARK INTER + INTRA:          -7.665
REMARK INTER:                  -6.143
REMARK INTRA:                  -1.523
REMARK UNBOUND:                -0.977
REMARK SMILES CCCCCCCCCCCCCC(=O)[O-]
REMARK SMILES IDX 8 1 9 2 10 3 11 4 12 5 13 6 14 7 15 8 16 9 7 10 6 11 5 12
REMARK SMILES IDX 4 13 3 14 2 15 1 16
REMARK H PARENT
REMARK Flexibility Score: inf
ROOT
ATOM      1  C   UNL     1      23.111  12.046  20.440  1.00  0.00     0.000 C 
ENDROOT
BRANCH   1   2
ATOM      2  C   UNL     1      23.014  10.601  20.964  1.00  0.00     0.000 C 
BRANCH   2   3
ATOM      3  C   UNL     1      22.286  10.499  22.314  1.00  0.00     0.000 C 
BRANCH   3   4
ATOM      4  C   UNL     1      23.226  10.691  23.518  1.00  0.00     0.000 C 
BRANCH   4   5
ATOM      5  C   UNL     1      23.319  12.132  24.060  1.00  0.00     0.006 C 
BRANCH   5   6
ATOM      6  C   UNL     1      24.276  12.308  25.249  1.00  0.00     0.053 C 
BRANCH   6   7
ATOM      7  C   UNL     1      25.256  13.417  25.019  1.00  0.00     0.041 C 
ATOM      8  O   UNL     1      26.447  13.303  25.412  1.00  0.00    -0.550 OA
ATOM      9  O   UNL     1      24.862  14.564  24.341  1.00  0.00    -0.550 OA
ENDBRANCH   6   7
ENDBRANCH   5   6
ENDBRANCH   4   5
ENDBRANCH   3   4
ENDBRANCH   2   3
ENDBRANCH   1   2
BRANCH   1  10
ATOM     10  C   UNL     1      24.531  12.523  20.081  1.00  0.00     0.000 C 
BRANCH  10  11
ATOM     11  C   UNL     1      25.625  11.540  20.531  1.00  0.00    -0.000 C 
BRANCH  11  12
ATOM     12  C   UNL     1      26.293  11.956  21.853  1.00  0.00    -0.000 C 
BRANCH  12  13
ATOM     13  C   UNL     1      26.799  10.792  22.726  1.00  0.00    -0.000 C 
BRANCH  13  14
ATOM     14  C   UNL     1      28.284  10.438  22.496  1.00  0.00    -0.000 C 
BRANCH  14  15
ATOM     15  C   UNL     1      28.458   9.066  21.827  1.00  0.00    -0.003 C 
ATOM     16  C   UNL     1      29.266   9.180  20.538  1.00  0.00     0.004 C 
ENDBRANCH  14  15
ENDBRANCH  13  14
ENDBRANCH  12  13
ENDBRANCH  11  12
ENDBRANCH  10  11
ENDBRANCH   1  10
TORSDOF 12
ENDMDL
MODEL 5
REMARK VINA RESULT:    -3.927      3.318      6.203
REMARK INTER + INTRA:          -7.659
REMARK INTER:                  -5.823
REMARK INTRA:                  -1.836
REMARK UNBOUND:                -0.977
REMARK SMILES CCCCCCCCCCCCCC(=O)[O-]
REMARK SMILES IDX 8 1 9 2 10 3 11 4 12 5 13 6 14 7 15 8 16 9 7 10 6 11 5 12
REMARK SMILES IDX 4 13 3 14 2 15 1 16
REMARK H PARENT
REMARK Flexibility Score: inf
ROOT
ATOM      1  C   UNL     1      23.376  11.633  20.319  1.00  0.00     0.000 C 
ENDROOT
BRANCH   1   2
ATOM      2  C   UNL     1      24.876  11.983  20.338  1.00  0.00     0.000 C 
BRANCH   2   3
ATOM      3  C   UNL     1      25.284  12.812  21.568  1.00  0.00     0.000 C 
BRANCH   3   4
ATOM      4  C   UNL     1      26.479  12.208  22.329  1.00  0.00     0.000 C 
BRANCH   4   5
ATOM      5  C   UNL     1      26.755  10.717  22.048  1.00  0.00     0.006 C 
BRANCH   5   6
ATOM      6  C   UNL     1      27.527   9.989  23.159  1.00  0.00     0.053 C 
BRANCH   6   7
ATOM      7  C   UNL     1      28.972   9.809  22.812  1.00  0.00     0.041 C 
ATOM      8  O   UNL     1      29.824   9.613  23.719  1.00  0.00    -0.550 OA
ATOM      9  O   UNL     1      29.376   9.827  21.483  1.00  0.00    -0.550 OA
ENDBRANCH   6   7
ENDBRANCH   5   6
ENDBRANCH   4   5
ENDBRANCH   3   4
ENDBRANCH   2   3
ENDBRANCH   1   2
BRANCH   1  10
ATOM     10  C   UNL     1      22.984  10.371  21.109  1.00  0.00     0.000 C 
BRANCH  10  11
ATOM     11  C   UNL     1      22.188  10.688  22.386  1.00  0.00    -0.000 C 
BRANCH  11  12
ATOM     12  C   UNL     1      23.001  10.454  23.670  1.00  0.00    -0.000 C 
BRANCH  12  13
ATOM     13  C   UNL     1      23.324  11.724  24.482  1.00  0.00    -0.000 C 
BRANCH  13  14
ATOM     14  C   UNL     1      24.530  11.567  25.433  1.00  0.00    -0.000 C 
BRANCH  14  15
ATOM     15  C   UNL     1      24.872  10.092  25.699  1.00  0.00    -0.003 C 
ATOM     16  C   UNL     1      26.094   9.965  26.604  1.00  0.00     0.004 C 
ENDBRANCH  14  15
ENDBRANCH  13  14
ENDBRANCH  12  13
ENDBRANCH  11  12
ENDBRANCH  10  11
ENDBRANCH   1  10
TORSDOF 12
ENDMDL
MODEL 6
REMARK VINA RESULT:    -3.906      2.954      4.014
REMARK INTER + INTRA:          -7.622
REMARK INTER:                  -6.996
REMARK INTRA:                  -0.626
REMARK UNBOUND:                -0.977
REMARK SMILES CCCCCCCCCCCCCC(=O)[O-]
REMARK SMILES IDX 8 1 9 2 10 3 11 4 12 5 13 6 14 7 15 8 16 9 7 10 6 11 5 12
REMARK SMILES IDX 4 13 3 14 2 15 1 16
REMARK H PARENT
REMARK Flexibility Score: inf
ROOT
ATOM      1  C   UNL     1      24.239  11.052  21.765  1.00  0.00     0.000 C 
ENDROOT
BRANCH   1   2
ATOM      2  C   UNL     1      23.098  10.979  20.732  1.00  0.00     0.000 C 
BRANCH   2   3
ATOM      3  C   UNL     1      22.340  12.308  20.580  1.00  0.00     0.000 C 
BRANCH   3   4
ATOM      4  C   UNL     1      22.607  13.000  19.231  1.00  0.00     0.000 C 
BRANCH   4   5
ATOM      5  C   UNL     1      23.767  14.017  19.229  1.00  0.00     0.006 C 
BRANCH   5   6
ATOM      6  C   UNL     1      23.457  15.338  18.508  1.00  0.00     0.053 C 
BRANCH   6   7
ATOM      7  C   UNL     1      23.440  16.500  19.452  1.00  0.00     0.041 C 
ATOM      8  O   UNL     1      22.553  16.581  20.343  1.00  0.00    -0.550 OA
ATOM      9  O   UNL     1      24.422  17.479  19.369  1.00  0.00    -0.550 OA
ENDBRANCH   6   7
ENDBRANCH   5   6
ENDBRANCH   4   5
ENDBRANCH   3   4
ENDBRANCH   2   3
ENDBRANCH   1   2
BRANCH   1  10
ATOM     10  C   UNL     1      25.630  11.372  21.188  1.00  0.00     0.000 C 
BRANCH  10  11
ATOM     11  C   UNL     1      26.745  11.314  22.245  1.00  0.00    -0.000 C 
BRANCH  11  12
ATOM     12  C   UNL     1      27.504   9.976  22.239  1.00  0.00    -0.000 C 
BRANCH  12  13
ATOM     13  C   UNL     1      29.033  10.091  22.081  1.00  0.00    -0.000 C 
BRANCH  13  14
ATOM     14  C   UNL     1      29.657   8.973  21.218  1.00  0.00    -0.000 C 
BRANCH  14  15
ATOM     15  C   UNL     1      29.511   9.252  19.714  1.00  0.00    -0.003 C 
ATOM     16  C   UNL     1      30.873   9.463  19.058  1.00  0.00     0.004 C 
ENDBRANCH  14  15
ENDBRANCH  13  14
ENDBRANCH  12  13
ENDBRANCH  11  12
ENDBRANCH  10  11
ENDBRANCH   1  10
TORSDOF 12
ENDMDL
MODEL 7
REMARK VINA RESULT:    -3.905      1.671      2.025
REMARK INTER + INTRA:          -7.620
REMARK INTER:                  -6.543
REMARK INTRA:                  -1.077
REMARK UNBOUND:                -0.977
REMARK SMILES CCCCCCCCCCCCCC(=O)[O-]
REMARK SMILES IDX 8 1 9 2 10 3 11 4 12 5 13 6 14 7 15 8 16 9 7 10 6 11 5 12
REMARK SMILES IDX 4 13 3 14 2 15 1 16
REMARK H PARENT
REMARK Flexibility Score: inf
ROOT
ATOM      1  C   UNL     1      24.757  12.158  20.631  1.00  0.00     0.000 C 
ENDROOT
BRANCH   1   2
ATOM      2  C   UNL     1      23.491  11.394  20.197  1.00  0.00     0.000 C 
BRANCH   2   3
ATOM      3  C   UNL     1      22.409  11.356  21.289  1.00  0.00     0.000 C 
BRANCH   3   4
ATOM      4  C   UNL     1      22.586  10.182  22.268  1.00  0.00     0.000 C 
BRANCH   4   5
ATOM      5  C   UNL     1      22.399  10.531  23.759  1.00  0.00     0.006 C 
BRANCH   5   6
ATOM      6  C   UNL     1      23.659  11.074  24.451  1.00  0.00     0.053 C 
BRANCH   6   7
ATOM      7  C   UNL     1      24.280  10.058  25.359  1.00  0.00     0.041 C 
ATOM      8  O   UNL     1      23.602   9.083  25.779  1.00  0.00    -0.550 OA
ATOM      9  O   UNL     1      25.618  10.170  25.715  1.00  0.00    -0.550 OA
ENDBRANCH   6   7
ENDBRANCH   5   6
ENDBRANCH   4   5
ENDBRANCH   3   4
ENDBRANCH   2   3
ENDBRANCH   1   2
BRANCH   1  10
ATOM     10  C   UNL     1      25.987  11.280  20.927  1.00  0.00     0.000 C 
BRANCH  10  11
ATOM     11  C   UNL     1      26.685  11.654  22.245  1.00  0.00    -0.000 C 
BRANCH  11  12
ATOM     12  C   UNL     1      27.567  10.520  22.796  1.00  0.00    -0.000 C 
BRANCH  12  13
ATOM     13  C   UNL     1      27.995   9.461  21.762  1.00  0.00    -0.000 C 
BRANCH  13  14
ATOM     14  C   UNL     1      29.457   9.607  21.288  1.00  0.00    -0.000 C 
BRANCH  14  15
ATOM     15  C   UNL     1      29.661   9.077  19.861  1.00  0.00    -0.003 C 
ATOM     16  C   UNL     1      30.920   9.664  19.230  1.00  0.00     0.004 C 
ENDBRANCH  14  15
ENDBRANCH  13  14
ENDBRANCH  12  13
ENDBRANCH  11  12
ENDBRANCH  10  11
ENDBRANCH   1  10
TORSDOF 12
ENDMDL
MODEL 8
REMARK VINA RESULT:    -3.900      2.261      4.010
REMARK INTER + INTRA:          -7.613
REMARK INTER:                  -5.849
REMARK INTRA:                  -1.765
REMARK UNBOUND:                -0.977
REMARK SMILES CCCCCCCCCCCCCC(=O)[O-]
REMARK SMILES IDX 8 1 9 2 10 3 11 4 12 5 13 6 14 7 15 8 16 9 7 10 6 11 5 12
REMARK SMILES IDX 4 13 3 14 2 15 1 16
REMARK H PARENT
REMARK Flexibility Score: inf
ROOT
ATOM      1  C   UNL     1      23.064  10.390  21.103  1.00  0.00     0.000 C 
ENDROOT
BRANCH   1   2
ATOM      2  C   UNL     1      22.221  10.867  22.300  1.00  0.00     0.000 C 
BRANCH   2   3
ATOM      3  C   UNL     1      22.855  10.522  23.658  1.00  0.00     0.000 C 
BRANCH   3   4
ATOM      4  C   UNL     1      23.259  11.769  24.465  1.00  0.00     0.000 C 
BRANCH   4   5
ATOM      5  C   UNL     1      24.374  11.548  25.508  1.00  0.00     0.006 C 
BRANCH   5   6
ATOM      6  C   UNL     1      24.857  10.094  25.630  1.00  0.00     0.053 C 
BRANCH   6   7
ATOM      7  C   UNL     1      26.328  10.013  25.894  1.00  0.00     0.041 C 
ATOM      8  O   UNL     1      26.915   8.899  25.886  1.00  0.00    -0.550 OA
ATOM      9  O   UNL     1      27.060  11.173  26.115  1.00  0.00    -0.550 OA
ENDBRANCH   6   7
ENDBRANCH   5   6
ENDBRANCH   4   5
ENDBRANCH   3   4
ENDBRANCH   2   3
ENDBRANCH   1   2
BRANCH   1  10
ATOM     10  C   UNL     1      23.623  11.508  20.203  1.00  0.00     0.000 C 
BRANCH  10  11
ATOM     11  C   UNL     1      25.128  11.747  20.410  1.00  0.00    -0.000 C 
BRANCH  11  12
ATOM     12  C   UNL     1      25.427  12.679  21.597  1.00  0.00    -0.000 C 
BRANCH  12  13
ATOM     13  C   UNL     1      26.523  12.183  22.560  1.00  0.00    -0.000 C 
BRANCH  13  14
ATOM     14  C   UNL     1      26.762  10.659  22.501  1.00  0.00    -0.000 C 
BRANCH  14  15
ATOM     15  C   UNL     1      28.258  10.305  22.501  1.00  0.00    -0.003 C 
ATOM     16  C   UNL     1      28.544   9.124  21.579  1.00  0.00     0.004 C 
ENDBRANCH  14  15
ENDBRANCH  13  14
ENDBRANCH  12  13
ENDBRANCH  11  12
ENDBRANCH  10  11
ENDBRANCH   1  10
TORSDOF 12
ENDMDL
MODEL 9
REMARK VINA RESULT:    -3.872      2.399      3.991
REMARK INTER + INTRA:          -7.566
REMARK INTER:                  -5.842
REMARK INTRA:                  -1.724
REMARK UNBOUND:                -0.977
REMARK SMILES CCCCCCCCCCCCCC(=O)[O-]
REMARK SMILES IDX 8 1 9 2 10 3 11 4 12 5 13 6 14 7 15 8 16 9 7 10 6 11 5 12
REMARK SMILES IDX 4 13 3 14 2 15 1 16
REMARK H PARENT
REMARK Flexibility Score: inf
ROOT
ATOM      1  C   UNL     1      25.658  12.249  23.583  1.00  0.00     0.000 C 
ENDROOT
BRANCH   1   2
ATOM      2  C   UNL     1      24.747  11.017  23.739  1.00  0.00     0.000 C 
BRANCH   2   3
ATOM      3  C   UNL     1      23.278  11.307  23.388  1.00  0.00     0.000 C 
BRANCH   3   4
ATOM      4  C   UNL     1      22.739  10.402  22.265  1.00  0.00     0.000 C 
BRANCH   4   5
ATOM      5  C   UNL     1      23.205  10.768  20.841  1.00  0.00     0.006 C 
BRANCH   5   6
ATOM      6  C   UNL     1      22.825  12.186  20.388  1.00  0.00     0.053 C 
BRANCH   6   7
ATOM      7  C   UNL     1      24.011  13.099  20.356  1.00  0.00     0.041 C 
ATOM      8  O   UNL     1      24.026  14.145  21.058  1.00  0.00    -0.550 OA
ATOM      9  O   UNL     1      25.114  12.780  19.575  1.00  0.00    -0.550 OA
ENDBRANCH   6   7
ENDBRANCH   5   6
ENDBRANCH   4   5
ENDBRANCH   3   4
ENDBRANCH   2   3
ENDBRANCH   1   2
BRANCH   1  10
ATOM     10  C   UNL     1      26.901  12.041  22.698  1.00  0.00     0.000 C 
BRANCH  10  11
ATOM     11  C   UNL     1      26.830  10.756  21.857  1.00  0.00    -0.000 C 
BRANCH  11  12
ATOM     12  C   UNL     1      28.096   9.891  21.980  1.00  0.00    -0.000 C 
BRANCH  12  13
ATOM     13  C   UNL     1      28.170   9.014  23.245  1.00  0.00    -0.000 C 
BRANCH  13  14
ATOM     14  C   UNL     1      29.455   9.225  24.076  1.00  0.00    -0.000 C 
BRANCH  14  15
ATOM     15  C   UNL     1      29.149   9.572  25.541  1.00  0.00    -0.003 C 
ATOM     16  C   UNL     1      27.645   9.633  25.790  1.00  0.00     0.004 C 
ENDBRANCH  14  15
ENDBRANCH  13  14
ENDBRANCH  12  13
ENDBRANCH  11  12
ENDBRANCH  10  11
ENDBRANCH   1  10
TORSDOF 12
ENDMDL
