MODEL 1
REMARK VINA RESULT:     4.737      0.000      0.000
REMARK INTER + INTRA:           5.414
REMARK INTER:                   5.706
REMARK INTRA:                  -0.292
REMARK UNBOUND:                -0.292
REMARK SMILES O=c1c(O)c(-c2ccc(O)cc2O)oc2cc(O)cc(O)c12
REMARK SMILES IDX 5 1 3 2 2 3 1 4 22 5 20 6 19 7 17 8 16 9 15 10 14 11 6 12
REMARK SMILES IDX 8 13 7 14 9 15 11 16 12 17 10 18 13 20 4 22 21 24 18 26
REMARK H PARENT 10 19 13 21 4 23 21 25 18 27
REMARK Flexibility Score: inf
ROOT
ATOM      1  C   UNL     1       3.698   1.216  16.986  1.00  0.00     0.184 A 
ATOM      2  C   UNL     1       4.061  -0.027  16.446  1.00  0.00     0.208 A 
ATOM      3  C   UNL     1       4.822  -0.061  15.267  1.00  0.00     0.238 A 
ATOM      4  O   UNL     1       5.100  -1.178  14.757  1.00  0.00    -0.285 OA
ATOM      5  C   UNL     1       5.223   1.152  14.653  1.00  0.00     0.111 A 
ATOM      6  C   UNL     1       6.029   1.237  13.479  1.00  0.00     0.134 A 
ATOM      7  C   UNL     1       6.256   2.487  12.886  1.00  0.00     0.093 A 
ATOM      8  C   UNL     1       5.759   3.658  13.464  1.00  0.00     0.123 A 
ATOM      9  C   UNL     1       5.021   3.590  14.642  1.00  0.00     0.094 A 
ATOM     10  C   UNL     1       4.748   2.356  15.237  1.00  0.00     0.146 A 
ATOM     11  O   UNL     1       4.031   2.335  16.354  1.00  0.00    -0.451 OA
ENDROOT
BRANCH   1  12
ATOM     12  C   UNL     1       2.912   1.321  18.234  1.00  0.00     0.063 A 
ATOM     13  C   UNL     1       0.864   2.010  19.346  1.00  0.00     0.047 A 
ATOM     14  C   UNL     1       1.631   1.891  18.185  1.00  0.00     0.020 A 
ATOM     15  C   UNL     1       1.371   1.576  20.573  1.00  0.00     0.119 A 
ATOM     16  C   UNL     1       2.659   1.027  20.636  1.00  0.00     0.093 A 
ATOM     17  C   UNL     1       3.438   0.909  19.476  1.00  0.00     0.130 A 
BRANCH  15  18
ATOM     18  O   UNL     1       0.594   1.698  21.722  1.00  0.00    -0.508 OA
ATOM     19  H   UNL     1       0.992   1.581  22.646  1.00  0.00     0.293 HD
ENDBRANCH  15  18
BRANCH  17  20
ATOM     20  O   UNL     1       4.737   0.406  19.560  1.00  0.00    -0.507 OA
ATOM     21  H   UNL     1       4.926  -0.519  19.931  1.00  0.00     0.293 HD
ENDBRANCH  17  20
ENDBRANCH   1  12
BRANCH   2  22
ATOM     22  O   UNL     1       3.638  -1.208  17.061  1.00  0.00    -0.502 OA
ATOM     23  H   UNL     1       3.253  -1.985  16.539  1.00  0.00     0.293 HD
ENDBRANCH   2  22
BRANCH   6  24
ATOM     24  O   UNL     1       6.648   0.139  12.875  1.00  0.00    -0.507 OA
ATOM     25  H   UNL     1       6.231  -0.434  12.157  1.00  0.00     0.293 HD
ENDBRANCH   6  24
BRANCH   8  26
ATOM     26  O   UNL     1       6.003   4.898  12.875  1.00  0.00    -0.508 OA
ATOM     27  H   UNL     1       5.426   5.248  12.120  1.00  0.00     0.293 HD
ENDBRANCH   8  26
TORSDOF 6
ENDMDL
MODEL 2
REMARK VINA RESULT:     5.301      2.539      5.490
REMARK INTER + INTRA:           6.094
REMARK INTER:                   6.160
REMARK INTRA:                  -0.066
REMARK UNBOUND:                -0.292
REMARK SMILES O=c1c(O)c(-c2ccc(O)cc2O)oc2cc(O)cc(O)c12
REMARK SMILES IDX 5 1 3 2 2 3 1 4 22 5 20 6 19 7 17 8 16 9 15 10 14 11 6 12
REMARK SMILES IDX 8 13 7 14 9 15 11 16 12 17 10 18 13 20 4 22 21 24 18 26
REMARK H PARENT 10 19 13 21 4 23 21 25 18 27
REMARK Flexibility Score: inf
ROOT
ATOM      1  C   UNL     1       4.410   1.761  15.446  1.00  0.00     0.184 A 
ATOM      2  C   UNL     1       5.311   0.971  14.716  1.00  0.00     0.208 A 
ATOM      3  C   UNL     1       6.080   0.012  15.395  1.00  0.00     0.238 A 
ATOM      4  O   UNL     1       6.925  -0.657  14.744  1.00  0.00    -0.285 OA
ATOM      5  C   UNL     1       5.925  -0.154  16.793  1.00  0.00     0.111 A 
ATOM      6  C   UNL     1       6.622  -1.121  17.576  1.00  0.00     0.134 A 
ATOM      7  C   UNL     1       6.486  -1.109  18.971  1.00  0.00     0.093 A 
ATOM      8  C   UNL     1       5.627  -0.206  19.602  1.00  0.00     0.123 A 
ATOM      9  C   UNL     1       4.897   0.704  18.841  1.00  0.00     0.094 A 
ATOM     10  C   UNL     1       5.039   0.740  17.452  1.00  0.00     0.146 A 
ATOM     11  O   UNL     1       4.333   1.629  16.765  1.00  0.00    -0.451 OA
ENDROOT
BRANCH   1  12
ATOM     12  C   UNL     1       3.559   2.775  14.790  1.00  0.00     0.063 A 
ATOM     13  C   UNL     1       3.354   4.593  13.189  1.00  0.00     0.047 A 
ATOM     14  C   UNL     1       4.128   3.619  13.824  1.00  0.00     0.020 A 
ATOM     15  C   UNL     1       2.006   4.746  13.520  1.00  0.00     0.119 A 
ATOM     16  C   UNL     1       1.434   3.925  14.501  1.00  0.00     0.093 A 
ATOM     17  C   UNL     1       2.206   2.949  15.148  1.00  0.00     0.130 A 
BRANCH  15  18
ATOM     18  O   UNL     1       1.245   5.719  12.876  1.00  0.00    -0.508 OA
ATOM     19  H   UNL     1       1.256   6.686  13.177  1.00  0.00     0.293 HD
ENDBRANCH  15  18
BRANCH  17  20
ATOM     20  O   UNL     1       1.637   2.171  16.157  1.00  0.00    -0.507 OA
ATOM     21  H   UNL     1       0.657   2.254  16.404  1.00  0.00     0.293 HD
ENDBRANCH  17  20
ENDBRANCH   1  12
BRANCH   2  22
ATOM     22  O   UNL     1       5.458   1.167  13.340  1.00  0.00    -0.502 OA
ATOM     23  H   UNL     1       5.073   0.527  12.657  1.00  0.00     0.293 HD
ENDBRANCH   2  22
BRANCH   6  24
ATOM     24  O   UNL     1       7.432  -2.125  17.037  1.00  0.00    -0.507 OA
ATOM     25  H   UNL     1       7.105  -3.033  16.745  1.00  0.00     0.293 HD
ENDBRANCH   6  24
BRANCH   8  26
ATOM     26  O   UNL     1       5.487  -0.211  20.989  1.00  0.00    -0.508 OA
ATOM     27  H   UNL     1       5.968   0.462  21.573  1.00  0.00     0.293 HD
ENDBRANCH   8  26
TORSDOF 6
ENDMDL
MODEL 3
REMARK VINA RESULT:     6.196      2.670      5.309
REMARK INTER + INTRA:           7.171
REMARK INTER:                   6.920
REMARK INTRA:                   0.251
REMARK UNBOUND:                -0.292
REMARK SMILES O=c1c(O)c(-c2ccc(O)cc2O)oc2cc(O)cc(O)c12
REMARK SMILES IDX 5 1 3 2 2 3 1 4 22 5 20 6 19 7 17 8 16 9 15 10 14 11 6 12
REMARK SMILES IDX 8 13 7 14 9 15 11 16 12 17 10 18 13 20 4 22 21 24 18 26
REMARK H PARENT 10 19 13 21 4 23 21 25 18 27
REMARK Flexibility Score: inf
ROOT
ATOM      1  C   UNL     1       3.973   1.775  14.900  1.00  0.00     0.184 A 
ATOM      2  C   UNL     1       3.693   1.266  16.178  1.00  0.00     0.208 A 
ATOM      3  C   UNL     1       4.416   0.155  16.641  1.00  0.00     0.238 A 
ATOM      4  O   UNL     1       4.124  -0.330  17.765  1.00  0.00    -0.285 OA
ATOM      5  C   UNL     1       5.419  -0.422  15.825  1.00  0.00     0.111 A 
ATOM      6  C   UNL     1       6.241  -1.524  16.208  1.00  0.00     0.134 A 
ATOM      7  C   UNL     1       7.113  -2.094  15.271  1.00  0.00     0.093 A 
ATOM      8  C   UNL     1       7.239  -1.560  13.987  1.00  0.00     0.123 A 
ATOM      9  C   UNL     1       6.484  -0.448  13.623  1.00  0.00     0.094 A 
ATOM     10  C   UNL     1       5.580   0.121  14.523  1.00  0.00     0.146 A 
ATOM     11  O   UNL     1       4.873   1.174  14.131  1.00  0.00    -0.451 OA
ENDROOT
BRANCH   1  12
ATOM     12  C   UNL     1       3.261   2.952  14.360  1.00  0.00     0.063 A 
ATOM     13  C   UNL     1       1.249   4.316  14.303  1.00  0.00     0.047 A 
ATOM     14  C   UNL     1       1.953   3.215  14.797  1.00  0.00     0.020 A 
ATOM     15  C   UNL     1       1.836   5.159  13.356  1.00  0.00     0.119 A 
ATOM     16  C   UNL     1       3.131   4.891  12.896  1.00  0.00     0.093 A 
ATOM     17  C   UNL     1       3.843   3.785  13.382  1.00  0.00     0.130 A 
BRANCH  15  18
ATOM     18  O   UNL     1       1.124   6.255  12.875  1.00  0.00    -0.508 OA
ATOM     19  H   UNL     1       0.559   6.193  12.036  1.00  0.00     0.293 HD
ENDBRANCH  15  18
BRANCH  17  20
ATOM     20  O   UNL     1       5.114   3.501  12.880  1.00  0.00    -0.507 OA
ATOM     21  H   UNL     1       5.940   3.544  13.467  1.00  0.00     0.293 HD
ENDBRANCH  17  20
ENDBRANCH   1  12
BRANCH   2  22
ATOM     22  O   UNL     1       2.685   1.843  16.955  1.00  0.00    -0.502 OA
ATOM     23  H   UNL     1       2.450   2.825  16.898  1.00  0.00     0.293 HD
ENDBRANCH   2  22
BRANCH   6  24
ATOM     24  O   UNL     1       6.259  -2.074  17.493  1.00  0.00    -0.507 OA
ATOM     25  H   UNL     1       6.081  -1.558  18.342  1.00  0.00     0.293 HD
ENDBRANCH   6  24
BRANCH   8  26
ATOM     26  O   UNL     1       8.120  -2.125  13.067  1.00  0.00    -0.508 OA
ATOM     27  H   UNL     1       8.990  -1.671  12.819  1.00  0.00     0.293 HD
ENDBRANCH   8  26
TORSDOF 6
ENDMDL
MODEL 4
REMARK VINA RESULT:     6.217      2.990      5.012
REMARK INTER + INTRA:           7.197
REMARK INTER:                   7.583
REMARK INTRA:                  -0.386
REMARK UNBOUND:                -0.292
REMARK SMILES O=c1c(O)c(-c2ccc(O)cc2O)oc2cc(O)cc(O)c12
REMARK SMILES IDX 5 1 3 2 2 3 1 4 22 5 20 6 19 7 17 8 16 9 15 10 14 11 6 12
REMARK SMILES IDX 8 13 7 14 9 15 11 16 12 17 10 18 13 20 4 22 21 24 18 26
REMARK H PARENT 10 19 13 21 4 23 21 25 18 27
REMARK Flexibility Score: inf
ROOT
ATOM      1  C   UNL     1       4.716   0.602  17.086  1.00  0.00     0.184 A 
ATOM      2  C   UNL     1       5.092   1.839  16.541  1.00  0.00     0.208 A 
ATOM      3  C   UNL     1       4.207   2.498  15.674  1.00  0.00     0.238 A 
ATOM      4  O   UNL     1       4.571   3.581  15.145  1.00  0.00    -0.285 OA
ATOM      5  C   UNL     1       2.950   1.917  15.376  1.00  0.00     0.111 A 
ATOM      6  C   UNL     1       1.958   2.515  14.542  1.00  0.00     0.134 A 
ATOM      7  C   UNL     1       0.804   1.791  14.214  1.00  0.00     0.093 A 
ATOM      8  C   UNL     1       0.578   0.518  14.742  1.00  0.00     0.123 A 
ATOM      9  C   UNL     1       1.513  -0.050  15.604  1.00  0.00     0.094 A 
ATOM     10  C   UNL     1       2.690   0.632  15.922  1.00  0.00     0.146 A 
ATOM     11  O   UNL     1       3.560   0.050  16.739  1.00  0.00    -0.451 OA
ENDROOT
BRANCH   1  12
ATOM     12  C   UNL     1       5.594  -0.135  18.019  1.00  0.00     0.063 A 
ATOM     13  C   UNL     1       6.708  -0.241  20.177  1.00  0.00     0.047 A 
ATOM     14  C   UNL     1       5.877   0.426  19.274  1.00  0.00     0.020 A 
ATOM     15  C   UNL     1       7.278  -1.469  19.834  1.00  0.00     0.119 A 
ATOM     16  C   UNL     1       7.022  -2.026  18.574  1.00  0.00     0.093 A 
ATOM     17  C   UNL     1       6.193  -1.360  17.659  1.00  0.00     0.130 A 
BRANCH  15  18
ATOM     18  O   UNL     1       8.102  -2.124  20.746  1.00  0.00    -0.508 OA
ATOM     19  H   UNL     1       8.889  -2.685  20.441  1.00  0.00     0.293 HD
ENDBRANCH  15  18
BRANCH  17  20
ATOM     20  O   UNL     1       5.984  -1.901  16.390  1.00  0.00    -0.507 OA
ATOM     21  H   UNL     1       6.754  -2.242  15.824  1.00  0.00     0.293 HD
ENDBRANCH  17  20
ENDBRANCH   1  12
BRANCH   2  22
ATOM     22  O   UNL     1       6.345   2.382  16.836  1.00  0.00    -0.502 OA
ATOM     23  H   UNL     1       6.673   3.248  16.427  1.00  0.00     0.293 HD
ENDBRANCH   2  22
BRANCH   6  24
ATOM     24  O   UNL     1       2.043   3.816  14.038  1.00  0.00    -0.507 OA
ATOM     25  H   UNL     1       1.333   4.263  13.478  1.00  0.00     0.293 HD
ENDBRANCH   6  24
BRANCH   8  26
ATOM     26  O   UNL     1      -0.580  -0.189  14.422  1.00  0.00    -0.508 OA
ATOM     27  H   UNL     1      -0.568  -0.952  13.757  1.00  0.00     0.293 HD
ENDBRANCH   8  26
TORSDOF 6
ENDMDL
MODEL 5
REMARK VINA RESULT:     6.546      2.255      6.653
REMARK INTER + INTRA:           7.593
REMARK INTER:                   7.836
REMARK INTRA:                  -0.243
REMARK UNBOUND:                -0.292
REMARK SMILES O=c1c(O)c(-c2ccc(O)cc2O)oc2cc(O)cc(O)c12
REMARK SMILES IDX 5 1 3 2 2 3 1 4 22 5 20 6 19 7 17 8 16 9 15 10 14 11 6 12
REMARK SMILES IDX 8 13 7 14 9 15 11 16 12 17 10 18 13 20 4 22 21 24 18 26
REMARK H PARENT 10 19 13 21 4 23 21 25 18 27
REMARK Flexibility Score: inf
ROOT
ATOM      1  C   UNL     1       3.923  -0.009  15.573  1.00  0.00     0.184 A 
ATOM      2  C   UNL     1       2.634  -0.033  15.018  1.00  0.00     0.208 A 
ATOM      3  C   UNL     1       1.566   0.505  15.754  1.00  0.00     0.238 A 
ATOM      4  O   UNL     1       0.404   0.432  15.274  1.00  0.00    -0.285 OA
ATOM      5  C   UNL     1       1.805   1.072  17.029  1.00  0.00     0.111 A 
ATOM      6  C   UNL     1       0.805   1.681  17.845  1.00  0.00     0.134 A 
ATOM      7  C   UNL     1       1.131   2.094  19.144  1.00  0.00     0.093 A 
ATOM      8  C   UNL     1       2.436   1.979  19.629  1.00  0.00     0.123 A 
ATOM      9  C   UNL     1       3.432   1.440  18.819  1.00  0.00     0.094 A 
ATOM     10  C   UNL     1       3.130   0.986  17.533  1.00  0.00     0.146 A 
ATOM     11  O   UNL     1       4.107   0.470  16.797  1.00  0.00    -0.451 OA
ENDROOT
BRANCH   1  12
ATOM     12  C   UNL     1       5.092  -0.542  14.843  1.00  0.00     0.063 A 
ATOM     13  C   UNL     1       6.941  -2.118  14.752  1.00  0.00     0.047 A 
ATOM     14  C   UNL     1       5.827  -1.594  15.412  1.00  0.00     0.020 A 
ATOM     15  C   UNL     1       7.344  -1.590  13.524  1.00  0.00     0.119 A 
ATOM     16  C   UNL     1       6.632  -0.523  12.959  1.00  0.00     0.093 A 
ATOM     17  C   UNL     1       5.516   0.013  13.618  1.00  0.00     0.130 A 
BRANCH  15  18
ATOM     18  O   UNL     1       8.455  -2.124  12.875  1.00  0.00    -0.508 OA
ATOM     19  H   UNL     1       8.450  -3.068  12.507  1.00  0.00     0.293 HD
ENDBRANCH  15  18
BRANCH  17  20
ATOM     20  O   UNL     1       4.844   1.106  13.069  1.00  0.00    -0.507 OA
ATOM     21  H   UNL     1       4.248   1.010  12.255  1.00  0.00     0.293 HD
ENDBRANCH  17  20
ENDBRANCH   1  12
BRANCH   2  22
ATOM     22  O   UNL     1       2.422  -0.615  13.765  1.00  0.00    -0.502 OA
ATOM     23  H   UNL     1       1.795  -0.215  13.079  1.00  0.00     0.293 HD
ENDBRANCH   2  22
BRANCH   6  24
ATOM     24  O   UNL     1      -0.504   1.926  17.423  1.00  0.00    -0.507 OA
ATOM     25  H   UNL     1      -0.903   1.588  16.560  1.00  0.00     0.293 HD
ENDBRANCH   6  24
BRANCH   8  26
ATOM     26  O   UNL     1       2.754   2.406  20.918  1.00  0.00    -0.508 OA
ATOM     27  H   UNL     1       2.118   2.980  21.458  1.00  0.00     0.293 HD
ENDBRANCH   8  26
TORSDOF 6
ENDMDL
MODEL 6
REMARK VINA RESULT:     6.880      2.409      4.041
REMARK INTER + INTRA:           7.996
REMARK INTER:                   8.405
REMARK INTRA:                  -0.409
REMARK UNBOUND:                -0.292
REMARK SMILES O=c1c(O)c(-c2ccc(O)cc2O)oc2cc(O)cc(O)c12
REMARK SMILES IDX 5 1 3 2 2 3 1 4 22 5 20 6 19 7 17 8 16 9 15 10 14 11 6 12
REMARK SMILES IDX 8 13 7 14 9 15 11 16 12 17 10 18 13 20 4 22 21 24 18 26
REMARK H PARENT 10 19 13 21 4 23 21 25 18 27
REMARK Flexibility Score: inf
ROOT
ATOM      1  C   UNL     1       4.607   1.126  16.931  1.00  0.00     0.184 A 
ATOM      2  C   UNL     1       3.204   1.100  16.944  1.00  0.00     0.208 A 
ATOM      3  C   UNL     1       2.499   1.941  16.068  1.00  0.00     0.238 A 
ATOM      4  O   UNL     1       1.242   1.953  16.121  1.00  0.00    -0.285 OA
ATOM      5  C   UNL     1       3.210   2.785  15.179  1.00  0.00     0.111 A 
ATOM      6  C   UNL     1       2.600   3.648  14.221  1.00  0.00     0.134 A 
ATOM      7  C   UNL     1       3.397   4.534  13.483  1.00  0.00     0.093 A 
ATOM      8  C   UNL     1       4.786   4.539  13.624  1.00  0.00     0.123 A 
ATOM      9  C   UNL     1       5.396   3.659  14.515  1.00  0.00     0.094 A 
ATOM     10  C   UNL     1       4.626   2.789  15.290  1.00  0.00     0.146 A 
ATOM     11  O   UNL     1       5.246   1.974  16.134  1.00  0.00    -0.451 OA
ENDROOT
BRANCH   1  12
ATOM     12  C   UNL     1       5.408   0.254  17.816  1.00  0.00     0.063 A 
ATOM     13  C   UNL     1       6.530  -0.072  19.947  1.00  0.00     0.047 A 
ATOM     14  C   UNL     1       5.769   0.724  19.088  1.00  0.00     0.020 A 
ATOM     15  C   UNL     1       6.953  -1.341  19.542  1.00  0.00     0.119 A 
ATOM     16  C   UNL     1       6.618  -1.809  18.265  1.00  0.00     0.093 A 
ATOM     17  C   UNL     1       5.859  -1.014  17.394  1.00  0.00     0.130 A 
BRANCH  15  18
ATOM     18  O   UNL     1       7.708  -2.125  20.411  1.00  0.00    -0.508 OA
ATOM     19  H   UNL     1       8.651  -1.865  20.674  1.00  0.00     0.293 HD
ENDBRANCH  15  18
BRANCH  17  20
ATOM     20  O   UNL     1       5.573  -1.472  16.107  1.00  0.00    -0.507 OA
ATOM     21  H   UNL     1       5.276  -0.840  15.371  1.00  0.00     0.293 HD
ENDBRANCH  17  20
ENDBRANCH   1  12
BRANCH   2  22
ATOM     22  O   UNL     1       2.528   0.271  17.843  1.00  0.00    -0.502 OA
ATOM     23  H   UNL     1       2.169   0.608  18.728  1.00  0.00     0.293 HD
ENDBRANCH   2  22
BRANCH   6  24
ATOM     24  O   UNL     1       1.231   3.656  13.937  1.00  0.00    -0.507 OA
ATOM     25  H   UNL     1       0.682   4.487  13.777  1.00  0.00     0.293 HD
ENDBRANCH   6  24
BRANCH   8  26
ATOM     26  O   UNL     1       5.572   5.414  12.875  1.00  0.00    -0.508 OA
ATOM     27  H   UNL     1       5.197   5.914  12.079  1.00  0.00     0.293 HD
ENDBRANCH   8  26
TORSDOF 6
ENDMDL
MODEL 7
REMARK VINA RESULT:     7.167      2.029      2.531
REMARK INTER + INTRA:           8.341
REMARK INTER:                   8.383
REMARK INTRA:                  -0.042
REMARK UNBOUND:                -0.292
REMARK SMILES O=c1c(O)c(-c2ccc(O)cc2O)oc2cc(O)cc(O)c12
REMARK SMILES IDX 5 1 3 2 2 3 1 4 22 5 20 6 19 7 17 8 16 9 15 10 14 11 6 12
REMARK SMILES IDX 8 13 7 14 9 15 11 16 12 17 10 18 13 20 4 22 21 24 18 26
REMARK H PARENT 10 19 13 21 4 23 21 25 18 27
REMARK Flexibility Score: inf
ROOT
ATOM      1  C   UNL     1       2.542   0.927  17.000  1.00  0.00     0.184 A 
ATOM      2  C   UNL     1       1.716   0.158  16.165  1.00  0.00     0.208 A 
ATOM      3  C   UNL     1       2.281  -0.482  15.051  1.00  0.00     0.238 A 
ATOM      4  O   UNL     1       1.527  -1.126  14.276  1.00  0.00    -0.285 OA
ATOM      5  C   UNL     1       3.669  -0.358  14.798  1.00  0.00     0.111 A 
ATOM      6  C   UNL     1       4.356  -0.996  13.722  1.00  0.00     0.134 A 
ATOM      7  C   UNL     1       5.706  -0.698  13.491  1.00  0.00     0.093 A 
ATOM      8  C   UNL     1       6.408   0.163  14.338  1.00  0.00     0.123 A 
ATOM      9  C   UNL     1       5.761   0.745  15.425  1.00  0.00     0.094 A 
ATOM     10  C   UNL     1       4.407   0.496  15.660  1.00  0.00     0.146 A 
ATOM     11  O   UNL     1       3.826   1.079  16.701  1.00  0.00    -0.451 OA
ENDROOT
BRANCH   1  12
ATOM     12  C   UNL     1       2.012   1.612  18.198  1.00  0.00     0.063 A 
ATOM     13  C   UNL     1       0.253   2.942  19.222  1.00  0.00     0.047 A 
ATOM     14  C   UNL     1       0.780   2.279  18.111  1.00  0.00     0.020 A 
ATOM     15  C   UNL     1       0.956   2.961  20.429  1.00  0.00     0.119 A 
ATOM     16  C   UNL     1       2.199   2.319  20.519  1.00  0.00     0.093 A 
ATOM     17  C   UNL     1       2.737   1.656  19.406  1.00  0.00     0.130 A 
BRANCH  15  18
ATOM     18  O   UNL     1       0.418   3.622  21.529  1.00  0.00    -0.508 OA
ATOM     19  H   UNL     1       0.516   3.255  22.469  1.00  0.00     0.293 HD
ENDBRANCH  15  18
BRANCH  17  20
ATOM     20  O   UNL     1       3.997   1.063  19.494  1.00  0.00    -0.507 OA
ATOM     21  H   UNL     1       4.576   0.919  18.674  1.00  0.00     0.293 HD
ENDBRANCH  17  20
ENDBRANCH   1  12
BRANCH   2  22
ATOM     22  O   UNL     1       0.346   0.067  16.428  1.00  0.00    -0.502 OA
ATOM     23  H   UNL     1      -0.096  -0.797  16.713  1.00  0.00     0.293 HD
ENDBRANCH   2  22
BRANCH   6  24
ATOM     24  O   UNL     1       3.772  -1.942  12.875  1.00  0.00    -0.507 OA
ATOM     25  H   UNL     1       4.242  -2.760  12.516  1.00  0.00     0.293 HD
ENDBRANCH   6  24
BRANCH   8  26
ATOM     26  O   UNL     1       7.754   0.442  14.109  1.00  0.00    -0.508 OA
ATOM     27  H   UNL     1       8.120   1.383  14.180  1.00  0.00     0.293 HD
ENDBRANCH   8  26
TORSDOF 6
ENDMDL
MODEL 8
REMARK VINA RESULT:     7.533      2.534      6.523
REMARK INTER + INTRA:           8.783
REMARK INTER:                   9.084
REMARK INTRA:                  -0.301
REMARK UNBOUND:                -0.292
REMARK SMILES O=c1c(O)c(-c2ccc(O)cc2O)oc2cc(O)cc(O)c12
REMARK SMILES IDX 5 1 3 2 2 3 1 4 22 5 20 6 19 7 17 8 16 9 15 10 14 11 6 12
REMARK SMILES IDX 8 13 7 14 9 15 11 16 12 17 10 18 13 20 4 22 21 24 18 26
REMARK H PARENT 10 19 13 21 4 23 21 25 18 27
REMARK Flexibility Score: inf
ROOT
ATOM      1  C   UNL     1       4.467   0.182  15.765  1.00  0.00     0.184 A 
ATOM      2  C   UNL     1       4.666   0.978  16.902  1.00  0.00     0.208 A 
ATOM      3  C   UNL     1       3.550   1.523  17.556  1.00  0.00     0.238 A 
ATOM      4  O   UNL     1       3.737   2.280  18.544  1.00  0.00    -0.285 OA
ATOM      5  C   UNL     1       2.247   1.250  17.070  1.00  0.00     0.111 A 
ATOM      6  C   UNL     1       1.042   1.716  17.676  1.00  0.00     0.134 A 
ATOM      7  C   UNL     1      -0.184   1.492  17.036  1.00  0.00     0.093 A 
ATOM      8  C   UNL     1      -0.252   0.763  15.847  1.00  0.00     0.123 A 
ATOM      9  C   UNL     1       0.912   0.254  15.278  1.00  0.00     0.094 A 
ATOM     10  C   UNL     1       2.154   0.490  15.874  1.00  0.00     0.146 A 
ATOM     11  O   UNL     1       3.240  -0.004  15.293  1.00  0.00    -0.451 OA
ENDROOT
BRANCH   1  12
ATOM     12  C   UNL     1       5.599  -0.435  15.041  1.00  0.00     0.063 A 
ATOM     13  C   UNL     1       7.022  -0.489  13.071  1.00  0.00     0.047 A 
ATOM     14  C   UNL     1       5.961   0.074  13.784  1.00  0.00     0.020 A 
ATOM     15  C   UNL     1       7.725  -1.576  13.596  1.00  0.00     0.119 A 
ATOM     16  C   UNL     1       7.355  -2.107  14.839  1.00  0.00     0.093 A 
ATOM     17  C   UNL     1       6.288  -1.551  15.559  1.00  0.00     0.130 A 
BRANCH  15  18
ATOM     18  O   UNL     1       8.783  -2.125  12.875  1.00  0.00    -0.508 OA
ATOM     19  H   UNL     1       8.829  -2.054  11.866  1.00  0.00     0.293 HD
ENDBRANCH  15  18
BRANCH  17  20
ATOM     20  O   UNL     1       5.898  -2.120  16.772  1.00  0.00    -0.507 OA
ATOM     21  H   UNL     1       6.396  -1.926  17.634  1.00  0.00     0.293 HD
ENDBRANCH  17  20
ENDBRANCH   1  12
BRANCH   2  22
ATOM     22  O   UNL     1       5.963   1.247  17.350  1.00  0.00    -0.502 OA
ATOM     23  H   UNL     1       6.261   2.174  17.626  1.00  0.00     0.293 HD
ENDBRANCH   2  22
BRANCH   6  24
ATOM     24  O   UNL     1       0.992   2.373  18.909  1.00  0.00    -0.507 OA
ATOM     25  H   UNL     1       1.625   3.104  19.197  1.00  0.00     0.293 HD
ENDBRANCH   6  24
BRANCH   8  26
ATOM     26  O   UNL     1      -1.479   0.533  15.225  1.00  0.00    -0.508 OA
ATOM     27  H   UNL     1      -2.249   0.099  15.718  1.00  0.00     0.293 HD
ENDBRANCH   8  26
TORSDOF 6
ENDMDL
