MODEL 1
REMARK VINA RESULT:    -1.533      0.000      0.000
REMARK INTER + INTRA:          -4.633
REMARK INTER:                  -3.863
REMARK INTRA:                  -0.769
REMARK UNBOUND:                -0.769
REMARK SMILES CCCCCCCCCCCCCCCCCCCCCCCCCCCC(=O)[O-]
REMARK SMILES IDX 15 1 16 2 17 3 18 4 19 5 20 6 21 7 22 8 23 9 24 10 25 11
REMARK SMILES IDX 26 12 27 13 28 14 29 15 30 16 14 17 13 18 12 19 11 20 10 21
REMARK SMILES IDX 9 22 8 23 7 24 6 25 5 26 4 27 3 28 2 29 1 30
REMARK H PARENT
REMARK Flexibility Score: inf
ROOT
ATOM      1  C   UNL     1      -4.540   7.942  -3.850  1.00  0.00     0.000 C 
ENDROOT
BRANCH   1   2
ATOM      2  C   UNL     1      -5.433   8.894  -3.035  1.00  0.00     0.000 C 
BRANCH   2   3
ATOM      3  C   UNL     1      -4.805   9.293  -1.689  1.00  0.00     0.000 C 
BRANCH   3   4
ATOM      4  C   UNL     1      -4.146   8.102  -0.974  1.00  0.00     0.000 C 
BRANCH   4   5
ATOM      5  C   UNL     1      -2.866   7.631  -1.685  1.00  0.00     0.000 C 
BRANCH   5   6
ATOM      6  C   UNL     1      -1.591   8.282  -1.121  1.00  0.00     0.000 C 
BRANCH   6   7
ATOM      7  C   UNL     1      -1.195   7.829   0.300  1.00  0.00     0.000 C 
BRANCH   7   8
ATOM      8  C   UNL     1      -1.831   8.634   1.448  1.00  0.00     0.000 C 
BRANCH   8   9
ATOM      9  C   UNL     1      -0.918   9.711   2.060  1.00  0.00     0.000 C 
BRANCH   9  10
ATOM     10  C   UNL     1      -1.549  11.121   2.072  1.00  0.00     0.000 C 
BRANCH  10  11
ATOM     11  C   UNL     1      -3.035  11.098   1.682  1.00  0.00     0.000 C 
BRANCH  11  12
ATOM     12  C   UNL     1      -3.976  11.122   2.897  1.00  0.00     0.006 C 
BRANCH  12  13
ATOM     13  C   UNL     1      -5.094  10.076   2.811  1.00  0.00     0.053 C 
BRANCH  13  14
ATOM     14  C   UNL     1      -5.930  10.103   4.050  1.00  0.00     0.041 C 
ATOM     15  O   UNL     1      -5.816  11.050   4.874  1.00  0.00    -0.550 OA
ATOM     16  O   UNL     1      -6.803   9.056   4.320  1.00  0.00    -0.550 OA
ENDBRANCH  13  14
ENDBRANCH  12  13
ENDBRANCH  11  12
ENDBRANCH  10  11
ENDBRANCH   9  10
ENDBRANCH   8   9
ENDBRANCH   7   8
ENDBRANCH   6   7
ENDBRANCH   5   6
ENDBRANCH   4   5
ENDBRANCH   3   4
ENDBRANCH   2   3
ENDBRANCH   1   2
BRANCH   1  17
ATOM     17  C   UNL     1      -3.308   8.637  -4.471  1.00  0.00     0.000 C 
BRANCH  17  18
ATOM     18  C   UNL     1      -2.410   7.681  -5.285  1.00  0.00     0.000 C 
BRANCH  18  19
ATOM     19  C   UNL     1      -1.103   8.323  -5.793  1.00  0.00     0.000 C 
BRANCH  19  20
ATOM     20  C   UNL     1      -0.877   9.772  -5.306  1.00  0.00     0.000 C 
BRANCH  20  21
ATOM     21  C   UNL     1      -1.027  10.845  -6.404  1.00  0.00     0.000 C 
BRANCH  21  22
ATOM     22  C   UNL     1      -1.832  10.398  -7.640  1.00  0.00    -0.000 C 
BRANCH  22  23
ATOM     23  C   UNL     1      -0.945  10.057  -8.848  1.00  0.00    -0.000 C 
BRANCH  23  24
ATOM     24  C   UNL     1      -1.173  11.059  -9.990  1.00  0.00    -0.000 C 
BRANCH  24  25
ATOM     25  C   UNL     1      -1.363  10.389 -11.364  1.00  0.00    -0.000 C 
BRANCH  25  26
ATOM     26  C   UNL     1      -1.680   8.880 -11.320  1.00  0.00    -0.000 C 
BRANCH  26  27
ATOM     27  C   UNL     1      -3.005   8.484 -12.011  1.00  0.00    -0.000 C 
BRANCH  27  28
ATOM     28  C   UNL     1      -2.846   7.380 -13.075  1.00  0.00    -0.000 C 
BRANCH  28  29
ATOM     29  C   UNL     1      -3.818   6.197 -12.924  1.00  0.00    -0.003 C 
ATOM     30  C   UNL     1      -3.140   4.840 -13.125  1.00  0.00     0.004 C 
ENDBRANCH  28  29
ENDBRANCH  27  28
ENDBRANCH  26  27
ENDBRANCH  25  26
ENDBRANCH  24  25
ENDBRANCH  23  24
ENDBRANCH  22  23
ENDBRANCH  21  22
ENDBRANCH  20  21
ENDBRANCH  19  20
ENDBRANCH  18  19
ENDBRANCH  17  18
ENDBRANCH   1  17
TORSDOF 26
ENDMDL
MODEL 2
REMARK VINA RESULT:    -0.400      2.764      3.818
REMARK INTER + INTRA:          -1.776
REMARK INTER:                  -2.948
REMARK INTRA:                   1.171
REMARK UNBOUND:                -0.769
REMARK SMILES CCCCCCCCCCCCCCCCCCCCCCCCCCCC(=O)[O-]
REMARK SMILES IDX 15 1 16 2 17 3 18 4 19 5 20 6 21 7 22 8 23 9 24 10 25 11
REMARK SMILES IDX 26 12 27 13 28 14 29 15 30 16 14 17 13 18 12 19 11 20 10 21
REMARK SMILES IDX 9 22 8 23 7 24 6 25 5 26 4 27 3 28 2 29 1 30
REMARK H PARENT
REMARK Flexibility Score: inf
ROOT
ATOM      1  C   UNL     1      -2.632   8.170  -5.526  1.00  0.00     0.000 C 
ENDROOT
BRANCH   1   2
ATOM      2  C   UNL     1      -3.269   8.477  -4.159  1.00  0.00     0.000 C 
BRANCH   2   3
ATOM      3  C   UNL     1      -2.226   8.657  -3.044  1.00  0.00     0.000 C 
BRANCH   3   4
ATOM      4  C   UNL     1      -1.899  10.136  -2.779  1.00  0.00     0.000 C 
BRANCH   4   5
ATOM      5  C   UNL     1      -1.094  10.332  -1.484  1.00  0.00     0.000 C 
BRANCH   5   6
ATOM      6  C   UNL     1      -1.217   9.144  -0.514  1.00  0.00     0.000 C 
BRANCH   6   7
ATOM      7  C   UNL     1      -1.004   9.488   0.976  1.00  0.00     0.000 C 
BRANCH   7   8
ATOM      8  C   UNL     1      -1.655  10.801   1.448  1.00  0.00     0.000 C 
BRANCH   8   9
ATOM      9  C   UNL     1      -1.509  11.085   2.953  1.00  0.00     0.000 C 
BRANCH   9  10
ATOM     10  C   UNL     1      -2.849  11.048   3.721  1.00  0.00     0.000 C 
BRANCH  10  11
ATOM     11  C   UNL     1      -4.063  11.125   2.780  1.00  0.00     0.000 C 
BRANCH  11  12
ATOM     12  C   UNL     1      -3.760  10.598   1.368  1.00  0.00     0.006 C 
BRANCH  12  13
ATOM     13  C   UNL     1      -4.696   9.461   0.940  1.00  0.00     0.053 C 
BRANCH  13  14
ATOM     14  C   UNL     1      -4.823   9.422  -0.549  1.00  0.00     0.041 C 
ATOM     15  O   UNL     1      -4.741  10.484  -1.221  1.00  0.00    -0.550 OA
ATOM     16  O   UNL     1      -5.078   8.217  -1.192  1.00  0.00    -0.550 OA
ENDBRANCH  13  14
ENDBRANCH  12  13
ENDBRANCH  11  12
ENDBRANCH  10  11
ENDBRANCH   9  10
ENDBRANCH   8   9
ENDBRANCH   7   8
ENDBRANCH   6   7
ENDBRANCH   5   6
ENDBRANCH   4   5
ENDBRANCH   3   4
ENDBRANCH   2   3
ENDBRANCH   1   2
BRANCH   1  17
ATOM     17  C   UNL     1      -1.336   8.967  -5.793  1.00  0.00     0.000 C 
BRANCH  17  18
ATOM     18  C   UNL     1      -1.576  10.298  -6.537  1.00  0.00     0.000 C 
BRANCH  18  19
ATOM     19  C   UNL     1      -0.875  10.389  -7.907  1.00  0.00     0.000 C 
BRANCH  19  20
ATOM     20  C   UNL     1      -0.948   9.093  -8.745  1.00  0.00     0.000 C 
BRANCH  20  21
ATOM     21  C   UNL     1      -2.041   9.096  -9.833  1.00  0.00     0.000 C 
BRANCH  21  22
ATOM     22  C   UNL     1      -1.666   8.354 -11.130  1.00  0.00    -0.000 C 
BRANCH  22  23
ATOM     23  C   UNL     1      -2.866   8.125 -12.064  1.00  0.00    -0.000 C 
BRANCH  23  24
ATOM     24  C   UNL     1      -2.955   9.239 -13.119  1.00  0.00    -0.000 C 
BRANCH  24  25
ATOM     25  C   UNL     1      -3.402  10.595 -12.541  1.00  0.00    -0.000 C 
BRANCH  25  26
ATOM     26  C   UNL     1      -4.749  11.124 -13.074  1.00  0.00    -0.000 C 
BRANCH  26  27
ATOM     27  C   UNL     1      -5.910  10.105 -13.004  1.00  0.00    -0.000 C 
BRANCH  27  28
ATOM     28  C   UNL     1      -7.235  10.704 -12.493  1.00  0.00    -0.000 C 
BRANCH  28  29
ATOM     29  C   UNL     1      -8.292   9.666 -12.077  1.00  0.00    -0.003 C 
ATOM     30  C   UNL     1      -9.295  10.214 -11.058  1.00  0.00     0.004 C 
ENDBRANCH  28  29
ENDBRANCH  27  28
ENDBRANCH  26  27
ENDBRANCH  25  26
ENDBRANCH  24  25
ENDBRANCH  23  24
ENDBRANCH  22  23
ENDBRANCH  21  22
ENDBRANCH  20  21
ENDBRANCH  19  20
ENDBRANCH  18  19
ENDBRANCH  17  18
ENDBRANCH   1  17
TORSDOF 26
ENDMDL
MODEL 3
REMARK VINA RESULT:     0.304      2.924      4.137
REMARK INTER + INTRA:          -0.005
REMARK INTER:                  -1.448
REMARK INTRA:                   1.443
REMARK UNBOUND:                -0.769
REMARK SMILES CCCCCCCCCCCCCCCCCCCCCCCCCCCC(=O)[O-]
REMARK SMILES IDX 15 1 16 2 17 3 18 4 19 5 20 6 21 7 22 8 23 9 24 10 25 11
REMARK SMILES IDX 26 12 27 13 28 14 29 15 30 16 14 17 13 18 12 19 11 20 10 21
REMARK SMILES IDX 9 22 8 23 7 24 6 25 5 26 4 27 3 28 2 29 1 30
REMARK H PARENT
REMARK Flexibility Score: inf
ROOT
ATOM      1  C   UNL     1      -2.849   8.005  -5.422  1.00  0.00     0.000 C 
ENDROOT
BRANCH   1   2
ATOM      2  C   UNL     1      -4.183   7.685  -4.723  1.00  0.00     0.000 C 
BRANCH   2   3
ATOM      3  C   UNL     1      -4.178   8.058  -3.232  1.00  0.00     0.000 C 
BRANCH   3   4
ATOM      4  C   UNL     1      -5.165   9.192  -2.908  1.00  0.00     0.000 C 
BRANCH   4   5
ATOM      5  C   UNL     1      -5.118   9.600  -1.426  1.00  0.00     0.000 C 
BRANCH   5   6
ATOM      6  C   UNL     1      -4.566   8.491  -0.514  1.00  0.00     0.000 C 
BRANCH   6   7
ATOM      7  C   UNL     1      -3.951   8.978   0.815  1.00  0.00     0.000 C 
BRANCH   7   8
ATOM      8  C   UNL     1      -4.604  10.233   1.421  1.00  0.00     0.000 C 
BRANCH   8   9
ATOM      9  C   UNL     1      -3.835  10.850   2.603  1.00  0.00     0.000 C 
BRANCH   9  10
ATOM     10  C   UNL     1      -2.325  11.031   2.331  1.00  0.00     0.000 C 
BRANCH  10  11
ATOM     11  C   UNL     1      -1.977  10.859   0.843  1.00  0.00     0.000 C 
BRANCH  11  12
ATOM     12  C   UNL     1      -0.875   9.814   0.602  1.00  0.00     0.006 C 
BRANCH  12  13
ATOM     13  C   UNL     1      -1.265   8.765  -0.446  1.00  0.00     0.053 C 
BRANCH  13  14
ATOM     14  C   UNL     1      -1.265   9.368  -1.814  1.00  0.00     0.041 C 
ATOM     15  O   UNL     1      -0.993   8.660  -2.821  1.00  0.00    -0.550 OA
ATOM     16  O   UNL     1      -1.521  10.724  -1.973  1.00  0.00    -0.550 OA
ENDBRANCH  13  14
ENDBRANCH  12  13
ENDBRANCH  11  12
ENDBRANCH  10  11
ENDBRANCH   9  10
ENDBRANCH   8   9
ENDBRANCH   7   8
ENDBRANCH   6   7
ENDBRANCH   5   6
ENDBRANCH   4   5
ENDBRANCH   3   4
ENDBRANCH   2   3
ENDBRANCH   1   2
BRANCH   1  17
ATOM     17  C   UNL     1      -2.256   9.372  -5.016  1.00  0.00     0.000 C 
BRANCH  17  18
ATOM     18  C   UNL     1      -2.825  10.553  -5.830  1.00  0.00     0.000 C 
BRANCH  18  19
ATOM     19  C   UNL     1      -1.938  10.989  -7.014  1.00  0.00     0.000 C 
BRANCH  19  20
ATOM     20  C   UNL     1      -0.948   9.905  -7.497  1.00  0.00     0.000 C 
BRANCH  20  21
ATOM     21  C   UNL     1      -1.586   8.795  -8.357  1.00  0.00     0.000 C 
BRANCH  21  22
ATOM     22  C   UNL     1      -0.878   8.530  -9.700  1.00  0.00    -0.000 C 
BRANCH  22  23
ATOM     23  C   UNL     1      -1.837   8.066 -10.808  1.00  0.00    -0.000 C 
BRANCH  23  24
ATOM     24  C   UNL     1      -1.648   8.909 -12.080  1.00  0.00    -0.000 C 
BRANCH  24  25
ATOM     25  C   UNL     1      -2.071  10.380 -11.907  1.00  0.00    -0.000 C 
BRANCH  25  26
ATOM     26  C   UNL     1      -3.041  10.914 -12.980  1.00  0.00    -0.000 C 
BRANCH  26  27
ATOM     27  C   UNL     1      -4.347  10.100 -13.124  1.00  0.00    -0.000 C 
BRANCH  27  28
ATOM     28  C   UNL     1      -5.627  10.930 -12.904  1.00  0.00    -0.000 C 
BRANCH  28  29
ATOM     29  C   UNL     1      -6.875  10.106 -12.545  1.00  0.00    -0.003 C 
ATOM     30  C   UNL     1      -8.075  10.977 -12.163  1.00  0.00     0.004 C 
ENDBRANCH  28  29
ENDBRANCH  27  28
ENDBRANCH  26  27
ENDBRANCH  25  26
ENDBRANCH  24  25
ENDBRANCH  23  24
ENDBRANCH  22  23
ENDBRANCH  21  22
ENDBRANCH  20  21
ENDBRANCH  19  20
ENDBRANCH  18  19
ENDBRANCH  17  18
ENDBRANCH   1  17
TORSDOF 26
ENDMDL
MODEL 4
REMARK VINA RESULT:     0.682      3.282      4.439
REMARK INTER + INTRA:           0.950
REMARK INTER:                   2.076
REMARK INTRA:                  -1.126
REMARK UNBOUND:                -0.769
REMARK SMILES CCCCCCCCCCCCCCCCCCCCCCCCCCCC(=O)[O-]
REMARK SMILES IDX 15 1 16 2 17 3 18 4 19 5 20 6 21 7 22 8 23 9 24 10 25 11
REMARK SMILES IDX 26 12 27 13 28 14 29 15 30 16 14 17 13 18 12 19 11 20 10 21
REMARK SMILES IDX 9 22 8 23 7 24 6 25 5 26 4 27 3 28 2 29 1 30
REMARK H PARENT
REMARK Flexibility Score: inf
ROOT
ATOM      1  C   UNL     1      -5.530   8.327  -2.343  1.00  0.00     0.000 C 
ENDROOT
BRANCH   1   2
ATOM      2  C   UNL     1      -4.706   7.994  -1.086  1.00  0.00     0.000 C 
BRANCH   2   3
ATOM      3  C   UNL     1      -3.633   9.052  -0.781  1.00  0.00     0.000 C 
BRANCH   3   4
ATOM      4  C   UNL     1      -2.514   8.509   0.123  1.00  0.00     0.000 C 
BRANCH   4   5
ATOM      5  C   UNL     1      -1.213   9.317  -0.010  1.00  0.00     0.000 C 
BRANCH   5   6
ATOM      6  C   UNL     1      -1.326  10.738   0.569  1.00  0.00     0.000 C 
BRANCH   6   7
ATOM      7  C   UNL     1      -0.875  10.887   2.038  1.00  0.00     0.000 C 
BRANCH   7   8
ATOM      8  C   UNL     1      -2.013  11.048   3.062  1.00  0.00     0.000 C 
BRANCH   8   9
ATOM      9  C   UNL     1      -3.418  10.741   2.515  1.00  0.00     0.000 C 
BRANCH   9  10
ATOM     10  C   UNL     1      -4.394  10.204   3.586  1.00  0.00     0.000 C 
BRANCH  10  11
ATOM     11  C   UNL     1      -5.721  10.981   3.606  1.00  0.00     0.000 C 
BRANCH  11  12
ATOM     12  C   UNL     1      -6.691  10.483   4.689  1.00  0.00     0.006 C 
BRANCH  12  13
ATOM     13  C   UNL     1      -6.589   8.973   4.936  1.00  0.00     0.053 C 
BRANCH  13  14
ATOM     14  C   UNL     1      -7.675   8.251   4.205  1.00  0.00     0.041 C 
ATOM     15  O   UNL     1      -8.606   8.895   3.651  1.00  0.00    -0.550 OA
ATOM     16  O   UNL     1      -7.684   6.862   4.173  1.00  0.00    -0.550 OA
ENDBRANCH  13  14
ENDBRANCH  12  13
ENDBRANCH  11  12
ENDBRANCH  10  11
ENDBRANCH   9  10
ENDBRANCH   8   9
ENDBRANCH   7   8
ENDBRANCH   6   7
ENDBRANCH   5   6
ENDBRANCH   4   5
ENDBRANCH   3   4
ENDBRANCH   2   3
ENDBRANCH   1   2
BRANCH   1  17
ATOM     17  C   UNL     1      -5.417   9.804  -2.779  1.00  0.00     0.000 C 
BRANCH  17  18
ATOM     18  C   UNL     1      -4.199  10.084  -3.685  1.00  0.00     0.000 C 
BRANCH  18  19
ATOM     19  C   UNL     1      -3.184  11.079  -3.087  1.00  0.00     0.000 C 
BRANCH  19  20
ATOM     20  C   UNL     1      -1.716  10.600  -3.147  1.00  0.00     0.000 C 
BRANCH  20  21
ATOM     21  C   UNL     1      -1.010  10.873  -4.491  1.00  0.00     0.000 C 
BRANCH  21  22
ATOM     22  C   UNL     1      -1.747  10.329  -5.731  1.00  0.00    -0.000 C 
BRANCH  22  23
ATOM     23  C   UNL     1      -1.325   8.899  -6.105  1.00  0.00    -0.000 C 
BRANCH  23  24
ATOM     24  C   UNL     1      -1.012   8.076  -4.845  1.00  0.00    -0.000 C 
BRANCH  24  25
ATOM     25  C   UNL     1      -1.701   6.699  -4.827  1.00  0.00    -0.000 C 
BRANCH  25  26
ATOM     26  C   UNL     1      -1.697   5.945  -6.173  1.00  0.00    -0.000 C 
BRANCH  26  27
ATOM     27  C   UNL     1      -0.986   4.573  -6.136  1.00  0.00    -0.000 C 
BRANCH  27  28
ATOM     28  C   UNL     1      -1.893   3.391  -6.531  1.00  0.00    -0.000 C 
BRANCH  28  29
ATOM     29  C   UNL     1      -2.026   2.296  -5.458  1.00  0.00    -0.003 C 
ATOM     30  C   UNL     1      -0.877   2.310  -4.447  1.00  0.00     0.004 C 
ENDBRANCH  28  29
ENDBRANCH  27  28
ENDBRANCH  26  27
ENDBRANCH  25  26
ENDBRANCH  24  25
ENDBRANCH  23  24
ENDBRANCH  22  23
ENDBRANCH  21  22
ENDBRANCH  20  21
ENDBRANCH  19  20
ENDBRANCH  18  19
ENDBRANCH  17  18
ENDBRANCH   1  17
TORSDOF 26
ENDMDL
