MODEL 1
REMARK VINA RESULT:    -6.692      0.000      0.000
REMARK INTER + INTRA:          -7.511
REMARK INTER:                  -7.279
REMARK INTRA:                  -0.232
REMARK UNBOUND:                -0.232
REMARK SMILES CC1(C)CC[C@]2(C(=O)[O-])CC[C@]3(C)C(=CC[C@@H]4[C@@]5(C)CC[C@H](O)C(C)(C)[C@@H]5CC[C@]43C)[C@@H]2C1
REMARK SMILES IDX 6 1 5 2 10 3 32 4 4 5 11 6 14 7 33 8 2 9 12 10 15 11 1 12
REMARK SMILES IDX 3 13 13 14 30 15 16 16 17 17 29 18 31 19 18 20 28 21 27 22
REMARK SMILES IDX 20 23 19 24 24 25 21 26 22 27 25 28 26 29 7 30 8 31 9 32
REMARK SMILES IDX 23 33
REMARK H PARENT 23 34
REMARK Flexibility Score: inf
ROOT
ATOM      1  C   UNL     1     103.045  82.365  24.954  1.00  0.00     0.017 C 
ATOM      2  C   UNL     1     102.715  82.566  26.475  1.00  0.00     0.014 C 
ATOM      3  C   UNL     1     104.304  83.205  24.627  1.00  0.00     0.014 C 
ATOM      4  C   UNL     1     101.842  82.832  24.059  1.00  0.00     0.028 C 
ATOM      5  C   UNL     1     101.209  82.517  26.766  1.00  0.00     0.007 C 
ATOM      6  C   UNL     1     104.714  83.100  23.155  1.00  0.00     0.013 C 
ATOM      7  C   UNL     1     102.194  83.102  22.595  1.00  0.00    -0.064 C 
ATOM      8  C   UNL     1     101.117  84.043  24.687  1.00  0.00     0.015 C 
ATOM      9  C   UNL     1     100.438  83.668  26.045  1.00  0.00    -0.035 C 
ATOM     10  C   UNL     1     103.596  83.524  22.140  1.00  0.00    -0.006 C 
ATOM     11  C   UNL     1     101.178  83.079  21.695  1.00  0.00    -0.027 C 
ATOM     12  C   UNL     1     100.398  84.918  26.951  1.00  0.00     0.011 C 
ATOM     13  C   UNL     1      98.985  83.210  25.791  1.00  0.00     0.011 C 
ATOM     14  C   UNL     1     103.575  85.091  22.139  1.00  0.00     0.017 C 
ATOM     15  C   UNL     1     103.857  82.880  20.685  1.00  0.00    -0.020 C 
ATOM     16  C   UNL     1     101.330  83.303  20.203  1.00  0.00     0.032 C 
ATOM     17  C   UNL     1     102.793  83.487  19.693  1.00  0.00     0.006 C 
ATOM     18  C   UNL     1     105.296  83.202  20.171  1.00  0.00     0.008 C 
ATOM     19  C   UNL     1     103.705  81.319  20.752  1.00  0.00     0.012 C 
ATOM     20  C   UNL     1     103.007  83.185  18.147  1.00  0.00    -0.025 C 
ATOM     21  C   UNL     1     105.522  82.906  18.677  1.00  0.00     0.005 C 
ATOM     22  C   UNL     1     104.477  83.633  17.790  1.00  0.00     0.003 C 
ATOM     23  C   UNL     1     102.021  84.084  17.333  1.00  0.00     0.010 C 
ATOM     24  C   UNL     1     102.717  81.685  17.797  1.00  0.00     0.012 C 
ATOM     25  C   UNL     1     104.825  83.700  16.248  1.00  0.00    -0.006 C 
ATOM     26  C   UNL     1     102.310  84.121  15.826  1.00  0.00     0.033 C 
ATOM     27  C   UNL     1     103.747  84.572  15.527  1.00  0.00     0.120 C 
ATOM     28  C   UNL     1     104.944  82.304  15.584  1.00  0.00     0.014 C 
ATOM     29  C   UNL     1     106.193  84.414  16.050  1.00  0.00     0.014 C 
ENDROOT
BRANCH   1  30
ATOM     30  C   UNL     1     103.356  80.888  24.711  1.00  0.00     0.048 C 
ATOM     31  O   UNL     1     102.589  80.193  23.992  1.00  0.00    -0.550 OA
ATOM     32  O   UNL     1     104.461  80.276  25.293  1.00  0.00    -0.550 OA
ENDBRANCH   1  30
BRANCH  27  33
ATOM     33  O   UNL     1     103.956  84.558  14.135  1.00  0.00    -0.393 OA
ATOM     34  H   UNL     1     104.487  83.745  13.928  1.00  0.00     0.210 HD
ENDBRANCH  27  33
TORSDOF 2
ENDMDL
MODEL 2
REMARK VINA RESULT:    -6.134      1.880      8.442
REMARK INTER + INTRA:          -6.904
REMARK INTER:                  -6.663
REMARK INTRA:                  -0.240
REMARK UNBOUND:                -0.232
REMARK SMILES CC1(C)CC[C@]2(C(=O)[O-])CC[C@]3(C)C(=CC[C@@H]4[C@@]5(C)CC[C@H](O)C(C)(C)[C@@H]5CC[C@]43C)[C@@H]2C1
REMARK SMILES IDX 6 1 5 2 10 3 32 4 4 5 11 6 14 7 33 8 2 9 12 10 15 11 1 12
REMARK SMILES IDX 3 13 13 14 30 15 16 16 17 17 29 18 31 19 18 20 28 21 27 22
REMARK SMILES IDX 20 23 19 24 24 25 21 26 22 27 25 28 26 29 7 30 8 31 9 32
REMARK SMILES IDX 23 33
REMARK H PARENT 23 34
REMARK Flexibility Score: inf
ROOT
ATOM      1  C   UNL     1     103.216  85.487  17.180  1.00  0.00     0.017 C 
ATOM      2  C   UNL     1     103.834  86.198  15.924  1.00  0.00     0.014 C 
ATOM      3  C   UNL     1     102.430  86.550  17.987  1.00  0.00     0.014 C 
ATOM      4  C   UNL     1     104.345  84.861  18.074  1.00  0.00     0.028 C 
ATOM      5  C   UNL     1     105.184  85.599  15.509  1.00  0.00     0.007 C 
ATOM      6  C   UNL     1     101.793  85.971  19.253  1.00  0.00     0.013 C 
ATOM      7  C   UNL     1     103.927  84.542  19.510  1.00  0.00    -0.064 C 
ATOM      8  C   UNL     1     105.622  85.730  18.049  1.00  0.00     0.015 C 
ATOM      9  C   UNL     1     106.264  85.769  16.624  1.00  0.00    -0.035 C 
ATOM     10  C   UNL     1     102.808  85.295  20.240  1.00  0.00    -0.006 C 
ATOM     11  C   UNL     1     104.671  83.631  20.189  1.00  0.00    -0.027 C 
ATOM     12  C   UNL     1     106.999  87.115  16.439  1.00  0.00     0.011 C 
ATOM     13  C   UNL     1     107.301  84.633  16.489  1.00  0.00     0.011 C 
ATOM     14  C   UNL     1     103.526  86.463  20.999  1.00  0.00     0.017 C 
ATOM     15  C   UNL     1     102.065  84.251  21.216  1.00  0.00    -0.020 C 
ATOM     16  C   UNL     1     104.404  83.171  21.608  1.00  0.00     0.032 C 
ATOM     17  C   UNL     1     103.118  83.749  22.276  1.00  0.00     0.006 C 
ATOM     18  C   UNL     1     100.859  84.920  21.951  1.00  0.00     0.008 C 
ATOM     19  C   UNL     1     101.511  83.038  20.386  1.00  0.00     0.012 C 
ATOM     20  C   UNL     1     102.553  82.896  23.493  1.00  0.00    -0.025 C 
ATOM     21  C   UNL     1     100.295  84.102  23.128  1.00  0.00     0.005 C 
ATOM     22  C   UNL     1     101.402  83.748  24.155  1.00  0.00     0.003 C 
ATOM     23  C   UNL     1     103.697  82.734  24.546  1.00  0.00     0.010 C 
ATOM     24  C   UNL     1     102.085  81.471  23.042  1.00  0.00     0.012 C 
ATOM     25  C   UNL     1     100.884  83.237  25.561  1.00  0.00    -0.006 C 
ATOM     26  C   UNL     1     103.223  82.190  25.901  1.00  0.00     0.033 C 
ATOM     27  C   UNL     1     102.111  83.054  26.512  1.00  0.00     0.120 C 
ATOM     28  C   UNL     1     100.053  81.932  25.472  1.00  0.00     0.014 C 
ATOM     29  C   UNL     1      99.967  84.315  26.205  1.00  0.00     0.014 C 
ENDROOT
BRANCH   1  30
ATOM     30  C   UNL     1     102.245  84.408  16.703  1.00  0.00     0.048 C 
ATOM     31  O   UNL     1     102.553  83.190  16.812  1.00  0.00    -0.550 OA
ATOM     32  O   UNL     1     101.027  84.737  16.117  1.00  0.00    -0.550 OA
ENDBRANCH   1  30
BRANCH  27  33
ATOM     33  O   UNL     1     101.704  82.489  27.735  1.00  0.00    -0.393 OA
ATOM     34  H   UNL     1     102.522  82.159  28.190  1.00  0.00     0.210 HD
ENDBRANCH  27  33
TORSDOF 2
ENDMDL
MODEL 3
REMARK VINA RESULT:    -6.118      0.763      0.769
REMARK INTER + INTRA:          -6.887
REMARK INTER:                  -6.645
REMARK INTRA:                  -0.242
REMARK UNBOUND:                -0.232
REMARK SMILES CC1(C)CC[C@]2(C(=O)[O-])CC[C@]3(C)C(=CC[C@@H]4[C@@]5(C)CC[C@H](O)C(C)(C)[C@@H]5CC[C@]43C)[C@@H]2C1
REMARK SMILES IDX 6 1 5 2 10 3 32 4 4 5 11 6 14 7 33 8 2 9 12 10 15 11 1 12
REMARK SMILES IDX 3 13 13 14 30 15 16 16 17 17 29 18 31 19 18 20 28 21 27 22
REMARK SMILES IDX 20 23 19 24 24 25 21 26 22 27 25 28 26 29 7 30 8 31 9 32
REMARK SMILES IDX 23 33
REMARK H PARENT 23 34
REMARK Flexibility Score: inf
ROOT
ATOM      1  C   UNL     1     103.372  82.410  24.434  1.00  0.00     0.017 C 
ATOM      2  C   UNL     1     103.103  82.448  25.980  1.00  0.00     0.014 C 
ATOM      3  C   UNL     1     104.513  83.410  24.126  1.00  0.00     0.014 C 
ATOM      4  C   UNL     1     102.079  82.810  23.636  1.00  0.00     0.028 C 
ATOM      5  C   UNL     1     101.629  82.207  26.331  1.00  0.00     0.007 C 
ATOM      6  C   UNL     1     104.853  83.470  22.634  1.00  0.00     0.013 C 
ATOM      7  C   UNL     1     102.322  83.235  22.188  1.00  0.00    -0.064 C 
ATOM      8  C   UNL     1     101.262  83.876  24.398  1.00  0.00     0.015 C 
ATOM      9  C   UNL     1     100.701  83.318  25.747  1.00  0.00    -0.035 C 
ATOM     10  C   UNL     1     103.643  83.847  21.709  1.00  0.00    -0.006 C 
ATOM     11  C   UNL     1     101.268  83.171  21.334  1.00  0.00    -0.027 C 
ATOM     12  C   UNL     1     100.574  84.479  26.758  1.00  0.00     0.011 C 
ATOM     13  C   UNL     1      99.294  82.723  25.518  1.00  0.00     0.011 C 
ATOM     14  C   UNL     1     103.453  85.396  21.844  1.00  0.00     0.017 C 
ATOM     15  C   UNL     1     103.894  83.357  20.194  1.00  0.00    -0.020 C 
ATOM     16  C   UNL     1     101.315  83.530  19.862  1.00  0.00     0.032 C 
ATOM     17  C   UNL     1     102.720  83.919  19.305  1.00  0.00     0.006 C 
ATOM     18  C   UNL     1     105.262  83.879  19.647  1.00  0.00     0.008 C 
ATOM     19  C   UNL     1     103.917  81.787  20.133  1.00  0.00     0.012 C 
ATOM     20  C   UNL     1     102.883  83.768  17.731  1.00  0.00    -0.025 C 
ATOM     21  C   UNL     1     105.438  83.732  18.124  1.00  0.00     0.005 C 
ATOM     22  C   UNL     1     104.275  84.406  17.351  1.00  0.00     0.003 C 
ATOM     23  C   UNL     1     101.764  84.614  17.043  1.00  0.00     0.010 C 
ATOM     24  C   UNL     1     102.739  82.279  17.267  1.00  0.00     0.012 C 
ATOM     25  C   UNL     1     104.531  84.636  15.806  1.00  0.00    -0.006 C 
ATOM     26  C   UNL     1     101.967  84.805  15.533  1.00  0.00     0.033 C 
ATOM     27  C   UNL     1     103.329  85.437  15.211  1.00  0.00     0.120 C 
ATOM     28  C   UNL     1     104.765  83.321  15.019  1.00  0.00     0.014 C 
ATOM     29  C   UNL     1     105.801  85.513  15.611  1.00  0.00     0.014 C 
ENDROOT
BRANCH   1  30
ATOM     30  C   UNL     1     103.827  81.002  24.051  1.00  0.00     0.048 C 
ATOM     31  O   UNL     1     103.054  80.243  23.406  1.00  0.00    -0.550 OA
ATOM     32  O   UNL     1     105.077  80.518  24.424  1.00  0.00    -0.550 OA
ENDBRANCH   1  30
BRANCH  27  33
ATOM     33  O   UNL     1     103.463  85.560  13.815  1.00  0.00    -0.393 OA
ATOM     34  H   UNL     1     104.436  85.610  13.620  1.00  0.00     0.210 HD
ENDBRANCH  27  33
TORSDOF 2
ENDMDL
MODEL 4
REMARK VINA RESULT:    -6.094      1.693      8.507
REMARK INTER + INTRA:          -6.860
REMARK INTER:                  -6.634
REMARK INTRA:                  -0.226
REMARK UNBOUND:                -0.232
REMARK SMILES CC1(C)CC[C@]2(C(=O)[O-])CC[C@]3(C)C(=CC[C@@H]4[C@@]5(C)CC[C@H](O)C(C)(C)[C@@H]5CC[C@]43C)[C@@H]2C1
REMARK SMILES IDX 6 1 5 2 10 3 32 4 4 5 11 6 14 7 33 8 2 9 12 10 15 11 1 12
REMARK SMILES IDX 3 13 13 14 30 15 16 16 17 17 29 18 31 19 18 20 28 21 27 22
REMARK SMILES IDX 20 23 19 24 24 25 21 26 22 27 25 28 26 29 7 30 8 31 9 32
REMARK SMILES IDX 23 33
REMARK H PARENT 23 34
REMARK Flexibility Score: inf
ROOT
ATOM      1  C   UNL     1     104.677  85.032  15.785  1.00  0.00     0.017 C 
ATOM      2  C   UNL     1     105.465  85.871  14.716  1.00  0.00     0.014 C 
ATOM      3  C   UNL     1     103.583  85.945  16.392  1.00  0.00     0.014 C 
ATOM      4  C   UNL     1     105.643  84.528  16.916  1.00  0.00     0.028 C 
ATOM      5  C   UNL     1     106.945  85.478  14.629  1.00  0.00     0.007 C 
ATOM      6  C   UNL     1     102.756  85.234  17.466  1.00  0.00     0.013 C 
ATOM      7  C   UNL     1     104.951  84.096  18.209  1.00  0.00    -0.064 C 
ATOM      8  C   UNL     1     106.755  85.562  17.201  1.00  0.00     0.015 C 
ATOM      9  C   UNL     1     107.700  85.747  15.968  1.00  0.00    -0.035 C 
ATOM     10  C   UNL     1     103.598  84.661  18.659  1.00  0.00    -0.006 C 
ATOM     11  C   UNL     1     105.637  83.268  19.037  1.00  0.00    -0.027 C 
ATOM     12  C   UNL     1     108.260  87.186  15.974  1.00  0.00     0.011 C 
ATOM     13  C   UNL     1     108.889  84.767  16.074  1.00  0.00     0.011 C 
ATOM     14  C   UNL     1     103.947  85.883  19.576  1.00  0.00     0.017 C 
ATOM     15  C   UNL     1     102.802  83.486  19.424  1.00  0.00    -0.020 C 
ATOM     16  C   UNL     1     105.114  82.718  20.350  1.00  0.00     0.032 C 
ATOM     17  C   UNL     1     103.640  83.088  20.698  1.00  0.00     0.006 C 
ATOM     18  C   UNL     1     101.377  83.955  19.858  1.00  0.00     0.008 C 
ATOM     19  C   UNL     1     102.635  82.245  18.476  1.00  0.00     0.012 C 
ATOM     20  C   UNL     1     102.933  82.118  21.740  1.00  0.00    -0.025 C 
ATOM     21  C   UNL     1     100.675  83.021  20.860  1.00  0.00     0.005 C 
ATOM     22  C   UNL     1     101.550  82.778  22.118  1.00  0.00     0.003 C 
ATOM     23  C   UNL     1     103.810  82.069  23.033  1.00  0.00     0.010 C 
ATOM     24  C   UNL     1     102.788  80.662  21.180  1.00  0.00     0.012 C 
ATOM     25  C   UNL     1     100.796  82.144  23.357  1.00  0.00    -0.006 C 
ATOM     26  C   UNL     1     103.114  81.410  24.233  1.00  0.00     0.033 C 
ATOM     27  C   UNL     1     101.780  82.090  24.570  1.00  0.00     0.120 C 
ATOM     28  C   UNL     1     100.201  80.743  23.063  1.00  0.00     0.014 C 
ATOM     29  C   UNL     1      99.611  83.061  23.774  1.00  0.00     0.014 C 
ENDROOT
BRANCH   1  30
ATOM     30  C   UNL     1     104.007  83.852  15.083  1.00  0.00     0.048 C 
ATOM     31  O   UNL     1     103.085  84.055  14.248  1.00  0.00    -0.550 OA
ATOM     32  O   UNL     1     104.373  82.539  15.364  1.00  0.00    -0.550 OA
ENDBRANCH   1  30
BRANCH  27  33
ATOM     33  O   UNL     1     101.183  81.425  25.657  1.00  0.00    -0.393 OA
ATOM     34  H   UNL     1     101.345  81.982  26.463  1.00  0.00     0.210 HD
ENDBRANCH  27  33
TORSDOF 2
ENDMDL
MODEL 5
REMARK VINA RESULT:    -5.740      2.218      3.700
REMARK INTER + INTRA:          -6.476
REMARK INTER:                  -6.279
REMARK INTRA:                  -0.197
REMARK UNBOUND:                -0.232
REMARK SMILES CC1(C)CC[C@]2(C(=O)[O-])CC[C@]3(C)C(=CC[C@@H]4[C@@]5(C)CC[C@H](O)C(C)(C)[C@@H]5CC[C@]43C)[C@@H]2C1
REMARK SMILES IDX 6 1 5 2 10 3 32 4 4 5 11 6 14 7 33 8 2 9 12 10 15 11 1 12
REMARK SMILES IDX 3 13 13 14 30 15 16 16 17 17 29 18 31 19 18 20 28 21 27 22
REMARK SMILES IDX 20 23 19 24 24 25 21 26 22 27 25 28 26 29 7 30 8 31 9 32
REMARK SMILES IDX 23 33
REMARK H PARENT 23 34
REMARK Flexibility Score: inf
ROOT
ATOM      1  C   UNL     1     103.304  83.047  22.218  1.00  0.00     0.017 C 
ATOM      2  C   UNL     1     102.658  82.550  23.561  1.00  0.00     0.014 C 
ATOM      3  C   UNL     1     103.224  84.593  22.197  1.00  0.00     0.014 C 
ATOM      4  C   UNL     1     102.537  82.454  20.982  1.00  0.00     0.028 C 
ATOM      5  C   UNL     1     101.949  81.198  23.412  1.00  0.00     0.007 C 
ATOM      6  C   UNL     1     103.812  85.193  20.917  1.00  0.00     0.013 C 
ATOM      7  C   UNL     1     102.774  83.190  19.663  1.00  0.00    -0.064 C 
ATOM      8  C   UNL     1     101.027  82.315  21.277  1.00  0.00     0.015 C 
ATOM      9  C   UNL     1     100.754  81.273  22.410  1.00  0.00    -0.035 C 
ATOM     10  C   UNL     1     103.148  84.675  19.594  1.00  0.00    -0.006 C 
ATOM     11  C   UNL     1     102.518  82.512  18.515  1.00  0.00    -0.027 C 
ATOM     12  C   UNL     1      99.465  81.672  23.162  1.00  0.00     0.011 C 
ATOM     13  C   UNL     1     100.537  79.875  21.790  1.00  0.00     0.011 C 
ATOM     14  C   UNL     1     101.786  85.438  19.459  1.00  0.00     0.017 C 
ATOM     15  C   UNL     1     104.130  84.879  18.331  1.00  0.00    -0.020 C 
ATOM     16  C   UNL     1     102.708  83.063  17.115  1.00  0.00     0.032 C 
ATOM     17  C   UNL     1     103.327  84.493  17.030  1.00  0.00     0.006 C 
ATOM     18  C   UNL     1     104.620  86.359  18.225  1.00  0.00     0.008 C 
ATOM     19  C   UNL     1     105.395  83.960  18.480  1.00  0.00     0.012 C 
ATOM     20  C   UNL     1     104.012  84.846  15.640  1.00  0.00    -0.025 C 
ATOM     21  C   UNL     1     105.293  86.714  16.887  1.00  0.00     0.005 C 
ATOM     22  C   UNL     1     104.374  86.381  15.683  1.00  0.00     0.003 C 
ATOM     23  C   UNL     1     102.955  84.634  14.509  1.00  0.00     0.010 C 
ATOM     24  C   UNL     1     105.248  83.928  15.346  1.00  0.00     0.012 C 
ATOM     25  C   UNL     1     104.801  87.030  14.304  1.00  0.00    -0.006 C 
ATOM     26  C   UNL     1     103.373  85.211  13.149  1.00  0.00     0.033 C 
ATOM     27  C   UNL     1     103.706  86.707  13.236  1.00  0.00     0.120 C 
ATOM     28  C   UNL     1     106.200  86.574  13.817  1.00  0.00     0.014 C 
ATOM     29  C   UNL     1     104.852  88.578  14.447  1.00  0.00     0.014 C 
ENDROOT
BRANCH   1  30
ATOM     30  C   UNL     1     104.772  82.624  22.195  1.00  0.00     0.048 C 
ATOM     31  O   UNL     1     105.622  83.261  22.874  1.00  0.00    -0.550 OA
ATOM     32  O   UNL     1     105.207  81.558  21.413  1.00  0.00    -0.550 OA
ENDBRANCH   1  30
BRANCH  27  33
ATOM     33  O   UNL     1     104.106  87.167  11.968  1.00  0.00    -0.393 OA
ATOM     34  H   UNL     1     104.208  86.368  11.387  1.00  0.00     0.210 HD
ENDBRANCH  27  33
TORSDOF 2
ENDMDL
MODEL 6
REMARK VINA RESULT:    -5.670      2.267      3.109
REMARK INTER + INTRA:          -6.400
REMARK INTER:                  -6.161
REMARK INTRA:                  -0.239
REMARK UNBOUND:                -0.232
REMARK SMILES CC1(C)CC[C@]2(C(=O)[O-])CC[C@]3(C)C(=CC[C@@H]4[C@@]5(C)CC[C@H](O)C(C)(C)[C@@H]5CC[C@]43C)[C@@H]2C1
REMARK SMILES IDX 6 1 5 2 10 3 32 4 4 5 11 6 14 7 33 8 2 9 12 10 15 11 1 12
REMARK SMILES IDX 3 13 13 14 30 15 16 16 17 17 29 18 31 19 18 20 28 21 27 22
REMARK SMILES IDX 20 23 19 24 24 25 21 26 22 27 25 28 26 29 7 30 8 31 9 32
REMARK SMILES IDX 23 33
REMARK H PARENT 23 34
REMARK Flexibility Score: inf
ROOT
ATOM      1  C   UNL     1     101.758  81.601  23.007  1.00  0.00     0.017 C 
ATOM      2  C   UNL     1     101.282  80.926  24.343  1.00  0.00     0.014 C 
ATOM      3  C   UNL     1     103.178  81.072  22.690  1.00  0.00     0.014 C 
ATOM      4  C   UNL     1     101.790  83.164  23.156  1.00  0.00     0.028 C 
ATOM      5  C   UNL     1     100.380  81.843  25.180  1.00  0.00     0.007 C 
ATOM      6  C   UNL     1     103.756  81.678  21.408  1.00  0.00     0.013 C 
ATOM      7  C   UNL     1     102.636  83.894  22.113  1.00  0.00    -0.064 C 
ATOM      8  C   UNL     1     102.194  83.580  24.588  1.00  0.00     0.015 C 
ATOM      9  C   UNL     1     101.128  83.133  25.641  1.00  0.00    -0.035 C 
ATOM     10  C   UNL     1     103.834  83.245  21.410  1.00  0.00    -0.006 C 
ATOM     11  C   UNL     1     102.373  85.209  21.905  1.00  0.00    -0.027 C 
ATOM     12  C   UNL     1     101.830  82.877  26.992  1.00  0.00     0.011 C 
ATOM     13  C   UNL     1     100.093  84.262  25.844  1.00  0.00     0.011 C 
ATOM     14  C   UNL     1     105.079  83.622  22.284  1.00  0.00     0.017 C 
ATOM     15  C   UNL     1     103.899  83.827  19.908  1.00  0.00    -0.020 C 
ATOM     16  C   UNL     1     103.088  86.095  20.904  1.00  0.00     0.032 C 
ATOM     17  C   UNL     1     104.144  85.381  20.004  1.00  0.00     0.006 C 
ATOM     18  C   UNL     1     105.054  83.163  19.091  1.00  0.00     0.008 C 
ATOM     19  C   UNL     1     102.549  83.536  19.159  1.00  0.00     0.012 C 
ATOM     20  C   UNL     1     104.486  86.133  18.646  1.00  0.00    -0.025 C 
ATOM     21  C   UNL     1     105.392  83.876  17.769  1.00  0.00     0.005 C 
ATOM     22  C   UNL     1     105.710  85.377  17.998  1.00  0.00     0.003 C 
ATOM     23  C   UNL     1     104.951  87.583  18.997  1.00  0.00     0.010 C 
ATOM     24  C   UNL     1     103.243  86.223  17.697  1.00  0.00     0.012 C 
ATOM     25  C   UNL     1     106.416  86.113  16.788  1.00  0.00    -0.006 C 
ATOM     26  C   UNL     1     105.592  88.334  17.821  1.00  0.00     0.033 C 
ATOM     27  C   UNL     1     106.783  87.566  17.229  1.00  0.00     0.120 C 
ATOM     28  C   UNL     1     105.563  86.124  15.494  1.00  0.00     0.014 C 
ATOM     29  C   UNL     1     107.751  85.392  16.444  1.00  0.00     0.014 C 
ENDROOT
BRANCH   1  30
ATOM     30  C   UNL     1     100.809  81.185  21.884  1.00  0.00     0.048 C 
ATOM     31  O   UNL     1     100.022  82.030  21.379  1.00  0.00    -0.550 OA
ATOM     32  O   UNL     1     100.770  79.875  21.417  1.00  0.00    -0.550 OA
ENDBRANCH   1  30
BRANCH  27  33
ATOM     33  O   UNL     1     107.307  88.291  16.142  1.00  0.00    -0.393 OA
ATOM     34  H   UNL     1     107.387  87.658  15.381  1.00  0.00     0.210 HD
ENDBRANCH  27  33
TORSDOF 2
ENDMDL
MODEL 7
REMARK VINA RESULT:    -5.580      1.865      8.509
REMARK INTER + INTRA:          -6.302
REMARK INTER:                  -6.075
REMARK INTRA:                  -0.226
REMARK UNBOUND:                -0.232
REMARK SMILES CC1(C)CC[C@]2(C(=O)[O-])CC[C@]3(C)C(=CC[C@@H]4[C@@]5(C)CC[C@H](O)C(C)(C)[C@@H]5CC[C@]43C)[C@@H]2C1
REMARK SMILES IDX 6 1 5 2 10 3 32 4 4 5 11 6 14 7 33 8 2 9 12 10 15 11 1 12
REMARK SMILES IDX 3 13 13 14 30 15 16 16 17 17 29 18 31 19 18 20 28 21 27 22
REMARK SMILES IDX 20 23 19 24 24 25 21 26 22 27 25 28 26 29 7 30 8 31 9 32
REMARK SMILES IDX 23 33
REMARK H PARENT 23 34
REMARK Flexibility Score: inf
ROOT
ATOM      1  C   UNL     1     103.265  86.149  16.276  1.00  0.00     0.017 C 
ATOM      2  C   UNL     1     103.611  87.151  15.117  1.00  0.00     0.014 C 
ATOM      3  C   UNL     1     102.701  86.971  17.461  1.00  0.00     0.014 C 
ATOM      4  C   UNL     1     104.547  85.363  16.730  1.00  0.00     0.028 C 
ATOM      5  C   UNL     1     104.823  86.704  14.290  1.00  0.00     0.007 C 
ATOM      6  C   UNL     1     102.342  86.094  18.664  1.00  0.00     0.013 C 
ATOM      7  C   UNL     1     104.445  84.705  18.106  1.00  0.00    -0.064 C 
ATOM      8  C   UNL     1     105.809  86.250  16.631  1.00  0.00     0.015 C 
ATOM      9  C   UNL     1     106.124  86.640  15.150  1.00  0.00    -0.035 C 
ATOM     10  C   UNL     1     103.532  85.235  19.218  1.00  0.00    -0.006 C 
ATOM     11  C   UNL     1     105.298  83.683  18.373  1.00  0.00    -0.027 C 
ATOM     12  C   UNL     1     106.833  88.012  15.130  1.00  0.00     0.011 C 
ATOM     13  C   UNL     1     107.079  85.596  14.530  1.00  0.00     0.011 C 
ATOM     14  C   UNL     1     104.427  86.213  20.055  1.00  0.00     0.017 C 
ATOM     15  C   UNL     1     102.995  83.970  20.061  1.00  0.00    -0.020 C 
ATOM     16  C   UNL     1     105.338  82.896  19.669  1.00  0.00     0.032 C 
ATOM     17  C   UNL     1     104.243  83.265  20.717  1.00  0.00     0.006 C 
ATOM     18  C   UNL     1     101.996  84.414  21.177  1.00  0.00     0.008 C 
ATOM     19  C   UNL     1     102.245  82.970  19.110  1.00  0.00     0.012 C 
ATOM     20  C   UNL     1     103.937  82.135  21.793  1.00  0.00    -0.025 C 
ATOM     21  C   UNL     1     101.684  83.328  22.223  1.00  0.00     0.005 C 
ATOM     22  C   UNL     1     102.980  82.776  22.872  1.00  0.00     0.003 C 
ATOM     23  C   UNL     1     105.279  81.764  22.504  1.00  0.00     0.010 C 
ATOM     24  C   UNL     1     103.348  80.842  21.134  1.00  0.00     0.012 C 
ATOM     25  C   UNL     1     102.770  81.935  24.197  1.00  0.00    -0.006 C 
ATOM     26  C   UNL     1     105.100  80.905  23.764  1.00  0.00     0.033 C 
ATOM     27  C   UNL     1     104.170  81.571  24.787  1.00  0.00     0.120 C 
ATOM     28  C   UNL     1     101.908  80.664  23.987  1.00  0.00     0.014 C 
ATOM     29  C   UNL     1     102.041  82.807  25.259  1.00  0.00     0.014 C 
ENDROOT
BRANCH   1  30
ATOM     30  C   UNL     1     102.188  85.183  15.782  1.00  0.00     0.048 C 
ATOM     31  O   UNL     1     102.445  83.954  15.674  1.00  0.00    -0.550 OA
ATOM     32  O   UNL     1     100.924  85.634  15.417  1.00  0.00    -0.550 OA
ENDBRANCH   1  30
BRANCH  27  33
ATOM     33  O   UNL     1     104.026  80.724  25.902  1.00  0.00    -0.393 OA
ATOM     34  H   UNL     1     104.556  81.123  26.641  1.00  0.00     0.210 HD
ENDBRANCH  27  33
TORSDOF 2
ENDMDL
MODEL 8
REMARK VINA RESULT:    -5.469      2.145      8.262
REMARK INTER + INTRA:          -6.181
REMARK INTER:                  -5.971
REMARK INTRA:                  -0.210
REMARK UNBOUND:                -0.232
REMARK SMILES CC1(C)CC[C@]2(C(=O)[O-])CC[C@]3(C)C(=CC[C@@H]4[C@@]5(C)CC[C@H](O)C(C)(C)[C@@H]5CC[C@]43C)[C@@H]2C1
REMARK SMILES IDX 6 1 5 2 10 3 32 4 4 5 11 6 14 7 33 8 2 9 12 10 15 11 1 12
REMARK SMILES IDX 3 13 13 14 30 15 16 16 17 17 29 18 31 19 18 20 28 21 27 22
REMARK SMILES IDX 20 23 19 24 24 25 21 26 22 27 25 28 26 29 7 30 8 31 9 32
REMARK SMILES IDX 23 33
REMARK H PARENT 23 34
REMARK Flexibility Score: inf
ROOT
ATOM      1  C   UNL     1     105.285  85.963  16.553  1.00  0.00     0.017 C 
ATOM      2  C   UNL     1     105.641  86.429  15.096  1.00  0.00     0.014 C 
ATOM      3  C   UNL     1     106.019  84.625  16.816  1.00  0.00     0.014 C 
ATOM      4  C   UNL     1     103.735  85.763  16.707  1.00  0.00     0.028 C 
ATOM      5  C   UNL     1     104.490  87.182  14.417  1.00  0.00     0.007 C 
ATOM      6  C   UNL     1     105.731  84.063  18.211  1.00  0.00     0.013 C 
ATOM      7  C   UNL     1     103.311  84.907  17.902  1.00  0.00    -0.064 C 
ATOM      8  C   UNL     1     103.107  85.236  15.397  1.00  0.00     0.015 C 
ATOM      9  C   UNL     1     103.228  86.280  14.240  1.00  0.00    -0.035 C 
ATOM     10  C   UNL     1     104.209  83.825  18.512  1.00  0.00    -0.006 C 
ATOM     11  C   UNL     1     102.036  85.045  18.348  1.00  0.00    -0.027 C 
ATOM     12  C   UNL     1     103.305  85.531  12.891  1.00  0.00     0.011 C 
ATOM     13  C   UNL     1     101.972  87.180  14.219  1.00  0.00     0.011 C 
ATOM     14  C   UNL     1     103.818  82.499  17.773  1.00  0.00     0.017 C 
ATOM     15  C   UNL     1     103.929  83.786  20.099  1.00  0.00    -0.020 C 
ATOM     16  C   UNL     1     101.438  84.301  19.526  1.00  0.00     0.032 C 
ATOM     17  C   UNL     1     102.421  83.378  20.311  1.00  0.00     0.006 C 
ATOM     18  C   UNL     1     104.857  82.754  20.815  1.00  0.00     0.008 C 
ATOM     19  C   UNL     1     104.201  85.200  20.727  1.00  0.00     0.012 C 
ATOM     20  C   UNL     1     101.978  83.039  21.799  1.00  0.00    -0.025 C 
ATOM     21  C   UNL     1     104.446  82.421  22.261  1.00  0.00     0.005 C 
ATOM     22  C   UNL     1     102.974  81.938  22.335  1.00  0.00     0.003 C 
ATOM     23  C   UNL     1     100.549  82.409  21.750  1.00  0.00     0.010 C 
ATOM     24  C   UNL     1     101.928  84.318  22.702  1.00  0.00     0.012 C 
ATOM     25  C   UNL     1     102.560  81.231  23.689  1.00  0.00    -0.006 C 
ATOM     26  C   UNL     1     100.107  81.762  23.071  1.00  0.00     0.033 C 
ATOM     27  C   UNL     1     101.099  80.693  23.549  1.00  0.00     0.120 C 
ATOM     28  C   UNL     1     102.694  82.152  24.929  1.00  0.00     0.014 C 
ATOM     29  C   UNL     1     103.476  79.999  23.938  1.00  0.00     0.014 C 
ENDROOT
BRANCH   1  30
ATOM     30  C   UNL     1     105.793  87.013  17.540  1.00  0.00     0.048 C 
ATOM     31  O   UNL     1     104.980  87.629  18.279  1.00  0.00    -0.550 OA
ATOM     32  O   UNL     1     107.145  87.331  17.627  1.00  0.00    -0.550 OA
ENDBRANCH   1  30
BRANCH  27  33
ATOM     33  O   UNL     1     100.653  80.160  24.772  1.00  0.00    -0.393 OA
ATOM     34  H   UNL     1      99.660  80.147  24.739  1.00  0.00     0.210 HD
ENDBRANCH  27  33
TORSDOF 2
ENDMDL
MODEL 9
REMARK VINA RESULT:    -5.441      2.291      3.906
REMARK INTER + INTRA:          -6.150
REMARK INTER:                  -5.912
REMARK INTRA:                  -0.238
REMARK UNBOUND:                -0.232
REMARK SMILES CC1(C)CC[C@]2(C(=O)[O-])CC[C@]3(C)C(=CC[C@@H]4[C@@]5(C)CC[C@H](O)C(C)(C)[C@@H]5CC[C@]43C)[C@@H]2C1
REMARK SMILES IDX 6 1 5 2 10 3 32 4 4 5 11 6 14 7 33 8 2 9 12 10 15 11 1 12
REMARK SMILES IDX 3 13 13 14 30 15 16 16 17 17 29 18 31 19 18 20 28 21 27 22
REMARK SMILES IDX 20 23 19 24 24 25 21 26 22 27 25 28 26 29 7 30 8 31 9 32
REMARK SMILES IDX 23 33
REMARK H PARENT 23 34
REMARK Flexibility Score: inf
ROOT
ATOM      1  C   UNL     1     101.823  81.819  22.746  1.00  0.00     0.017 C 
ATOM      2  C   UNL     1     101.855  80.858  23.988  1.00  0.00     0.014 C 
ATOM      3  C   UNL     1     101.918  80.948  21.470  1.00  0.00     0.014 C 
ATOM      4  C   UNL     1     103.025  82.829  22.796  1.00  0.00     0.028 C 
ATOM      5  C   UNL     1     102.551  81.484  25.203  1.00  0.00     0.007 C 
ATOM      6  C   UNL     1     101.913  81.785  20.187  1.00  0.00     0.013 C 
ATOM      7  C   UNL     1     103.358  83.501  21.464  1.00  0.00    -0.064 C 
ATOM      8  C   UNL     1     104.279  82.173  23.416  1.00  0.00     0.015 C 
ATOM      9  C   UNL     1     104.053  81.800  24.917  1.00  0.00    -0.035 C 
ATOM     10  C   UNL     1     103.058  82.854  20.107  1.00  0.00    -0.006 C 
ATOM     11  C   UNL     1     104.058  84.664  21.509  1.00  0.00    -0.027 C 
ATOM     12  C   UNL     1     104.922  80.572  25.267  1.00  0.00     0.011 C 
ATOM     13  C   UNL     1     104.495  82.975  25.817  1.00  0.00     0.011 C 
ATOM     14  C   UNL     1     104.362  82.073  19.725  1.00  0.00     0.017 C 
ATOM     15  C   UNL     1     102.684  84.031  19.070  1.00  0.00    -0.020 C 
ATOM     16  C   UNL     1     104.464  85.485  20.301  1.00  0.00     0.032 C 
ATOM     17  C   UNL     1     103.947  84.963  18.924  1.00  0.00     0.006 C 
ATOM     18  C   UNL     1     102.294  83.454  17.672  1.00  0.00     0.008 C 
ATOM     19  C   UNL     1     101.462  84.856  19.611  1.00  0.00     0.012 C 
ATOM     20  C   UNL     1     103.898  86.054  17.769  1.00  0.00    -0.025 C 
ATOM     21  C   UNL     1     102.233  84.500  16.544  1.00  0.00     0.005 C 
ATOM     22  C   UNL     1     103.563  85.289  16.430  1.00  0.00     0.003 C 
ATOM     23  C   UNL     1     105.325  86.674  17.624  1.00  0.00     0.010 C 
ATOM     24  C   UNL     1     102.885  87.204  18.093  1.00  0.00     0.012 C 
ATOM     25  C   UNL     1     103.747  86.120  15.095  1.00  0.00    -0.006 C 
ATOM     26  C   UNL     1     105.508  87.527  16.360  1.00  0.00     0.033 C 
ATOM     27  C   UNL     1     105.181  86.741  15.082  1.00  0.00     0.120 C 
ATOM     28  C   UNL     1     102.667  87.215  14.899  1.00  0.00     0.014 C 
ATOM     29  C   UNL     1     103.654  85.167  13.869  1.00  0.00     0.014 C 
ENDROOT
BRANCH   1  30
ATOM     30  C   UNL     1     100.491  82.567  22.741  1.00  0.00     0.048 C 
ATOM     31  O   UNL     1     100.448  83.781  23.077  1.00  0.00    -0.550 OA
ATOM     32  O   UNL     1      99.303  81.928  22.398  1.00  0.00    -0.550 OA
ENDBRANCH   1  30
BRANCH  27  33
ATOM     33  O   UNL     1     105.341  87.583  13.967  1.00  0.00    -0.393 OA
ATOM     34  H   UNL     1     106.210  88.052  14.078  1.00  0.00     0.210 HD
ENDBRANCH  27  33
TORSDOF 2
ENDMDL
