MODEL 1
REMARK VINA RESULT:    -5.221      0.000      0.000
REMARK INTER + INTRA:          -6.418
REMARK INTER:                  -6.136
REMARK INTRA:                  -0.282
REMARK UNBOUND:                -0.282
REMARK SMILES O=c1c(O)c(-c2ccc(O)cc2)oc2cc(O)cc(O)c12
REMARK SMILES IDX 5 1 3 2 2 3 1 4 21 5 19 6 18 7 16 8 15 9 14 10 13 11 6 12
REMARK SMILES IDX 7 13 8 14 9 15 12 16 11 17 10 18 4 20 20 22 17 24
REMARK H PARENT 10 19 4 21 20 23 17 25
REMARK Flexibility Score: inf
ROOT
ATOM      1  C   UNL     1     -22.143 -67.328  57.238  1.00  0.00     0.180 A 
ATOM      2  C   UNL     1     -21.702 -67.592  55.928  1.00  0.00     0.208 A 
ATOM      3  C   UNL     1     -22.546 -67.277  54.852  1.00  0.00     0.238 A 
ATOM      4  O   UNL     1     -22.158 -67.500  53.673  1.00  0.00    -0.285 OA
ATOM      5  C   UNL     1     -23.818 -66.723  55.103  1.00  0.00     0.111 A 
ATOM      6  C   UNL     1     -24.731 -66.382  54.074  1.00  0.00     0.134 A 
ATOM      7  C   UNL     1     -25.982 -65.844  54.406  1.00  0.00     0.093 A 
ATOM      8  C   UNL     1     -26.340 -65.642  55.741  1.00  0.00     0.123 A 
ATOM      9  C   UNL     1     -25.444 -65.978  56.761  1.00  0.00     0.094 A 
ATOM     10  C   UNL     1     -24.191 -66.513  56.451  1.00  0.00     0.146 A 
ATOM     11  O   UNL     1     -23.356 -66.819  57.438  1.00  0.00    -0.452 OA
ENDROOT
BRANCH   1  12
ATOM     12  C   UNL     1     -21.304 -67.614  58.425  1.00  0.00     0.021 A 
ATOM     13  C   UNL     1     -20.336 -66.680  58.829  1.00  0.00     0.016 A 
ATOM     14  C   UNL     1     -19.519 -66.941  59.933  1.00  0.00     0.047 A 
ATOM     15  C   UNL     1     -19.648 -68.142  60.637  1.00  0.00     0.115 A 
ATOM     16  C   UNL     1     -21.416 -68.830  59.126  1.00  0.00     0.016 A 
ATOM     17  C   UNL     1     -20.596 -69.087  60.229  1.00  0.00     0.047 A 
BRANCH  15  18
ATOM     18  O   UNL     1     -18.826 -68.387  61.736  1.00  0.00    -0.508 OA
ATOM     19  H   UNL     1     -18.894 -69.248  62.265  1.00  0.00     0.293 HD
ENDBRANCH  15  18
ENDBRANCH   1  12
BRANCH   2  20
ATOM     20  O   UNL     1     -20.457 -68.188  55.709  1.00  0.00    -0.502 OA
ATOM     21  H   UNL     1     -19.821 -68.410  56.466  1.00  0.00     0.293 HD
ENDBRANCH   2  20
BRANCH   6  22
ATOM     22  O   UNL     1     -24.402 -66.572  52.731  1.00  0.00    -0.507 OA
ATOM     23  H   UNL     1     -24.558 -65.849  52.038  1.00  0.00     0.293 HD
ENDBRANCH   6  22
BRANCH   8  24
ATOM     24  O   UNL     1     -27.591 -65.107  56.044  1.00  0.00    -0.508 OA
ATOM     25  H   UNL     1     -27.839 -64.842  56.989  1.00  0.00     0.293 HD
ENDBRANCH   8  24
TORSDOF 5
ENDMDL
MODEL 2
REMARK VINA RESULT:    -5.182      1.312      2.875
REMARK INTER + INTRA:          -6.373
REMARK INTER:                  -6.206
REMARK INTRA:                  -0.167
REMARK UNBOUND:                -0.282
REMARK SMILES O=c1c(O)c(-c2ccc(O)cc2)oc2cc(O)cc(O)c12
REMARK SMILES IDX 5 1 3 2 2 3 1 4 21 5 19 6 18 7 16 8 15 9 14 10 13 11 6 12
REMARK SMILES IDX 7 13 8 14 9 15 12 16 11 17 10 18 4 20 20 22 17 24
REMARK H PARENT 10 19 4 21 20 23 17 25
REMARK Flexibility Score: inf
ROOT
ATOM      1  C   UNL     1     -22.637 -67.154  57.282  1.00  0.00     0.180 A 
ATOM      2  C   UNL     1     -24.015 -67.052  57.550  1.00  0.00     0.208 A 
ATOM      3  C   UNL     1     -24.886 -66.716  56.503  1.00  0.00     0.238 A 
ATOM      4  O   UNL     1     -26.125 -66.632  56.729  1.00  0.00    -0.285 OA
ATOM      5  C   UNL     1     -24.367 -66.471  55.215  1.00  0.00     0.111 A 
ATOM      6  C   UNL     1     -25.177 -66.124  54.106  1.00  0.00     0.134 A 
ATOM      7  C   UNL     1     -24.583 -65.886  52.859  1.00  0.00     0.093 A 
ATOM      8  C   UNL     1     -23.200 -65.987  52.697  1.00  0.00     0.123 A 
ATOM      9  C   UNL     1     -22.394 -66.329  53.788  1.00  0.00     0.094 A 
ATOM     10  C   UNL     1     -22.967 -66.572  55.040  1.00  0.00     0.146 A 
ATOM     11  O   UNL     1     -22.180 -66.901  56.059  1.00  0.00    -0.452 OA
ENDROOT
BRANCH   1  12
ATOM     12  C   UNL     1     -21.655 -67.521  58.329  1.00  0.00     0.021 A 
ATOM     13  C   UNL     1     -20.654 -66.604  58.691  1.00  0.00     0.016 A 
ATOM     14  C   UNL     1     -19.705 -66.940  59.661  1.00  0.00     0.047 A 
ATOM     15  C   UNL     1     -19.734 -68.198  60.270  1.00  0.00     0.115 A 
ATOM     16  C   UNL     1     -21.668 -68.793  58.932  1.00  0.00     0.016 A 
ATOM     17  C   UNL     1     -20.717 -69.125  59.901  1.00  0.00     0.047 A 
BRANCH  15  18
ATOM     18  O   UNL     1     -18.782 -68.517  61.236  1.00  0.00    -0.508 OA
ATOM     19  H   UNL     1     -18.904 -68.255  62.207  1.00  0.00     0.293 HD
ENDBRANCH  15  18
ENDBRANCH   1  12
BRANCH   2  20
ATOM     20  O   UNL     1     -24.499 -67.251  58.846  1.00  0.00    -0.502 OA
ATOM     21  H   UNL     1     -23.892 -67.256  59.658  1.00  0.00     0.293 HD
ENDBRANCH   2  20
BRANCH   6  22
ATOM     22  O   UNL     1     -26.563 -66.015  54.236  1.00  0.00    -0.507 OA
ATOM     23  H   UNL     1     -27.006 -65.140  54.494  1.00  0.00     0.293 HD
ENDBRANCH   6  22
BRANCH   8  24
ATOM     24  O   UNL     1     -22.634 -65.744  51.447  1.00  0.00    -0.508 OA
ATOM     25  H   UNL     1     -22.115 -66.460  50.953  1.00  0.00     0.293 HD
ENDBRANCH   8  24
TORSDOF 5
ENDMDL
MODEL 3
REMARK VINA RESULT:    -5.179      2.909      4.675
REMARK INTER + INTRA:          -6.369
REMARK INTER:                  -6.074
REMARK INTRA:                  -0.295
REMARK UNBOUND:                -0.282
REMARK SMILES O=c1c(O)c(-c2ccc(O)cc2)oc2cc(O)cc(O)c12
REMARK SMILES IDX 5 1 3 2 2 3 1 4 21 5 19 6 18 7 16 8 15 9 14 10 13 11 6 12
REMARK SMILES IDX 7 13 8 14 9 15 12 16 11 17 10 18 4 20 20 22 17 24
REMARK H PARENT 10 19 4 21 20 23 17 25
REMARK Flexibility Score: inf
ROOT
ATOM      1  C   UNL     1     -25.677 -67.183  56.783  1.00  0.00     0.180 A 
ATOM      2  C   UNL     1     -26.059 -66.269  55.783  1.00  0.00     0.208 A 
ATOM      3  C   UNL     1     -27.425 -66.030  55.569  1.00  0.00     0.238 A 
ATOM      4  O   UNL     1     -27.780 -65.206  54.683  1.00  0.00    -0.285 OA
ATOM      5  C   UNL     1     -28.383 -66.718  56.343  1.00  0.00     0.111 A 
ATOM      6  C   UNL     1     -29.779 -66.538  56.187  1.00  0.00     0.134 A 
ATOM      7  C   UNL     1     -30.668 -67.268  56.989  1.00  0.00     0.093 A 
ATOM      8  C   UNL     1     -30.191 -68.173  57.940  1.00  0.00     0.123 A 
ATOM      9  C   UNL     1     -28.814 -68.356  58.098  1.00  0.00     0.094 A 
ATOM     10  C   UNL     1     -27.911 -67.637  57.309  1.00  0.00     0.146 A 
ATOM     11  O   UNL     1     -26.607 -67.825  57.483  1.00  0.00    -0.452 OA
ENDROOT
BRANCH   1  12
ATOM     12  C   UNL     1     -24.255 -67.475  57.082  1.00  0.00     0.021 A 
ATOM     13  C   UNL     1     -23.652 -68.615  56.525  1.00  0.00     0.016 A 
ATOM     14  C   UNL     1     -22.319 -68.921  56.811  1.00  0.00     0.047 A 
ATOM     15  C   UNL     1     -21.576 -68.103  57.668  1.00  0.00     0.115 A 
ATOM     16  C   UNL     1     -23.509 -66.665  57.959  1.00  0.00     0.016 A 
ATOM     17  C   UNL     1     -22.176 -66.975  58.243  1.00  0.00     0.047 A 
BRANCH  15  18
ATOM     18  O   UNL     1     -20.248 -68.420  57.943  1.00  0.00    -0.508 OA
ATOM     19  H   UNL     1     -19.788 -69.205  57.498  1.00  0.00     0.293 HD
ENDBRANCH  15  18
ENDBRANCH   1  12
BRANCH   2  20
ATOM     20  O   UNL     1     -25.092 -65.638  54.996  1.00  0.00    -0.502 OA
ATOM     21  H   UNL     1     -25.162 -65.586  53.987  1.00  0.00     0.293 HD
ENDBRANCH   2  20
BRANCH   6  22
ATOM     22  O   UNL     1     -30.286 -65.641  55.246  1.00  0.00    -0.507 OA
ATOM     23  H   UNL     1     -29.683 -64.996  54.747  1.00  0.00     0.293 HD
ENDBRANCH   6  22
BRANCH   8  24
ATOM     24  O   UNL     1     -31.096 -68.887  58.723  1.00  0.00    -0.508 OA
ATOM     25  H   UNL     1     -30.968 -69.873  58.915  1.00  0.00     0.293 HD
ENDBRANCH   8  24
TORSDOF 5
ENDMDL
MODEL 4
REMARK VINA RESULT:    -5.129     10.219     13.069
REMARK INTER + INTRA:          -6.311
REMARK INTER:                  -6.015
REMARK INTRA:                  -0.296
REMARK UNBOUND:                -0.282
REMARK SMILES O=c1c(O)c(-c2ccc(O)cc2)oc2cc(O)cc(O)c12
REMARK SMILES IDX 5 1 3 2 2 3 1 4 21 5 19 6 18 7 16 8 15 9 14 10 13 11 6 12
REMARK SMILES IDX 7 13 8 14 9 15 12 16 11 17 10 18 4 20 20 22 17 24
REMARK H PARENT 10 19 4 21 20 23 17 25
REMARK Flexibility Score: inf
ROOT
ATOM      1  C   UNL     1     -27.142 -55.492  55.340  1.00  0.00     0.180 A 
ATOM      2  C   UNL     1     -26.270 -56.547  55.014  1.00  0.00     0.208 A 
ATOM      3  C   UNL     1     -26.751 -57.864  55.063  1.00  0.00     0.238 A 
ATOM      4  O   UNL     1     -25.982 -58.818  54.762  1.00  0.00    -0.285 OA
ATOM      5  C   UNL     1     -28.084 -58.106  55.453  1.00  0.00     0.111 A 
ATOM      6  C   UNL     1     -28.646 -59.404  55.531  1.00  0.00     0.134 A 
ATOM      7  C   UNL     1     -29.978 -59.561  55.938  1.00  0.00     0.093 A 
ATOM      8  C   UNL     1     -30.759 -58.451  56.268  1.00  0.00     0.123 A 
ATOM      9  C   UNL     1     -30.210 -57.167  56.192  1.00  0.00     0.094 A 
ATOM     10  C   UNL     1     -28.884 -56.988  55.787  1.00  0.00     0.146 A 
ATOM     11  O   UNL     1     -28.389 -55.757  55.719  1.00  0.00    -0.452 OA
ENDROOT
BRANCH   1  12
ATOM     12  C   UNL     1     -26.715 -54.074  55.295  1.00  0.00     0.021 A 
ATOM     13  C   UNL     1     -26.312 -53.435  56.479  1.00  0.00     0.016 A 
ATOM     14  C   UNL     1     -25.926 -52.091  56.462  1.00  0.00     0.047 A 
ATOM     15  C   UNL     1     -25.953 -51.366  55.267  1.00  0.00     0.115 A 
ATOM     16  C   UNL     1     -26.758 -53.334  54.098  1.00  0.00     0.016 A 
ATOM     17  C   UNL     1     -26.372 -51.990  54.086  1.00  0.00     0.047 A 
BRANCH  15  18
ATOM     18  O   UNL     1     -25.564 -50.028  55.266  1.00  0.00    -0.508 OA
ATOM     19  H   UNL     1     -26.245 -49.279  55.320  1.00  0.00     0.293 HD
ENDBRANCH  15  18
ENDBRANCH   1  12
BRANCH   2  20
ATOM     20  O   UNL     1     -24.938 -56.285  54.678  1.00  0.00    -0.502 OA
ATOM     21  H   UNL     1     -24.682 -55.683  53.905  1.00  0.00     0.293 HD
ENDBRANCH   2  20
BRANCH   6  22
ATOM     22  O   UNL     1     -27.891 -60.533  55.209  1.00  0.00    -0.507 OA
ATOM     23  H   UNL     1     -28.156 -61.151  54.450  1.00  0.00     0.293 HD
ENDBRANCH   6  22
BRANCH   8  24
ATOM     24  O   UNL     1     -32.081 -58.635  56.669  1.00  0.00    -0.508 OA
ATOM     25  H   UNL     1     -32.435 -58.227  57.526  1.00  0.00     0.293 HD
ENDBRANCH   8  24
TORSDOF 5
ENDMDL
MODEL 5
REMARK VINA RESULT:    -5.113      3.985      6.507
REMARK INTER + INTRA:          -6.291
REMARK INTER:                  -6.028
REMARK INTRA:                  -0.263
REMARK UNBOUND:                -0.282
REMARK SMILES O=c1c(O)c(-c2ccc(O)cc2)oc2cc(O)cc(O)c12
REMARK SMILES IDX 5 1 3 2 2 3 1 4 21 5 19 6 18 7 16 8 15 9 14 10 13 11 6 12
REMARK SMILES IDX 7 13 8 14 9 15 12 16 11 17 10 18 4 20 20 22 17 24
REMARK H PARENT 10 19 4 21 20 23 17 25
REMARK Flexibility Score: inf
ROOT
ATOM      1  C   UNL     1     -20.618 -64.146  57.638  1.00  0.00     0.180 A 
ATOM      2  C   UNL     1     -21.879 -64.540  57.152  1.00  0.00     0.208 A 
ATOM      3  C   UNL     1     -22.365 -65.814  57.482  1.00  0.00     0.238 A 
ATOM      4  O   UNL     1     -23.498 -66.175  57.060  1.00  0.00    -0.285 OA
ATOM      5  C   UNL     1     -21.579 -66.677  58.273  1.00  0.00     0.111 A 
ATOM      6  C   UNL     1     -21.993 -67.979  58.647  1.00  0.00     0.134 A 
ATOM      7  C   UNL     1     -21.149 -68.779  59.429  1.00  0.00     0.093 A 
ATOM      8  C   UNL     1     -19.901 -68.308  59.842  1.00  0.00     0.123 A 
ATOM      9  C   UNL     1     -19.485 -67.024  59.476  1.00  0.00     0.094 A 
ATOM     10  C   UNL     1     -20.314 -66.209  58.699  1.00  0.00     0.146 A 
ATOM     11  O   UNL     1     -19.897 -64.991  58.369  1.00  0.00    -0.452 OA
ENDROOT
BRANCH   1  12
ATOM     12  C   UNL     1     -20.045 -62.811  57.349  1.00  0.00     0.021 A 
ATOM     13  C   UNL     1     -19.404 -62.584  56.120  1.00  0.00     0.016 A 
ATOM     14  C   UNL     1     -18.837 -61.339  55.836  1.00  0.00     0.047 A 
ATOM     15  C   UNL     1     -18.889 -60.310  56.781  1.00  0.00     0.115 A 
ATOM     16  C   UNL     1     -20.077 -61.777  58.304  1.00  0.00     0.016 A 
ATOM     17  C   UNL     1     -19.508 -60.532  58.017  1.00  0.00     0.047 A 
BRANCH  15  18
ATOM     18  O   UNL     1     -18.320 -59.073  56.484  1.00  0.00    -0.508 OA
ATOM     19  H   UNL     1     -18.311 -58.708  55.539  1.00  0.00     0.293 HD
ENDBRANCH  15  18
ENDBRANCH   1  12
BRANCH   2  20
ATOM     20  O   UNL     1     -22.617 -63.686  56.328  1.00  0.00    -0.502 OA
ATOM     21  H   UNL     1     -22.381 -62.707  56.210  1.00  0.00     0.293 HD
ENDBRANCH   2  20
BRANCH   6  22
ATOM     22  O   UNL     1     -23.234 -68.478  58.249  1.00  0.00    -0.507 OA
ATOM     23  H   UNL     1     -23.572 -69.380  58.567  1.00  0.00     0.293 HD
ENDBRANCH   6  22
BRANCH   8  24
ATOM     24  O   UNL     1     -19.080 -69.125  60.618  1.00  0.00    -0.508 OA
ATOM     25  H   UNL     1     -18.905 -68.924  61.595  1.00  0.00     0.293 HD
ENDBRANCH   8  24
TORSDOF 5
ENDMDL
MODEL 6
REMARK VINA RESULT:    -5.074      1.751      3.438
REMARK INTER + INTRA:          -6.245
REMARK INTER:                  -5.962
REMARK INTRA:                  -0.283
REMARK UNBOUND:                -0.282
REMARK SMILES O=c1c(O)c(-c2ccc(O)cc2)oc2cc(O)cc(O)c12
REMARK SMILES IDX 5 1 3 2 2 3 1 4 21 5 19 6 18 7 16 8 15 9 14 10 13 11 6 12
REMARK SMILES IDX 7 13 8 14 9 15 12 16 11 17 10 18 4 20 20 22 17 24
REMARK H PARENT 10 19 4 21 20 23 17 25
REMARK Flexibility Score: inf
ROOT
ATOM      1  C   UNL     1     -23.871 -66.413  56.675  1.00  0.00     0.180 A 
ATOM      2  C   UNL     1     -24.773 -65.464  57.192  1.00  0.00     0.208 A 
ATOM      3  C   UNL     1     -25.676 -64.841  56.317  1.00  0.00     0.238 A 
ATOM      4  O   UNL     1     -26.496 -63.996  56.770  1.00  0.00    -0.285 OA
ATOM      5  C   UNL     1     -25.650 -65.160  54.944  1.00  0.00     0.111 A 
ATOM      6  C   UNL     1     -26.524 -64.574  53.996  1.00  0.00     0.134 A 
ATOM      7  C   UNL     1     -26.429 -64.939  52.645  1.00  0.00     0.093 A 
ATOM      8  C   UNL     1     -25.481 -65.873  52.224  1.00  0.00     0.123 A 
ATOM      9  C   UNL     1     -24.615 -66.455  53.155  1.00  0.00     0.094 A 
ATOM     10  C   UNL     1     -24.695 -66.107  54.507  1.00  0.00     0.146 A 
ATOM     11  O   UNL     1     -23.864 -66.679  55.372  1.00  0.00    -0.452 OA
ENDROOT
BRANCH   1  12
ATOM     12  C   UNL     1     -22.900 -67.127  57.536  1.00  0.00     0.021 A 
ATOM     13  C   UNL     1     -21.655 -66.537  57.812  1.00  0.00     0.016 A 
ATOM     14  C   UNL     1     -20.716 -67.204  58.604  1.00  0.00     0.047 A 
ATOM     15  C   UNL     1     -21.001 -68.473  59.117  1.00  0.00     0.115 A 
ATOM     16  C   UNL     1     -23.174 -68.413  58.040  1.00  0.00     0.016 A 
ATOM     17  C   UNL     1     -22.232 -69.077  58.831  1.00  0.00     0.047 A 
BRANCH  15  18
ATOM     18  O   UNL     1     -20.056 -69.125  59.906  1.00  0.00    -0.508 OA
ATOM     19  H   UNL     1     -19.064 -68.947  59.799  1.00  0.00     0.293 HD
ENDBRANCH  15  18
ENDBRANCH   1  12
BRANCH   2  20
ATOM     20  O   UNL     1     -24.745 -65.128  58.548  1.00  0.00    -0.502 OA
ATOM     21  H   UNL     1     -24.950 -64.193  58.880  1.00  0.00     0.293 HD
ENDBRANCH   2  20
BRANCH   6  22
ATOM     22  O   UNL     1     -27.482 -63.637  54.386  1.00  0.00    -0.507 OA
ATOM     23  H   UNL     1     -28.406 -63.917  54.696  1.00  0.00     0.293 HD
ENDBRANCH   6  22
BRANCH   8  24
ATOM     24  O   UNL     1     -25.407 -66.217  50.875  1.00  0.00    -0.508 OA
ATOM     25  H   UNL     1     -25.756 -65.600  50.151  1.00  0.00     0.293 HD
ENDBRANCH   8  24
TORSDOF 5
ENDMDL
MODEL 7
REMARK VINA RESULT:    -5.016     11.046     14.522
REMARK INTER + INTRA:          -6.178
REMARK INTER:                  -5.914
REMARK INTRA:                  -0.263
REMARK UNBOUND:                -0.282
REMARK SMILES O=c1c(O)c(-c2ccc(O)cc2)oc2cc(O)cc(O)c12
REMARK SMILES IDX 5 1 3 2 2 3 1 4 21 5 19 6 18 7 16 8 15 9 14 10 13 11 6 12
REMARK SMILES IDX 7 13 8 14 9 15 12 16 11 17 10 18 4 20 20 22 17 24
REMARK H PARENT 10 19 4 21 20 23 17 25
REMARK Flexibility Score: inf
ROOT
ATOM      1  C   UNL     1     -26.819 -54.792  52.916  1.00  0.00     0.180 A 
ATOM      2  C   UNL     1     -27.277 -55.312  54.141  1.00  0.00     0.208 A 
ATOM      3  C   UNL     1     -26.726 -56.511  54.617  1.00  0.00     0.238 A 
ATOM      4  O   UNL     1     -27.120 -56.982  55.719  1.00  0.00    -0.285 OA
ATOM      5  C   UNL     1     -25.744 -57.178  53.856  1.00  0.00     0.111 A 
ATOM      6  C   UNL     1     -25.141 -58.394  54.263  1.00  0.00     0.134 A 
ATOM      7  C   UNL     1     -24.178 -59.000  53.444  1.00  0.00     0.093 A 
ATOM      8  C   UNL     1     -23.807 -58.419  52.229  1.00  0.00     0.123 A 
ATOM      9  C   UNL     1     -24.399 -57.220  51.821  1.00  0.00     0.094 A 
ATOM     10  C   UNL     1     -25.360 -56.598  52.624  1.00  0.00     0.146 A 
ATOM     11  O   UNL     1     -25.903 -55.456  52.217  1.00  0.00    -0.452 OA
ENDROOT
BRANCH   1  12
ATOM     12  C   UNL     1     -27.338 -53.523  52.356  1.00  0.00     0.021 A 
ATOM     13  C   UNL     1     -26.856 -52.300  52.851  1.00  0.00     0.016 A 
ATOM     14  C   UNL     1     -27.348 -51.091  52.351  1.00  0.00     0.047 A 
ATOM     15  C   UNL     1     -28.337 -51.087  51.364  1.00  0.00     0.115 A 
ATOM     16  C   UNL     1     -28.348 -53.513  51.375  1.00  0.00     0.016 A 
ATOM     17  C   UNL     1     -28.839 -52.302  50.878  1.00  0.00     0.047 A 
BRANCH  15  18
ATOM     18  O   UNL     1     -28.818 -49.874  50.875  1.00  0.00    -0.508 OA
ATOM     19  H   UNL     1     -29.048 -49.107  51.496  1.00  0.00     0.293 HD
ENDBRANCH  15  18
ENDBRANCH   1  12
BRANCH   2  20
ATOM     20  O   UNL     1     -28.287 -54.658  54.853  1.00  0.00    -0.502 OA
ATOM     21  H   UNL     1     -29.191 -54.451  54.445  1.00  0.00     0.293 HD
ENDBRANCH   2  20
BRANCH   6  22
ATOM     22  O   UNL     1     -25.490 -58.999  55.471  1.00  0.00    -0.507 OA
ATOM     23  H   UNL     1     -26.249 -58.645  56.043  1.00  0.00     0.293 HD
ENDBRANCH   6  22
BRANCH   8  24
ATOM     24  O   UNL     1     -22.848 -59.043  51.433  1.00  0.00    -0.508 OA
ATOM     25  H   UNL     1     -22.567 -58.655  50.541  1.00  0.00     0.293 HD
ENDBRANCH   8  24
TORSDOF 5
ENDMDL
MODEL 8
REMARK VINA RESULT:    -4.900      2.175      6.941
REMARK INTER + INTRA:          -6.041
REMARK INTER:                  -5.753
REMARK INTRA:                  -0.289
REMARK UNBOUND:                -0.282
REMARK SMILES O=c1c(O)c(-c2ccc(O)cc2)oc2cc(O)cc(O)c12
REMARK SMILES IDX 5 1 3 2 2 3 1 4 21 5 19 6 18 7 16 8 15 9 14 10 13 11 6 12
REMARK SMILES IDX 7 13 8 14 9 15 12 16 11 17 10 18 4 20 20 22 17 24
REMARK H PARENT 10 19 4 21 20 23 17 25
REMARK Flexibility Score: inf
ROOT
ATOM      1  C   UNL     1     -24.278 -66.254  56.984  1.00  0.00     0.180 A 
ATOM      2  C   UNL     1     -24.516 -67.436  57.710  1.00  0.00     0.208 A 
ATOM      3  C   UNL     1     -23.455 -68.025  58.415  1.00  0.00     0.238 A 
ATOM      4  O   UNL     1     -23.659 -69.079  59.078  1.00  0.00    -0.285 OA
ATOM      5  C   UNL     1     -22.175 -67.436  58.367  1.00  0.00     0.111 A 
ATOM      6  C   UNL     1     -21.052 -67.969  59.046  1.00  0.00     0.134 A 
ATOM      7  C   UNL     1     -19.808 -67.329  58.940  1.00  0.00     0.093 A 
ATOM      8  C   UNL     1     -19.665 -66.172  58.172  1.00  0.00     0.123 A 
ATOM      9  C   UNL     1     -20.770 -65.641  57.500  1.00  0.00     0.094 A 
ATOM     10  C   UNL     1     -22.019 -66.262  57.593  1.00  0.00     0.146 A 
ATOM     11  O   UNL     1     -23.054 -65.735  56.949  1.00  0.00    -0.452 OA
ENDROOT
BRANCH   1  12
ATOM     12  C   UNL     1     -25.349 -65.562  56.231  1.00  0.00     0.021 A 
ATOM     13  C   UNL     1     -26.111 -64.567  56.867  1.00  0.00     0.016 A 
ATOM     14  C   UNL     1     -27.141 -63.917  56.181  1.00  0.00     0.047 A 
ATOM     15  C   UNL     1     -27.434 -64.263  54.859  1.00  0.00     0.115 A 
ATOM     16  C   UNL     1     -25.661 -65.919  54.906  1.00  0.00     0.016 A 
ATOM     17  C   UNL     1     -26.693 -65.267  54.223  1.00  0.00     0.047 A 
BRANCH  15  18
ATOM     18  O   UNL     1     -28.463 -63.606  54.187  1.00  0.00    -0.508 OA
ATOM     19  H   UNL     1     -29.397 -63.549  54.576  1.00  0.00     0.293 HD
ENDBRANCH  15  18
ENDBRANCH   1  12
BRANCH   2  20
ATOM     20  O   UNL     1     -25.783 -68.027  57.701  1.00  0.00    -0.502 OA
ATOM     21  H   UNL     1     -26.189 -68.427  56.863  1.00  0.00     0.293 HD
ENDBRANCH   2  20
BRANCH   6  22
ATOM     22  O   UNL     1     -21.163 -69.125  59.820  1.00  0.00    -0.507 OA
ATOM     23  H   UNL     1     -20.753 -70.004  59.526  1.00  0.00     0.293 HD
ENDBRANCH   6  22
BRANCH   8  24
ATOM     24  O   UNL     1     -18.417 -65.556  58.084  1.00  0.00    -0.508 OA
ATOM     25  H   UNL     1     -17.882 -65.324  58.911  1.00  0.00     0.293 HD
ENDBRANCH   8  24
TORSDOF 5
ENDMDL
MODEL 9
REMARK VINA RESULT:    -4.031      3.681      4.879
REMARK INTER + INTRA:          -5.020
REMARK INTER:                  -4.792
REMARK INTRA:                  -0.228
REMARK UNBOUND:                -0.282
REMARK SMILES O=c1c(O)c(-c2ccc(O)cc2)oc2cc(O)cc(O)c12
REMARK SMILES IDX 5 1 3 2 2 3 1 4 21 5 19 6 18 7 16 8 15 9 14 10 13 11 6 12
REMARK SMILES IDX 7 13 8 14 9 15 12 16 11 17 10 18 4 20 20 22 17 24
REMARK H PARENT 10 19 4 21 20 23 17 25
REMARK Flexibility Score: inf
ROOT
ATOM      1  C   UNL     1     -21.142 -64.504  57.834  1.00  0.00     0.180 A 
ATOM      2  C   UNL     1     -20.626 -65.743  58.258  1.00  0.00     0.208 A 
ATOM      3  C   UNL     1     -21.453 -66.875  58.209  1.00  0.00     0.238 A 
ATOM      4  O   UNL     1     -20.998 -67.993  58.576  1.00  0.00    -0.285 OA
ATOM      5  C   UNL     1     -22.783 -66.748  57.757  1.00  0.00     0.111 A 
ATOM      6  C   UNL     1     -23.682 -67.839  57.681  1.00  0.00     0.134 A 
ATOM      7  C   UNL     1     -24.993 -67.629  57.229  1.00  0.00     0.093 A 
ATOM      8  C   UNL     1     -25.422 -66.354  56.854  1.00  0.00     0.123 A 
ATOM      9  C   UNL     1     -24.538 -65.272  56.927  1.00  0.00     0.094 A 
ATOM     10  C   UNL     1     -23.227 -65.461  57.373  1.00  0.00     0.146 A 
ATOM     11  O   UNL     1     -22.406 -64.418  57.428  1.00  0.00    -0.452 OA
ENDROOT
BRANCH   1  12
ATOM     12  C   UNL     1     -20.327 -63.267  57.838  1.00  0.00     0.021 A 
ATOM     13  C   UNL     1     -20.620 -62.249  58.760  1.00  0.00     0.016 A 
ATOM     14  C   UNL     1     -19.877 -61.065  58.766  1.00  0.00     0.047 A 
ATOM     15  C   UNL     1     -18.844 -60.877  57.843  1.00  0.00     0.115 A 
ATOM     16  C   UNL     1     -19.299 -63.064  56.898  1.00  0.00     0.016 A 
ATOM     17  C   UNL     1     -18.558 -61.878  56.907  1.00  0.00     0.047 A 
BRANCH  15  18
ATOM     18  O   UNL     1     -18.111 -59.691  57.861  1.00  0.00    -0.508 OA
ATOM     19  H   UNL     1     -18.360 -58.925  58.476  1.00  0.00     0.293 HD
ENDBRANCH  15  18
ENDBRANCH   1  12
BRANCH   2  20
ATOM     20  O   UNL     1     -19.320 -65.833  58.749  1.00  0.00    -0.502 OA
ATOM     21  H   UNL     1     -19.115 -65.874  59.740  1.00  0.00     0.293 HD
ENDBRANCH   2  20
BRANCH   6  22
ATOM     22  O   UNL     1     -23.284 -69.125  58.049  1.00  0.00    -0.507 OA
ATOM     23  H   UNL     1     -23.925 -69.910  58.019  1.00  0.00     0.293 HD
ENDBRANCH   6  22
BRANCH   8  24
ATOM     24  O   UNL     1     -26.731 -66.172  56.409  1.00  0.00    -0.508 OA
ATOM     25  H   UNL     1     -26.943 -66.042  55.428  1.00  0.00     0.293 HD
ENDBRANCH   8  24
TORSDOF 5
ENDMDL
