MODEL 1
REMARK VINA RESULT:    -5.663      0.000      0.000
REMARK INTER + INTRA:          -7.142
REMARK INTER:                  -6.822
REMARK INTRA:                  -0.320
REMARK UNBOUND:                -0.320
REMARK SMILES Oc1cc(O)c2cc(O)c(-c3ccc(O)c(O)c3)[o+]c2c1.[Cl-]
REMARK SMILES IDX 10 1 19 2 20 3 21 4 2 5 3 6 4 7 6 8 7 9 8 10 11 11 12 12
REMARK SMILES IDX 13 13 14 14 18 15 16 16 15 17 17 19 9 21 1 23 5 25
REMARK H PARENT 15 18 17 20 9 22 1 24 5 26
REMARK Flexibility Score: inf
ROOT
ATOM      1  C   UNL     1      -4.992  -9.527   8.391  1.00  0.00     0.402 A 
ATOM      2  O   UNL     1      -4.187 -10.071   7.482  1.00  0.00    -0.202 OA
ATOM      3  C   UNL     1      -2.863  -9.954   7.517  1.00  0.00     0.368 A 
ATOM      4  C   UNL     1      -2.101 -10.564   6.517  1.00  0.00     0.162 A 
ATOM      5  C   UNL     1      -0.710 -10.461   6.529  1.00  0.00     0.128 A 
ATOM      6  C   UNL     1      -0.074  -9.742   7.549  1.00  0.00     0.093 A 
ATOM      7  C   UNL     1      -0.815  -9.121   8.561  1.00  0.00     0.136 A 
ATOM      8  C   UNL     1      -2.230  -9.222   8.551  1.00  0.00     0.125 A 
ATOM      9  C   UNL     1      -3.055  -8.623   9.516  1.00  0.00     0.078 A 
ATOM     10  C   UNL     1      -4.443  -8.762   9.437  1.00  0.00     0.223 A 
ENDROOT
BRANCH   1  11
ATOM     11  C   UNL     1      -6.451  -9.738   8.250  1.00  0.00     0.087 A 
ATOM     12  C   UNL     1      -7.060 -10.939   8.652  1.00  0.00     0.022 A 
ATOM     13  C   UNL     1      -8.434 -11.125   8.488  1.00  0.00     0.051 A 
ATOM     14  C   UNL     1      -9.219 -10.119   7.909  1.00  0.00     0.157 A 
ATOM     15  C   UNL     1      -7.239  -8.741   7.651  1.00  0.00     0.068 A 
ATOM     16  C   UNL     1      -8.616  -8.922   7.486  1.00  0.00     0.158 A 
BRANCH  14  17
ATOM     17  O   UNL     1     -10.592 -10.306   7.748  1.00  0.00    -0.504 OA
ATOM     18  H   UNL     1     -11.032 -10.240   6.837  1.00  0.00     0.293 HD
ENDBRANCH  14  17
BRANCH  16  19
ATOM     19  O   UNL     1      -9.368  -7.905   6.899  1.00  0.00    -0.504 OA
ATOM     20  H   UNL     1      -9.160  -6.924   7.053  1.00  0.00     0.293 HD
ENDBRANCH  16  19
ENDBRANCH   1  11
BRANCH  10  21
ATOM     21  O   UNL     1      -5.265  -8.125  10.367  1.00  0.00    -0.500 OA
ATOM     22  H   UNL     1      -5.855  -8.649  11.003  1.00  0.00     0.294 HD
ENDBRANCH  10  21
BRANCH   5  23
ATOM     23  O   UNL     1       0.033 -11.076   5.525  1.00  0.00    -0.507 OA
ATOM     24  H   UNL     1      -0.194 -10.951   4.545  1.00  0.00     0.293 HD
ENDBRANCH   5  23
BRANCH   7  25
ATOM     25  O   UNL     1      -0.105  -8.425   9.543  1.00  0.00    -0.507 OA
ATOM     26  H   UNL     1       0.734  -7.891   9.370  1.00  0.00     0.293 HD
ENDBRANCH   7  25
TORSDOF 6
ENDMDL
MODEL 2
REMARK VINA RESULT:    -5.519      2.826      7.625
REMARK INTER + INTRA:          -6.968
REMARK INTER:                  -6.624
REMARK INTRA:                  -0.344
REMARK UNBOUND:                -0.320
REMARK SMILES Oc1cc(O)c2cc(O)c(-c3ccc(O)c(O)c3)[o+]c2c1.[Cl-]
REMARK SMILES IDX 10 1 19 2 20 3 21 4 2 5 3 6 4 7 6 8 7 9 8 10 11 11 12 12
REMARK SMILES IDX 13 13 14 14 18 15 16 16 15 17 17 19 9 21 1 23 5 25
REMARK H PARENT 15 18 17 20 9 22 1 24 5 26
REMARK Flexibility Score: inf
ROOT
ATOM      1  C   UNL     1      -6.264  -8.494   9.244  1.00  0.00     0.402 A 
ATOM      2  O   UNL     1      -7.316  -8.102   9.960  1.00  0.00    -0.202 OA
ATOM      3  C   UNL     1      -8.555  -8.521   9.723  1.00  0.00     0.368 A 
ATOM      4  C   UNL     1      -9.596  -8.055  10.531  1.00  0.00     0.162 A 
ATOM      5  C   UNL     1     -10.906  -8.479  10.309  1.00  0.00     0.128 A 
ATOM      6  C   UNL     1     -11.181  -9.377   9.270  1.00  0.00     0.093 A 
ATOM      7  C   UNL     1     -10.156  -9.858   8.447  1.00  0.00     0.136 A 
ATOM      8  C   UNL     1      -8.823  -9.428   8.669  1.00  0.00     0.125 A 
ATOM      9  C   UNL     1      -7.735  -9.846   7.886  1.00  0.00     0.078 A 
ATOM     10  C   UNL     1      -6.448  -9.374   8.162  1.00  0.00     0.223 A 
ENDROOT
BRANCH   1  11
ATOM     11  C   UNL     1      -4.932  -7.965   9.614  1.00  0.00     0.087 A 
ATOM     12  C   UNL     1      -4.038  -8.714  10.398  1.00  0.00     0.022 A 
ATOM     13  C   UNL     1      -2.794  -8.184  10.753  1.00  0.00     0.051 A 
ATOM     14  C   UNL     1      -2.431  -6.896  10.340  1.00  0.00     0.157 A 
ATOM     15  C   UNL     1      -4.571  -6.666   9.219  1.00  0.00     0.068 A 
ATOM     16  C   UNL     1      -3.326  -6.133   9.572  1.00  0.00     0.158 A 
BRANCH  14  17
ATOM     17  O   UNL     1      -1.188  -6.371  10.693  1.00  0.00    -0.504 OA
ATOM     18  H   UNL     1      -1.103  -5.619  11.369  1.00  0.00     0.293 HD
ENDBRANCH  14  17
BRANCH  16  19
ATOM     19  O   UNL     1      -2.997  -4.844   9.150  1.00  0.00    -0.504 OA
ATOM     20  H   UNL     1      -3.681  -4.224   8.732  1.00  0.00     0.293 HD
ENDBRANCH  16  19
ENDBRANCH   1  11
BRANCH  10  21
ATOM     21  O   UNL     1      -5.375  -9.751   7.354  1.00  0.00    -0.500 OA
ATOM     22  H   UNL     1      -5.432  -9.715   6.343  1.00  0.00     0.294 HD
ENDBRANCH  10  21
BRANCH   5  23
ATOM     23  O   UNL     1     -11.930  -8.003  11.125  1.00  0.00    -0.507 OA
ATOM     24  H   UNL     1     -12.605  -8.630  11.549  1.00  0.00     0.293 HD
ENDBRANCH   5  23
BRANCH   7  25
ATOM     25  O   UNL     1     -10.512 -10.755   7.435  1.00  0.00    -0.507 OA
ATOM     26  H   UNL     1     -10.096 -11.666   7.308  1.00  0.00     0.293 HD
ENDBRANCH   7  25
TORSDOF 6
ENDMDL
MODEL 3
REMARK VINA RESULT:    -5.504      1.134      2.678
REMARK INTER + INTRA:          -6.950
REMARK INTER:                  -6.602
REMARK INTRA:                  -0.348
REMARK UNBOUND:                -0.320
REMARK SMILES Oc1cc(O)c2cc(O)c(-c3ccc(O)c(O)c3)[o+]c2c1.[Cl-]
REMARK SMILES IDX 10 1 19 2 20 3 21 4 2 5 3 6 4 7 6 8 7 9 8 10 11 11 12 12
REMARK SMILES IDX 13 13 14 14 18 15 16 16 15 17 17 19 9 21 1 23 5 25
REMARK H PARENT 15 18 17 20 9 22 1 24 5 26
REMARK Flexibility Score: inf
ROOT
ATOM      1  C   UNL     1      -5.066  -9.576   8.138  1.00  0.00     0.402 A 
ATOM      2  O   UNL     1      -4.405  -8.859   9.043  1.00  0.00    -0.202 OA
ATOM      3  C   UNL     1      -3.078  -8.777   9.081  1.00  0.00     0.368 A 
ATOM      4  C   UNL     1      -2.474  -7.996  10.070  1.00  0.00     0.162 A 
ATOM      5  C   UNL     1      -1.084  -7.888  10.132  1.00  0.00     0.128 A 
ATOM      6  C   UNL     1      -0.291  -8.566   9.199  1.00  0.00     0.093 A 
ATOM      7  C   UNL     1      -0.872  -9.354   8.199  1.00  0.00     0.136 A 
ATOM      8  C   UNL     1      -2.285  -9.468   8.133  1.00  0.00     0.125 A 
ATOM      9  C   UNL     1      -2.954 -10.246   7.175  1.00  0.00     0.078 A 
ATOM     10  C   UNL     1      -4.350 -10.313   7.177  1.00  0.00     0.223 A 
ENDROOT
BRANCH   1  11
ATOM     11  C   UNL     1      -6.546  -9.579   8.194  1.00  0.00     0.087 A 
ATOM     12  C   UNL     1      -7.247 -10.511   8.978  1.00  0.00     0.022 A 
ATOM     13  C   UNL     1      -8.644 -10.509   8.997  1.00  0.00     0.051 A 
ATOM     14  C   UNL     1      -9.361  -9.585   8.225  1.00  0.00     0.157 A 
ATOM     15  C   UNL     1      -7.269  -8.668   7.406  1.00  0.00     0.068 A 
ATOM     16  C   UNL     1      -8.668  -8.662   7.423  1.00  0.00     0.158 A 
BRANCH  14  17
ATOM     17  O   UNL     1     -10.755  -9.584   8.248  1.00  0.00    -0.504 OA
ATOM     18  H   UNL     1     -11.298  -9.345   7.426  1.00  0.00     0.293 HD
ENDBRANCH  14  17
BRANCH  16  19
ATOM     19  O   UNL     1      -9.351  -7.734   6.638  1.00  0.00    -0.504 OA
ATOM     20  H   UNL     1      -8.867  -7.039   6.082  1.00  0.00     0.293 HD
ENDBRANCH  16  19
ENDBRANCH   1  11
BRANCH  10  21
ATOM     21  O   UNL     1      -5.014 -11.125   6.256  1.00  0.00    -0.500 OA
ATOM     22  H   UNL     1      -4.586 -11.963   5.880  1.00  0.00     0.294 HD
ENDBRANCH  10  21
BRANCH   5  23
ATOM     23  O   UNL     1      -0.500  -7.105  11.125  1.00  0.00    -0.507 OA
ATOM     24  H   UNL     1      -1.046  -6.452  11.675  1.00  0.00     0.293 HD
ENDBRANCH   5  23
BRANCH   7  25
ATOM     25  O   UNL     1      -0.011  -9.996   7.304  1.00  0.00    -0.507 OA
ATOM     26  H   UNL     1       0.734 -10.619   7.577  1.00  0.00     0.293 HD
ENDBRANCH   7  25
TORSDOF 6
ENDMDL
MODEL 4
REMARK VINA RESULT:    -5.271      2.616      3.344
REMARK INTER + INTRA:          -6.670
REMARK INTER:                  -6.335
REMARK INTRA:                  -0.335
REMARK UNBOUND:                -0.320
REMARK SMILES Oc1cc(O)c2cc(O)c(-c3ccc(O)c(O)c3)[o+]c2c1.[Cl-]
REMARK SMILES IDX 10 1 19 2 20 3 21 4 2 5 3 6 4 7 6 8 7 9 8 10 11 11 12 12
REMARK SMILES IDX 13 13 14 14 18 15 16 16 15 17 17 19 9 21 1 23 5 25
REMARK H PARENT 15 18 17 20 9 22 1 24 5 26
REMARK Flexibility Score: inf
ROOT
ATOM      1  C   UNL     1      -6.417  -8.759   9.608  1.00  0.00     0.402 A 
ATOM      2  O   UNL     1      -5.686  -7.652   9.496  1.00  0.00    -0.202 OA
ATOM      3  C   UNL     1      -4.374  -7.620   9.707  1.00  0.00     0.368 A 
ATOM      4  C   UNL     1      -3.692  -6.409   9.562  1.00  0.00     0.162 A 
ATOM      5  C   UNL     1      -2.315  -6.345   9.774  1.00  0.00     0.128 A 
ATOM      6  C   UNL     1      -1.612  -7.501  10.134  1.00  0.00     0.093 A 
ATOM      7  C   UNL     1      -2.272  -8.726  10.286  1.00  0.00     0.136 A 
ATOM      8  C   UNL     1      -3.673  -8.794  10.073  1.00  0.00     0.125 A 
ATOM      9  C   UNL     1      -4.420  -9.975  10.215  1.00  0.00     0.078 A 
ATOM     10  C   UNL     1      -5.800  -9.963   9.993  1.00  0.00     0.223 A 
ENDROOT
BRANCH   1  11
ATOM     11  C   UNL     1      -7.870  -8.668   9.336  1.00  0.00     0.087 A 
ATOM     12  C   UNL     1      -8.801  -8.506  10.376  1.00  0.00     0.022 A 
ATOM     13  C   UNL     1     -10.169  -8.446  10.097  1.00  0.00     0.051 A 
ATOM     14  C   UNL     1     -10.627  -8.559   8.778  1.00  0.00     0.157 A 
ATOM     15  C   UNL     1      -8.335  -8.801   8.018  1.00  0.00     0.068 A 
ATOM     16  C   UNL     1      -9.704  -8.740   7.734  1.00  0.00     0.158 A 
BRANCH  14  17
ATOM     17  O   UNL     1     -11.992  -8.495   8.502  1.00  0.00    -0.504 OA
ATOM     18  H   UNL     1     -12.660  -9.075   8.997  1.00  0.00     0.293 HD
ENDBRANCH  14  17
BRANCH  16  19
ATOM     19  O   UNL     1     -10.128  -8.863   6.411  1.00  0.00    -0.504 OA
ATOM     20  H   UNL     1     -11.085  -8.677   6.132  1.00  0.00     0.293 HD
ENDBRANCH  16  19
ENDBRANCH   1  11
BRANCH  10  21
ATOM     21  O   UNL     1      -6.549 -11.124  10.183  1.00  0.00    -0.500 OA
ATOM     22  H   UNL     1      -6.360 -11.971   9.660  1.00  0.00     0.294 HD
ENDBRANCH  10  21
BRANCH   5  23
ATOM     23  O   UNL     1      -1.653  -5.129   9.625  1.00  0.00    -0.507 OA
ATOM     24  H   UNL     1      -2.149  -4.283   9.370  1.00  0.00     0.293 HD
ENDBRANCH   5  23
BRANCH   7  25
ATOM     25  O   UNL     1      -1.498  -9.834  10.643  1.00  0.00    -0.507 OA
ATOM     26  H   UNL     1      -0.580 -10.032  10.272  1.00  0.00     0.293 HD
ENDBRANCH   7  25
TORSDOF 6
ENDMDL
MODEL 5
REMARK VINA RESULT:    -5.056      2.026      2.393
REMARK INTER + INTRA:          -6.411
REMARK INTER:                  -6.137
REMARK INTRA:                  -0.274
REMARK UNBOUND:                -0.320
REMARK SMILES Oc1cc(O)c2cc(O)c(-c3ccc(O)c(O)c3)[o+]c2c1.[Cl-]
REMARK SMILES IDX 10 1 19 2 20 3 21 4 2 5 3 6 4 7 6 8 7 9 8 10 11 11 12 12
REMARK SMILES IDX 13 13 14 14 18 15 16 16 15 17 17 19 9 21 1 23 5 25
REMARK H PARENT 15 18 17 20 9 22 1 24 5 26
REMARK Flexibility Score: inf
ROOT
ATOM      1  C   UNL     1      -4.035  -7.746   9.260  1.00  0.00     0.402 A 
ATOM      2  O   UNL     1      -3.168  -8.730   9.031  1.00  0.00    -0.202 OA
ATOM      3  C   UNL     1      -1.850  -8.557   9.042  1.00  0.00     0.368 A 
ATOM      4  C   UNL     1      -1.018  -9.652   8.792  1.00  0.00     0.162 A 
ATOM      5  C   UNL     1       0.368  -9.502   8.800  1.00  0.00     0.128 A 
ATOM      6  C   UNL     1       0.931  -8.246   9.060  1.00  0.00     0.093 A 
ATOM      7  C   UNL     1       0.120  -7.133   9.313  1.00  0.00     0.136 A 
ATOM      8  C   UNL     1      -1.291  -7.282   9.304  1.00  0.00     0.125 A 
ATOM      9  C   UNL     1      -2.182  -6.221   9.533  1.00  0.00     0.078 A 
ATOM     10  C   UNL     1      -3.561  -6.444   9.503  1.00  0.00     0.223 A 
ENDROOT
BRANCH   1  11
ATOM     11  C   UNL     1      -5.480  -8.068   9.231  1.00  0.00     0.087 A 
ATOM     12  C   UNL     1      -6.089  -8.798  10.267  1.00  0.00     0.022 A 
ATOM     13  C   UNL     1      -7.449  -9.109  10.206  1.00  0.00     0.051 A 
ATOM     14  C   UNL     1      -8.219  -8.707   9.107  1.00  0.00     0.157 A 
ATOM     15  C   UNL     1      -6.251  -7.683   8.122  1.00  0.00     0.068 A 
ATOM     16  C   UNL     1      -7.615  -7.993   8.059  1.00  0.00     0.158 A 
BRANCH  14  17
ATOM     17  O   UNL     1      -9.578  -9.016   9.051  1.00  0.00    -0.504 OA
ATOM     18  H   UNL     1     -10.187  -8.601   8.355  1.00  0.00     0.293 HD
ENDBRANCH  14  17
BRANCH  16  19
ATOM     19  O   UNL     1      -8.351  -7.583   6.947  1.00  0.00    -0.504 OA
ATOM     20  H   UNL     1      -9.175  -8.083   6.633  1.00  0.00     0.293 HD
ENDBRANCH  16  19
ENDBRANCH   1  11
BRANCH  10  21
ATOM     21  O   UNL     1      -4.446  -5.381   9.681  1.00  0.00    -0.500 OA
ATOM     22  H   UNL     1      -5.062  -5.070   8.939  1.00  0.00     0.294 HD
ENDBRANCH  10  21
BRANCH   5  23
ATOM     23  O   UNL     1       1.180 -10.605   8.549  1.00  0.00    -0.507 OA
ATOM     24  H   UNL     1       1.430 -11.257   9.284  1.00  0.00     0.293 HD
ENDBRANCH   5  23
BRANCH   7  25
ATOM     25  O   UNL     1       0.759  -5.917   9.566  1.00  0.00    -0.507 OA
ATOM     26  H   UNL     1       0.993  -5.237   8.857  1.00  0.00     0.293 HD
ENDBRANCH   7  25
TORSDOF 6
ENDMDL
MODEL 6
REMARK VINA RESULT:    -5.013      2.373      3.393
REMARK INTER + INTRA:          -6.359
REMARK INTER:                  -6.010
REMARK INTRA:                  -0.349
REMARK UNBOUND:                -0.320
REMARK SMILES Oc1cc(O)c2cc(O)c(-c3ccc(O)c(O)c3)[o+]c2c1.[Cl-]
REMARK SMILES IDX 10 1 19 2 20 3 21 4 2 5 3 6 4 7 6 8 7 9 8 10 11 11 12 12
REMARK SMILES IDX 13 13 14 14 18 15 16 16 15 17 17 19 9 21 1 23 5 25
REMARK H PARENT 15 18 17 20 9 22 1 24 5 26
REMARK Flexibility Score: inf
ROOT
ATOM      1  C   UNL     1      -3.218  -8.888   9.288  1.00  0.00     0.402 A 
ATOM      2  O   UNL     1      -2.638  -7.790   8.808  1.00  0.00    -0.202 OA
ATOM      3  C   UNL     1      -1.384  -7.448   9.083  1.00  0.00     0.368 A 
ATOM      4  C   UNL     1      -0.861  -6.276   8.529  1.00  0.00     0.162 A 
ATOM      5  C   UNL     1       0.452  -5.893   8.797  1.00  0.00     0.128 A 
ATOM      6  C   UNL     1       1.253  -6.687   9.627  1.00  0.00     0.093 A 
ATOM      7  C   UNL     1       0.753  -7.865  10.195  1.00  0.00     0.136 A 
ATOM      8  C   UNL     1      -0.583  -8.257   9.926  1.00  0.00     0.125 A 
ATOM      9  C   UNL     1      -1.173  -9.413  10.461  1.00  0.00     0.078 A 
ATOM     10  C   UNL     1      -2.498  -9.732  10.154  1.00  0.00     0.223 A 
ENDROOT
BRANCH   1  11
ATOM     11  C   UNL     1      -4.619  -9.166   8.899  1.00  0.00     0.087 A 
ATOM     12  C   UNL     1      -5.700  -8.660   9.641  1.00  0.00     0.022 A 
ATOM     13  C   UNL     1      -7.014  -8.955   9.268  1.00  0.00     0.051 A 
ATOM     14  C   UNL     1      -7.267  -9.768   8.155  1.00  0.00     0.157 A 
ATOM     15  C   UNL     1      -4.878  -9.997   7.796  1.00  0.00     0.068 A 
ATOM     16  C   UNL     1      -6.192 -10.293   7.418  1.00  0.00     0.158 A 
BRANCH  14  17
ATOM     17  O   UNL     1      -8.579 -10.059   7.782  1.00  0.00    -0.504 OA
ATOM     18  H   UNL     1      -9.026  -9.585   7.006  1.00  0.00     0.293 HD
ENDBRANCH  14  17
BRANCH  16  19
ATOM     19  O   UNL     1      -6.410 -11.111   6.309  1.00  0.00    -0.504 OA
ATOM     20  H   UNL     1      -6.241 -12.111   6.336  1.00  0.00     0.293 HD
ENDBRANCH  16  19
ENDBRANCH   1  11
BRANCH  10  21
ATOM     21  O   UNL     1      -3.100 -10.853  10.725  1.00  0.00    -0.500 OA
ATOM     22  H   UNL     1      -3.544 -11.566  10.158  1.00  0.00     0.294 HD
ENDBRANCH  10  21
BRANCH   5  23
ATOM     23  O   UNL     1       0.955  -4.722   8.235  1.00  0.00    -0.507 OA
ATOM     24  H   UNL     1       1.768  -4.255   8.621  1.00  0.00     0.293 HD
ENDBRANCH   5  23
BRANCH   7  25
ATOM     25  O   UNL     1       1.617  -8.603  11.009  1.00  0.00    -0.507 OA
ATOM     26  H   UNL     1       1.551  -9.600  11.156  1.00  0.00     0.293 HD
ENDBRANCH   7  25
TORSDOF 6
ENDMDL
MODEL 7
REMARK VINA RESULT:    -5.004      3.493      6.197
REMARK INTER + INTRA:          -6.348
REMARK INTER:                  -6.004
REMARK INTRA:                  -0.344
REMARK UNBOUND:                -0.320
REMARK SMILES Oc1cc(O)c2cc(O)c(-c3ccc(O)c(O)c3)[o+]c2c1.[Cl-]
REMARK SMILES IDX 10 1 19 2 20 3 21 4 2 5 3 6 4 7 6 8 7 9 8 10 11 11 12 12
REMARK SMILES IDX 13 13 14 14 18 15 16 16 15 17 17 19 9 21 1 23 5 25
REMARK H PARENT 15 18 17 20 9 22 1 24 5 26
REMARK Flexibility Score: inf
ROOT
ATOM      1  C   UNL     1      -0.013  -8.181   8.826  1.00  0.00     0.402 A 
ATOM      2  O   UNL     1       0.113  -6.894   8.514  1.00  0.00    -0.202 OA
ATOM      3  C   UNL     1       1.130  -6.141   8.920  1.00  0.00     0.368 A 
ATOM      4  C   UNL     1       1.176  -4.797   8.538  1.00  0.00     0.162 A 
ATOM      5  C   UNL     1       2.232  -3.983   8.946  1.00  0.00     0.128 A 
ATOM      6  C   UNL     1       3.254  -4.515   9.743  1.00  0.00     0.093 A 
ATOM      7  C   UNL     1       3.231  -5.858  10.138  1.00  0.00     0.136 A 
ATOM      8  C   UNL     1       2.157  -6.688   9.727  1.00  0.00     0.125 A 
ATOM      9  C   UNL     1       2.043  -8.040  10.086  1.00  0.00     0.078 A 
ATOM     10  C   UNL     1       0.952  -8.795   9.646  1.00  0.00     0.223 A 
ENDROOT
BRANCH   1  11
ATOM     11  C   UNL     1      -1.187  -8.916   8.303  1.00  0.00     0.087 A 
ATOM     12  C   UNL     1      -2.415  -8.918   8.987  1.00  0.00     0.022 A 
ATOM     13  C   UNL     1      -3.502  -9.637   8.486  1.00  0.00     0.051 A 
ATOM     14  C   UNL     1      -3.377 -10.375   7.302  1.00  0.00     0.157 A 
ATOM     15  C   UNL     1      -1.060  -9.674   7.127  1.00  0.00     0.068 A 
ATOM     16  C   UNL     1      -2.147 -10.395   6.621  1.00  0.00     0.158 A 
BRANCH  14  17
ATOM     17  O   UNL     1      -4.464 -11.091   6.802  1.00  0.00    -0.504 OA
ATOM     18  H   UNL     1      -5.372 -11.058   7.253  1.00  0.00     0.293 HD
ENDBRANCH  14  17
BRANCH  16  19
ATOM     19  O   UNL     1      -1.987 -11.125   5.443  1.00  0.00    -0.504 OA
ATOM     20  H   UNL     1      -2.731 -11.215   4.760  1.00  0.00     0.293 HD
ENDBRANCH  16  19
ENDBRANCH   1  11
BRANCH  10  21
ATOM     21  O   UNL     1       0.814 -10.125  10.044  1.00  0.00    -0.500 OA
ATOM     22  H   UNL     1       1.560 -10.799   9.917  1.00  0.00     0.294 HD
ENDBRANCH  10  21
BRANCH   5  23
ATOM     23  O   UNL     1       2.260  -2.647   8.556  1.00  0.00    -0.507 OA
ATOM     24  H   UNL     1       3.132  -2.172   8.349  1.00  0.00     0.293 HD
ENDBRANCH   5  23
BRANCH   7  25
ATOM     25  O   UNL     1       4.289  -6.313  10.930  1.00  0.00    -0.507 OA
ATOM     26  H   UNL     1       5.148  -6.699  10.567  1.00  0.00     0.293 HD
ENDBRANCH   7  25
TORSDOF 6
ENDMDL
MODEL 8
REMARK VINA RESULT:    -4.771      3.793      6.020
REMARK INTER + INTRA:          -6.067
REMARK INTER:                  -5.809
REMARK INTRA:                  -0.258
REMARK UNBOUND:                -0.320
REMARK SMILES Oc1cc(O)c2cc(O)c(-c3ccc(O)c(O)c3)[o+]c2c1.[Cl-]
REMARK SMILES IDX 10 1 19 2 20 3 21 4 2 5 3 6 4 7 6 8 7 9 8 10 11 11 12 12
REMARK SMILES IDX 13 13 14 14 18 15 16 16 15 17 17 19 9 21 1 23 5 25
REMARK H PARENT 15 18 17 20 9 22 1 24 5 26
REMARK Flexibility Score: inf
ROOT
ATOM      1  C   UNL     1      -0.523  -7.043   8.584  1.00  0.00     0.402 A 
ATOM      2  O   UNL     1       0.722  -7.420   8.866  1.00  0.00    -0.202 OA
ATOM      3  C   UNL     1       1.739  -6.569   8.959  1.00  0.00     0.368 A 
ATOM      4  C   UNL     1       3.012  -7.061   9.261  1.00  0.00     0.162 A 
ATOM      5  C   UNL     1       4.097  -6.191   9.368  1.00  0.00     0.128 A 
ATOM      6  C   UNL     1       3.911  -4.817   9.171  1.00  0.00     0.093 A 
ATOM      7  C   UNL     1       2.646  -4.300   8.867  1.00  0.00     0.136 A 
ATOM      8  C   UNL     1       1.540  -5.182   8.755  1.00  0.00     0.125 A 
ATOM      9  C   UNL     1       0.240  -4.755   8.441  1.00  0.00     0.078 A 
ATOM     10  C   UNL     1      -0.799  -5.685   8.343  1.00  0.00     0.223 A 
ENDROOT
BRANCH   1  11
ATOM     11  C   UNL     1      -1.571  -8.086   8.520  1.00  0.00     0.087 A 
ATOM     12  C   UNL     1      -2.608  -8.142   9.467  1.00  0.00     0.022 A 
ATOM     13  C   UNL     1      -3.574  -9.150   9.399  1.00  0.00     0.051 A 
ATOM     14  C   UNL     1      -3.512 -10.121   8.392  1.00  0.00     0.157 A 
ATOM     15  C   UNL     1      -1.503  -9.074   7.523  1.00  0.00     0.068 A 
ATOM     16  C   UNL     1      -2.469 -10.084   7.451  1.00  0.00     0.158 A 
BRANCH  14  17
ATOM     17  O   UNL     1      -4.479 -11.124   8.324  1.00  0.00    -0.504 OA
ATOM     18  H   UNL     1      -4.281 -12.023   7.900  1.00  0.00     0.293 HD
ENDBRANCH  14  17
BRANCH  16  19
ATOM     19  O   UNL     1      -2.375 -11.040   6.440  1.00  0.00    -0.504 OA
ATOM     20  H   UNL     1      -2.132 -12.005   6.633  1.00  0.00     0.293 HD
ENDBRANCH  16  19
ENDBRANCH   1  11
BRANCH  10  21
ATOM     21  O   UNL     1      -2.081  -5.267   7.982  1.00  0.00    -0.500 OA
ATOM     22  H   UNL     1      -2.309  -5.013   7.028  1.00  0.00     0.294 HD
ENDBRANCH  10  21
BRANCH   5  23
ATOM     23  O   UNL     1       5.358  -6.700   9.670  1.00  0.00    -0.507 OA
ATOM     24  H   UNL     1       5.473  -7.514  10.264  1.00  0.00     0.293 HD
ENDBRANCH   5  23
BRANCH   7  25
ATOM     25  O   UNL     1       2.543  -2.918   8.688  1.00  0.00    -0.507 OA
ATOM     26  H   UNL     1       3.321  -2.276   8.740  1.00  0.00     0.293 HD
ENDBRANCH   7  25
TORSDOF 6
ENDMDL
MODEL 9
REMARK VINA RESULT:    -4.764      2.694      4.554
REMARK INTER + INTRA:          -6.059
REMARK INTER:                  -5.823
REMARK INTRA:                  -0.235
REMARK UNBOUND:                -0.320
REMARK SMILES Oc1cc(O)c2cc(O)c(-c3ccc(O)c(O)c3)[o+]c2c1.[Cl-]
REMARK SMILES IDX 10 1 19 2 20 3 21 4 2 5 3 6 4 7 6 8 7 9 8 10 11 11 12 12
REMARK SMILES IDX 13 13 14 14 18 15 16 16 15 17 17 19 9 21 1 23 5 25
REMARK H PARENT 15 18 17 20 9 22 1 24 5 26
REMARK Flexibility Score: inf
ROOT
ATOM      1  C   UNL     1      -1.531  -8.708   8.933  1.00  0.00     0.402 A 
ATOM      2  O   UNL     1      -1.237  -7.428   8.712  1.00  0.00    -0.202 OA
ATOM      3  C   UNL     1      -0.012  -6.929   8.838  1.00  0.00     0.368 A 
ATOM      4  C   UNL     1       0.199  -5.571   8.582  1.00  0.00     0.162 A 
ATOM      5  C   UNL     1       1.474  -5.020   8.704  1.00  0.00     0.128 A 
ATOM      6  C   UNL     1       2.550  -5.831   9.085  1.00  0.00     0.093 A 
ATOM      7  C   UNL     1       2.365  -7.193   9.347  1.00  0.00     0.136 A 
ATOM      8  C   UNL     1       1.069  -7.757   9.226  1.00  0.00     0.125 A 
ATOM      9  C   UNL     1       0.787  -9.109   9.482  1.00  0.00     0.078 A 
ATOM     10  C   UNL     1      -0.517  -9.592   9.347  1.00  0.00     0.223 A 
ENDROOT
BRANCH   1  11
ATOM     11  C   UNL     1      -2.933  -9.145   8.747  1.00  0.00     0.087 A 
ATOM     12  C   UNL     1      -3.286 -10.066   7.745  1.00  0.00     0.022 A 
ATOM     13  C   UNL     1      -4.619 -10.447   7.575  1.00  0.00     0.051 A 
ATOM     14  C   UNL     1      -5.620  -9.906   8.392  1.00  0.00     0.157 A 
ATOM     15  C   UNL     1      -3.942  -8.591   9.551  1.00  0.00     0.068 A 
ATOM     16  C   UNL     1      -5.279  -8.971   9.384  1.00  0.00     0.158 A 
BRANCH  14  17
ATOM     17  O   UNL     1      -6.950 -10.290   8.221  1.00  0.00    -0.504 OA
ATOM     18  H   UNL     1      -7.197 -11.134   7.718  1.00  0.00     0.293 HD
ENDBRANCH  14  17
BRANCH  16  19
ATOM     19  O   UNL     1      -6.251  -8.408  10.210  1.00  0.00    -0.504 OA
ATOM     20  H   UNL     1      -6.021  -7.986  11.103  1.00  0.00     0.293 HD
ENDBRANCH  16  19
ENDBRANCH   1  11
BRANCH  10  21
ATOM     21  O   UNL     1      -0.806 -10.923   9.649  1.00  0.00    -0.500 OA
ATOM     22  H   UNL     1      -0.493 -11.683   9.057  1.00  0.00     0.294 HD
ENDBRANCH  10  21
BRANCH   5  23
ATOM     23  O   UNL     1       1.664  -3.665   8.444  1.00  0.00    -0.507 OA
ATOM     24  H   UNL     1       1.049  -2.959   8.834  1.00  0.00     0.293 HD
ENDBRANCH   5  23
BRANCH   7  25
ATOM     25  O   UNL     1       3.490  -7.935   9.719  1.00  0.00    -0.507 OA
ATOM     26  H   UNL     1       4.442  -7.611   9.627  1.00  0.00     0.293 HD
ENDBRANCH   7  25
TORSDOF 6
ENDMDL
