MODEL 1
REMARK VINA RESULT:    60.929      0.000      0.000
REMARK INTER + INTRA:          79.339
REMARK INTER:                  80.519
REMARK INTRA:                  -1.180
REMARK UNBOUND:                -1.180
REMARK SMILES CC[C@H](C=C[C@@H](C)[C@@H]1CC[C@H]2[C@H]3CC=C4C[C@H](O)CC[C@@]4(C)[C@H]3CC[C@]21C)C(C)C
REMARK SMILES IDX 6 1 7 2 5 3 4 4 3 5 2 6 1 7 28 8 29 9 30 10 8 11 9 12 26 13
REMARK SMILES IDX 10 14 11 15 25 16 27 17 12 18 24 19 23 20 13 21 21 22 14 23
REMARK SMILES IDX 15 24 20 25 22 26 16 27 19 28 17 29 18 30
REMARK H PARENT 18 31
REMARK Flexibility Score: inf
ROOT
ATOM      1  C   UNL     1     -29.970  31.316  -3.535  1.00  0.00     0.012 C 
ATOM      2  C   UNL     1     -28.893  32.396  -3.745  1.00  0.00     0.012 C 
ENDROOT
BRANCH   1   3
ATOM      3  C   UNL     1     -29.714  30.139  -4.455  1.00  0.00    -0.028 C 
ATOM      4  C   UNL     1     -29.726  30.244  -5.797  1.00  0.00    -0.027 C 
BRANCH   4   5
ATOM      5  C   UNL     1     -29.512  29.049  -6.708  1.00  0.00     0.014 C 
BRANCH   5   6
ATOM      6  C   UNL     1     -30.672  28.031  -6.559  1.00  0.00     0.004 C 
ATOM      7  C   UNL     1     -30.282  26.619  -7.004  1.00  0.00     0.004 C 
ENDBRANCH   5   6
BRANCH   5   8
ATOM      8  C   UNL     1     -29.291  29.502  -8.187  1.00  0.00    -0.011 C 
ATOM      9  C   UNL     1     -30.110  30.766  -8.513  1.00  0.00     0.008 C 
ATOM     10  C   UNL     1     -27.809  29.777  -8.498  1.00  0.00     0.008 C 
ENDBRANCH   5   8
ENDBRANCH   4   5
ENDBRANCH   1   3
BRANCH   1  11
ATOM     11  C   UNL     1     -31.456  31.811  -3.638  1.00  0.00     0.002 C 
ATOM     12  C   UNL     1     -31.666  33.303  -3.890  1.00  0.00     0.005 C 
ATOM     13  C   UNL     1     -32.414  31.464  -2.454  1.00  0.00    -0.026 C 
ATOM     14  C   UNL     1     -33.161  33.493  -3.714  1.00  0.00     0.005 C 
ATOM     15  C   UNL     1     -33.563  32.517  -2.594  1.00  0.00    -0.001 C 
ATOM     16  C   UNL     1     -32.911  29.997  -2.578  1.00  0.00     0.007 C 
ATOM     17  C   UNL     1     -31.738  31.644  -1.067  1.00  0.00     0.012 C 
ATOM     18  C   UNL     1     -35.003  31.937  -2.703  1.00  0.00     0.000 C 
ATOM     19  C   UNL     1     -34.189  29.681  -1.780  1.00  0.00     0.005 C 
ATOM     20  C   UNL     1     -35.208  30.854  -1.615  1.00  0.00     0.003 C 
ATOM     21  C   UNL     1     -35.429  31.425  -4.103  1.00  0.00     0.031 C 
ATOM     22  C   UNL     1     -36.710  30.378  -1.578  1.00  0.00    -0.008 C 
ATOM     23  C   UNL     1     -36.602  30.468  -4.090  1.00  0.00    -0.027 C 
ATOM     24  C   UNL     1     -37.139  29.921  -2.975  1.00  0.00    -0.065 C 
ATOM     25  C   UNL     1     -36.890  29.226  -0.529  1.00  0.00     0.014 C 
ATOM     26  C   UNL     1     -37.634  31.554  -1.155  1.00  0.00     0.016 C 
ATOM     27  C   UNL     1     -38.376  29.057  -3.119  1.00  0.00     0.063 C 
ATOM     28  C   UNL     1     -38.217  28.463  -0.662  1.00  0.00     0.033 C 
ATOM     29  C   UNL     1     -38.389  27.921  -2.088  1.00  0.00     0.118 C 
BRANCH  29  30
ATOM     30  O   UNL     1     -39.574  27.171  -2.194  1.00  0.00    -0.393 OA
ATOM     31  H   UNL     1     -39.760  26.773  -1.303  1.00  0.00     0.210 HD
ENDBRANCH  29  30
ENDBRANCH   1  11
TORSDOF 6
ENDMDL
MODEL 2
REMARK VINA RESULT:    63.861      9.142     12.092
REMARK INTER + INTRA:          83.214
REMARK INTER:                  82.334
REMARK INTRA:                   0.880
REMARK UNBOUND:                -1.180
REMARK SMILES CC[C@H](C=C[C@@H](C)[C@@H]1CC[C@H]2[C@H]3CC=C4C[C@H](O)CC[C@@]4(C)[C@H]3CC[C@]21C)C(C)C
REMARK SMILES IDX 6 1 7 2 5 3 4 4 3 5 2 6 1 7 28 8 29 9 30 10 8 11 9 12 26 13
REMARK SMILES IDX 10 14 11 15 25 16 27 17 12 18 24 19 23 20 13 21 21 22 14 23
REMARK SMILES IDX 15 24 20 25 22 26 16 27 19 28 17 29 18 30
REMARK H PARENT 18 31
REMARK Flexibility Score: inf
ROOT
ATOM      1  C   UNL     1     -32.484  25.381   7.452  1.00  0.00     0.012 C 
ATOM      2  C   UNL     1     -32.266  25.981   8.852  1.00  0.00     0.012 C 
ENDROOT
BRANCH   1   3
ATOM      3  C   UNL     1     -31.355  25.790   6.528  1.00  0.00    -0.028 C 
ATOM      4  C   UNL     1     -30.871  27.045   6.475  1.00  0.00    -0.027 C 
BRANCH   4   5
ATOM      5  C   UNL     1     -29.769  27.452   5.514  1.00  0.00     0.014 C 
BRANCH   5   6
ATOM      6  C   UNL     1     -28.402  26.883   5.974  1.00  0.00     0.004 C 
ATOM      7  C   UNL     1     -27.215  27.569   5.293  1.00  0.00     0.004 C 
ENDBRANCH   5   6
BRANCH   5   8
ATOM      8  C   UNL     1     -30.126  27.054   4.046  1.00  0.00    -0.011 C 
ATOM      9  C   UNL     1     -30.391  28.299   3.177  1.00  0.00     0.008 C 
ATOM     10  C   UNL     1     -29.021  26.213   3.384  1.00  0.00     0.008 C 
ENDBRANCH   5   8
ENDBRANCH   4   5
ENDBRANCH   1   3
BRANCH   1  11
ATOM     11  C   UNL     1     -33.885  25.664   6.804  1.00  0.00     0.002 C 
ATOM     12  C   UNL     1     -34.020  26.954   5.998  1.00  0.00     0.005 C 
ATOM     13  C   UNL     1     -35.131  25.647   7.748  1.00  0.00    -0.026 C 
ATOM     14  C   UNL     1     -35.507  27.045   5.707  1.00  0.00     0.005 C 
ATOM     15  C   UNL     1     -36.199  26.472   6.955  1.00  0.00    -0.001 C 
ATOM     16  C   UNL     1     -35.573  24.183   8.026  1.00  0.00     0.007 C 
ATOM     17  C   UNL     1     -34.861  26.351   9.105  1.00  0.00     0.012 C 
ATOM     18  C   UNL     1     -37.553  25.751   6.694  1.00  0.00     0.000 C 
ATOM     19  C   UNL     1     -37.021  24.034   8.529  1.00  0.00     0.005 C 
ATOM     20  C   UNL     1     -38.047  25.087   8.003  1.00  0.00     0.003 C 
ATOM     21  C   UNL     1     -37.579  24.757   5.506  1.00  0.00     0.031 C 
ATOM     22  C   UNL     1     -39.501  24.507   7.820  1.00  0.00    -0.008 C 
ATOM     23  C   UNL     1     -38.709  23.751   5.554  1.00  0.00    -0.027 C 
ATOM     24  C   UNL     1     -39.530  23.564   6.614  1.00  0.00    -0.065 C 
ATOM     25  C   UNL     1     -39.960  23.767   9.124  1.00  0.00     0.014 C 
ATOM     26  C   UNL     1     -40.507  25.660   7.549  1.00  0.00     0.016 C 
ATOM     27  C   UNL     1     -40.680  22.586   6.472  1.00  0.00     0.063 C 
ATOM     28  C   UNL     1     -41.199  22.879   8.934  1.00  0.00     0.033 C 
ATOM     29  C   UNL     1     -40.973  21.871   7.798  1.00  0.00     0.118 C 
BRANCH  29  30
ATOM     30  O   UNL     1     -42.083  21.018   7.664  1.00  0.00    -0.393 OA
ATOM     31  H   UNL     1     -42.237  20.874   6.694  1.00  0.00     0.210 HD
ENDBRANCH  29  30
ENDBRANCH   1  11
TORSDOF 6
ENDMDL
