MODEL 1
REMARK VINA RESULT:    -5.233      0.000      0.000
REMARK INTER + INTRA:          -6.299
REMARK INTER:                  -6.151
REMARK INTRA:                  -0.148
REMARK UNBOUND:                -0.148
REMARK SMILES O=C([O-])C=Cc1ccc(O)c(O)c1
REMARK SMILES IDX 6 1 13 2 7 3 11 4 8 5 9 6 5 7 4 8 2 9 1 10 3 11 12 12 10 14
REMARK H PARENT 12 13 10 15
REMARK Flexibility Score: inf
ROOT
ATOM      1  C   UNL     1      10.744  -5.248  19.750  1.00  0.00    -0.022 A 
ATOM      2  C   UNL     1      10.765  -6.644  19.932  1.00  0.00     0.058 A 
ATOM      3  C   UNL     1       9.512  -4.613  19.546  1.00  0.00     0.012 A 
ATOM      4  C   UNL     1       9.578  -7.389  19.937  1.00  0.00     0.157 A 
ATOM      5  C   UNL     1       8.324  -5.345  19.553  1.00  0.00     0.051 A 
ATOM      6  C   UNL     1       8.340  -6.730  19.750  1.00  0.00     0.157 A 
ENDROOT
BRANCH   1   7
ATOM      7  C   UNL     1      11.980  -4.427  19.726  1.00  0.00     0.010 C 
ATOM      8  C   UNL     1      12.122  -3.315  18.993  1.00  0.00     0.025 C 
BRANCH   8   9
ATOM      9  C   UNL     1      13.371  -2.539  18.990  1.00  0.00     0.064 C 
ATOM     10  O   UNL     1      13.358  -1.340  18.607  1.00  0.00    -0.545 OA
ATOM     11  O   UNL     1      14.570  -3.108  19.408  1.00  0.00    -0.545 OA
ENDBRANCH   8   9
ENDBRANCH   1   7
BRANCH   4  12
ATOM     12  O   UNL     1       9.674  -8.770  20.123  1.00  0.00    -0.504 OA
ATOM     13  H   UNL     1       9.333  -9.454  19.464  1.00  0.00     0.293 HD
ENDBRANCH   4  12
BRANCH   6  14
ATOM     14  O   UNL     1       7.118  -7.403  19.751  1.00  0.00    -0.504 OA
ATOM     15  H   UNL     1       6.564  -7.568  20.579  1.00  0.00     0.293 HD
ENDBRANCH   6  14
TORSDOF 4
ENDMDL
MODEL 2
REMARK VINA RESULT:    -5.114     12.749     14.124
REMARK INTER + INTRA:          -6.158
REMARK INTER:                  -6.005
REMARK INTRA:                  -0.153
REMARK UNBOUND:                -0.148
REMARK SMILES O=C([O-])C=Cc1ccc(O)c(O)c1
REMARK SMILES IDX 6 1 13 2 7 3 11 4 8 5 9 6 5 7 4 8 2 9 1 10 3 11 12 12 10 14
REMARK H PARENT 12 13 10 15
REMARK Flexibility Score: inf
ROOT
ATOM      1  C   UNL     1       7.380   4.657  10.630  1.00  0.00    -0.022 A 
ATOM      2  C   UNL     1       8.125   3.820  11.483  1.00  0.00     0.058 A 
ATOM      3  C   UNL     1       6.700   4.082   9.547  1.00  0.00     0.012 A 
ATOM      4  C   UNL     1       8.171   2.435  11.276  1.00  0.00     0.157 A 
ATOM      5  C   UNL     1       6.737   2.703   9.335  1.00  0.00     0.051 A 
ATOM      6  C   UNL     1       7.463   1.868  10.190  1.00  0.00     0.157 A 
ENDROOT
BRANCH   1   7
ATOM      7  C   UNL     1       7.317   6.128  10.809  1.00  0.00     0.010 C 
ATOM      8  C   UNL     1       6.665   6.953   9.978  1.00  0.00     0.025 C 
BRANCH   8   9
ATOM      9  C   UNL     1       6.640   8.408  10.188  1.00  0.00     0.064 C 
ATOM     10  O   UNL     1       5.875   9.124   9.490  1.00  0.00    -0.545 OA
ATOM     11  O   UNL     1       7.448   9.008  11.149  1.00  0.00    -0.545 OA
ENDBRANCH   8   9
ENDBRANCH   1   7
BRANCH   4  12
ATOM     12  O   UNL     1       8.930   1.667  12.161  1.00  0.00    -0.504 OA
ATOM     13  H   UNL     1       9.483   2.053  12.913  1.00  0.00     0.293 HD
ENDBRANCH   4  12
BRANCH   6  14
ATOM     14  O   UNL     1       7.455   0.497   9.926  1.00  0.00    -0.504 OA
ATOM     15  H   UNL     1       7.037  -0.193  10.534  1.00  0.00     0.293 HD
ENDBRANCH   6  14
TORSDOF 4
ENDMDL
MODEL 3
REMARK VINA RESULT:    -5.106     12.889     14.937
REMARK INTER + INTRA:          -6.149
REMARK INTER:                  -6.006
REMARK INTRA:                  -0.144
REMARK UNBOUND:                -0.148
REMARK SMILES O=C([O-])C=Cc1ccc(O)c(O)c1
REMARK SMILES IDX 6 1 13 2 7 3 11 4 8 5 9 6 5 7 4 8 2 9 1 10 3 11 12 12 10 14
REMARK H PARENT 12 13 10 15
REMARK Flexibility Score: inf
ROOT
ATOM      1  C   UNL     1       7.375   5.283  10.797  1.00  0.00    -0.022 A 
ATOM      2  C   UNL     1       7.886   6.507  11.270  1.00  0.00     0.058 A 
ATOM      3  C   UNL     1       6.355   5.305   9.835  1.00  0.00     0.012 A 
ATOM      4  C   UNL     1       7.408   7.728  10.776  1.00  0.00     0.157 A 
ATOM      5  C   UNL     1       5.876   6.516   9.333  1.00  0.00     0.051 A 
ATOM      6  C   UNL     1       6.394   7.733   9.790  1.00  0.00     0.157 A 
ENDROOT
BRANCH   1   7
ATOM      7  C   UNL     1       7.846   3.971  11.305  1.00  0.00     0.010 C 
ATOM      8  C   UNL     1       8.091   2.913  10.519  1.00  0.00     0.025 C 
BRANCH   8   9
ATOM      9  C   UNL     1       8.545   1.626  11.068  1.00  0.00     0.064 C 
ATOM     10  O   UNL     1       8.150   1.261  12.206  1.00  0.00    -0.545 OA
ATOM     11  O   UNL     1       9.405   0.803  10.348  1.00  0.00    -0.545 OA
ENDBRANCH   8   9
ENDBRANCH   1   7
BRANCH   4  12
ATOM     12  O   UNL     1       7.962   8.902  11.291  1.00  0.00    -0.504 OA
ATOM     13  H   UNL     1       7.817   9.818  10.892  1.00  0.00     0.293 HD
ENDBRANCH   4  12
BRANCH   6  14
ATOM     14  O   UNL     1       5.875   8.908   9.245  1.00  0.00    -0.504 OA
ATOM     15  H   UNL     1       5.861   9.796   9.726  1.00  0.00     0.293 HD
ENDBRANCH   6  14
TORSDOF 4
ENDMDL
MODEL 4
REMARK VINA RESULT:    -5.092      1.646      2.782
REMARK INTER + INTRA:          -6.132
REMARK INTER:                  -6.004
REMARK INTRA:                  -0.128
REMARK UNBOUND:                -0.148
REMARK SMILES O=C([O-])C=Cc1ccc(O)c(O)c1
REMARK SMILES IDX 6 1 13 2 7 3 11 4 8 5 9 6 5 7 4 8 2 9 1 10 3 11 12 12 10 14
REMARK H PARENT 12 13 10 15
REMARK Flexibility Score: inf
ROOT
ATOM      1  C   UNL     1       9.836  -4.667  19.468  1.00  0.00    -0.022 A 
ATOM      2  C   UNL     1       8.621  -5.365  19.328  1.00  0.00     0.058 A 
ATOM      3  C   UNL     1      10.982  -5.378  19.850  1.00  0.00     0.012 A 
ATOM      4  C   UNL     1       8.555  -6.749  19.539  1.00  0.00     0.157 A 
ATOM      5  C   UNL     1      10.927  -6.757  20.058  1.00  0.00     0.051 A 
ATOM      6  C   UNL     1       9.725  -7.455  19.904  1.00  0.00     0.157 A 
ENDROOT
BRANCH   1   7
ATOM      7  C   UNL     1       9.943  -3.201  19.265  1.00  0.00     0.010 C 
ATOM      8  C   UNL     1      10.487  -2.638  18.178  1.00  0.00     0.025 C 
BRANCH   8   9
ATOM      9  C   UNL     1      10.584  -1.178  18.024  1.00  0.00     0.064 C 
ATOM     10  O   UNL     1      11.716  -0.629  18.002  1.00  0.00    -0.545 OA
ATOM     11  O   UNL     1       9.442  -0.392  17.902  1.00  0.00    -0.545 OA
ENDBRANCH   8   9
ENDBRANCH   1   7
BRANCH   4  12
ATOM     12  O   UNL     1       7.317  -7.375  19.382  1.00  0.00    -0.504 OA
ATOM     13  H   UNL     1       6.433  -6.943  19.608  1.00  0.00     0.293 HD
ENDBRANCH   4  12
BRANCH   6  14
ATOM     14  O   UNL     1       9.739  -8.834  20.122  1.00  0.00    -0.504 OA
ATOM     15  H   UNL     1       9.890  -9.262  21.024  1.00  0.00     0.293 HD
ENDBRANCH   6  14
TORSDOF 4
ENDMDL
MODEL 5
REMARK VINA RESULT:    -4.999      2.465      6.158
REMARK INTER + INTRA:          -6.023
REMARK INTER:                  -5.885
REMARK INTRA:                  -0.138
REMARK UNBOUND:                -0.148
REMARK SMILES O=C([O-])C=Cc1ccc(O)c(O)c1
REMARK SMILES IDX 6 1 13 2 7 3 11 4 8 5 9 6 5 7 4 8 2 9 1 10 3 11 12 12 10 14
REMARK H PARENT 12 13 10 15
REMARK Flexibility Score: inf
ROOT
ATOM      1  C   UNL     1       9.500  -3.161  18.372  1.00  0.00    -0.022 A 
ATOM      2  C   UNL     1       9.650  -2.697  17.050  1.00  0.00     0.058 A 
ATOM      3  C   UNL     1       9.993  -2.375  19.422  1.00  0.00     0.012 A 
ATOM      4  C   UNL     1      10.257  -1.462  16.784  1.00  0.00     0.157 A 
ATOM      5  C   UNL     1      10.595  -1.142  19.167  1.00  0.00     0.051 A 
ATOM      6  C   UNL     1      10.730  -0.672  17.857  1.00  0.00     0.157 A 
ENDROOT
BRANCH   1   7
ATOM      7  C   UNL     1       8.875  -4.468  18.693  1.00  0.00     0.010 C 
ATOM      8  C   UNL     1       9.504  -5.454  19.346  1.00  0.00     0.025 C 
BRANCH   8   9
ATOM      9  C   UNL     1       8.849  -6.739  19.632  1.00  0.00     0.064 C 
ATOM     10  O   UNL     1       7.600  -6.780  19.788  1.00  0.00    -0.545 OA
ATOM     11  O   UNL     1       9.586  -7.915  19.732  1.00  0.00    -0.545 OA
ENDBRANCH   8   9
ENDBRANCH   1   7
BRANCH   4  12
ATOM     12  O   UNL     1      10.372  -1.066  15.450  1.00  0.00    -0.504 OA
ATOM     13  H   UNL     1      10.186  -0.131  15.120  1.00  0.00     0.293 HD
ENDBRANCH   4  12
BRANCH   6  14
ATOM     14  O   UNL     1      11.337   0.571  17.669  1.00  0.00    -0.504 OA
ATOM     15  H   UNL     1      10.837   1.413  17.424  1.00  0.00     0.293 HD
ENDBRANCH   6  14
TORSDOF 4
ENDMDL
MODEL 6
REMARK VINA RESULT:    -4.648      2.421      3.223
REMARK INTER + INTRA:          -5.611
REMARK INTER:                  -5.486
REMARK INTRA:                  -0.125
REMARK UNBOUND:                -0.148
REMARK SMILES O=C([O-])C=Cc1ccc(O)c(O)c1
REMARK SMILES IDX 6 1 13 2 7 3 11 4 8 5 9 6 5 7 4 8 2 9 1 10 3 11 12 12 10 14
REMARK H PARENT 12 13 10 15
REMARK Flexibility Score: inf
ROOT
ATOM      1  C   UNL     1       9.179  -4.639  19.302  1.00  0.00    -0.022 A 
ATOM      2  C   UNL     1      10.474  -5.113  19.585  1.00  0.00     0.058 A 
ATOM      3  C   UNL     1       8.118  -5.555  19.268  1.00  0.00     0.012 A 
ATOM      4  C   UNL     1      10.704  -6.469  19.853  1.00  0.00     0.157 A 
ATOM      5  C   UNL     1       8.336  -6.906  19.538  1.00  0.00     0.051 A 
ATOM      6  C   UNL     1       9.619  -7.377  19.835  1.00  0.00     0.157 A 
ENDROOT
BRANCH   1   7
ATOM      7  C   UNL     1       8.898  -3.213  19.001  1.00  0.00     0.010 C 
ATOM      8  C   UNL     1       9.493  -2.529  18.013  1.00  0.00     0.025 C 
BRANCH   8   9
ATOM      9  C   UNL     1       9.193  -1.112  17.759  1.00  0.00     0.064 C 
ATOM     10  O   UNL     1       7.998  -0.719  17.764  1.00  0.00    -0.545 OA
ATOM     11  O   UNL     1      10.211  -0.196  17.514  1.00  0.00    -0.545 OA
ENDBRANCH   8   9
ENDBRANCH   1   7
BRANCH   4  12
ATOM     12  O   UNL     1      12.014  -6.868  20.125  1.00  0.00    -0.504 OA
ATOM     13  H   UNL     1      12.797  -6.233  20.187  1.00  0.00     0.293 HD
ENDBRANCH   4  12
BRANCH   6  14
ATOM     14  O   UNL     1       9.770  -8.739  20.101  1.00  0.00    -0.504 OA
ATOM     15  H   UNL     1       9.614  -9.159  21.006  1.00  0.00     0.293 HD
ENDBRANCH   6  14
TORSDOF 4
ENDMDL
MODEL 7
REMARK VINA RESULT:    -4.621      0.866      1.942
REMARK INTER + INTRA:          -5.579
REMARK INTER:                  -5.456
REMARK INTRA:                  -0.122
REMARK UNBOUND:                -0.148
REMARK SMILES O=C([O-])C=Cc1ccc(O)c(O)c1
REMARK SMILES IDX 6 1 13 2 7 3 11 4 8 5 9 6 5 7 4 8 2 9 1 10 3 11 12 12 10 14
REMARK H PARENT 12 13 10 15
REMARK Flexibility Score: inf
ROOT
ATOM      1  C   UNL     1      10.848  -5.318  19.879  1.00  0.00    -0.022 A 
ATOM      2  C   UNL     1       9.633  -4.640  19.658  1.00  0.00     0.058 A 
ATOM      3  C   UNL     1      10.819  -6.703  20.090  1.00  0.00     0.012 A 
ATOM      4  C   UNL     1       8.416  -5.334  19.623  1.00  0.00     0.157 A 
ATOM      5  C   UNL     1       9.612  -7.403  20.054  1.00  0.00     0.051 A 
ATOM      6  C   UNL     1       8.406  -6.735  19.818  1.00  0.00     0.157 A 
ENDROOT
BRANCH   1   7
ATOM      7  C   UNL     1      12.154  -4.616  19.935  1.00  0.00     0.010 C 
ATOM      8  C   UNL     1      12.458  -3.546  19.187  1.00  0.00     0.025 C 
BRANCH   8   9
ATOM      9  C   UNL     1      13.772  -2.890  19.267  1.00  0.00     0.064 C 
ATOM     10  O   UNL     1      13.883  -1.680  18.940  1.00  0.00    -0.545 OA
ATOM     11  O   UNL     1      14.896  -3.585  19.700  1.00  0.00    -0.545 OA
ENDBRANCH   8   9
ENDBRANCH   1   7
BRANCH   4  12
ATOM     12  O   UNL     1       7.251  -4.598  19.399  1.00  0.00    -0.504 OA
ATOM     13  H   UNL     1       6.681  -4.204  20.134  1.00  0.00     0.293 HD
ENDBRANCH   4  12
BRANCH   6  14
ATOM     14  O   UNL     1       7.235  -7.494  19.789  1.00  0.00    -0.504 OA
ATOM     15  H   UNL     1       7.161  -8.403  19.354  1.00  0.00     0.293 HD
ENDBRANCH   6  14
TORSDOF 4
ENDMDL
MODEL 8
REMARK VINA RESULT:    -4.537     12.761     14.152
REMARK INTER + INTRA:          -5.480
REMARK INTER:                  -5.328
REMARK INTRA:                  -0.152
REMARK UNBOUND:                -0.148
REMARK SMILES O=C([O-])C=Cc1ccc(O)c(O)c1
REMARK SMILES IDX 6 1 13 2 7 3 11 4 8 5 9 6 5 7 4 8 2 9 1 10 3 11 12 12 10 14
REMARK H PARENT 12 13 10 15
REMARK Flexibility Score: inf
ROOT
ATOM      1  C   UNL     1       7.130   4.376  10.233  1.00  0.00    -0.022 A 
ATOM      2  C   UNL     1       6.707   3.143   9.699  1.00  0.00     0.058 A 
ATOM      3  C   UNL     1       8.034   4.373  11.305  1.00  0.00     0.012 A 
ATOM      4  C   UNL     1       7.195   1.932  10.207  1.00  0.00     0.157 A 
ATOM      5  C   UNL     1       8.528   3.171  11.815  1.00  0.00     0.051 A 
ATOM      6  C   UNL     1       8.122   1.946  11.275  1.00  0.00     0.157 A 
ENDROOT
BRANCH   1   7
ATOM      7  C   UNL     1       6.626   5.678   9.731  1.00  0.00     0.010 C 
ATOM      8  C   UNL     1       6.844   6.849  10.347  1.00  0.00     0.025 C 
BRANCH   8   9
ATOM      9  C   UNL     1       6.315   8.115   9.819  1.00  0.00     0.064 C 
ATOM     10  O   UNL     1       6.257   9.125  10.568  1.00  0.00    -0.545 OA
ATOM     11  O   UNL     1       5.877   8.217   8.503  1.00  0.00    -0.545 OA
ENDBRANCH   8   9
ENDBRANCH   1   7
BRANCH   4  12
ATOM     12  O   UNL     1       6.732   0.748   9.629  1.00  0.00    -0.504 OA
ATOM     13  H   UNL     1       6.792   0.538   8.644  1.00  0.00     0.293 HD
ENDBRANCH   4  12
BRANCH   6  14
ATOM     14  O   UNL     1       8.658   0.781  11.827  1.00  0.00    -0.504 OA
ATOM     15  H   UNL     1       9.406   0.769  12.505  1.00  0.00     0.293 HD
ENDBRANCH   6  14
TORSDOF 4
ENDMDL
MODEL 9
REMARK VINA RESULT:    -4.504      3.733      4.550
REMARK INTER + INTRA:          -5.442
REMARK INTER:                  -5.315
REMARK INTRA:                  -0.127
REMARK UNBOUND:                -0.148
REMARK SMILES O=C([O-])C=Cc1ccc(O)c(O)c1
REMARK SMILES IDX 6 1 13 2 7 3 11 4 8 5 9 6 5 7 4 8 2 9 1 10 3 11 12 12 10 14
REMARK H PARENT 12 13 10 15
REMARK Flexibility Score: inf
ROOT
ATOM      1  C   UNL     1      10.486  -2.622  17.453  1.00  0.00    -0.022 A 
ATOM      2  C   UNL     1      10.156  -2.010  16.228  1.00  0.00     0.058 A 
ATOM      3  C   UNL     1       9.473  -3.258  18.184  1.00  0.00     0.012 A 
ATOM      4  C   UNL     1       8.847  -2.053  15.730  1.00  0.00     0.157 A 
ATOM      5  C   UNL     1       8.167  -3.309  17.694  1.00  0.00     0.051 A 
ATOM      6  C   UNL     1       7.841  -2.716  16.470  1.00  0.00     0.157 A 
ENDROOT
BRANCH   1   7
ATOM      7  C   UNL     1      11.857  -2.587  18.019  1.00  0.00     0.010 C 
ATOM      8  C   UNL     1      12.412  -1.494  18.561  1.00  0.00     0.025 C 
BRANCH   8   9
ATOM      9  C   UNL     1      13.780  -1.501  19.099  1.00  0.00     0.064 C 
ATOM     10  O   UNL     1      14.218  -0.485  19.699  1.00  0.00    -0.545 OA
ATOM     11  O   UNL     1      14.600  -2.616  18.959  1.00  0.00    -0.545 OA
ENDBRANCH   8   9
ENDBRANCH   1   7
BRANCH   4  12
ATOM     12  O   UNL     1       8.593  -1.425  14.509  1.00  0.00    -0.504 OA
ATOM     13  H   UNL     1       7.912  -0.690  14.382  1.00  0.00     0.293 HD
ENDBRANCH   4  12
BRANCH   6  14
ATOM     14  O   UNL     1       6.518  -2.808  16.033  1.00  0.00    -0.504 OA
ATOM     15  H   UNL     1       5.720  -2.526  16.584  1.00  0.00     0.293 HD
ENDBRANCH   6  14
TORSDOF 4
ENDMDL
