MODEL 1
REMARK VINA RESULT:    -5.432      0.000      0.000
REMARK INTER + INTRA:         -12.134
REMARK INTER:                 -10.513
REMARK INTRA:                  -1.621
REMARK UNBOUND:                -1.621
REMARK SMILES CCCCCCCCCCCCCCCCCC(=O)[O-]
REMARK SMILES IDX 10 1 11 2 12 3 13 4 14 5 15 6 16 7 17 8 18 9 19 10 20 11
REMARK SMILES IDX 9 12 8 13 7 14 6 15 5 16 4 17 3 18 2 19 1 20
REMARK H PARENT
REMARK Flexibility Score: inf
ROOT
ATOM      1  C   UNL     1       7.711  -2.927 -36.857  1.00  0.00     0.000 C 
ENDROOT
BRANCH   1   2
ATOM      2  C   UNL     1       8.027  -1.422 -36.872  1.00  0.00     0.000 C 
BRANCH   2   3
ATOM      3  C   UNL     1       8.311  -0.884 -38.287  1.00  0.00     0.000 C 
BRANCH   3   4
ATOM      4  C   UNL     1       8.684   0.610 -38.359  1.00  0.00     0.000 C 
BRANCH   4   5
ATOM      5  C   UNL     1       7.758   1.554 -37.566  1.00  0.00     0.000 C 
BRANCH   5   6
ATOM      6  C   UNL     1       8.311   2.017 -36.204  1.00  0.00     0.000 C 
BRANCH   6   7
ATOM      7  C   UNL     1       9.831   1.843 -36.027  1.00  0.00     0.006 C 
BRANCH   7   8
ATOM      8  C   UNL     1      10.226   1.474 -34.593  1.00  0.00     0.053 C 
BRANCH   8   9
ATOM      9  C   UNL     1      11.602   1.972 -34.285  1.00  0.00     0.041 C 
ATOM     10  O   UNL     1      12.028   1.968 -33.100  1.00  0.00    -0.550 OA
ATOM     11  O   UNL     1      12.435   2.394 -35.313  1.00  0.00    -0.550 OA
ENDBRANCH   8   9
ENDBRANCH   7   8
ENDBRANCH   6   7
ENDBRANCH   5   6
ENDBRANCH   4   5
ENDBRANCH   3   4
ENDBRANCH   2   3
ENDBRANCH   1   2
BRANCH   1  12
ATOM     12  C   UNL     1       6.232  -3.225 -36.551  1.00  0.00     0.000 C 
BRANCH  12  13
ATOM     13  C   UNL     1       5.782  -2.904 -35.114  1.00  0.00    -0.000 C 
BRANCH  13  14
ATOM     14  C   UNL     1       4.952  -1.611 -35.020  1.00  0.00    -0.000 C 
BRANCH  14  15
ATOM     15  C   UNL     1       5.665  -0.520 -34.204  1.00  0.00    -0.000 C 
BRANCH  15  16
ATOM     16  C   UNL     1       4.707   0.295 -33.304  1.00  0.00    -0.000 C 
BRANCH  16  17
ATOM     17  C   UNL     1       5.431   1.270 -32.355  1.00  0.00    -0.000 C 
BRANCH  17  18
ATOM     18  C   UNL     1       6.881   1.595 -32.752  1.00  0.00    -0.000 C 
BRANCH  18  19
ATOM     19  C   UNL     1       7.839   1.595 -31.551  1.00  0.00    -0.003 C 
ATOM     20  C   UNL     1       7.088   1.868 -30.252  1.00  0.00     0.004 C 
ENDBRANCH  18  19
ENDBRANCH  17  18
ENDBRANCH  16  17
ENDBRANCH  15  16
ENDBRANCH  14  15
ENDBRANCH  13  14
ENDBRANCH  12  13
ENDBRANCH   1  12
TORSDOF 16
ENDMDL
MODEL 2
REMARK VINA RESULT:    -5.267      2.401      6.050
REMARK INTER + INTRA:         -11.815
REMARK INTER:                  -9.901
REMARK INTRA:                  -1.913
REMARK UNBOUND:                -1.621
REMARK SMILES CCCCCCCCCCCCCCCCCC(=O)[O-]
REMARK SMILES IDX 10 1 11 2 12 3 13 4 14 5 15 6 16 7 17 8 18 9 19 10 20 11
REMARK SMILES IDX 9 12 8 13 7 14 6 15 5 16 4 17 3 18 2 19 1 20
REMARK H PARENT
REMARK Flexibility Score: inf
ROOT
ATOM      1  C   UNL     1       8.857   1.631 -27.721  1.00  0.00     0.000 C 
ENDROOT
BRANCH   1   2
ATOM      2  C   UNL     1      10.248   1.033 -27.987  1.00  0.00     0.000 C 
BRANCH   2   3
ATOM      3  C   UNL     1      10.647   1.080 -29.474  1.00  0.00     0.000 C 
BRANCH   3   4
ATOM      4  C   UNL     1      11.158   2.447 -29.973  1.00  0.00     0.000 C 
BRANCH   4   5
ATOM      5  C   UNL     1      11.214   2.605 -31.505  1.00  0.00     0.000 C 
BRANCH   5   6
ATOM      6  C   UNL     1      10.441   1.532 -32.299  1.00  0.00     0.000 C 
BRANCH   6   7
ATOM      7  C   UNL     1      11.000   1.234 -33.702  1.00  0.00     0.006 C 
BRANCH   7   8
ATOM      8  C   UNL     1      11.717   2.437 -34.325  1.00  0.00     0.053 C 
BRANCH   8   9
ATOM      9  C   UNL     1      13.109   2.064 -34.729  1.00  0.00     0.041 C 
ATOM     10  O   UNL     1      13.710   1.126 -34.141  1.00  0.00    -0.550 OA
ATOM     11  O   UNL     1      13.723   2.716 -35.791  1.00  0.00    -0.550 OA
ENDBRANCH   8   9
ENDBRANCH   7   8
ENDBRANCH   6   7
ENDBRANCH   5   6
ENDBRANCH   4   5
ENDBRANCH   3   4
ENDBRANCH   2   3
ENDBRANCH   1   2
BRANCH   1  12
ATOM     12  C   UNL     1       7.743   0.569 -27.698  1.00  0.00     0.000 C 
BRANCH  12  13
ATOM     13  C   UNL     1       6.962   0.409 -29.016  1.00  0.00    -0.000 C 
BRANCH  13  14
ATOM     14  C   UNL     1       6.730   1.747 -29.741  1.00  0.00    -0.000 C 
BRANCH  14  15
ATOM     15  C   UNL     1       7.343   1.758 -31.151  1.00  0.00    -0.000 C 
BRANCH  15  16
ATOM     16  C   UNL     1       6.357   1.302 -32.251  1.00  0.00    -0.000 C 
BRANCH  16  17
ATOM     17  C   UNL     1       6.621   1.948 -33.625  1.00  0.00    -0.000 C 
BRANCH  17  18
ATOM     18  C   UNL     1       7.502   1.112 -34.568  1.00  0.00    -0.000 C 
BRANCH  18  19
ATOM     19  C   UNL     1       8.015   1.919 -35.771  1.00  0.00    -0.003 C 
ATOM     20  C   UNL     1       8.699   1.011 -36.788  1.00  0.00     0.004 C 
ENDBRANCH  18  19
ENDBRANCH  17  18
ENDBRANCH  16  17
ENDBRANCH  15  16
ENDBRANCH  14  15
ENDBRANCH  13  14
ENDBRANCH  12  13
ENDBRANCH   1  12
TORSDOF 16
ENDMDL
MODEL 3
REMARK VINA RESULT:    -5.212      2.272      3.859
REMARK INTER + INTRA:         -11.708
REMARK INTER:                 -10.044
REMARK INTRA:                  -1.664
REMARK UNBOUND:                -1.621
REMARK SMILES CCCCCCCCCCCCCCCCCC(=O)[O-]
REMARK SMILES IDX 10 1 11 2 12 3 13 4 14 5 15 6 16 7 17 8 18 9 19 10 20 11
REMARK SMILES IDX 9 12 8 13 7 14 6 15 5 16 4 17 3 18 2 19 1 20
REMARK H PARENT
REMARK Flexibility Score: inf
ROOT
ATOM      1  C   UNL     1       7.871   0.057 -36.155  1.00  0.00     0.000 C 
ENDROOT
BRANCH   1   2
ATOM      2  C   UNL     1       8.795   1.157 -36.703  1.00  0.00     0.000 C 
BRANCH   2   3
ATOM      3  C   UNL     1       9.422   2.021 -35.593  1.00  0.00     0.000 C 
BRANCH   3   4
ATOM      4  C   UNL     1      10.957   1.930 -35.479  1.00  0.00     0.000 C 
BRANCH   4   5
ATOM      5  C   UNL     1      11.498   1.780 -34.043  1.00  0.00     0.000 C 
BRANCH   5   6
ATOM      6  C   UNL     1      10.451   1.355 -32.994  1.00  0.00     0.000 C 
BRANCH   6   7
ATOM      7  C   UNL     1      10.685   1.917 -31.580  1.00  0.00     0.006 C 
BRANCH   7   8
ATOM      8  C   UNL     1      11.334   3.305 -31.590  1.00  0.00     0.053 C 
BRANCH   8   9
ATOM      9  C   UNL     1      12.473   3.357 -30.621  1.00  0.00     0.041 C 
ATOM     10  O   UNL     1      12.259   3.601 -29.404  1.00  0.00    -0.550 OA
ATOM     11  O   UNL     1      13.765   3.084 -31.052  1.00  0.00    -0.550 OA
ENDBRANCH   8   9
ENDBRANCH   7   8
ENDBRANCH   6   7
ENDBRANCH   5   6
ENDBRANCH   4   5
ENDBRANCH   3   4
ENDBRANCH   2   3
ENDBRANCH   1   2
BRANCH   1  12
ATOM     12  C   UNL     1       6.547   0.611 -35.597  1.00  0.00     0.000 C 
BRANCH  12  13
ATOM     13  C   UNL     1       6.167   0.109 -34.192  1.00  0.00    -0.000 C 
BRANCH  13  14
ATOM     14  C   UNL     1       5.852   1.253 -33.211  1.00  0.00    -0.000 C 
BRANCH  14  15
ATOM     15  C   UNL     1       7.013   1.523 -32.240  1.00  0.00    -0.000 C 
BRANCH  15  16
ATOM     16  C   UNL     1       6.811   0.877 -30.850  1.00  0.00    -0.000 C 
BRANCH  16  17
ATOM     17  C   UNL     1       7.322   1.746 -29.684  1.00  0.00    -0.000 C 
BRANCH  17  18
ATOM     18  C   UNL     1       8.395   1.079 -28.808  1.00  0.00    -0.000 C 
BRANCH  18  19
ATOM     19  C   UNL     1       7.983   0.990 -27.330  1.00  0.00    -0.003 C 
ATOM     20  C   UNL     1       7.060  -0.199 -27.089  1.00  0.00     0.004 C 
ENDBRANCH  18  19
ENDBRANCH  17  18
ENDBRANCH  16  17
ENDBRANCH  15  16
ENDBRANCH  14  15
ENDBRANCH  13  14
ENDBRANCH  12  13
ENDBRANCH   1  12
TORSDOF 16
ENDMDL
MODEL 4
REMARK VINA RESULT:    -5.139      9.569     11.887
REMARK INTER + INTRA:         -11.566
REMARK INTER:                  -9.395
REMARK INTRA:                  -2.171
REMARK UNBOUND:                -1.621
REMARK SMILES CCCCCCCCCCCCCCCCCC(=O)[O-]
REMARK SMILES IDX 10 1 11 2 12 3 13 4 14 5 15 6 16 7 17 8 18 9 19 10 20 11
REMARK SMILES IDX 9 12 8 13 7 14 6 15 5 16 4 17 3 18 2 19 1 20
REMARK H PARENT
REMARK Flexibility Score: inf
ROOT
ATOM      1  C   UNL     1       5.935  -7.442 -29.719  1.00  0.00     0.000 C 
ENDROOT
BRANCH   1   2
ATOM      2  C   UNL     1       6.898  -6.410 -29.111  1.00  0.00     0.000 C 
BRANCH   2   3
ATOM      3  C   UNL     1       8.371  -6.858 -29.169  1.00  0.00     0.000 C 
BRANCH   3   4
ATOM      4  C   UNL     1       9.143  -6.749 -27.838  1.00  0.00     0.000 C 
BRANCH   4   5
ATOM      5  C   UNL     1       9.956  -7.999 -27.450  1.00  0.00     0.000 C 
BRANCH   5   6
ATOM      6  C   UNL     1       9.529  -9.300 -28.159  1.00  0.00     0.000 C 
BRANCH   6   7
ATOM      7  C   UNL     1       9.914 -10.597 -27.424  1.00  0.00     0.006 C 
BRANCH   7   8
ATOM      8  C   UNL     1      10.843 -10.351 -26.230  1.00  0.00     0.053 C 
BRANCH   8   9
ATOM      9  C   UNL     1      10.392 -11.146 -25.045  1.00  0.00     0.041 C 
ATOM     10  O   UNL     1       9.728 -12.205 -25.207  1.00  0.00    -0.550 OA
ATOM     11  O   UNL     1      10.748 -10.747 -23.763  1.00  0.00    -0.550 OA
ENDBRANCH   8   9
ENDBRANCH   7   8
ENDBRANCH   6   7
ENDBRANCH   5   6
ENDBRANCH   4   5
ENDBRANCH   3   4
ENDBRANCH   2   3
ENDBRANCH   1   2
BRANCH   1  12
ATOM     12  C   UNL     1       5.969  -8.796 -28.987  1.00  0.00     0.000 C 
BRANCH  12  13
ATOM     13  C   UNL     1       6.297 -10.012 -29.872  1.00  0.00    -0.000 C 
BRANCH  13  14
ATOM     14  C   UNL     1       6.532  -9.636 -31.345  1.00  0.00    -0.000 C 
BRANCH  14  15
ATOM     15  C   UNL     1       8.027  -9.582 -31.701  1.00  0.00    -0.000 C 
BRANCH  15  16
ATOM     16  C   UNL     1       8.319  -8.804 -33.005  1.00  0.00    -0.000 C 
BRANCH  16  17
ATOM     17  C   UNL     1       7.196  -7.828 -33.407  1.00  0.00    -0.000 C 
BRANCH  17  18
ATOM     18  C   UNL     1       7.398  -6.383 -32.923  1.00  0.00    -0.000 C 
BRANCH  18  19
ATOM     19  C   UNL     1       8.015  -5.478 -34.001  1.00  0.00    -0.003 C 
ATOM     20  C   UNL     1       6.951  -4.983 -34.976  1.00  0.00     0.004 C 
ENDBRANCH  18  19
ENDBRANCH  17  18
ENDBRANCH  16  17
ENDBRANCH  15  16
ENDBRANCH  14  15
ENDBRANCH  13  14
ENDBRANCH  12  13
ENDBRANCH   1  12
TORSDOF 16
ENDMDL
MODEL 5
REMARK VINA RESULT:    -5.133      7.924     10.274
REMARK INTER + INTRA:         -11.555
REMARK INTER:                  -8.741
REMARK INTRA:                  -2.814
REMARK UNBOUND:                -1.621
REMARK SMILES CCCCCCCCCCCCCCCCCC(=O)[O-]
REMARK SMILES IDX 10 1 11 2 12 3 13 4 14 5 15 6 16 7 17 8 18 9 19 10 20 11
REMARK SMILES IDX 9 12 8 13 7 14 6 15 5 16 4 17 3 18 2 19 1 20
REMARK H PARENT
REMARK Flexibility Score: inf
ROOT
ATOM      1  C   UNL     1       8.414 -10.409 -29.205  1.00  0.00     0.000 C 
ENDROOT
BRANCH   1   2
ATOM      2  C   UNL     1       9.615  -9.746 -29.901  1.00  0.00     0.000 C 
BRANCH   2   3
ATOM      3  C   UNL     1       9.914  -8.334 -29.364  1.00  0.00     0.000 C 
BRANCH   3   4
ATOM      4  C   UNL     1       9.543  -8.101 -27.885  1.00  0.00     0.000 C 
BRANCH   4   5
ATOM      5  C   UNL     1       9.227  -6.640 -27.512  1.00  0.00     0.000 C 
BRANCH   5   6
ATOM      6  C   UNL     1       9.021  -5.691 -28.711  1.00  0.00     0.000 C 
BRANCH   6   7
ATOM      7  C   UNL     1       8.404  -4.325 -28.359  1.00  0.00     0.006 C 
BRANCH   7   8
ATOM      8  C   UNL     1       6.886  -4.392 -28.157  1.00  0.00     0.053 C 
BRANCH   8   9
ATOM      9  C   UNL     1       6.367  -3.080 -27.658  1.00  0.00     0.041 C 
ATOM     10  O   UNL     1       6.122  -2.920 -26.433  1.00  0.00    -0.550 OA
ATOM     11  O   UNL     1       6.204  -2.017 -28.537  1.00  0.00    -0.550 OA
ENDBRANCH   8   9
ENDBRANCH   7   8
ENDBRANCH   6   7
ENDBRANCH   5   6
ENDBRANCH   4   5
ENDBRANCH   3   4
ENDBRANCH   2   3
ENDBRANCH   1   2
BRANCH   1  12
ATOM     12  C   UNL     1       7.298 -10.806 -30.188  1.00  0.00     0.000 C 
BRANCH  12  13
ATOM     13  C   UNL     1       6.017  -9.955 -30.104  1.00  0.00    -0.000 C 
BRANCH  13  14
ATOM     14  C   UNL     1       6.063  -8.912 -28.973  1.00  0.00    -0.000 C 
BRANCH  14  15
ATOM     15  C   UNL     1       5.748  -7.494 -29.477  1.00  0.00    -0.000 C 
BRANCH  15  16
ATOM     16  C   UNL     1       5.817  -7.361 -31.016  1.00  0.00    -0.000 C 
BRANCH  16  17
ATOM     17  C   UNL     1       7.185  -6.873 -31.533  1.00  0.00    -0.000 C 
BRANCH  17  18
ATOM     18  C   UNL     1       7.312  -6.826 -33.065  1.00  0.00    -0.000 C 
BRANCH  18  19
ATOM     19  C   UNL     1       7.210  -8.216 -33.711  1.00  0.00    -0.003 C 
ATOM     20  C   UNL     1       8.398  -9.090 -33.321  1.00  0.00     0.004 C 
ENDBRANCH  18  19
ENDBRANCH  17  18
ENDBRANCH  16  17
ENDBRANCH  15  16
ENDBRANCH  14  15
ENDBRANCH  13  14
ENDBRANCH  12  13
ENDBRANCH   1  12
TORSDOF 16
ENDMDL
MODEL 6
REMARK VINA RESULT:    -5.117      8.787     10.547
REMARK INTER + INTRA:         -11.523
REMARK INTER:                  -8.845
REMARK INTRA:                  -2.679
REMARK UNBOUND:                -1.621
REMARK SMILES CCCCCCCCCCCCCCCCCC(=O)[O-]
REMARK SMILES IDX 10 1 11 2 12 3 13 4 14 5 15 6 16 7 17 8 18 9 19 10 20 11
REMARK SMILES IDX 9 12 8 13 7 14 6 15 5 16 4 17 3 18 2 19 1 20
REMARK H PARENT
REMARK Flexibility Score: inf
ROOT
ATOM      1  C   UNL     1       5.497  -7.744 -29.828  1.00  0.00     0.000 C 
ENDROOT
BRANCH   1   2
ATOM      2  C   UNL     1       4.853  -8.106 -31.177  1.00  0.00     0.000 C 
BRANCH   2   3
ATOM      3  C   UNL     1       5.657  -7.587 -32.384  1.00  0.00     0.000 C 
BRANCH   3   4
ATOM      4  C   UNL     1       7.102  -7.147 -32.069  1.00  0.00     0.000 C 
BRANCH   4   5
ATOM      5  C   UNL     1       8.185  -7.763 -32.976  1.00  0.00     0.000 C 
BRANCH   5   6
ATOM      6  C   UNL     1       7.921  -9.220 -33.409  1.00  0.00     0.000 C 
BRANCH   6   7
ATOM      7  C   UNL     1       9.089 -10.192 -33.161  1.00  0.00     0.006 C 
BRANCH   7   8
ATOM      8  C   UNL     1      10.350  -9.489 -32.644  1.00  0.00     0.053 C 
BRANCH   8   9
ATOM      9  C   UNL     1      11.137 -10.409 -31.765  1.00  0.00     0.041 C 
ATOM     10  O   UNL     1      12.173  -9.995 -31.181  1.00  0.00    -0.550 OA
ATOM     11  O   UNL     1      10.698 -11.709 -31.548  1.00  0.00    -0.550 OA
ENDBRANCH   8   9
ENDBRANCH   7   8
ENDBRANCH   6   7
ENDBRANCH   5   6
ENDBRANCH   4   5
ENDBRANCH   3   4
ENDBRANCH   2   3
ENDBRANCH   1   2
BRANCH   1  12
ATOM     12  C   UNL     1       5.945  -8.981 -29.029  1.00  0.00     0.000 C 
BRANCH  12  13
ATOM     13  C   UNL     1       6.727 -10.035 -29.834  1.00  0.00    -0.000 C 
BRANCH  13  14
ATOM     14  C   UNL     1       8.163 -10.237 -29.320  1.00  0.00    -0.000 C 
BRANCH  14  15
ATOM     15  C   UNL     1       8.962  -8.923 -29.293  1.00  0.00    -0.000 C 
BRANCH  15  16
ATOM     16  C   UNL     1       9.549  -8.592 -27.901  1.00  0.00    -0.000 C 
BRANCH  16  17
ATOM     17  C   UNL     1       9.509  -7.091 -27.555  1.00  0.00    -0.000 C 
BRANCH  17  18
ATOM     18  C   UNL     1       8.487  -6.273 -28.362  1.00  0.00    -0.000 C 
BRANCH  18  19
ATOM     19  C   UNL     1       8.406  -4.808 -27.906  1.00  0.00    -0.003 C 
ATOM     20  C   UNL     1       9.592  -4.445 -27.016  1.00  0.00     0.004 C 
ENDBRANCH  18  19
ENDBRANCH  17  18
ENDBRANCH  16  17
ENDBRANCH  15  16
ENDBRANCH  14  15
ENDBRANCH  13  14
ENDBRANCH  12  13
ENDBRANCH   1  12
TORSDOF 16
ENDMDL
MODEL 7
REMARK VINA RESULT:    -5.111      7.742     10.573
REMARK INTER + INTRA:         -11.512
REMARK INTER:                  -8.483
REMARK INTRA:                  -3.029
REMARK UNBOUND:                -1.621
REMARK SMILES CCCCCCCCCCCCCCCCCC(=O)[O-]
REMARK SMILES IDX 10 1 11 2 12 3 13 4 14 5 15 6 16 7 17 8 18 9 19 10 20 11
REMARK SMILES IDX 9 12 8 13 7 14 6 15 5 16 4 17 3 18 2 19 1 20
REMARK H PARENT
REMARK Flexibility Score: inf
ROOT
ATOM      1  C   UNL     1       4.702  -8.445 -34.270  1.00  0.00     0.000 C 
ENDROOT
BRANCH   1   2
ATOM      2  C   UNL     1       3.916  -8.173 -32.977  1.00  0.00     0.000 C 
BRANCH   2   3
ATOM      3  C   UNL     1       4.580  -8.789 -31.731  1.00  0.00     0.000 C 
BRANCH   3   4
ATOM      4  C   UNL     1       4.722  -7.838 -30.525  1.00  0.00     0.000 C 
BRANCH   4   5
ATOM      5  C   UNL     1       5.646  -8.343 -29.400  1.00  0.00     0.000 C 
BRANCH   5   6
ATOM      6  C   UNL     1       6.319  -9.704 -29.671  1.00  0.00     0.000 C 
BRANCH   6   7
ATOM      7  C   UNL     1       7.767  -9.824 -29.162  1.00  0.00     0.006 C 
BRANCH   7   8
ATOM      8  C   UNL     1       8.421 -11.160 -29.536  1.00  0.00     0.053 C 
BRANCH   8   9
ATOM      9  C   UNL     1       9.712 -10.926 -30.255  1.00  0.00     0.041 C 
ATOM     10  O   UNL     1      10.170 -11.801 -31.037  1.00  0.00    -0.550 OA
ATOM     11  O   UNL     1      10.384  -9.720 -30.103  1.00  0.00    -0.550 OA
ENDBRANCH   8   9
ENDBRANCH   7   8
ENDBRANCH   6   7
ENDBRANCH   5   6
ENDBRANCH   4   5
ENDBRANCH   3   4
ENDBRANCH   2   3
ENDBRANCH   1   2
BRANCH   1  12
ATOM     12  C   UNL     1       5.630  -9.668 -34.160  1.00  0.00     0.000 C 
BRANCH  12  13
ATOM     13  C   UNL     1       7.125  -9.380 -34.395  1.00  0.00    -0.000 C 
BRANCH  13  14
ATOM     14  C   UNL     1       7.955  -9.428 -33.100  1.00  0.00    -0.000 C 
BRANCH  14  15
ATOM     15  C   UNL     1       8.702  -8.110 -32.839  1.00  0.00    -0.000 C 
BRANCH  15  16
ATOM     16  C   UNL     1       7.915  -7.128 -31.940  1.00  0.00    -0.000 C 
BRANCH  16  17
ATOM     17  C   UNL     1       7.183  -6.023 -32.725  1.00  0.00    -0.000 C 
BRANCH  17  18
ATOM     18  C   UNL     1       7.803  -5.688 -34.092  1.00  0.00    -0.000 C 
BRANCH  18  19
ATOM     19  C   UNL     1       6.933  -4.729 -34.919  1.00  0.00    -0.003 C 
ATOM     20  C   UNL     1       6.069  -5.495 -35.916  1.00  0.00     0.004 C 
ENDBRANCH  18  19
ENDBRANCH  17  18
ENDBRANCH  16  17
ENDBRANCH  15  16
ENDBRANCH  14  15
ENDBRANCH  13  14
ENDBRANCH  12  13
ENDBRANCH   1  12
TORSDOF 16
ENDMDL
MODEL 8
REMARK VINA RESULT:    -5.065      9.156     11.208
REMARK INTER + INTRA:         -11.423
REMARK INTER:                  -8.547
REMARK INTRA:                  -2.875
REMARK UNBOUND:                -1.621
REMARK SMILES CCCCCCCCCCCCCCCCCC(=O)[O-]
REMARK SMILES IDX 10 1 11 2 12 3 13 4 14 5 15 6 16 7 17 8 18 9 19 10 20 11
REMARK SMILES IDX 9 12 8 13 7 14 6 15 5 16 4 17 3 18 2 19 1 20
REMARK H PARENT
REMARK Flexibility Score: inf
ROOT
ATOM      1  C   UNL     1       6.712  -7.448 -33.779  1.00  0.00     0.000 C 
ENDROOT
BRANCH   1   2
ATOM      2  C   UNL     1       7.993  -7.487 -32.930  1.00  0.00     0.000 C 
BRANCH   2   3
ATOM      3  C   UNL     1       8.705  -8.852 -32.983  1.00  0.00     0.000 C 
BRANCH   3   4
ATOM      4  C   UNL     1       8.915  -9.536 -31.617  1.00  0.00     0.000 C 
BRANCH   4   5
ATOM      5  C   UNL     1       8.250 -10.919 -31.470  1.00  0.00     0.000 C 
BRANCH   5   6
ATOM      6  C   UNL     1       8.097 -11.417 -30.019  1.00  0.00     0.000 C 
BRANCH   6   7
ATOM      7  C   UNL     1       8.885 -10.613 -28.969  1.00  0.00     0.006 C 
BRANCH   7   8
ATOM      8  C   UNL     1       9.751 -11.499 -28.067  1.00  0.00     0.053 C 
BRANCH   8   9
ATOM      9  C   UNL     1      10.800 -12.199 -28.872  1.00  0.00     0.041 C 
ATOM     10  O   UNL     1      10.775 -13.452 -28.995  1.00  0.00    -0.550 OA
ATOM     11  O   UNL     1      11.776 -11.462 -29.531  1.00  0.00    -0.550 OA
ENDBRANCH   8   9
ENDBRANCH   7   8
ENDBRANCH   6   7
ENDBRANCH   5   6
ENDBRANCH   4   5
ENDBRANCH   3   4
ENDBRANCH   2   3
ENDBRANCH   1   2
BRANCH   1  12
ATOM     12  C   UNL     1       6.154  -8.850 -34.085  1.00  0.00     0.000 C 
BRANCH  12  13
ATOM     13  C   UNL     1       5.133  -9.386 -33.065  1.00  0.00    -0.000 C 
BRANCH  13  14
ATOM     14  C   UNL     1       4.169  -8.301 -32.553  1.00  0.00    -0.000 C 
BRANCH  14  15
ATOM     15  C   UNL     1       4.398  -7.973 -31.069  1.00  0.00    -0.000 C 
BRANCH  15  16
ATOM     16  C   UNL     1       5.469  -8.866 -30.402  1.00  0.00    -0.000 C 
BRANCH  16  17
ATOM     17  C   UNL     1       6.000  -8.305 -29.068  1.00  0.00    -0.000 C 
BRANCH  17  18
ATOM     18  C   UNL     1       6.665  -6.923 -29.173  1.00  0.00    -0.000 C 
BRANCH  18  19
ATOM     19  C   UNL     1       8.196  -7.008 -29.278  1.00  0.00    -0.003 C 
ATOM     20  C   UNL     1       8.850  -6.811 -27.914  1.00  0.00     0.004 C 
ENDBRANCH  18  19
ENDBRANCH  17  18
ENDBRANCH  16  17
ENDBRANCH  15  16
ENDBRANCH  14  15
ENDBRANCH  13  14
ENDBRANCH  12  13
ENDBRANCH   1  12
TORSDOF 16
ENDMDL
MODEL 9
REMARK VINA RESULT:    -5.032      9.717     12.051
REMARK INTER + INTRA:         -11.359
REMARK INTER:                  -8.717
REMARK INTRA:                  -2.643
REMARK UNBOUND:                -1.621
REMARK SMILES CCCCCCCCCCCCCCCCCC(=O)[O-]
REMARK SMILES IDX 10 1 11 2 12 3 13 4 14 5 15 6 16 7 17 8 18 9 19 10 20 11
REMARK SMILES IDX 9 12 8 13 7 14 6 15 5 16 4 17 3 18 2 19 1 20
REMARK H PARENT
REMARK Flexibility Score: inf
ROOT
ATOM      1  C   UNL     1       6.130  -8.536 -29.041  1.00  0.00     0.000 C 
ENDROOT
BRANCH   1   2
ATOM      2  C   UNL     1       6.517  -7.054 -29.180  1.00  0.00     0.000 C 
BRANCH   2   3
ATOM      3  C   UNL     1       8.015  -6.852 -29.480  1.00  0.00     0.000 C 
BRANCH   3   4
ATOM      4  C   UNL     1       8.837  -6.233 -28.332  1.00  0.00     0.000 C 
BRANCH   4   5
ATOM      5  C   UNL     1       9.616  -7.244 -27.468  1.00  0.00     0.000 C 
BRANCH   5   6
ATOM      6  C   UNL     1       9.678  -8.676 -28.036  1.00  0.00     0.000 C 
BRANCH   6   7
ATOM      7  C   UNL     1      10.192  -9.743 -27.052  1.00  0.00     0.006 C 
BRANCH   7   8
ATOM      8  C   UNL     1      10.515 -11.077 -27.736  1.00  0.00     0.053 C 
BRANCH   8   9
ATOM      9  C   UNL     1       9.394 -12.049 -27.540  1.00  0.00     0.041 C 
ATOM     10  O   UNL     1       9.212 -12.588 -26.416  1.00  0.00    -0.550 OA
ATOM     11  O   UNL     1       8.520 -12.321 -28.584  1.00  0.00    -0.550 OA
ENDBRANCH   8   9
ENDBRANCH   7   8
ENDBRANCH   6   7
ENDBRANCH   5   6
ENDBRANCH   4   5
ENDBRANCH   3   4
ENDBRANCH   2   3
ENDBRANCH   1   2
BRANCH   1  12
ATOM     12  C   UNL     1       5.585  -9.137 -30.349  1.00  0.00     0.000 C 
BRANCH  12  13
ATOM     13  C   UNL     1       4.803  -8.159 -31.244  1.00  0.00    -0.000 C 
BRANCH  13  14
ATOM     14  C   UNL     1       5.480  -7.918 -32.605  1.00  0.00    -0.000 C 
BRANCH  14  15
ATOM     15  C   UNL     1       6.708  -8.822 -32.811  1.00  0.00    -0.000 C 
BRANCH  15  16
ATOM     16  C   UNL     1       8.012  -8.032 -33.067  1.00  0.00    -0.000 C 
BRANCH  16  17
ATOM     17  C   UNL     1       9.250  -8.645 -32.383  1.00  0.00    -0.000 C 
BRANCH  17  18
ATOM     18  C   UNL     1       8.973  -9.933 -31.589  1.00  0.00    -0.000 C 
BRANCH  18  19
ATOM     19  C   UNL     1      10.250 -10.735 -31.295  1.00  0.00    -0.003 C 
ATOM     20  C   UNL     1      11.467  -9.819 -31.219  1.00  0.00     0.004 C 
ENDBRANCH  18  19
ENDBRANCH  17  18
ENDBRANCH  16  17
ENDBRANCH  15  16
ENDBRANCH  14  15
ENDBRANCH  13  14
ENDBRANCH  12  13
ENDBRANCH   1  12
TORSDOF 16
ENDMDL
