MODEL 1
REMARK VINA RESULT:    -6.104      0.000      0.000
REMARK INTER + INTRA:          -7.664
REMARK INTER:                  -7.353
REMARK INTRA:                  -0.311
REMARK UNBOUND:                -0.311
REMARK SMILES O=c1c(O)c(-c2ccc(O)c(O)c2)oc2cc(O)cc(O)c12
REMARK SMILES IDX 5 1 3 2 2 3 1 4 22 5 20 6 19 7 17 8 16 9 15 10 14 11 6 12
REMARK SMILES IDX 7 13 8 14 9 15 13 16 11 17 10 18 12 20 4 22 21 24 18 26
REMARK H PARENT 10 19 12 21 4 23 21 25 18 27
REMARK Flexibility Score: inf
ROOT
ATOM      1  C   UNL     1      13.296  -0.743  22.289  1.00  0.00     0.180 A 
ATOM      2  C   UNL     1      14.526  -1.059  22.894  1.00  0.00     0.208 A 
ATOM      3  C   UNL     1      14.530  -1.857  24.050  1.00  0.00     0.238 A 
ATOM      4  O   UNL     1      15.629  -2.091  24.618  1.00  0.00    -0.285 OA
ATOM      5  C   UNL     1      13.309  -2.341  24.577  1.00  0.00     0.111 A 
ATOM      6  C   UNL     1      13.199  -3.189  25.720  1.00  0.00     0.134 A 
ATOM      7  C   UNL     1      11.933  -3.501  26.229  1.00  0.00     0.093 A 
ATOM      8  C   UNL     1      10.771  -3.047  25.599  1.00  0.00     0.123 A 
ATOM      9  C   UNL     1      10.867  -2.268  24.448  1.00  0.00     0.094 A 
ATOM     10  C   UNL     1      12.117  -1.911  23.937  1.00  0.00     0.146 A 
ATOM     11  O   UNL     1      12.164  -1.158  22.845  1.00  0.00    -0.452 OA
ENDROOT
BRANCH   1  12
ATOM     12  C   UNL     1      13.212   0.071  21.055  1.00  0.00     0.025 A 
ATOM     13  C   UNL     1      13.178  -0.569  19.806  1.00  0.00     0.016 A 
ATOM     14  C   UNL     1      13.120   0.180  18.628  1.00  0.00     0.051 A 
ATOM     15  C   UNL     1      13.113   1.578  18.678  1.00  0.00     0.157 A 
ATOM     16  C   UNL     1      13.225   1.476  21.103  1.00  0.00     0.062 A 
ATOM     17  C   UNL     1      13.170   2.230  19.921  1.00  0.00     0.158 A 
BRANCH  15  18
ATOM     18  O   UNL     1      13.052   2.299  17.486  1.00  0.00    -0.504 OA
ATOM     19  H   UNL     1      12.284   2.195  16.834  1.00  0.00     0.293 HD
ENDBRANCH  15  18
BRANCH  17  20
ATOM     20  O   UNL     1      13.177   3.623  19.978  1.00  0.00    -0.504 OA
ATOM     21  H   UNL     1      13.671   4.123  20.708  1.00  0.00     0.293 HD
ENDBRANCH  17  20
ENDBRANCH   1  12
BRANCH   2  22
ATOM     22  O   UNL     1      15.718  -0.553  22.370  1.00  0.00    -0.502 OA
ATOM     23  H   UNL     1      15.803  -0.249  21.407  1.00  0.00     0.293 HD
ENDBRANCH   2  22
BRANCH   6  24
ATOM     24  O   UNL     1      14.293  -3.770  26.368  1.00  0.00    -0.507 OA
ATOM     25  H   UNL     1      14.228  -4.387  27.163  1.00  0.00     0.293 HD
ENDBRANCH   6  24
BRANCH   8  26
ATOM     26  O   UNL     1       9.514  -3.375  26.103  1.00  0.00    -0.508 OA
ATOM     27  H   UNL     1       8.981  -2.720  26.664  1.00  0.00     0.293 HD
ENDBRANCH   8  26
TORSDOF 6
ENDMDL
MODEL 2
REMARK VINA RESULT:    -6.012      2.353      7.420
REMARK INTER + INTRA:          -7.553
REMARK INTER:                  -7.246
REMARK INTRA:                  -0.307
REMARK UNBOUND:                -0.311
REMARK SMILES O=c1c(O)c(-c2ccc(O)c(O)c2)oc2cc(O)cc(O)c12
REMARK SMILES IDX 5 1 3 2 2 3 1 4 22 5 20 6 19 7 17 8 16 9 15 10 14 11 6 12
REMARK SMILES IDX 7 13 8 14 9 15 13 16 11 17 10 18 12 20 4 22 21 24 18 26
REMARK H PARENT 10 19 12 21 4 23 21 25 18 27
REMARK Flexibility Score: inf
ROOT
ATOM      1  C   UNL     1      12.227  -2.928  24.507  1.00  0.00     0.180 A 
ATOM      2  C   UNL     1      11.305  -1.928  24.865  1.00  0.00     0.208 A 
ATOM      3  C   UNL     1      11.460  -0.637  24.335  1.00  0.00     0.238 A 
ATOM      4  O   UNL     1      10.664   0.266  24.702  1.00  0.00    -0.285 OA
ATOM      5  C   UNL     1      12.526  -0.365  23.443  1.00  0.00     0.111 A 
ATOM      6  C   UNL     1      12.754   0.897  22.815  1.00  0.00     0.134 A 
ATOM      7  C   UNL     1      13.913   1.088  22.054  1.00  0.00     0.093 A 
ATOM      8  C   UNL     1      14.819   0.044  21.843  1.00  0.00     0.123 A 
ATOM      9  C   UNL     1      14.572  -1.208  22.403  1.00  0.00     0.094 A 
ATOM     10  C   UNL     1      13.443  -1.419  23.198  1.00  0.00     0.146 A 
ATOM     11  O   UNL     1      13.252  -2.624  23.720  1.00  0.00    -0.452 OA
ENDROOT
BRANCH   1  12
ATOM     12  C   UNL     1      12.114  -4.318  25.005  1.00  0.00     0.025 A 
ATOM     13  C   UNL     1      11.446  -5.277  24.229  1.00  0.00     0.016 A 
ATOM     14  C   UNL     1      11.309  -6.590  24.689  1.00  0.00     0.051 A 
ATOM     15  C   UNL     1      11.823  -6.959  25.935  1.00  0.00     0.157 A 
ATOM     16  C   UNL     1      12.612  -4.686  26.267  1.00  0.00     0.062 A 
ATOM     17  C   UNL     1      12.474  -6.002  26.732  1.00  0.00     0.158 A 
BRANCH  15  18
ATOM     18  O   UNL     1      11.674  -8.277  26.367  1.00  0.00    -0.504 OA
ATOM     19  H   UNL     1      12.005  -9.062  25.820  1.00  0.00     0.293 HD
ENDBRANCH  15  18
BRANCH  17  20
ATOM     20  O   UNL     1      12.976  -6.360  27.982  1.00  0.00    -0.504 OA
ATOM     21  H   UNL     1      12.363  -6.610  28.749  1.00  0.00     0.293 HD
ENDBRANCH  17  20
ENDBRANCH   1  12
BRANCH   2  22
ATOM     22  O   UNL     1      10.274  -2.213  25.764  1.00  0.00    -0.502 OA
ATOM     23  H   UNL     1      10.447  -2.583  26.691  1.00  0.00     0.293 HD
ENDBRANCH   2  22
BRANCH   6  24
ATOM     24  O   UNL     1      11.868   1.975  22.886  1.00  0.00    -0.507 OA
ATOM     25  H   UNL     1      11.732   2.555  23.699  1.00  0.00     0.293 HD
ENDBRANCH   6  24
BRANCH   8  26
ATOM     26  O   UNL     1      15.961   0.239  21.070  1.00  0.00    -0.508 OA
ATOM     27  H   UNL     1      16.705   0.857  21.371  1.00  0.00     0.293 HD
ENDBRANCH   8  26
TORSDOF 6
ENDMDL
MODEL 3
REMARK VINA RESULT:    -5.967      2.879      3.725
REMARK INTER + INTRA:          -7.499
REMARK INTER:                  -7.190
REMARK INTRA:                  -0.309
REMARK UNBOUND:                -0.311
REMARK SMILES O=c1c(O)c(-c2ccc(O)c(O)c2)oc2cc(O)cc(O)c12
REMARK SMILES IDX 5 1 3 2 2 3 1 4 22 5 20 6 19 7 17 8 16 9 15 10 14 11 6 12
REMARK SMILES IDX 7 13 8 14 9 15 13 16 11 17 10 18 12 20 4 22 21 24 18 26
REMARK H PARENT 10 19 12 21 4 23 21 25 18 27
REMARK Flexibility Score: inf
ROOT
ATOM      1  C   UNL     1      11.560   1.817  22.438  1.00  0.00     0.180 A 
ATOM      2  C   UNL     1      12.801   1.375  21.947  1.00  0.00     0.208 A 
ATOM      3  C   UNL     1      13.295   0.129  22.369  1.00  0.00     0.238 A 
ATOM      4  O   UNL     1      14.431  -0.237  21.968  1.00  0.00    -0.285 OA
ATOM      5  C   UNL     1      12.535  -0.665  23.262  1.00  0.00     0.111 A 
ATOM      6  C   UNL     1      12.920  -1.960  23.722  1.00  0.00     0.134 A 
ATOM      7  C   UNL     1      12.154  -2.598  24.706  1.00  0.00     0.093 A 
ATOM      8  C   UNL     1      10.982  -2.017  25.197  1.00  0.00     0.123 A 
ATOM      9  C   UNL     1      10.567  -0.780  24.709  1.00  0.00     0.094 A 
ATOM     10  C   UNL     1      11.329  -0.102  23.755  1.00  0.00     0.146 A 
ATOM     11  O   UNL     1      10.903   1.079  23.325  1.00  0.00    -0.452 OA
ENDROOT
BRANCH   1  12
ATOM     12  C   UNL     1      10.963   3.107  22.021  1.00  0.00     0.025 A 
ATOM     13  C   UNL     1      10.258   3.182  20.810  1.00  0.00     0.016 A 
ATOM     14  C   UNL     1       9.704   4.393  20.387  1.00  0.00     0.051 A 
ATOM     15  C   UNL     1       9.860   5.549  21.158  1.00  0.00     0.157 A 
ATOM     16  C   UNL     1      11.136   4.274  22.785  1.00  0.00     0.062 A 
ATOM     17  C   UNL     1      10.584   5.492  22.361  1.00  0.00     0.158 A 
BRANCH  15  18
ATOM     18  O   UNL     1       9.295   6.743  20.711  1.00  0.00    -0.504 OA
ATOM     19  H   UNL     1       8.641   7.273  21.276  1.00  0.00     0.293 HD
ENDBRANCH  15  18
BRANCH  17  20
ATOM     20  O   UNL     1      10.755   6.644  23.127  1.00  0.00    -0.504 OA
ATOM     21  H   UNL     1      10.413   6.704  24.079  1.00  0.00     0.293 HD
ENDBRANCH  17  20
ENDBRANCH   1  12
BRANCH   2  22
ATOM     22  O   UNL     1      13.544   2.183  21.084  1.00  0.00    -0.502 OA
ATOM     23  H   UNL     1      14.029   1.814  20.275  1.00  0.00     0.293 HD
ENDBRANCH   2  22
BRANCH   6  24
ATOM     24  O   UNL     1      14.020  -2.668  23.230  1.00  0.00    -0.507 OA
ATOM     25  H   UNL     1      14.155  -3.662  23.330  1.00  0.00     0.293 HD
ENDBRANCH   6  24
BRANCH   8  26
ATOM     26  O   UNL     1      10.218  -2.666  26.164  1.00  0.00    -0.508 OA
ATOM     27  H   UNL     1       9.908  -2.189  27.003  1.00  0.00     0.293 HD
ENDBRANCH   8  26
TORSDOF 6
ENDMDL
MODEL 4
REMARK VINA RESULT:    -5.945      2.974      4.096
REMARK INTER + INTRA:          -7.472
REMARK INTER:                  -7.202
REMARK INTRA:                  -0.270
REMARK UNBOUND:                -0.311
REMARK SMILES O=c1c(O)c(-c2ccc(O)c(O)c2)oc2cc(O)cc(O)c12
REMARK SMILES IDX 5 1 3 2 2 3 1 4 22 5 20 6 19 7 17 8 16 9 15 10 14 11 6 12
REMARK SMILES IDX 7 13 8 14 9 15 13 16 11 17 10 18 12 20 4 22 21 24 18 26
REMARK H PARENT 10 19 12 21 4 23 21 25 18 27
REMARK Flexibility Score: inf
ROOT
ATOM      1  C   UNL     1      11.688   1.696  21.817  1.00  0.00     0.180 A 
ATOM      2  C   UNL     1      13.001   1.687  21.314  1.00  0.00     0.208 A 
ATOM      3  C   UNL     1      13.939   0.804  21.873  1.00  0.00     0.238 A 
ATOM      4  O   UNL     1      15.126   0.839  21.455  1.00  0.00    -0.285 OA
ATOM      5  C   UNL     1      13.549  -0.070  22.917  1.00  0.00     0.111 A 
ATOM      6  C   UNL     1      14.406  -1.033  23.529  1.00  0.00     0.134 A 
ATOM      7  C   UNL     1      13.951  -1.754  24.640  1.00  0.00     0.093 A 
ATOM      8  C   UNL     1      12.649  -1.592  25.121  1.00  0.00     0.123 A 
ATOM      9  C   UNL     1      11.786  -0.697  24.492  1.00  0.00     0.094 A 
ATOM     10  C   UNL     1      12.222   0.062  23.404  1.00  0.00     0.146 A 
ATOM     11  O   UNL     1      11.371   0.911  22.840  1.00  0.00    -0.452 OA
ENDROOT
BRANCH   1  12
ATOM     12  C   UNL     1      10.638   2.581  21.263  1.00  0.00     0.025 A 
ATOM     13  C   UNL     1      10.617   3.937  21.623  1.00  0.00     0.016 A 
ATOM     14  C   UNL     1       9.623   4.786  21.129  1.00  0.00     0.051 A 
ATOM     15  C   UNL     1       8.627   4.290  20.282  1.00  0.00     0.157 A 
ATOM     16  C   UNL     1       9.624   2.080  20.428  1.00  0.00     0.062 A 
ATOM     17  C   UNL     1       8.624   2.929  19.933  1.00  0.00     0.158 A 
BRANCH  15  18
ATOM     18  O   UNL     1       7.649   5.161  19.802  1.00  0.00    -0.504 OA
ATOM     19  H   UNL     1       6.757   4.829  19.455  1.00  0.00     0.293 HD
ENDBRANCH  15  18
BRANCH  17  20
ATOM     20  O   UNL     1       7.626   2.425  19.100  1.00  0.00    -0.504 OA
ATOM     21  H   UNL     1       6.870   3.010  18.762  1.00  0.00     0.293 HD
ENDBRANCH  17  20
ENDBRANCH   1  12
BRANCH   2  22
ATOM     22  O   UNL     1      13.370   2.573  20.299  1.00  0.00    -0.502 OA
ATOM     23  H   UNL     1      12.692   3.014  19.688  1.00  0.00     0.293 HD
ENDBRANCH   2  22
BRANCH   6  24
ATOM     24  O   UNL     1      15.691  -1.338  23.071  1.00  0.00    -0.507 OA
ATOM     25  H   UNL     1      15.894  -1.962  22.306  1.00  0.00     0.293 HD
ENDBRANCH   6  24
BRANCH   8  26
ATOM     26  O   UNL     1      12.199  -2.325  26.216  1.00  0.00    -0.508 OA
ATOM     27  H   UNL     1      11.847  -3.270  26.113  1.00  0.00     0.293 HD
ENDBRANCH   8  26
TORSDOF 6
ENDMDL
MODEL 5
REMARK VINA RESULT:    -5.917      2.931      8.083
REMARK INTER + INTRA:          -7.439
REMARK INTER:                  -7.108
REMARK INTRA:                  -0.331
REMARK UNBOUND:                -0.311
REMARK SMILES O=c1c(O)c(-c2ccc(O)c(O)c2)oc2cc(O)cc(O)c12
REMARK SMILES IDX 5 1 3 2 2 3 1 4 22 5 20 6 19 7 17 8 16 9 15 10 14 11 6 12
REMARK SMILES IDX 7 13 8 14 9 15 13 16 11 17 10 18 12 20 4 22 21 24 18 26
REMARK H PARENT 10 19 12 21 4 23 21 25 18 27
REMARK Flexibility Score: inf
ROOT
ATOM      1  C   UNL     1      14.501  -3.852  25.593  1.00  0.00     0.180 A 
ATOM      2  C   UNL     1      13.156  -3.533  25.852  1.00  0.00     0.208 A 
ATOM      3  C   UNL     1      12.552  -2.491  25.129  1.00  0.00     0.238 A 
ATOM      4  O   UNL     1      11.365  -2.175  25.404  1.00  0.00    -0.285 OA
ATOM      5  C   UNL     1      13.295  -1.791  24.147  1.00  0.00     0.111 A 
ATOM      6  C   UNL     1      12.771  -0.746  23.328  1.00  0.00     0.134 A 
ATOM      7  C   UNL     1      13.631  -0.037  22.482  1.00  0.00     0.093 A 
ATOM      8  C   UNL     1      14.983  -0.378  22.376  1.00  0.00     0.123 A 
ATOM      9  C   UNL     1      15.489  -1.437  23.127  1.00  0.00     0.094 A 
ATOM     10  C   UNL     1      14.663  -2.139  24.008  1.00  0.00     0.146 A 
ATOM     11  O   UNL     1      15.189  -3.134  24.713  1.00  0.00    -0.452 OA
ENDROOT
BRANCH   1  12
ATOM     12  C   UNL     1      15.199  -4.952  26.296  1.00  0.00     0.025 A 
ATOM     13  C   UNL     1      15.989  -4.663  27.419  1.00  0.00     0.016 A 
ATOM     14  C   UNL     1      16.674  -5.684  28.085  1.00  0.00     0.051 A 
ATOM     15  C   UNL     1      16.592  -7.003  27.630  1.00  0.00     0.157 A 
ATOM     16  C   UNL     1      15.134  -6.277  25.828  1.00  0.00     0.062 A 
ATOM     17  C   UNL     1      15.822  -7.302  26.493  1.00  0.00     0.158 A 
BRANCH  15  18
ATOM     18  O   UNL     1      17.284  -8.001  28.316  1.00  0.00    -0.504 OA
ATOM     19  H   UNL     1      16.921  -8.942  28.407  1.00  0.00     0.293 HD
ENDBRANCH  15  18
BRANCH  17  20
ATOM     20  O   UNL     1      15.748  -8.614  26.027  1.00  0.00    -0.504 OA
ATOM     21  H   UNL     1      16.369  -9.336  26.371  1.00  0.00     0.293 HD
ENDBRANCH  17  20
ENDBRANCH   1  12
BRANCH   2  22
ATOM     22  O   UNL     1      12.448  -4.221  26.840  1.00  0.00    -0.502 OA
ATOM     23  H   UNL     1      12.131  -5.176  26.718  1.00  0.00     0.293 HD
ENDBRANCH   2  22
BRANCH   6  24
ATOM     24  O   UNL     1      11.421  -0.387  23.289  1.00  0.00    -0.507 OA
ATOM     25  H   UNL     1      10.739  -0.784  22.661  1.00  0.00     0.293 HD
ENDBRANCH   6  24
BRANCH   8  26
ATOM     26  O   UNL     1      15.828   0.322  21.519  1.00  0.00    -0.508 OA
ATOM     27  H   UNL     1      15.534   1.183  21.071  1.00  0.00     0.293 HD
ENDBRANCH   8  26
TORSDOF 6
ENDMDL
MODEL 6
REMARK VINA RESULT:    -5.902      2.864      8.018
REMARK INTER + INTRA:          -7.421
REMARK INTER:                  -7.101
REMARK INTRA:                  -0.320
REMARK UNBOUND:                -0.311
REMARK SMILES O=c1c(O)c(-c2ccc(O)c(O)c2)oc2cc(O)cc(O)c12
REMARK SMILES IDX 5 1 3 2 2 3 1 4 22 5 20 6 19 7 17 8 16 9 15 10 14 11 6 12
REMARK SMILES IDX 7 13 8 14 9 15 13 16 11 17 10 18 12 20 4 22 21 24 18 26
REMARK H PARENT 10 19 12 21 4 23 21 25 18 27
REMARK Flexibility Score: inf
ROOT
ATOM      1  C   UNL     1      14.519  -3.797  25.596  1.00  0.00     0.180 A 
ATOM      2  C   UNL     1      13.166  -3.486  25.817  1.00  0.00     0.208 A 
ATOM      3  C   UNL     1      12.570  -2.462  25.063  1.00  0.00     0.238 A 
ATOM      4  O   UNL     1      11.374  -2.152  25.304  1.00  0.00    -0.285 OA
ATOM      5  C   UNL     1      13.330  -1.772  24.088  1.00  0.00     0.111 A 
ATOM      6  C   UNL     1      12.818  -0.744  23.240  1.00  0.00     0.134 A 
ATOM      7  C   UNL     1      13.692  -0.041  22.402  1.00  0.00     0.093 A 
ATOM      8  C   UNL     1      15.048  -0.372  22.335  1.00  0.00     0.123 A 
ATOM      9  C   UNL     1      15.545  -1.414  23.115  1.00  0.00     0.094 A 
ATOM     10  C   UNL     1      14.705  -2.110  23.987  1.00  0.00     0.146 A 
ATOM     11  O   UNL     1      15.221  -3.088  24.721  1.00  0.00    -0.452 OA
ENDROOT
BRANCH   1  12
ATOM     12  C   UNL     1      15.209  -4.880  26.333  1.00  0.00     0.025 A 
ATOM     13  C   UNL     1      15.123  -6.199  25.863  1.00  0.00     0.016 A 
ATOM     14  C   UNL     1      15.749  -7.240  26.554  1.00  0.00     0.051 A 
ATOM     15  C   UNL     1      16.455  -6.982  27.733  1.00  0.00     0.157 A 
ATOM     16  C   UNL     1      15.902  -4.625  27.530  1.00  0.00     0.062 A 
ATOM     17  C   UNL     1      16.528  -5.668  28.227  1.00  0.00     0.158 A 
BRANCH  15  18
ATOM     18  O   UNL     1      17.071  -8.040  28.401  1.00  0.00    -0.504 OA
ATOM     19  H   UNL     1      17.637  -8.725  27.915  1.00  0.00     0.293 HD
ENDBRANCH  15  18
BRANCH  17  20
ATOM     20  O   UNL     1      17.218  -5.406  29.410  1.00  0.00    -0.504 OA
ATOM     21  H   UNL     1      17.456  -6.144  30.061  1.00  0.00     0.293 HD
ENDBRANCH  17  20
ENDBRANCH   1  12
BRANCH   2  22
ATOM     22  O   UNL     1      12.440  -4.165  26.800  1.00  0.00    -0.502 OA
ATOM     23  H   UNL     1      12.773  -5.021  27.227  1.00  0.00     0.293 HD
ENDBRANCH   2  22
BRANCH   6  24
ATOM     24  O   UNL     1      11.466  -0.398  23.162  1.00  0.00    -0.507 OA
ATOM     25  H   UNL     1      10.846  -0.669  22.415  1.00  0.00     0.293 HD
ENDBRANCH   6  24
BRANCH   8  26
ATOM     26  O   UNL     1      15.908   0.322  21.487  1.00  0.00    -0.508 OA
ATOM     27  H   UNL     1      15.560   0.847  20.692  1.00  0.00     0.293 HD
ENDBRANCH   8  26
TORSDOF 6
ENDMDL
MODEL 7
REMARK VINA RESULT:    -5.831      3.994      7.954
REMARK INTER + INTRA:          -7.335
REMARK INTER:                  -7.009
REMARK INTRA:                  -0.326
REMARK UNBOUND:                -0.311
REMARK SMILES O=c1c(O)c(-c2ccc(O)c(O)c2)oc2cc(O)cc(O)c12
REMARK SMILES IDX 5 1 3 2 2 3 1 4 22 5 20 6 19 7 17 8 16 9 15 10 14 11 6 12
REMARK SMILES IDX 7 13 8 14 9 15 13 16 11 17 10 18 12 20 4 22 21 24 18 26
REMARK H PARENT 10 19 12 21 4 23 21 25 18 27
REMARK Flexibility Score: inf
ROOT
ATOM      1  C   UNL     1      11.138   2.601  22.284  1.00  0.00     0.180 A 
ATOM      2  C   UNL     1      10.562   2.555  21.002  1.00  0.00     0.208 A 
ATOM      3  C   UNL     1      10.011   3.728  20.461  1.00  0.00     0.238 A 
ATOM      4  O   UNL     1       9.448   3.668  19.336  1.00  0.00    -0.285 OA
ATOM      5  C   UNL     1      10.056   4.935  21.201  1.00  0.00     0.111 A 
ATOM      6  C   UNL     1       9.564   6.190  20.732  1.00  0.00     0.134 A 
ATOM      7  C   UNL     1       9.543   7.289  21.600  1.00  0.00     0.093 A 
ATOM      8  C   UNL     1      10.056   7.195  22.896  1.00  0.00     0.123 A 
ATOM      9  C   UNL     1      10.593   5.989  23.341  1.00  0.00     0.094 A 
ATOM     10  C   UNL     1      10.594   4.865  22.512  1.00  0.00     0.146 A 
ATOM     11  O   UNL     1      11.106   3.732  22.979  1.00  0.00    -0.452 OA
ENDROOT
BRANCH   1  12
ATOM     12  C   UNL     1      11.760   1.413  22.911  1.00  0.00     0.025 A 
ATOM     13  C   UNL     1      11.028   0.660  23.841  1.00  0.00     0.016 A 
ATOM     14  C   UNL     1      11.603  -0.453  24.461  1.00  0.00     0.051 A 
ATOM     15  C   UNL     1      12.921  -0.820  24.173  1.00  0.00     0.157 A 
ATOM     16  C   UNL     1      13.092   1.055  22.638  1.00  0.00     0.062 A 
ATOM     17  C   UNL     1      13.672  -0.060  23.261  1.00  0.00     0.158 A 
BRANCH  15  18
ATOM     18  O   UNL     1      13.467  -1.937  24.805  1.00  0.00    -0.504 OA
ATOM     19  H   UNL     1      13.893  -1.881  25.722  1.00  0.00     0.293 HD
ENDBRANCH  15  18
BRANCH  17  20
ATOM     20  O   UNL     1      14.992  -0.413  22.980  1.00  0.00    -0.504 OA
ATOM     21  H   UNL     1      15.524   0.057  22.257  1.00  0.00     0.293 HD
ENDBRANCH  17  20
ENDBRANCH   1  12
BRANCH   2  22
ATOM     22  O   UNL     1      10.508   1.349  20.299  1.00  0.00    -0.502 OA
ATOM     23  H   UNL     1      11.132   1.140  19.529  1.00  0.00     0.293 HD
ENDBRANCH   2  22
BRANCH   6  24
ATOM     24  O   UNL     1       9.116   6.416  19.428  1.00  0.00    -0.507 OA
ATOM     25  H   UNL     1       8.785   7.302  19.079  1.00  0.00     0.293 HD
ENDBRANCH   6  24
BRANCH   8  26
ATOM     26  O   UNL     1      10.046   8.297  23.747  1.00  0.00    -0.508 OA
ATOM     27  H   UNL     1       9.390   9.060  23.619  1.00  0.00     0.293 HD
ENDBRANCH   8  26
TORSDOF 6
ENDMDL
MODEL 8
REMARK VINA RESULT:    -5.816      3.164      7.570
REMARK INTER + INTRA:          -7.317
REMARK INTER:                  -6.994
REMARK INTRA:                  -0.323
REMARK UNBOUND:                -0.311
REMARK SMILES O=c1c(O)c(-c2ccc(O)c(O)c2)oc2cc(O)cc(O)c12
REMARK SMILES IDX 5 1 3 2 2 3 1 4 22 5 20 6 19 7 17 8 16 9 15 10 14 11 6 12
REMARK SMILES IDX 7 13 8 14 9 15 13 16 11 17 10 18 12 20 4 22 21 24 18 26
REMARK H PARENT 10 19 12 21 4 23 21 25 18 27
REMARK Flexibility Score: inf
ROOT
ATOM      1  C   UNL     1      11.319   1.320  22.750  1.00  0.00     0.180 A 
ATOM      2  C   UNL     1      10.992   1.112  21.398  1.00  0.00     0.208 A 
ATOM      3  C   UNL     1      10.641   2.216  20.605  1.00  0.00     0.238 A 
ATOM      4  O   UNL     1      10.297   2.017  19.410  1.00  0.00    -0.285 OA
ATOM      5  C   UNL     1      10.636   3.516  21.168  1.00  0.00     0.111 A 
ATOM      6  C   UNL     1      10.336   4.710  20.446  1.00  0.00     0.134 A 
ATOM      7  C   UNL     1      10.235   5.925  21.134  1.00  0.00     0.093 A 
ATOM      8  C   UNL     1      10.486   5.999  22.507  1.00  0.00     0.123 A 
ATOM      9  C   UNL     1      10.839   4.848  23.209  1.00  0.00     0.094 A 
ATOM     10  C   UNL     1      10.912   3.615  22.556  1.00  0.00     0.146 A 
ATOM     11  O   UNL     1      11.241   2.541  23.264  1.00  0.00    -0.452 OA
ENDROOT
BRANCH   1  12
ATOM     12  C   UNL     1      11.722   0.209  23.642  1.00  0.00     0.025 A 
ATOM     13  C   UNL     1      13.074  -0.157  23.721  1.00  0.00     0.016 A 
ATOM     14  C   UNL     1      13.475  -1.216  24.540  1.00  0.00     0.051 A 
ATOM     15  C   UNL     1      12.530  -1.934  25.280  1.00  0.00     0.157 A 
ATOM     16  C   UNL     1      10.771  -0.527  24.370  1.00  0.00     0.062 A 
ATOM     17  C   UNL     1      11.170  -1.592  25.191  1.00  0.00     0.158 A 
BRANCH  15  18
ATOM     18  O   UNL     1      12.959  -2.984  26.090  1.00  0.00    -0.504 OA
ATOM     19  H   UNL     1      12.678  -3.943  25.923  1.00  0.00     0.293 HD
ENDBRANCH  15  18
BRANCH  17  20
ATOM     20  O   UNL     1      10.221  -2.313  25.915  1.00  0.00    -0.504 OA
ATOM     21  H   UNL     1      10.447  -3.199  26.351  1.00  0.00     0.293 HD
ENDBRANCH  17  20
ENDBRANCH   1  12
BRANCH   2  22
ATOM     22  O   UNL     1      10.981  -0.181  20.868  1.00  0.00    -0.502 OA
ATOM     23  H   UNL     1      11.743  -0.545  20.308  1.00  0.00     0.293 HD
ENDBRANCH   2  22
BRANCH   6  24
ATOM     24  O   UNL     1      10.159   4.761  19.060  1.00  0.00    -0.507 OA
ATOM     25  H   UNL     1      10.450   5.526  18.472  1.00  0.00     0.293 HD
ENDBRANCH   6  24
BRANCH   8  26
ATOM     26  O   UNL     1      10.399   7.215  23.182  1.00  0.00    -0.508 OA
ATOM     27  H   UNL     1      10.297   8.091  22.683  1.00  0.00     0.293 HD
ENDBRANCH   8  26
TORSDOF 6
ENDMDL
MODEL 9
REMARK VINA RESULT:    -5.778      2.265      3.008
REMARK INTER + INTRA:          -7.271
REMARK INTER:                  -6.968
REMARK INTRA:                  -0.303
REMARK UNBOUND:                -0.311
REMARK SMILES O=c1c(O)c(-c2ccc(O)c(O)c2)oc2cc(O)cc(O)c12
REMARK SMILES IDX 5 1 3 2 2 3 1 4 22 5 20 6 19 7 17 8 16 9 15 10 14 11 6 12
REMARK SMILES IDX 7 13 8 14 9 15 13 16 11 17 10 18 12 20 4 22 21 24 18 26
REMARK H PARENT 10 19 12 21 4 23 21 25 18 27
REMARK Flexibility Score: inf
ROOT
ATOM      1  C   UNL     1      11.683   1.006  21.889  1.00  0.00     0.180 A 
ATOM      2  C   UNL     1      12.726   0.641  22.759  1.00  0.00     0.208 A 
ATOM      3  C   UNL     1      12.631  -0.568  23.466  1.00  0.00     0.238 A 
ATOM      4  O   UNL     1      13.542  -0.863  24.284  1.00  0.00    -0.285 OA
ATOM      5  C   UNL     1      11.504  -1.405  23.284  1.00  0.00     0.111 A 
ATOM      6  C   UNL     1      11.323  -2.671  23.918  1.00  0.00     0.134 A 
ATOM      7  C   UNL     1      10.110  -3.353  23.765  1.00  0.00     0.093 A 
ATOM      8  C   UNL     1       9.096  -2.845  22.948  1.00  0.00     0.123 A 
ATOM      9  C   UNL     1       9.287  -1.639  22.277  1.00  0.00     0.094 A 
ATOM     10  C   UNL     1      10.473  -0.918  22.439  1.00  0.00     0.146 A 
ATOM     11  O   UNL     1      10.610   0.231  21.790  1.00  0.00    -0.452 OA
ENDROOT
BRANCH   1  12
ATOM     12  C   UNL     1      11.723   2.253  21.091  1.00  0.00     0.025 A 
ATOM     13  C   UNL     1      10.941   3.349  21.484  1.00  0.00     0.016 A 
ATOM     14  C   UNL     1      10.946   4.528  20.735  1.00  0.00     0.051 A 
ATOM     15  C   UNL     1      11.720   4.624  19.574  1.00  0.00     0.157 A 
ATOM     16  C   UNL     1      12.484   2.343  19.913  1.00  0.00     0.062 A 
ATOM     17  C   UNL     1      12.489   3.525  19.157  1.00  0.00     0.158 A 
BRANCH  15  18
ATOM     18  O   UNL     1      11.707   5.814  18.847  1.00  0.00    -0.504 OA
ATOM     19  H   UNL     1      12.529   6.401  18.763  1.00  0.00     0.293 HD
ENDBRANCH  15  18
BRANCH  17  20
ATOM     20  O   UNL     1      13.252   3.609  17.993  1.00  0.00    -0.504 OA
ATOM     21  H   UNL     1      13.677   2.789  17.576  1.00  0.00     0.293 HD
ENDBRANCH  17  20
ENDBRANCH   1  12
BRANCH   2  22
ATOM     22  O   UNL     1      13.820   1.492  22.941  1.00  0.00    -0.502 OA
ATOM     23  H   UNL     1      14.775   1.187  22.802  1.00  0.00     0.293 HD
ENDBRANCH   2  22
BRANCH   6  24
ATOM     24  O   UNL     1      12.307  -3.310  24.680  1.00  0.00    -0.507 OA
ATOM     25  H   UNL     1      13.259  -2.992  24.770  1.00  0.00     0.293 HD
ENDBRANCH   6  24
BRANCH   8  26
ATOM     26  O   UNL     1       7.898  -3.538  22.788  1.00  0.00    -0.508 OA
ATOM     27  H   UNL     1       7.590  -4.227  23.465  1.00  0.00     0.293 HD
ENDBRANCH   8  26
TORSDOF 6
ENDMDL
