MODEL 1
REMARK VINA RESULT:    -1.532      0.000      0.000
REMARK INTER + INTRA:          -1.896
REMARK INTER:                  -1.801
REMARK INTRA:                  -0.096
REMARK UNBOUND:                -0.096
REMARK SMILES O=c1c(O)c(-c2ccc(O)cc2)oc2cc(O)cc(O)c12
REMARK SMILES IDX 5 1 3 2 2 3 1 4 21 5 19 6 18 7 16 8 15 9 14 10 13 11 6 12
REMARK SMILES IDX 7 13 8 14 9 15 12 16 11 17 10 18 4 20 20 22 17 24
REMARK H PARENT 10 19 4 21 20 23 17 25
REMARK Flexibility Score: inf
ROOT
ATOM      1  C   UNL     1      18.729  -1.050  12.133  1.00  0.00     0.180 A 
ATOM      2  C   UNL     1      18.273  -2.165  11.411  1.00  0.00     0.208 A 
ATOM      3  C   UNL     1      18.234  -3.417  12.045  1.00  0.00     0.238 A 
ATOM      4  O   UNL     1      17.876  -4.422  11.378  1.00  0.00    -0.285 OA
ATOM      5  C   UNL     1      18.636  -3.535  13.397  1.00  0.00     0.111 A 
ATOM      6  C   UNL     1      18.600  -4.746  14.151  1.00  0.00     0.134 A 
ATOM      7  C   UNL     1      19.145  -4.774  15.442  1.00  0.00     0.093 A 
ATOM      8  C   UNL     1      19.665  -3.618  16.028  1.00  0.00     0.123 A 
ATOM      9  C   UNL     1      19.650  -2.416  15.323  1.00  0.00     0.094 A 
ATOM     10  C   UNL     1      19.147  -2.366  14.021  1.00  0.00     0.146 A 
ATOM     11  O   UNL     1      19.162  -1.204  13.379  1.00  0.00    -0.452 OA
ENDROOT
BRANCH   1  12
ATOM     12  C   UNL     1      18.776   0.308  11.541  1.00  0.00     0.021 A 
ATOM     13  C   UNL     1      19.625   0.558  10.451  1.00  0.00     0.016 A 
ATOM     14  C   UNL     1      19.702   1.837   9.891  1.00  0.00     0.047 A 
ATOM     15  C   UNL     1      18.942   2.885  10.425  1.00  0.00     0.115 A 
ATOM     16  C   UNL     1      18.031   1.371  12.085  1.00  0.00     0.016 A 
ATOM     17  C   UNL     1      18.110   2.649  11.524  1.00  0.00     0.047 A 
BRANCH  15  18
ATOM     18  O   UNL     1      19.009   4.164   9.875  1.00  0.00    -0.508 OA
ATOM     19  H   UNL     1      19.842   4.734   9.964  1.00  0.00     0.293 HD
ENDBRANCH  15  18
ENDBRANCH   1  12
BRANCH   2  20
ATOM     20  O   UNL     1      17.901  -2.031  10.071  1.00  0.00    -0.502 OA
ATOM     21  H   UNL     1      17.728  -1.130   9.641  1.00  0.00     0.293 HD
ENDBRANCH   2  20
BRANCH   6  22
ATOM     22  O   UNL     1      18.020  -5.934  13.694  1.00  0.00    -0.507 OA
ATOM     23  H   UNL     1      18.529  -6.782  13.497  1.00  0.00     0.293 HD
ENDBRANCH   6  22
BRANCH   8  24
ATOM     24  O   UNL     1      20.191  -3.650  17.318  1.00  0.00    -0.508 OA
ATOM     25  H   UNL     1      20.984  -3.078  17.582  1.00  0.00     0.293 HD
ENDBRANCH   8  24
TORSDOF 5
ENDMDL
MODEL 2
REMARK VINA RESULT:    -1.455      1.946      6.280
REMARK INTER + INTRA:          -1.806
REMARK INTER:                  -1.929
REMARK INTRA:                   0.124
REMARK UNBOUND:                -0.096
REMARK SMILES O=c1c(O)c(-c2ccc(O)cc2)oc2cc(O)cc(O)c12
REMARK SMILES IDX 5 1 3 2 2 3 1 4 21 5 19 6 18 7 16 8 15 9 14 10 13 11 6 12
REMARK SMILES IDX 7 13 8 14 9 15 12 16 11 17 10 18 4 20 20 22 17 24
REMARK H PARENT 10 19 4 21 20 23 17 25
REMARK Flexibility Score: inf
ROOT
ATOM      1  C   UNL     1      19.919  -2.062  14.608  1.00  0.00     0.180 A 
ATOM      2  C   UNL     1      19.130  -3.123  14.134  1.00  0.00     0.208 A 
ATOM      3  C   UNL     1      18.628  -3.067  12.824  1.00  0.00     0.238 A 
ATOM      4  O   UNL     1      17.877  -3.994  12.423  1.00  0.00    -0.285 OA
ATOM      5  C   UNL     1      18.937  -1.959  11.999  1.00  0.00     0.111 A 
ATOM      6  C   UNL     1      18.517  -1.817  10.642  1.00  0.00     0.134 A 
ATOM      7  C   UNL     1      18.770  -0.619   9.962  1.00  0.00     0.093 A 
ATOM      8  C   UNL     1      19.486   0.416  10.569  1.00  0.00     0.123 A 
ATOM      9  C   UNL     1      19.952   0.263  11.873  1.00  0.00     0.094 A 
ATOM     10  C   UNL     1      19.683  -0.905  12.589  1.00  0.00     0.146 A 
ATOM     11  O   UNL     1      20.136  -1.006  13.833  1.00  0.00    -0.452 OA
ENDROOT
BRANCH   1  12
ATOM     12  C   UNL     1      20.503  -2.060  15.969  1.00  0.00     0.021 A 
ATOM     13  C   UNL     1      19.693  -2.381  17.071  1.00  0.00     0.016 A 
ATOM     14  C   UNL     1      20.218  -2.363  18.366  1.00  0.00     0.047 A 
ATOM     15  C   UNL     1      21.557  -2.010  18.578  1.00  0.00     0.115 A 
ATOM     16  C   UNL     1      21.842  -1.686  16.192  1.00  0.00     0.016 A 
ATOM     17  C   UNL     1      22.364  -1.669  17.489  1.00  0.00     0.047 A 
BRANCH  15  18
ATOM     18  O   UNL     1      22.092  -1.989  19.864  1.00  0.00    -0.508 OA
ATOM     19  H   UNL     1      23.089  -1.905  20.021  1.00  0.00     0.293 HD
ENDBRANCH  15  18
ENDBRANCH   1  12
BRANCH   2  20
ATOM     20  O   UNL     1      18.818  -4.197  14.973  1.00  0.00    -0.502 OA
ATOM     21  H   UNL     1      19.489  -4.921  15.202  1.00  0.00     0.293 HD
ENDBRANCH   2  20
BRANCH   6  22
ATOM     22  O   UNL     1      17.876  -2.824   9.913  1.00  0.00    -0.507 OA
ATOM     23  H   UNL     1      17.936  -2.935   8.912  1.00  0.00     0.293 HD
ENDBRANCH   6  22
BRANCH   8  24
ATOM     24  O   UNL     1      19.747   1.599   9.880  1.00  0.00    -0.508 OA
ATOM     25  H   UNL     1      20.354   2.314  10.265  1.00  0.00     0.293 HD
ENDBRANCH   8  24
TORSDOF 5
ENDMDL
