MODEL 1
REMARK VINA RESULT:    -2.935      0.000      0.000
REMARK INTER + INTRA:         -13.306
REMARK INTER:                  -7.396
REMARK INTRA:                  -5.909
REMARK UNBOUND:                -5.909
REMARK SMILES CCCCCCCCCCCCCCCCCCCCCCCCCCCC(=O)[O-]
REMARK SMILES IDX 15 1 16 2 17 3 18 4 19 5 20 6 21 7 22 8 23 9 24 10 25 11
REMARK SMILES IDX 26 12 27 13 28 14 29 15 30 16 14 17 13 18 12 19 11 20 10 21
REMARK SMILES IDX 9 22 8 23 7 24 6 25 5 26 4 27 3 28 2 29 1 30
REMARK H PARENT
REMARK Flexibility Score: inf
ROOT
ATOM      1  C   UNL     1      29.448  29.745  53.086  1.00  0.00     0.000 C 
ENDROOT
BRANCH   1   2
ATOM      2  C   UNL     1      28.242  29.367  52.206  1.00  0.00     0.000 C 
BRANCH   2   3
ATOM      3  C   UNL     1      28.224  30.114  50.861  1.00  0.00     0.000 C 
BRANCH   3   4
ATOM      4  C   UNL     1      29.552  30.829  50.567  1.00  0.00     0.000 C 
BRANCH   4   5
ATOM      5  C   UNL     1      29.349  32.154  49.809  1.00  0.00     0.000 C 
BRANCH   5   6
ATOM      6  C   UNL     1      29.997  33.352  50.522  1.00  0.00     0.000 C 
BRANCH   6   7
ATOM      7  C   UNL     1      30.236  33.090  52.018  1.00  0.00     0.000 C 
BRANCH   7   8
ATOM      8  C   UNL     1      29.972  34.334  52.883  1.00  0.00     0.000 C 
BRANCH   8   9
ATOM      9  C   UNL     1      28.568  34.330  53.513  1.00  0.00     0.000 C 
BRANCH   9  10
ATOM     10  C   UNL     1      27.918  32.938  53.499  1.00  0.00     0.000 C 
BRANCH  10  11
ATOM     11  C   UNL     1      26.427  32.986  53.135  1.00  0.00     0.000 C 
BRANCH  11  12
ATOM     12  C   UNL     1      26.229  33.446  51.683  1.00  0.00     0.006 C 
BRANCH  12  13
ATOM     13  C   UNL     1      25.438  32.428  50.851  1.00  0.00     0.053 C 
BRANCH  13  14
ATOM     14  C   UNL     1      25.629  32.643  49.380  1.00  0.00     0.041 C 
ATOM     15  O   UNL     1      26.195  33.685  48.961  1.00  0.00    -0.550 OA
ATOM     16  O   UNL     1      25.143  31.710  48.473  1.00  0.00    -0.550 OA
ENDBRANCH  13  14
ENDBRANCH  12  13
ENDBRANCH  11  12
ENDBRANCH  10  11
ENDBRANCH   9  10
ENDBRANCH   8   9
ENDBRANCH   7   8
ENDBRANCH   6   7
ENDBRANCH   5   6
ENDBRANCH   4   5
ENDBRANCH   3   4
ENDBRANCH   2   3
ENDBRANCH   1   2
BRANCH   1  17
ATOM     17  C   UNL     1      30.325  28.561  53.538  1.00  0.00     0.000 C 
BRANCH  17  18
ATOM     18  C   UNL     1      31.740  28.989  53.962  1.00  0.00     0.000 C 
BRANCH  18  19
ATOM     19  C   UNL     1      32.308  30.109  53.075  1.00  0.00     0.000 C 
BRANCH  19  20
ATOM     20  C   UNL     1      32.754  31.340  53.882  1.00  0.00     0.000 C 
BRANCH  20  21
ATOM     21  C   UNL     1      32.561  31.157  55.400  1.00  0.00     0.000 C 
BRANCH  21  22
ATOM     22  C   UNL     1      31.852  32.323  56.113  1.00  0.00    -0.000 C 
BRANCH  22  23
ATOM     23  C   UNL     1      30.314  32.237  56.130  1.00  0.00    -0.000 C 
BRANCH  23  24
ATOM     24  C   UNL     1      29.776  30.863  56.582  1.00  0.00    -0.000 C 
BRANCH  24  25
ATOM     25  C   UNL     1      28.294  30.914  56.980  1.00  0.00    -0.000 C 
BRANCH  25  26
ATOM     26  C   UNL     1      27.415  30.250  55.913  1.00  0.00    -0.000 C 
BRANCH  26  27
ATOM     27  C   UNL     1      26.068  29.809  56.503  1.00  0.00    -0.000 C 
BRANCH  27  28
ATOM     28  C   UNL     1      24.862  30.327  55.697  1.00  0.00    -0.000 C 
BRANCH  28  29
ATOM     29  C   UNL     1      24.909  30.014  54.191  1.00  0.00    -0.003 C 
ATOM     30  C   UNL     1      23.551  29.608  53.622  1.00  0.00     0.004 C 
ENDBRANCH  28  29
ENDBRANCH  27  28
ENDBRANCH  26  27
ENDBRANCH  25  26
ENDBRANCH  24  25
ENDBRANCH  23  24
ENDBRANCH  22  23
ENDBRANCH  21  22
ENDBRANCH  20  21
ENDBRANCH  19  20
ENDBRANCH  18  19
ENDBRANCH  17  18
ENDBRANCH   1  17
TORSDOF 26
ENDMDL
MODEL 2
REMARK VINA RESULT:    -2.926      2.076      4.024
REMARK INTER + INTRA:         -13.282
REMARK INTER:                  -7.644
REMARK INTRA:                  -5.638
REMARK UNBOUND:                -5.909
REMARK SMILES CCCCCCCCCCCCCCCCCCCCCCCCCCCC(=O)[O-]
REMARK SMILES IDX 15 1 16 2 17 3 18 4 19 5 20 6 21 7 22 8 23 9 24 10 25 11
REMARK SMILES IDX 26 12 27 13 28 14 29 15 30 16 14 17 13 18 12 19 11 20 10 21
REMARK SMILES IDX 9 22 8 23 7 24 6 25 5 26 4 27 3 28 2 29 1 30
REMARK H PARENT
REMARK Flexibility Score: inf
ROOT
ATOM      1  C   UNL     1      29.497  33.960  53.597  1.00  0.00     0.000 C 
ENDROOT
BRANCH   1   2
ATOM      2  C   UNL     1      28.143  33.266  53.361  1.00  0.00     0.000 C 
BRANCH   2   3
ATOM      3  C   UNL     1      27.012  34.254  53.028  1.00  0.00     0.000 C 
BRANCH   3   4
ATOM      4  C   UNL     1      25.666  33.550  52.795  1.00  0.00     0.000 C 
BRANCH   4   5
ATOM      5  C   UNL     1      25.579  32.196  53.524  1.00  0.00     0.000 C 
BRANCH   5   6
ATOM      6  C   UNL     1      25.004  31.079  52.639  1.00  0.00     0.000 C 
BRANCH   6   7
ATOM      7  C   UNL     1      25.940  29.862  52.542  1.00  0.00     0.000 C 
BRANCH   7   8
ATOM      8  C   UNL     1      27.195  30.151  51.702  1.00  0.00     0.000 C 
BRANCH   8   9
ATOM      9  C   UNL     1      26.869  30.856  50.374  1.00  0.00     0.000 C 
BRANCH   9  10
ATOM     10  C   UNL     1      28.127  31.340  49.636  1.00  0.00     0.000 C 
BRANCH  10  11
ATOM     11  C   UNL     1      28.266  32.869  49.645  1.00  0.00     0.000 C 
BRANCH  11  12
ATOM     12  C   UNL     1      29.738  33.289  49.513  1.00  0.00     0.006 C 
BRANCH  12  13
ATOM     13  C   UNL     1      30.534  32.345  48.601  1.00  0.00     0.053 C 
BRANCH  13  14
ATOM     14  C   UNL     1      31.298  33.097  47.554  1.00  0.00     0.041 C 
ATOM     15  O   UNL     1      31.110  34.331  47.397  1.00  0.00    -0.550 OA
ATOM     16  O   UNL     1      32.188  32.424  46.726  1.00  0.00    -0.550 OA
ENDBRANCH  13  14
ENDBRANCH  12  13
ENDBRANCH  11  12
ENDBRANCH  10  11
ENDBRANCH   9  10
ENDBRANCH   8   9
ENDBRANCH   7   8
ENDBRANCH   6   7
ENDBRANCH   5   6
ENDBRANCH   4   5
ENDBRANCH   3   4
ENDBRANCH   2   3
ENDBRANCH   1   2
BRANCH   1  17
ATOM     17  C   UNL     1      30.718  33.232  53.002  1.00  0.00     0.000 C 
BRANCH  17  18
ATOM     18  C   UNL     1      30.408  31.786  52.581  1.00  0.00     0.000 C 
BRANCH  18  19
ATOM     19  C   UNL     1      31.404  30.773  53.170  1.00  0.00     0.000 C 
BRANCH  19  20
ATOM     20  C   UNL     1      32.581  31.448  53.895  1.00  0.00     0.000 C 
BRANCH  20  21
ATOM     21  C   UNL     1      32.569  31.191  55.414  1.00  0.00     0.000 C 
BRANCH  21  22
ATOM     22  C   UNL     1      31.227  30.691  55.981  1.00  0.00    -0.000 C 
BRANCH  22  23
ATOM     23  C   UNL     1      30.253  31.799  56.423  1.00  0.00    -0.000 C 
BRANCH  23  24
ATOM     24  C   UNL     1      28.784  31.334  56.509  1.00  0.00    -0.000 C 
BRANCH  24  25
ATOM     25  C   UNL     1      28.404  30.375  55.371  1.00  0.00    -0.000 C 
BRANCH  25  26
ATOM     26  C   UNL     1      27.539  29.220  55.892  1.00  0.00    -0.000 C 
BRANCH  26  27
ATOM     27  C   UNL     1      26.117  29.700  56.219  1.00  0.00    -0.000 C 
BRANCH  27  28
ATOM     28  C   UNL     1      25.054  28.604  56.018  1.00  0.00    -0.000 C 
BRANCH  28  29
ATOM     29  C   UNL     1      23.604  29.060  56.259  1.00  0.00    -0.003 C 
ATOM     30  C   UNL     1      23.392  30.549  55.989  1.00  0.00     0.004 C 
ENDBRANCH  28  29
ENDBRANCH  27  28
ENDBRANCH  26  27
ENDBRANCH  25  26
ENDBRANCH  24  25
ENDBRANCH  23  24
ENDBRANCH  22  23
ENDBRANCH  21  22
ENDBRANCH  20  21
ENDBRANCH  19  20
ENDBRANCH  18  19
ENDBRANCH  17  18
ENDBRANCH   1  17
TORSDOF 26
ENDMDL
MODEL 3
REMARK VINA RESULT:    -2.817      2.982      6.212
REMARK INTER + INTRA:         -13.008
REMARK INTER:                  -7.508
REMARK INTRA:                  -5.500
REMARK UNBOUND:                -5.909
REMARK SMILES CCCCCCCCCCCCCCCCCCCCCCCCCCCC(=O)[O-]
REMARK SMILES IDX 15 1 16 2 17 3 18 4 19 5 20 6 21 7 22 8 23 9 24 10 25 11
REMARK SMILES IDX 26 12 27 13 28 14 29 15 30 16 14 17 13 18 12 19 11 20 10 21
REMARK SMILES IDX 9 22 8 23 7 24 6 25 5 26 4 27 3 28 2 29 1 30
REMARK H PARENT
REMARK Flexibility Score: inf
ROOT
ATOM      1  C   UNL     1      25.452  32.255  53.189  1.00  0.00     0.000 C 
ENDROOT
BRANCH   1   2
ATOM      2  C   UNL     1      25.588  33.685  52.634  1.00  0.00     0.000 C 
BRANCH   2   3
ATOM      3  C   UNL     1      26.811  34.431  53.196  1.00  0.00     0.000 C 
BRANCH   3   4
ATOM      4  C   UNL     1      28.139  33.775  52.788  1.00  0.00     0.000 C 
BRANCH   4   5
ATOM      5  C   UNL     1      29.234  33.957  53.856  1.00  0.00     0.000 C 
BRANCH   5   6
ATOM      6  C   UNL     1      30.084  32.692  54.059  1.00  0.00     0.000 C 
BRANCH   6   7
ATOM      7  C   UNL     1      29.232  31.412  54.114  1.00  0.00     0.000 C 
BRANCH   7   8
ATOM      8  C   UNL     1      28.365  31.337  55.381  1.00  0.00     0.000 C 
BRANCH   8   9
ATOM      9  C   UNL     1      27.717  29.954  55.573  1.00  0.00     0.000 C 
BRANCH   9  10
ATOM     10  C   UNL     1      26.285  30.043  56.124  1.00  0.00     0.000 C 
BRANCH  10  11
ATOM     11  C   UNL     1      25.401  28.874  55.665  1.00  0.00     0.000 C 
BRANCH  11  12
ATOM     12  C   UNL     1      24.075  29.383  55.081  1.00  0.00     0.006 C 
BRANCH  12  13
ATOM     13  C   UNL     1      23.488  30.546  55.893  1.00  0.00     0.053 C 
BRANCH  13  14
ATOM     14  C   UNL     1      22.188  30.174  56.539  1.00  0.00     0.041 C 
ATOM     15  O   UNL     1      21.949  30.517  57.726  1.00  0.00    -0.550 OA
ATOM     16  O   UNL     1      21.258  29.413  55.842  1.00  0.00    -0.550 OA
ENDBRANCH  13  14
ENDBRANCH  12  13
ENDBRANCH  11  12
ENDBRANCH  10  11
ENDBRANCH   9  10
ENDBRANCH   8   9
ENDBRANCH   7   8
ENDBRANCH   6   7
ENDBRANCH   5   6
ENDBRANCH   4   5
ENDBRANCH   3   4
ENDBRANCH   2   3
ENDBRANCH   1   2
BRANCH   1  17
ATOM     17  C   UNL     1      25.348  31.146  52.122  1.00  0.00     0.000 C 
BRANCH  17  18
ATOM     18  C   UNL     1      26.709  30.518  51.776  1.00  0.00     0.000 C 
BRANCH  18  19
ATOM     19  C   UNL     1      26.788  29.032  52.163  1.00  0.00     0.000 C 
BRANCH  19  20
ATOM     20  C   UNL     1      27.866  28.269  51.376  1.00  0.00     0.000 C 
BRANCH  20  21
ATOM     21  C   UNL     1      29.153  29.093  51.178  1.00  0.00     0.000 C 
BRANCH  21  22
ATOM     22  C   UNL     1      29.603  29.258  49.714  1.00  0.00    -0.000 C 
BRANCH  22  23
ATOM     23  C   UNL     1      30.493  30.485  49.442  1.00  0.00    -0.000 C 
BRANCH  23  24
ATOM     24  C   UNL     1      30.273  31.643  50.439  1.00  0.00    -0.000 C 
BRANCH  24  25
ATOM     25  C   UNL     1      30.052  32.990  49.736  1.00  0.00    -0.000 C 
BRANCH  25  26
ATOM     26  C   UNL     1      28.869  32.915  48.764  1.00  0.00    -0.000 C 
BRANCH  26  27
ATOM     27  C   UNL     1      27.531  32.965  49.518  1.00  0.00    -0.000 C 
BRANCH  27  28
ATOM     28  C   UNL     1      26.372  33.484  48.648  1.00  0.00    -0.000 C 
BRANCH  28  29
ATOM     29  C   UNL     1      25.159  32.541  48.559  1.00  0.00    -0.003 C 
ATOM     30  C   UNL     1      25.552  31.078  48.362  1.00  0.00     0.004 C 
ENDBRANCH  28  29
ENDBRANCH  27  28
ENDBRANCH  26  27
ENDBRANCH  25  26
ENDBRANCH  24  25
ENDBRANCH  23  24
ENDBRANCH  22  23
ENDBRANCH  21  22
ENDBRANCH  20  21
ENDBRANCH  19  20
ENDBRANCH  18  19
ENDBRANCH  17  18
ENDBRANCH   1  17
TORSDOF 26
ENDMDL
MODEL 4
REMARK VINA RESULT:    -2.810      2.729      5.933
REMARK INTER + INTRA:         -12.989
REMARK INTER:                  -7.640
REMARK INTRA:                  -5.349
REMARK UNBOUND:                -5.909
REMARK SMILES CCCCCCCCCCCCCCCCCCCCCCCCCCCC(=O)[O-]
REMARK SMILES IDX 15 1 16 2 17 3 18 4 19 5 20 6 21 7 22 8 23 9 24 10 25 11
REMARK SMILES IDX 26 12 27 13 28 14 29 15 30 16 14 17 13 18 12 19 11 20 10 21
REMARK SMILES IDX 9 22 8 23 7 24 6 25 5 26 4 27 3 28 2 29 1 30
REMARK H PARENT
REMARK Flexibility Score: inf
ROOT
ATOM      1  C   UNL     1      27.860  34.312  53.495  1.00  0.00     0.000 C 
ENDROOT
BRANCH   1   2
ATOM      2  C   UNL     1      26.536  34.065  52.749  1.00  0.00     0.000 C 
BRANCH   2   3
ATOM      3  C   UNL     1      25.830  32.772  53.192  1.00  0.00     0.000 C 
BRANCH   3   4
ATOM      4  C   UNL     1      25.381  31.910  52.002  1.00  0.00     0.000 C 
BRANCH   4   5
ATOM      5  C   UNL     1      26.202  30.613  51.875  1.00  0.00     0.000 C 
BRANCH   5   6
ATOM      6  C   UNL     1      27.489  30.638  52.716  1.00  0.00     0.000 C 
BRANCH   6   7
ATOM      7  C   UNL     1      27.850  29.255  53.285  1.00  0.00     0.000 C 
BRANCH   7   8
ATOM      8  C   UNL     1      28.066  29.284  54.807  1.00  0.00     0.000 C 
BRANCH   8   9
ATOM      9  C   UNL     1      27.267  30.402  55.497  1.00  0.00     0.000 C 
BRANCH   9  10
ATOM     10  C   UNL     1      26.044  29.871  56.261  1.00  0.00     0.000 C 
BRANCH  10  11
ATOM     11  C   UNL     1      24.857  29.563  55.337  1.00  0.00     0.000 C 
BRANCH  11  12
ATOM     12  C   UNL     1      23.762  30.633  55.472  1.00  0.00     0.006 C 
BRANCH  12  13
ATOM     13  C   UNL     1      22.778  30.319  56.607  1.00  0.00     0.053 C 
BRANCH  13  14
ATOM     14  C   UNL     1      21.462  29.829  56.084  1.00  0.00     0.041 C 
ATOM     15  O   UNL     1      20.674  30.625  55.509  1.00  0.00    -0.550 OA
ATOM     16  O   UNL     1      21.090  28.504  56.270  1.00  0.00    -0.550 OA
ENDBRANCH  13  14
ENDBRANCH  12  13
ENDBRANCH  11  12
ENDBRANCH  10  11
ENDBRANCH   9  10
ENDBRANCH   8   9
ENDBRANCH   7   8
ENDBRANCH   6   7
ENDBRANCH   5   6
ENDBRANCH   4   5
ENDBRANCH   3   4
ENDBRANCH   2   3
ENDBRANCH   1   2
BRANCH   1  17
ATOM     17  C   UNL     1      29.134  33.994  52.688  1.00  0.00     0.000 C 
BRANCH  17  18
ATOM     18  C   UNL     1      30.346  33.675  53.580  1.00  0.00     0.000 C 
BRANCH  18  19
ATOM     19  C   UNL     1      30.054  32.553  54.591  1.00  0.00     0.000 C 
BRANCH  19  20
ATOM     20  C   UNL     1      31.145  31.469  54.608  1.00  0.00     0.000 C 
BRANCH  20  21
ATOM     21  C   UNL     1      31.793  31.256  53.227  1.00  0.00     0.000 C 
BRANCH  21  22
ATOM     22  C   UNL     1      31.382  29.958  52.507  1.00  0.00    -0.000 C 
BRANCH  22  23
ATOM     23  C   UNL     1      31.340  30.052  50.970  1.00  0.00    -0.000 C 
BRANCH  23  24
ATOM     24  C   UNL     1      30.156  30.883  50.432  1.00  0.00    -0.000 C 
BRANCH  24  25
ATOM     25  C   UNL     1      30.477  31.565  49.094  1.00  0.00    -0.000 C 
BRANCH  25  26
ATOM     26  C   UNL     1      29.726  32.895  48.962  1.00  0.00    -0.000 C 
BRANCH  26  27
ATOM     27  C   UNL     1      28.432  32.884  49.789  1.00  0.00    -0.000 C 
BRANCH  27  28
ATOM     28  C   UNL     1      27.172  33.120  48.936  1.00  0.00    -0.000 C 
BRANCH  28  29
ATOM     29  C   UNL     1      27.015  32.167  47.737  1.00  0.00    -0.003 C 
ATOM     30  C   UNL     1      26.426  30.812  48.124  1.00  0.00     0.004 C 
ENDBRANCH  28  29
ENDBRANCH  27  28
ENDBRANCH  26  27
ENDBRANCH  25  26
ENDBRANCH  24  25
ENDBRANCH  23  24
ENDBRANCH  22  23
ENDBRANCH  21  22
ENDBRANCH  20  21
ENDBRANCH  19  20
ENDBRANCH  18  19
ENDBRANCH  17  18
ENDBRANCH   1  17
TORSDOF 26
ENDMDL
MODEL 5
REMARK VINA RESULT:    -2.773      2.355      5.587
REMARK INTER + INTRA:         -12.896
REMARK INTER:                  -8.182
REMARK INTRA:                  -4.715
REMARK UNBOUND:                -5.909
REMARK SMILES CCCCCCCCCCCCCCCCCCCCCCCCCCCC(=O)[O-]
REMARK SMILES IDX 15 1 16 2 17 3 18 4 19 5 20 6 21 7 22 8 23 9 24 10 25 11
REMARK SMILES IDX 26 12 27 13 28 14 29 15 30 16 14 17 13 18 12 19 11 20 10 21
REMARK SMILES IDX 9 22 8 23 7 24 6 25 5 26 4 27 3 28 2 29 1 30
REMARK H PARENT
REMARK Flexibility Score: inf
ROOT
ATOM      1  C   UNL     1      30.522  30.094  52.204  1.00  0.00     0.000 C 
ENDROOT
BRANCH   1   2
ATOM      2  C   UNL     1      31.952  30.220  52.761  1.00  0.00     0.000 C 
BRANCH   2   3
ATOM      3  C   UNL     1      32.182  31.534  53.529  1.00  0.00     0.000 C 
BRANCH   3   4
ATOM      4  C   UNL     1      32.953  31.320  54.841  1.00  0.00     0.000 C 
BRANCH   4   5
ATOM      5  C   UNL     1      32.016  31.202  56.058  1.00  0.00     0.000 C 
BRANCH   5   6
ATOM      6  C   UNL     1      30.924  32.283  56.076  1.00  0.00     0.000 C 
BRANCH   6   7
ATOM      7  C   UNL     1      29.535  31.713  56.412  1.00  0.00     0.000 C 
BRANCH   7   8
ATOM      8  C   UNL     1      29.241  30.401  55.666  1.00  0.00     0.000 C 
BRANCH   8   9
ATOM      9  C   UNL     1      27.858  30.403  54.990  1.00  0.00     0.000 C 
BRANCH   9  10
ATOM     10  C   UNL     1      26.705  30.287  55.999  1.00  0.00     0.000 C 
BRANCH  10  11
ATOM     11  C   UNL     1      26.370  28.829  56.347  1.00  0.00     0.000 C 
BRANCH  11  12
ATOM     12  C   UNL     1      24.861  28.568  56.226  1.00  0.00     0.006 C 
BRANCH  12  13
ATOM     13  C   UNL     1      24.188  29.498  55.208  1.00  0.00     0.053 C 
BRANCH  13  14
ATOM     14  C   UNL     1      22.944  30.124  55.763  1.00  0.00     0.041 C 
ATOM     15  O   UNL     1      22.969  30.697  56.883  1.00  0.00    -0.550 OA
ATOM     16  O   UNL     1      21.749  30.037  55.060  1.00  0.00    -0.550 OA
ENDBRANCH  13  14
ENDBRANCH  12  13
ENDBRANCH  11  12
ENDBRANCH  10  11
ENDBRANCH   9  10
ENDBRANCH   8   9
ENDBRANCH   7   8
ENDBRANCH   6   7
ENDBRANCH   5   6
ENDBRANCH   4   5
ENDBRANCH   3   4
ENDBRANCH   2   3
ENDBRANCH   1   2
BRANCH   1  17
ATOM     17  C   UNL     1      30.432  29.825  50.689  1.00  0.00     0.000 C 
BRANCH  17  18
ATOM     18  C   UNL     1      29.423  30.741  49.976  1.00  0.00     0.000 C 
BRANCH  18  19
ATOM     19  C   UNL     1      30.106  31.845  49.153  1.00  0.00     0.000 C 
BRANCH  19  20
ATOM     20  C   UNL     1      30.180  33.187  49.901  1.00  0.00     0.000 C 
BRANCH  20  21
ATOM     21  C   UNL     1      29.101  33.318  50.993  1.00  0.00     0.000 C 
BRANCH  21  22
ATOM     22  C   UNL     1      29.613  33.801  52.363  1.00  0.00    -0.000 C 
BRANCH  22  23
ATOM     23  C   UNL     1      28.598  33.686  53.515  1.00  0.00    -0.000 C 
BRANCH  23  24
ATOM     24  C   UNL     1      27.271  34.429  53.247  1.00  0.00    -0.000 C 
BRANCH  24  25
ATOM     25  C   UNL     1      26.069  33.477  53.176  1.00  0.00    -0.000 C 
BRANCH  25  26
ATOM     26  C   UNL     1      25.501  33.415  51.754  1.00  0.00    -0.000 C 
BRANCH  26  27
ATOM     27  C   UNL     1      25.536  31.979  51.208  1.00  0.00    -0.000 C 
BRANCH  27  28
ATOM     28  C   UNL     1      26.001  31.907  49.742  1.00  0.00    -0.000 C 
BRANCH  28  29
ATOM     29  C   UNL     1      25.940  33.241  48.978  1.00  0.00    -0.003 C 
ATOM     30  C   UNL     1      26.977  33.338  47.860  1.00  0.00     0.004 C 
ENDBRANCH  28  29
ENDBRANCH  27  28
ENDBRANCH  26  27
ENDBRANCH  25  26
ENDBRANCH  24  25
ENDBRANCH  23  24
ENDBRANCH  22  23
ENDBRANCH  21  22
ENDBRANCH  20  21
ENDBRANCH  19  20
ENDBRANCH  18  19
ENDBRANCH  17  18
ENDBRANCH   1  17
TORSDOF 26
ENDMDL
MODEL 6
REMARK VINA RESULT:    -2.758      3.401      7.799
REMARK INTER + INTRA:         -12.859
REMARK INTER:                  -7.874
REMARK INTRA:                  -4.984
REMARK UNBOUND:                -5.909
REMARK SMILES CCCCCCCCCCCCCCCCCCCCCCCCCCCC(=O)[O-]
REMARK SMILES IDX 15 1 16 2 17 3 18 4 19 5 20 6 21 7 22 8 23 9 24 10 25 11
REMARK SMILES IDX 26 12 27 13 28 14 29 15 30 16 14 17 13 18 12 19 11 20 10 21
REMARK SMILES IDX 9 22 8 23 7 24 6 25 5 26 4 27 3 28 2 29 1 30
REMARK H PARENT
REMARK Flexibility Score: inf
ROOT
ATOM      1  C   UNL     1      25.719  32.511  52.965  1.00  0.00     0.000 C 
ENDROOT
BRANCH   1   2
ATOM      2  C   UNL     1      26.992  33.176  52.409  1.00  0.00     0.000 C 
BRANCH   2   3
ATOM      3  C   UNL     1      27.471  34.363  53.262  1.00  0.00     0.000 C 
BRANCH   3   4
ATOM      4  C   UNL     1      28.991  34.351  53.485  1.00  0.00     0.000 C 
BRANCH   4   5
ATOM      5  C   UNL     1      29.743  33.617  52.358  1.00  0.00     0.000 C 
BRANCH   5   6
ATOM      6  C   UNL     1      31.116  33.089  52.804  1.00  0.00     0.000 C 
BRANCH   6   7
ATOM      7  C   UNL     1      31.209  31.555  52.734  1.00  0.00     0.000 C 
BRANCH   7   8
ATOM      8  C   UNL     1      30.482  30.977  51.509  1.00  0.00     0.000 C 
BRANCH   8   9
ATOM      9  C   UNL     1      29.203  30.210  51.887  1.00  0.00     0.000 C 
BRANCH   9  10
ATOM     10  C   UNL     1      29.264  29.621  53.305  1.00  0.00     0.000 C 
BRANCH  10  11
ATOM     11  C   UNL     1      28.094  30.079  54.187  1.00  0.00     0.000 C 
BRANCH  11  12
ATOM     12  C   UNL     1      28.553  30.306  55.636  1.00  0.00     0.006 C 
BRANCH  12  13
ATOM     13  C   UNL     1      29.006  31.751  55.885  1.00  0.00     0.053 C 
BRANCH  13  14
ATOM     14  C   UNL     1      30.464  31.827  56.222  1.00  0.00     0.041 C 
ATOM     15  O   UNL     1      31.127  30.773  56.408  1.00  0.00    -0.550 OA
ATOM     16  O   UNL     1      31.080  33.063  56.371  1.00  0.00    -0.550 OA
ENDBRANCH  13  14
ENDBRANCH  12  13
ENDBRANCH  11  12
ENDBRANCH  10  11
ENDBRANCH   9  10
ENDBRANCH   8   9
ENDBRANCH   7   8
ENDBRANCH   6   7
ENDBRANCH   5   6
ENDBRANCH   4   5
ENDBRANCH   3   4
ENDBRANCH   2   3
ENDBRANCH   1   2
BRANCH   1  17
ATOM     17  C   UNL     1      25.130  31.389  52.088  1.00  0.00     0.000 C 
BRANCH  17  18
ATOM     18  C   UNL     1      25.826  31.268  50.721  1.00  0.00     0.000 C 
BRANCH  18  19
ATOM     19  C   UNL     1      25.024  31.930  49.589  1.00  0.00     0.000 C 
BRANCH  19  20
ATOM     20  C   UNL     1      25.636  33.264  49.128  1.00  0.00     0.000 C 
BRANCH  20  21
ATOM     21  C   UNL     1      26.440  33.128  47.820  1.00  0.00     0.000 C 
BRANCH  21  22
ATOM     22  C   UNL     1      27.770  32.363  47.949  1.00  0.00    -0.000 C 
BRANCH  22  23
ATOM     23  C   UNL     1      28.789  32.988  48.920  1.00  0.00    -0.000 C 
BRANCH  23  24
ATOM     24  C   UNL     1      30.259  32.717  48.534  1.00  0.00    -0.000 C 
BRANCH  24  25
ATOM     25  C   UNL     1      30.987  33.985  48.065  1.00  0.00    -0.000 C 
BRANCH  25  26
ATOM     26  C   UNL     1      31.874  33.692  46.850  1.00  0.00    -0.000 C 
BRANCH  26  27
ATOM     27  C   UNL     1      31.536  34.628  45.680  1.00  0.00    -0.000 C 
BRANCH  27  28
ATOM     28  C   UNL     1      30.833  33.906  44.517  1.00  0.00    -0.000 C 
BRANCH  28  29
ATOM     29  C   UNL     1      29.363  33.534  44.781  1.00  0.00    -0.003 C 
ATOM     30  C   UNL     1      28.501  34.737  45.162  1.00  0.00     0.004 C 
ENDBRANCH  28  29
ENDBRANCH  27  28
ENDBRANCH  26  27
ENDBRANCH  25  26
ENDBRANCH  24  25
ENDBRANCH  23  24
ENDBRANCH  22  23
ENDBRANCH  21  22
ENDBRANCH  20  21
ENDBRANCH  19  20
ENDBRANCH  18  19
ENDBRANCH  17  18
ENDBRANCH   1  17
TORSDOF 26
ENDMDL
MODEL 7
REMARK VINA RESULT:    -2.745      1.418      4.201
REMARK INTER + INTRA:         -12.827
REMARK INTER:                  -7.361
REMARK INTRA:                  -5.467
REMARK UNBOUND:                -5.909
REMARK SMILES CCCCCCCCCCCCCCCCCCCCCCCCCCCC(=O)[O-]
REMARK SMILES IDX 15 1 16 2 17 3 18 4 19 5 20 6 21 7 22 8 23 9 24 10 25 11
REMARK SMILES IDX 26 12 27 13 28 14 29 15 30 16 14 17 13 18 12 19 11 20 10 21
REMARK SMILES IDX 9 22 8 23 7 24 6 25 5 26 4 27 3 28 2 29 1 30
REMARK H PARENT
REMARK Flexibility Score: inf
ROOT
ATOM      1  C   UNL     1      30.626  31.062  56.483  1.00  0.00     0.000 C 
ENDROOT
BRANCH   1   2
ATOM      2  C   UNL     1      29.171  31.566  56.507  1.00  0.00     0.000 C 
BRANCH   2   3
ATOM      3  C   UNL     1      28.317  30.989  55.365  1.00  0.00     0.000 C 
BRANCH   3   4
ATOM      4  C   UNL     1      28.962  29.756  54.714  1.00  0.00     0.000 C 
BRANCH   4   5
ATOM      5  C   UNL     1      29.318  29.993  53.234  1.00  0.00     0.000 C 
BRANCH   5   6
ATOM      6  C   UNL     1      30.834  30.034  52.986  1.00  0.00     0.000 C 
BRANCH   6   7
ATOM      7  C   UNL     1      31.194  30.679  51.636  1.00  0.00     0.000 C 
BRANCH   7   8
ATOM      8  C   UNL     1      30.288  30.194  50.493  1.00  0.00     0.000 C 
BRANCH   8   9
ATOM      9  C   UNL     1      30.537  30.954  49.178  1.00  0.00     0.000 C 
BRANCH   9  10
ATOM     10  C   UNL     1      30.388  32.475  49.336  1.00  0.00     0.000 C 
BRANCH  10  11
ATOM     11  C   UNL     1      29.240  33.048  48.492  1.00  0.00     0.000 C 
BRANCH  11  12
ATOM     12  C   UNL     1      27.906  32.372  48.846  1.00  0.00     0.006 C 
BRANCH  12  13
ATOM     13  C   UNL     1      26.709  33.316  48.667  1.00  0.00     0.053 C 
BRANCH  13  14
ATOM     14  C   UNL     1      25.489  32.584  48.198  1.00  0.00     0.041 C 
ATOM     15  O   UNL     1      25.300  32.391  46.969  1.00  0.00    -0.550 OA
ATOM     16  O   UNL     1      24.541  32.152  49.117  1.00  0.00    -0.550 OA
ENDBRANCH  13  14
ENDBRANCH  12  13
ENDBRANCH  11  12
ENDBRANCH  10  11
ENDBRANCH   9  10
ENDBRANCH   8   9
ENDBRANCH   7   8
ENDBRANCH   6   7
ENDBRANCH   5   6
ENDBRANCH   4   5
ENDBRANCH   3   4
ENDBRANCH   2   3
ENDBRANCH   1   2
BRANCH   1  17
ATOM     17  C   UNL     1      31.666  32.090  55.996  1.00  0.00     0.000 C 
BRANCH  17  18
ATOM     18  C   UNL     1      31.038  33.437  55.598  1.00  0.00     0.000 C 
BRANCH  18  19
ATOM     19  C   UNL     1      30.847  33.573  54.079  1.00  0.00     0.000 C 
BRANCH  19  20
ATOM     20  C   UNL     1      29.524  34.262  53.704  1.00  0.00     0.000 C 
BRANCH  20  21
ATOM     21  C   UNL     1      28.880  33.666  52.439  1.00  0.00     0.000 C 
BRANCH  21  22
ATOM     22  C   UNL     1      27.345  33.551  52.479  1.00  0.00    -0.000 C 
BRANCH  22  23
ATOM     23  C   UNL     1      26.792  32.130  52.263  1.00  0.00    -0.000 C 
BRANCH  23  24
ATOM     24  C   UNL     1      25.356  31.937  52.796  1.00  0.00    -0.000 C 
BRANCH  24  25
ATOM     25  C   UNL     1      24.746  30.593  52.369  1.00  0.00    -0.000 C 
BRANCH  25  26
ATOM     26  C   UNL     1      25.528  29.419  52.970  1.00  0.00    -0.000 C 
BRANCH  26  27
ATOM     27  C   UNL     1      24.704  28.702  54.049  1.00  0.00    -0.000 C 
BRANCH  27  28
ATOM     28  C   UNL     1      25.266  28.905  55.468  1.00  0.00    -0.000 C 
BRANCH  28  29
ATOM     29  C   UNL     1      24.818  30.204  56.161  1.00  0.00    -0.003 C 
ATOM     30  C   UNL     1      23.356  30.554  55.888  1.00  0.00     0.004 C 
ENDBRANCH  28  29
ENDBRANCH  27  28
ENDBRANCH  26  27
ENDBRANCH  25  26
ENDBRANCH  24  25
ENDBRANCH  23  24
ENDBRANCH  22  23
ENDBRANCH  21  22
ENDBRANCH  20  21
ENDBRANCH  19  20
ENDBRANCH  18  19
ENDBRANCH  17  18
ENDBRANCH   1  17
TORSDOF 26
ENDMDL
MODEL 8
REMARK VINA RESULT:    -2.743      1.772      5.082
REMARK INTER + INTRA:         -12.822
REMARK INTER:                  -7.622
REMARK INTRA:                  -5.201
REMARK UNBOUND:                -5.909
REMARK SMILES CCCCCCCCCCCCCCCCCCCCCCCCCCCC(=O)[O-]
REMARK SMILES IDX 15 1 16 2 17 3 18 4 19 5 20 6 21 7 22 8 23 9 24 10 25 11
REMARK SMILES IDX 26 12 27 13 28 14 29 15 30 16 14 17 13 18 12 19 11 20 10 21
REMARK SMILES IDX 9 22 8 23 7 24 6 25 5 26 4 27 3 28 2 29 1 30
REMARK H PARENT
REMARK Flexibility Score: inf
ROOT
ATOM      1  C   UNL     1      25.649  29.149  56.101  1.00  0.00     0.000 C 
ENDROOT
BRANCH   1   2
ATOM      2  C   UNL     1      24.341  29.960  56.139  1.00  0.00     0.000 C 
BRANCH   2   3
ATOM      3  C   UNL     1      24.177  30.891  54.925  1.00  0.00     0.000 C 
BRANCH   3   4
ATOM      4  C   UNL     1      24.522  30.195  53.600  1.00  0.00     0.000 C 
BRANCH   4   5
ATOM      5  C   UNL     1      25.077  31.176  52.550  1.00  0.00     0.000 C 
BRANCH   5   6
ATOM      6  C   UNL     1      25.241  32.603  53.097  1.00  0.00     0.000 C 
BRANCH   6   7
ATOM      7  C   UNL     1      25.607  33.618  52.001  1.00  0.00     0.000 C 
BRANCH   7   8
ATOM      8  C   UNL     1      25.528  33.012  50.590  1.00  0.00     0.000 C 
BRANCH   8   9
ATOM      9  C   UNL     1      26.825  33.214  49.786  1.00  0.00     0.000 C 
BRANCH   9  10
ATOM     10  C   UNL     1      27.996  32.383  50.333  1.00  0.00     0.000 C 
BRANCH  10  11
ATOM     11  C   UNL     1      29.106  33.253  50.940  1.00  0.00     0.000 C 
BRANCH  11  12
ATOM     12  C   UNL     1      30.461  32.957  50.279  1.00  0.00     0.006 C 
BRANCH  12  13
ATOM     13  C   UNL     1      30.319  32.083  49.025  1.00  0.00     0.053 C 
BRANCH  13  14
ATOM     14  C   UNL     1      30.597  32.858  47.773  1.00  0.00     0.041 C 
ATOM     15  O   UNL     1      29.721  33.627  47.296  1.00  0.00    -0.550 OA
ATOM     16  O   UNL     1      31.808  32.699  47.111  1.00  0.00    -0.550 OA
ENDBRANCH  13  14
ENDBRANCH  12  13
ENDBRANCH  11  12
ENDBRANCH  10  11
ENDBRANCH   9  10
ENDBRANCH   8   9
ENDBRANCH   7   8
ENDBRANCH   6   7
ENDBRANCH   5   6
ENDBRANCH   4   5
ENDBRANCH   3   4
ENDBRANCH   2   3
ENDBRANCH   1   2
BRANCH   1  17
ATOM     17  C   UNL     1      26.791  29.707  56.974  1.00  0.00     0.000 C 
BRANCH  17  18
ATOM     18  C   UNL     1      27.765  30.601  56.188  1.00  0.00     0.000 C 
BRANCH  18  19
ATOM     19  C   UNL     1      28.126  30.014  54.814  1.00  0.00     0.000 C 
BRANCH  19  20
ATOM     20  C   UNL     1      28.520  31.093  53.791  1.00  0.00     0.000 C 
BRANCH  20  21
ATOM     21  C   UNL     1      28.629  32.496  54.418  1.00  0.00     0.000 C 
BRANCH  21  22
ATOM     22  C   UNL     1      30.066  33.007  54.628  1.00  0.00    -0.000 C 
BRANCH  22  23
ATOM     23  C   UNL     1      30.651  32.748  56.030  1.00  0.00    -0.000 C 
BRANCH  23  24
ATOM     24  C   UNL     1      32.044  32.083  56.006  1.00  0.00    -0.000 C 
BRANCH  24  25
ATOM     25  C   UNL     1      32.063  30.789  55.180  1.00  0.00    -0.000 C 
BRANCH  25  26
ATOM     26  C   UNL     1      33.061  30.893  54.020  1.00  0.00    -0.000 C 
BRANCH  26  27
ATOM     27  C   UNL     1      32.751  29.856  52.931  1.00  0.00    -0.000 C 
BRANCH  27  28
ATOM     28  C   UNL     1      31.344  30.022  52.328  1.00  0.00    -0.000 C 
BRANCH  28  29
ATOM     29  C   UNL     1      30.763  28.751  51.683  1.00  0.00    -0.003 C 
ATOM     30  C   UNL     1      29.500  29.019  50.866  1.00  0.00     0.004 C 
ENDBRANCH  28  29
ENDBRANCH  27  28
ENDBRANCH  26  27
ENDBRANCH  25  26
ENDBRANCH  24  25
ENDBRANCH  23  24
ENDBRANCH  22  23
ENDBRANCH  21  22
ENDBRANCH  20  21
ENDBRANCH  19  20
ENDBRANCH  18  19
ENDBRANCH  17  18
ENDBRANCH   1  17
TORSDOF 26
ENDMDL
MODEL 9
REMARK VINA RESULT:    -2.714      2.738      6.050
REMARK INTER + INTRA:         -12.749
REMARK INTER:                  -7.334
REMARK INTRA:                  -5.415
REMARK UNBOUND:                -5.909
REMARK SMILES CCCCCCCCCCCCCCCCCCCCCCCCCCCC(=O)[O-]
REMARK SMILES IDX 15 1 16 2 17 3 18 4 19 5 20 6 21 7 22 8 23 9 24 10 25 11
REMARK SMILES IDX 26 12 27 13 28 14 29 15 30 16 14 17 13 18 12 19 11 20 10 21
REMARK SMILES IDX 9 22 8 23 7 24 6 25 5 26 4 27 3 28 2 29 1 30
REMARK H PARENT
REMARK Flexibility Score: inf
ROOT
ATOM      1  C   UNL     1      30.483  32.185  50.869  1.00  0.00     0.000 C 
ENDROOT
BRANCH   1   2
ATOM      2  C   UNL     1      30.108  30.759  51.313  1.00  0.00     0.000 C 
BRANCH   2   3
ATOM      3  C   UNL     1      30.741  30.364  52.659  1.00  0.00     0.000 C 
BRANCH   3   4
ATOM      4  C   UNL     1      31.852  31.333  53.093  1.00  0.00     0.000 C 
BRANCH   4   5
ATOM      5  C   UNL     1      31.736  31.730  54.576  1.00  0.00     0.000 C 
BRANCH   5   6
ATOM      6  C   UNL     1      30.705  30.884  55.340  1.00  0.00     0.000 C 
BRANCH   6   7
ATOM      7  C   UNL     1      29.698  31.743  56.123  1.00  0.00     0.000 C 
BRANCH   7   8
ATOM      8  C   UNL     1      28.297  31.113  56.169  1.00  0.00     0.000 C 
BRANCH   8   9
ATOM      9  C   UNL     1      28.254  29.719  55.518  1.00  0.00     0.000 C 
BRANCH   9  10
ATOM     10  C   UNL     1      26.928  28.986  55.775  1.00  0.00     0.000 C 
BRANCH  10  11
ATOM     11  C   UNL     1      25.876  29.883  56.442  1.00  0.00     0.000 C 
BRANCH  11  12
ATOM     12  C   UNL     1      24.457  29.487  56.005  1.00  0.00     0.006 C 
BRANCH  12  13
ATOM     13  C   UNL     1      23.433  30.598  56.273  1.00  0.00     0.053 C 
BRANCH  13  14
ATOM     14  C   UNL     1      22.049  30.049  56.446  1.00  0.00     0.041 C 
ATOM     15  O   UNL     1      21.704  29.536  57.542  1.00  0.00    -0.550 OA
ATOM     16  O   UNL     1      21.156  30.068  55.383  1.00  0.00    -0.550 OA
ENDBRANCH  13  14
ENDBRANCH  12  13
ENDBRANCH  11  12
ENDBRANCH  10  11
ENDBRANCH   9  10
ENDBRANCH   8   9
ENDBRANCH   7   8
ENDBRANCH   6   7
ENDBRANCH   5   6
ENDBRANCH   4   5
ENDBRANCH   3   4
ENDBRANCH   2   3
ENDBRANCH   1   2
BRANCH   1  17
ATOM     17  C   UNL     1      29.366  33.235  51.030  1.00  0.00     0.000 C 
BRANCH  17  18
ATOM     18  C   UNL     1      29.365  33.903  52.416  1.00  0.00     0.000 C 
BRANCH  18  19
ATOM     19  C   UNL     1      28.219  33.403  53.311  1.00  0.00     0.000 C 
BRANCH  19  20
ATOM     20  C   UNL     1      26.935  34.234  53.153  1.00  0.00     0.000 C 
BRANCH  20  21
ATOM     21  C   UNL     1      25.756  33.407  52.604  1.00  0.00     0.000 C 
BRANCH  21  22
ATOM     22  C   UNL     1      25.457  32.106  53.373  1.00  0.00    -0.000 C 
BRANCH  22  23
ATOM     23  C   UNL     1      24.797  30.993  52.538  1.00  0.00    -0.000 C 
BRANCH  23  24
ATOM     24  C   UNL     1      25.592  29.670  52.533  1.00  0.00    -0.000 C 
BRANCH  24  25
ATOM     25  C   UNL     1      26.803  29.717  51.590  1.00  0.00    -0.000 C 
BRANCH  25  26
ATOM     26  C   UNL     1      26.561  28.860  50.341  1.00  0.00    -0.000 C 
BRANCH  26  27
ATOM     27  C   UNL     1      26.543  29.725  49.073  1.00  0.00    -0.000 C 
BRANCH  27  28
ATOM     28  C   UNL     1      27.001  31.172  49.328  1.00  0.00    -0.000 C 
BRANCH  28  29
ATOM     29  C   UNL     1      25.910  32.240  49.132  1.00  0.00    -0.003 C 
ATOM     30  C   UNL     1      26.464  33.579  48.648  1.00  0.00     0.004 C 
ENDBRANCH  28  29
ENDBRANCH  27  28
ENDBRANCH  26  27
ENDBRANCH  25  26
ENDBRANCH  24  25
ENDBRANCH  23  24
ENDBRANCH  22  23
ENDBRANCH  21  22
ENDBRANCH  20  21
ENDBRANCH  19  20
ENDBRANCH  18  19
ENDBRANCH  17  18
ENDBRANCH   1  17
TORSDOF 26
ENDMDL
