MODEL 1
REMARK VINA RESULT:    -4.605      0.000      0.000
REMARK INTER + INTRA:          -8.519
REMARK INTER:                  -7.297
REMARK INTRA:                  -1.221
REMARK UNBOUND:                -1.221
REMARK SMILES CCCCCCCCCCCC(=O)[O-]
REMARK SMILES IDX 7 1 8 2 9 3 10 4 11 5 12 6 13 7 14 8 6 9 5 10 4 11 3 12 2 13
REMARK SMILES IDX 1 14
REMARK H PARENT
REMARK Flexibility Score: inf
ROOT
ATOM      1  C   UNL     1      20.959  -1.067 -18.400  1.00  0.00     0.000 C 
ENDROOT
BRANCH   1   2
ATOM      2  C   UNL     1      20.310  -0.019 -19.317  1.00  0.00     0.000 C 
BRANCH   2   3
ATOM      3  C   UNL     1      20.497   1.418 -18.799  1.00  0.00     0.000 C 
BRANCH   3   4
ATOM      4  C   UNL     1      19.796   1.669 -17.452  1.00  0.00     0.006 C 
BRANCH   4   5
ATOM      5  C   UNL     1      18.302   1.298 -17.447  1.00  0.00     0.053 C 
BRANCH   5   6
ATOM      6  C   UNL     1      17.661   1.494 -16.108  1.00  0.00     0.041 C 
ATOM      7  O   UNL     1      16.771   2.373 -15.951  1.00  0.00    -0.550 OA
ATOM      8  O   UNL     1      18.022   0.685 -15.038  1.00  0.00    -0.550 OA
ENDBRANCH   5   6
ENDBRANCH   4   5
ENDBRANCH   3   4
ENDBRANCH   2   3
ENDBRANCH   1   2
BRANCH   1   9
ATOM      9  C   UNL     1      19.956  -2.123 -17.909  1.00  0.00     0.000 C 
BRANCH   9  10
ATOM     10  C   UNL     1      20.041  -2.295 -16.388  1.00  0.00    -0.000 C 
BRANCH  10  11
ATOM     11  C   UNL     1      20.866  -1.168 -15.749  1.00  0.00    -0.000 C 
BRANCH  11  12
ATOM     12  C   UNL     1      22.020  -1.707 -14.879  1.00  0.00    -0.000 C 
BRANCH  12  13
ATOM     13  C   UNL     1      23.277  -0.821 -14.904  1.00  0.00    -0.003 C 
ATOM     14  C   UNL     1      23.087   0.464 -15.705  1.00  0.00     0.004 C 
ENDBRANCH  12  13
ENDBRANCH  11  12
ENDBRANCH  10  11
ENDBRANCH   9  10
ENDBRANCH   1   9
TORSDOF 10
ENDMDL
MODEL 2
REMARK VINA RESULT:    -4.475      7.261      9.623
REMARK INTER + INTRA:          -8.313
REMARK INTER:                  -6.869
REMARK INTRA:                  -1.444
REMARK UNBOUND:                -1.221
REMARK SMILES CCCCCCCCCCCC(=O)[O-]
REMARK SMILES IDX 7 1 8 2 9 3 10 4 11 5 12 6 13 7 14 8 6 9 5 10 4 11 3 12 2 13
REMARK SMILES IDX 1 14
REMARK H PARENT
REMARK Flexibility Score: inf
ROOT
ATOM      1  C   UNL     1      19.259   0.444 -22.786  1.00  0.00     0.000 C 
ENDROOT
BRANCH   1   2
ATOM      2  C   UNL     1      20.271   0.007 -23.856  1.00  0.00     0.000 C 
BRANCH   2   3
ATOM      3  C   UNL     1      19.756   0.239 -25.288  1.00  0.00     0.000 C 
BRANCH   3   4
ATOM      4  C   UNL     1      19.632  -1.062 -26.102  1.00  0.00     0.006 C 
BRANCH   4   5
ATOM      5  C   UNL     1      20.212  -2.299 -25.393  1.00  0.00     0.053 C 
BRANCH   5   6
ATOM      6  C   UNL     1      19.257  -3.453 -25.368  1.00  0.00     0.041 C 
ATOM      7  O   UNL     1      19.417  -4.428 -26.150  1.00  0.00    -0.550 OA
ATOM      8  O   UNL     1      18.206  -3.468 -24.459  1.00  0.00    -0.550 OA
ENDBRANCH   5   6
ENDBRANCH   4   5
ENDBRANCH   3   4
ENDBRANCH   2   3
ENDBRANCH   1   2
BRANCH   1   9
ATOM      9  C   UNL     1      18.021  -0.466 -22.738  1.00  0.00     0.000 C 
BRANCH   9  10
ATOM     10  C   UNL     1      16.781   0.266 -23.265  1.00  0.00    -0.000 C 
BRANCH  10  11
ATOM     11  C   UNL     1      16.147  -0.495 -24.438  1.00  0.00    -0.000 C 
BRANCH  11  12
ATOM     12  C   UNL     1      15.972   0.394 -25.687  1.00  0.00    -0.000 C 
BRANCH  12  13
ATOM     13  C   UNL     1      16.042   1.900 -25.385  1.00  0.00    -0.003 C 
ATOM     14  C   UNL     1      17.138   2.618 -26.168  1.00  0.00     0.004 C 
ENDBRANCH  12  13
ENDBRANCH  11  12
ENDBRANCH  10  11
ENDBRANCH   9  10
ENDBRANCH   1   9
TORSDOF 10
ENDMDL
MODEL 3
REMARK VINA RESULT:    -4.475      2.898      4.621
REMARK INTER + INTRA:          -8.312
REMARK INTER:                  -7.820
REMARK INTRA:                  -0.492
REMARK UNBOUND:                -1.221
REMARK SMILES CCCCCCCCCCCC(=O)[O-]
REMARK SMILES IDX 7 1 8 2 9 3 10 4 11 5 12 6 13 7 14 8 6 9 5 10 4 11 3 12 2 13
REMARK SMILES IDX 1 14
REMARK H PARENT
REMARK Flexibility Score: inf
ROOT
ATOM      1  C   UNL     1      23.283  -1.036 -14.942  1.00  0.00     0.000 C 
ENDROOT
BRANCH   1   2
ATOM      2  C   UNL     1      22.509  -0.594 -16.194  1.00  0.00     0.000 C 
BRANCH   2   3
ATOM      3  C   UNL     1      21.202  -1.382 -16.391  1.00  0.00     0.000 C 
BRANCH   3   4
ATOM      4  C   UNL     1      20.187  -1.159 -15.257  1.00  0.00     0.006 C 
BRANCH   4   5
ATOM      5  C   UNL     1      19.840   0.320 -15.010  1.00  0.00     0.053 C 
BRANCH   5   6
ATOM      6  C   UNL     1      18.543   0.725 -15.641  1.00  0.00     0.041 C 
ATOM      7  O   UNL     1      17.503   0.837 -14.938  1.00  0.00    -0.550 OA
ATOM      8  O   UNL     1      18.488   1.008 -17.000  1.00  0.00    -0.550 OA
ENDBRANCH   5   6
ENDBRANCH   4   5
ENDBRANCH   3   4
ENDBRANCH   2   3
ENDBRANCH   1   2
BRANCH   1   9
ATOM      9  C   UNL     1      24.281   0.028 -14.459  1.00  0.00     0.000 C 
BRANCH   9  10
ATOM     10  C   UNL     1      25.229  -0.549 -13.402  1.00  0.00    -0.000 C 
BRANCH  10  11
ATOM     11  C   UNL     1      25.951   0.570 -12.637  1.00  0.00    -0.000 C 
BRANCH  11  12
ATOM     12  C   UNL     1      26.386   0.128 -11.225  1.00  0.00    -0.000 C 
BRANCH  12  13
ATOM     13  C   UNL     1      26.223  -1.380 -10.974  1.00  0.00    -0.003 C 
ATOM     14  C   UNL     1      25.575  -1.697  -9.628  1.00  0.00     0.004 C 
ENDBRANCH  12  13
ENDBRANCH  11  12
ENDBRANCH  10  11
ENDBRANCH   9  10
ENDBRANCH   1   9
TORSDOF 10
ENDMDL
MODEL 4
REMARK VINA RESULT:    -4.450      7.455      9.678
REMARK INTER + INTRA:          -8.273
REMARK INTER:                  -6.987
REMARK INTRA:                  -1.286
REMARK UNBOUND:                -1.221
REMARK SMILES CCCCCCCCCCCC(=O)[O-]
REMARK SMILES IDX 7 1 8 2 9 3 10 4 11 5 12 6 13 7 14 8 6 9 5 10 4 11 3 12 2 13
REMARK SMILES IDX 1 14
REMARK H PARENT
REMARK Flexibility Score: inf
ROOT
ATOM      1  C   UNL     1      19.285   0.114 -22.583  1.00  0.00     0.000 C 
ENDROOT
BRANCH   1   2
ATOM      2  C   UNL     1      20.604   0.664 -23.147  1.00  0.00     0.000 C 
BRANCH   2   3
ATOM      3  C   UNL     1      21.188  -0.224 -24.261  1.00  0.00     0.000 C 
BRANCH   3   4
ATOM      4  C   UNL     1      20.111  -1.002 -25.038  1.00  0.00     0.006 C 
BRANCH   4   5
ATOM      5  C   UNL     1      19.712  -0.351 -26.373  1.00  0.00     0.053 C 
BRANCH   5   6
ATOM      6  C   UNL     1      18.970  -1.288 -27.276  1.00  0.00     0.041 C 
ATOM      7  O   UNL     1      19.357  -2.479 -27.413  1.00  0.00    -0.550 OA
ATOM      8  O   UNL     1      17.831  -0.855 -27.944  1.00  0.00    -0.550 OA
ENDBRANCH   5   6
ENDBRANCH   4   5
ENDBRANCH   3   4
ENDBRANCH   2   3
ENDBRANCH   1   2
BRANCH   1   9
ATOM      9  C   UNL     1      18.385   1.218 -22.006  1.00  0.00     0.000 C 
BRANCH   9  10
ATOM     10  C   UNL     1      17.031   1.252 -22.723  1.00  0.00    -0.000 C 
BRANCH  10  11
ATOM     11  C   UNL     1      16.802  -0.031 -23.536  1.00  0.00    -0.000 C 
BRANCH  11  12
ATOM     12  C   UNL     1      16.114   0.247 -24.888  1.00  0.00    -0.000 C 
BRANCH  12  13
ATOM     13  C   UNL     1      15.994   1.744 -25.222  1.00  0.00    -0.003 C 
ATOM     14  C   UNL     1      17.002   2.205 -26.272  1.00  0.00     0.004 C 
ENDBRANCH  12  13
ENDBRANCH  11  12
ENDBRANCH  10  11
ENDBRANCH   9  10
ENDBRANCH   1   9
TORSDOF 10
ENDMDL
MODEL 5
REMARK VINA RESULT:    -4.450      7.743      9.825
REMARK INTER + INTRA:          -8.273
REMARK INTER:                  -7.047
REMARK INTRA:                  -1.226
REMARK UNBOUND:                -1.221
REMARK SMILES CCCCCCCCCCCC(=O)[O-]
REMARK SMILES IDX 7 1 8 2 9 3 10 4 11 5 12 6 13 7 14 8 6 9 5 10 4 11 3 12 2 13
REMARK SMILES IDX 1 14
REMARK H PARENT
REMARK Flexibility Score: inf
ROOT
ATOM      1  C   UNL     1      18.089   0.849 -26.470  1.00  0.00     0.000 C 
ENDROOT
BRANCH   1   2
ATOM      2  C   UNL     1      18.229  -0.135 -27.642  1.00  0.00     0.000 C 
BRANCH   2   3
ATOM      3  C   UNL     1      19.102  -1.354 -27.290  1.00  0.00     0.000 C 
BRANCH   3   4
ATOM      4  C   UNL     1      19.718  -1.267 -25.883  1.00  0.00     0.006 C 
BRANCH   4   5
ATOM      5  C   UNL     1      19.109  -2.255 -24.872  1.00  0.00     0.053 C 
BRANCH   5   6
ATOM      6  C   UNL     1      19.494  -3.676 -25.146  1.00  0.00     0.041 C 
ATOM      7  O   UNL     1      18.621  -4.585 -25.135  1.00  0.00    -0.550 OA
ATOM      8  O   UNL     1      20.812  -3.995 -25.446  1.00  0.00    -0.550 OA
ENDBRANCH   5   6
ENDBRANCH   4   5
ENDBRANCH   3   4
ENDBRANCH   2   3
ENDBRANCH   1   2
BRANCH   1   9
ATOM      9  C   UNL     1      16.779   1.650 -26.527  1.00  0.00     0.000 C 
BRANCH   9  10
ATOM     10  C   UNL     1      15.835   1.238 -25.392  1.00  0.00    -0.000 C 
BRANCH  10  11
ATOM     11  C   UNL     1      16.401   0.046 -24.607  1.00  0.00    -0.000 C 
BRANCH  11  12
ATOM     12  C   UNL     1      16.567   0.360 -23.105  1.00  0.00    -0.000 C 
BRANCH  12  13
ATOM     13  C   UNL     1      17.407   1.619 -22.828  1.00  0.00    -0.003 C 
ATOM     14  C   UNL     1      18.910   1.369 -22.926  1.00  0.00     0.004 C 
ENDBRANCH  12  13
ENDBRANCH  11  12
ENDBRANCH  10  11
ENDBRANCH   9  10
ENDBRANCH   1   9
TORSDOF 10
ENDMDL
MODEL 6
REMARK VINA RESULT:    -4.448      2.086      4.879
REMARK INTER + INTRA:          -8.269
REMARK INTER:                  -7.310
REMARK INTRA:                  -0.959
REMARK UNBOUND:                -1.221
REMARK SMILES CCCCCCCCCCCC(=O)[O-]
REMARK SMILES IDX 7 1 8 2 9 3 10 4 11 5 12 6 13 7 14 8 6 9 5 10 4 11 3 12 2 13
REMARK SMILES IDX 1 14
REMARK H PARENT
REMARK Flexibility Score: inf
ROOT
ATOM      1  C   UNL     1      20.128  -1.492 -18.910  1.00  0.00     0.000 C 
ENDROOT
BRANCH   1   2
ATOM      2  C   UNL     1      19.744  -2.134 -17.568  1.00  0.00     0.000 C 
BRANCH   2   3
ATOM      3  C   UNL     1      20.689  -1.725 -16.424  1.00  0.00     0.000 C 
BRANCH   3   4
ATOM      4  C   UNL     1      19.954  -1.068 -15.242  1.00  0.00     0.006 C 
BRANCH   4   5
ATOM      5  C   UNL     1      19.778   0.454 -15.384  1.00  0.00     0.053 C 
BRANCH   5   6
ATOM      6  C   UNL     1      18.395   0.840 -15.811  1.00  0.00     0.041 C 
ATOM      7  O   UNL     1      17.450   0.847 -14.977  1.00  0.00    -0.550 OA
ATOM      8  O   UNL     1      18.153   1.223 -17.125  1.00  0.00    -0.550 OA
ENDBRANCH   5   6
ENDBRANCH   4   5
ENDBRANCH   3   4
ENDBRANCH   2   3
ENDBRANCH   1   2
BRANCH   1   9
ATOM      9  C   UNL     1      21.166  -0.370 -18.751  1.00  0.00     0.000 C 
BRANCH   9  10
ATOM     10  C   UNL     1      20.728   0.893 -19.501  1.00  0.00    -0.000 C 
BRANCH  10  11
ATOM     11  C   UNL     1      19.562   0.593 -20.455  1.00  0.00    -0.000 C 
BRANCH  11  12
ATOM     12  C   UNL     1      19.891   0.967 -21.915  1.00  0.00    -0.000 C 
BRANCH  12  13
ATOM     13  C   UNL     1      18.759   0.641 -22.904  1.00  0.00    -0.003 C 
ATOM     14  C   UNL     1      17.440   1.323 -22.550  1.00  0.00     0.004 C 
ENDBRANCH  12  13
ENDBRANCH  11  12
ENDBRANCH  10  11
ENDBRANCH   9  10
ENDBRANCH   1   9
TORSDOF 10
ENDMDL
MODEL 7
REMARK VINA RESULT:    -4.338      4.859      5.803
REMARK INTER + INTRA:          -8.095
REMARK INTER:                  -7.575
REMARK INTRA:                  -0.520
REMARK UNBOUND:                -1.221
REMARK SMILES CCCCCCCCCCCC(=O)[O-]
REMARK SMILES IDX 7 1 8 2 9 3 10 4 11 5 12 6 13 7 14 8 6 9 5 10 4 11 3 12 2 13
REMARK SMILES IDX 1 14
REMARK H PARENT
REMARK Flexibility Score: inf
ROOT
ATOM      1  C   UNL     1      20.490   0.524 -21.210  1.00  0.00     0.000 C 
ENDROOT
BRANCH   1   2
ATOM      2  C   UNL     1      19.503   0.332 -22.372  1.00  0.00     0.000 C 
BRANCH   2   3
ATOM      3  C   UNL     1      18.158   1.041 -22.130  1.00  0.00     0.000 C 
BRANCH   3   4
ATOM      4  C   UNL     1      17.356   1.270 -23.423  1.00  0.00     0.006 C 
BRANCH   4   5
ATOM      5  C   UNL     1      16.346   0.151 -23.737  1.00  0.00     0.053 C 
BRANCH   5   6
ATOM      6  C   UNL     1      16.924  -0.924 -24.606  1.00  0.00     0.041 C 
ATOM      7  O   UNL     1      16.972  -2.115 -24.197  1.00  0.00    -0.550 OA
ATOM      8  O   UNL     1      17.382  -0.616 -25.881  1.00  0.00    -0.550 OA
ENDBRANCH   5   6
ENDBRANCH   4   5
ENDBRANCH   3   4
ENDBRANCH   2   3
ENDBRANCH   1   2
BRANCH   1   9
ATOM      9  C   UNL     1      19.842   0.275 -19.839  1.00  0.00     0.000 C 
BRANCH   9  10
ATOM     10  C   UNL     1      20.764  -0.552 -18.938  1.00  0.00    -0.000 C 
BRANCH  10  11
ATOM     11  C   UNL     1      20.224  -1.978 -18.753  1.00  0.00    -0.000 C 
BRANCH  11  12
ATOM     12  C   UNL     1      19.757  -2.244 -17.307  1.00  0.00    -0.000 C 
BRANCH  12  13
ATOM     13  C   UNL     1      20.725  -1.709 -16.239  1.00  0.00    -0.003 C 
ATOM     14  C   UNL     1      20.047  -0.801 -15.216  1.00  0.00     0.004 C 
ENDBRANCH  12  13
ENDBRANCH  11  12
ENDBRANCH  10  11
ENDBRANCH   9  10
ENDBRANCH   1   9
TORSDOF 10
ENDMDL
MODEL 8
REMARK VINA RESULT:    -4.311      4.392      7.129
REMARK INTER + INTRA:          -8.053
REMARK INTER:                  -7.431
REMARK INTRA:                  -0.622
REMARK UNBOUND:                -1.221
REMARK SMILES CCCCCCCCCCCC(=O)[O-]
REMARK SMILES IDX 7 1 8 2 9 3 10 4 11 5 12 6 13 7 14 8 6 9 5 10 4 11 3 12 2 13
REMARK SMILES IDX 1 14
REMARK H PARENT
REMARK Flexibility Score: inf
ROOT
ATOM      1  C   UNL     1      20.449   0.514 -21.981  1.00  0.00     0.000 C 
ENDROOT
BRANCH   1   2
ATOM      2  C   UNL     1      19.772   0.656 -20.609  1.00  0.00     0.000 C 
BRANCH   2   3
ATOM      3  C   UNL     1      20.785   0.821 -19.463  1.00  0.00     0.000 C 
BRANCH   3   4
ATOM      4  C   UNL     1      21.016  -0.478 -18.671  1.00  0.00     0.006 C 
BRANCH   4   5
ATOM      5  C   UNL     1      19.927  -1.544 -18.888  1.00  0.00     0.053 C 
BRANCH   5   6
ATOM      6  C   UNL     1      19.776  -2.465 -17.717  1.00  0.00     0.041 C 
ATOM      7  O   UNL     1      19.385  -3.651 -17.887  1.00  0.00    -0.550 OA
ATOM      8  O   UNL     1      20.098  -2.025 -16.439  1.00  0.00    -0.550 OA
ENDBRANCH   5   6
ENDBRANCH   4   5
ENDBRANCH   3   4
ENDBRANCH   2   3
ENDBRANCH   1   2
BRANCH   1   9
ATOM      9  C   UNL     1      19.436   0.356 -23.125  1.00  0.00     0.000 C 
BRANCH   9  10
ATOM     10  C   UNL     1      18.239  -0.493 -22.685  1.00  0.00    -0.000 C 
BRANCH  10  11
ATOM     11  C   UNL     1      16.916   0.134 -23.150  1.00  0.00    -0.000 C 
BRANCH  11  12
ATOM     12  C   UNL     1      16.461  -0.409 -24.521  1.00  0.00    -0.000 C 
BRANCH  12  13
ATOM     13  C   UNL     1      15.629   0.595 -25.336  1.00  0.00    -0.003 C 
ATOM     14  C   UNL     1      16.220   2.003 -25.336  1.00  0.00     0.004 C 
ENDBRANCH  12  13
ENDBRANCH  11  12
ENDBRANCH  10  11
ENDBRANCH   9  10
ENDBRANCH   1   9
TORSDOF 10
ENDMDL
MODEL 9
REMARK VINA RESULT:    -4.267      7.528      9.349
REMARK INTER + INTRA:          -7.983
REMARK INTER:                  -6.224
REMARK INTRA:                  -1.760
REMARK UNBOUND:                -1.221
REMARK SMILES CCCCCCCCCCCC(=O)[O-]
REMARK SMILES IDX 7 1 8 2 9 3 10 4 11 5 12 6 13 7 14 8 6 9 5 10 4 11 3 12 2 13
REMARK SMILES IDX 1 14
REMARK H PARENT
REMARK Flexibility Score: inf
ROOT
ATOM      1  C   UNL     1      16.090  -0.022 -24.904  1.00  0.00     0.000 C 
ENDROOT
BRANCH   1   2
ATOM      2  C   UNL     1      16.034   1.321 -25.649  1.00  0.00     0.000 C 
BRANCH   2   3
ATOM      3  C   UNL     1      17.171   1.478 -26.674  1.00  0.00     0.000 C 
BRANCH   3   4
ATOM      4  C   UNL     1      17.762   0.132 -27.129  1.00  0.00     0.006 C 
BRANCH   4   5
ATOM      5  C   UNL     1      19.283   0.019 -26.928  1.00  0.00     0.053 C 
BRANCH   5   6
ATOM      6  C   UNL     1      19.689  -1.278 -26.296  1.00  0.00     0.041 C 
ATOM      7  O   UNL     1      19.051  -2.335 -26.547  1.00  0.00    -0.550 OA
ATOM      8  O   UNL     1      20.793  -1.326 -25.454  1.00  0.00    -0.550 OA
ENDBRANCH   5   6
ENDBRANCH   4   5
ENDBRANCH   3   4
ENDBRANCH   2   3
ENDBRANCH   1   2
BRANCH   1   9
ATOM      9  C   UNL     1      16.498   0.137 -23.432  1.00  0.00     0.000 C 
BRANCH   9  10
ATOM     10  C   UNL     1      17.885  -0.464 -23.178  1.00  0.00    -0.000 C 
BRANCH  10  11
ATOM     11  C   UNL     1      18.940   0.637 -22.996  1.00  0.00    -0.000 C 
BRANCH  11  12
ATOM     12  C   UNL     1      18.305   2.019 -22.737  1.00  0.00    -0.000 C 
BRANCH  12  13
ATOM     13  C   UNL     1      18.836   3.124 -23.665  1.00  0.00    -0.003 C 
ATOM     14  C   UNL     1      19.991   2.660 -24.549  1.00  0.00     0.004 C 
ENDBRANCH  12  13
ENDBRANCH  11  12
ENDBRANCH  10  11
ENDBRANCH   9  10
ENDBRANCH   1   9
TORSDOF 10
ENDMDL
