MODEL 1
REMARK VINA RESULT:    -7.795      0.000      0.000
REMARK INTER + INTRA:         -12.151
REMARK INTER:                 -10.756
REMARK INTRA:                  -1.394
REMARK UNBOUND:                -1.394
REMARK SMILES CC[C@@H](CC[C@@H](C)[C@H]1CC[C@H]2[C@@H]3CC=C4C[C@H](O)CC[C@@]4(C)[C@@H]3CC[C@]12C)C(C)C
REMARK SMILES IDX 5 1 4 2 3 3 2 4 1 5 28 6 29 7 30 8 6 9 7 10 8 11 9 12 26 13
REMARK SMILES IDX 10 14 11 15 25 16 27 17 12 18 24 19 23 20 13 21 21 22 14 23
REMARK SMILES IDX 15 24 20 25 22 26 16 27 19 28 17 29 18 30
REMARK H PARENT 18 31
REMARK Flexibility Score: inf
ROOT
ATOM      1  C   UNL     1      48.869 -26.570   8.580  1.00  0.00     0.004 C 
ENDROOT
BRANCH   1   2
ATOM      2  C   UNL     1      47.321 -26.707   8.593  1.00  0.00     0.004 C 
BRANCH   2   3
ATOM      3  C   UNL     1      46.637 -27.916   7.855  1.00  0.00    -0.009 C 
BRANCH   3   4
ATOM      4  C   UNL     1      46.339 -27.696   6.347  1.00  0.00     0.000 C 
ATOM      5  C   UNL     1      45.997 -29.000   5.620  1.00  0.00     0.004 C 
ENDBRANCH   3   4
BRANCH   3   6
ATOM      6  C   UNL     1      45.414 -28.549   8.601  1.00  0.00    -0.014 C 
ATOM      7  C   UNL     1      45.622 -28.631  10.124  1.00  0.00     0.007 C 
ATOM      8  C   UNL     1      44.067 -27.893   8.283  1.00  0.00     0.007 C 
ENDBRANCH   3   6
ENDBRANCH   2   3
ENDBRANCH   1   2
BRANCH   1   9
ATOM      9  C   UNL     1      49.508 -25.963   7.298  1.00  0.00    -0.011 C 
ATOM     10  C   UNL     1      50.259 -24.663   7.653  1.00  0.00     0.008 C 
BRANCH   9  11
ATOM     11  C   UNL     1      50.477 -26.994   6.617  1.00  0.00    -0.002 C 
ATOM     12  C   UNL     1      50.191 -28.464   7.030  1.00  0.00     0.005 C 
ATOM     13  C   UNL     1      50.508 -27.053   5.055  1.00  0.00    -0.026 C 
ATOM     14  C   UNL     1      50.563 -29.358   5.841  1.00  0.00     0.005 C 
ATOM     15  C   UNL     1      51.210 -28.409   4.844  1.00  0.00    -0.001 C 
ATOM     16  C   UNL     1      51.359 -25.939   4.360  1.00  0.00     0.007 C 
ATOM     17  C   UNL     1      49.054 -27.045   4.481  1.00  0.00     0.012 C 
ATOM     18  C   UNL     1      51.244 -28.846   3.361  1.00  0.00     0.000 C 
ATOM     19  C   UNL     1      52.302 -26.461   3.246  1.00  0.00     0.005 C 
ATOM     20  C   UNL     1      51.719 -27.661   2.434  1.00  0.00     0.003 C 
ATOM     21  C   UNL     1      52.089 -30.112   3.183  1.00  0.00     0.031 C 
ATOM     22  C   UNL     1      52.633 -28.084   1.197  1.00  0.00    -0.008 C 
ATOM     23  C   UNL     1      52.155 -30.476   1.733  1.00  0.00    -0.027 C 
ATOM     24  C   UNL     1      52.358 -29.540   0.787  1.00  0.00    -0.065 C 
ATOM     25  C   UNL     1      52.317 -27.123   0.004  1.00  0.00     0.014 C 
ATOM     26  C   UNL     1      54.149 -27.978   1.528  1.00  0.00     0.016 C 
ATOM     27  C   UNL     1      52.632 -30.014  -0.630  1.00  0.00     0.063 C 
ATOM     28  C   UNL     1      52.857 -27.613  -1.342  1.00  0.00     0.033 C 
ATOM     29  C   UNL     1      52.246 -28.975  -1.685  1.00  0.00     0.118 C 
BRANCH  29  30
ATOM     30  O   UNL     1      52.708 -29.405  -2.939  1.00  0.00    -0.393 OA
ATOM     31  H   UNL     1      52.815 -30.392  -2.880  1.00  0.00     0.210 HD
ENDBRANCH  29  30
ENDBRANCH   9  11
ENDBRANCH   1   9
TORSDOF 7
ENDMDL
MODEL 2
REMARK VINA RESULT:    -7.729      5.493     12.029
REMARK INTER + INTRA:         -12.060
REMARK INTER:                 -10.012
REMARK INTRA:                  -2.048
REMARK UNBOUND:                -1.394
REMARK SMILES CC[C@@H](CC[C@@H](C)[C@H]1CC[C@H]2[C@@H]3CC=C4C[C@H](O)CC[C@@]4(C)[C@@H]3CC[C@]12C)C(C)C
REMARK SMILES IDX 5 1 4 2 3 3 2 4 1 5 28 6 29 7 30 8 6 9 7 10 8 11 9 12 26 13
REMARK SMILES IDX 10 14 11 15 25 16 27 17 12 18 24 19 23 20 13 21 21 22 14 23
REMARK SMILES IDX 15 24 20 25 22 26 16 27 19 28 17 29 18 30
REMARK H PARENT 18 31
REMARK Flexibility Score: inf
ROOT
ATOM      1  C   UNL     1      53.788 -34.662  -7.360  1.00  0.00     0.004 C 
ENDROOT
BRANCH   1   2
ATOM      2  C   UNL     1      52.460 -34.839  -8.148  1.00  0.00     0.004 C 
BRANCH   2   3
ATOM      3  C   UNL     1      51.098 -34.402  -7.494  1.00  0.00    -0.009 C 
BRANCH   3   4
ATOM      4  C   UNL     1      50.132 -35.561  -7.128  1.00  0.00     0.000 C 
ATOM      5  C   UNL     1      50.337 -36.067  -5.697  1.00  0.00     0.004 C 
ENDBRANCH   3   4
BRANCH   3   6
ATOM      6  C   UNL     1      50.352 -33.234  -8.223  1.00  0.00    -0.014 C 
ATOM      7  C   UNL     1      49.089 -32.774  -7.472  1.00  0.00     0.007 C 
ATOM      8  C   UNL     1      51.235 -32.030  -8.563  1.00  0.00     0.007 C 
ENDBRANCH   3   6
ENDBRANCH   2   3
ENDBRANCH   1   2
BRANCH   1   9
ATOM      9  C   UNL     1      53.679 -34.601  -5.809  1.00  0.00    -0.011 C 
ATOM     10  C   UNL     1      54.627 -35.641  -5.177  1.00  0.00     0.008 C 
BRANCH   9  11
ATOM     11  C   UNL     1      54.009 -33.158  -5.283  1.00  0.00    -0.002 C 
ATOM     12  C   UNL     1      53.962 -32.078  -6.398  1.00  0.00     0.005 C 
ATOM     13  C   UNL     1      53.104 -32.562  -4.157  1.00  0.00    -0.026 C 
ATOM     14  C   UNL     1      53.516 -30.763  -5.747  1.00  0.00     0.005 C 
ATOM     15  C   UNL     1      53.484 -31.072  -4.259  1.00  0.00    -0.001 C 
ATOM     16  C   UNL     1      53.423 -33.059  -2.709  1.00  0.00     0.007 C 
ATOM     17  C   UNL     1      51.595 -32.809  -4.483  1.00  0.00     0.012 C 
ATOM     18  C   UNL     1      52.612 -30.164  -3.360  1.00  0.00     0.000 C 
ATOM     19  C   UNL     1      53.497 -31.929  -1.650  1.00  0.00     0.005 C 
ATOM     20  C   UNL     1      52.495 -30.758  -1.903  1.00  0.00     0.003 C 
ATOM     21  C   UNL     1      53.132 -28.722  -3.371  1.00  0.00     0.031 C 
ATOM     22  C   UNL     1      52.477 -29.682  -0.725  1.00  0.00    -0.008 C 
ATOM     23  C   UNL     1      52.308 -27.881  -2.447  1.00  0.00    -0.027 C 
ATOM     24  C   UNL     1      51.950 -28.329  -1.228  1.00  0.00    -0.065 C 
ATOM     25  C   UNL     1      51.555 -30.224   0.417  1.00  0.00     0.014 C 
ATOM     26  C   UNL     1      53.896 -29.434  -0.139  1.00  0.00     0.016 C 
ATOM     27  C   UNL     1      51.308 -27.339  -0.272  1.00  0.00     0.063 C 
ATOM     28  C   UNL     1      51.169 -29.164   1.452  1.00  0.00     0.033 C 
ATOM     29  C   UNL     1      50.416 -28.018   0.770  1.00  0.00     0.118 C 
BRANCH  29  30
ATOM     30  O   UNL     1      50.025 -27.066   1.725  1.00  0.00    -0.393 OA
ATOM     31  H   UNL     1      50.482 -27.308   2.573  1.00  0.00     0.210 HD
ENDBRANCH  29  30
ENDBRANCH   9  11
ENDBRANCH   1   9
TORSDOF 7
ENDMDL
MODEL 3
REMARK VINA RESULT:    -7.534      1.928      4.558
REMARK INTER + INTRA:         -11.790
REMARK INTER:                 -10.248
REMARK INTRA:                  -1.542
REMARK UNBOUND:                -1.394
REMARK SMILES CC[C@@H](CC[C@@H](C)[C@H]1CC[C@H]2[C@@H]3CC=C4C[C@H](O)CC[C@@]4(C)[C@@H]3CC[C@]12C)C(C)C
REMARK SMILES IDX 5 1 4 2 3 3 2 4 1 5 28 6 29 7 30 8 6 9 7 10 8 11 9 12 26 13
REMARK SMILES IDX 10 14 11 15 25 16 27 17 12 18 24 19 23 20 13 21 21 22 14 23
REMARK SMILES IDX 15 24 20 25 22 26 16 27 19 28 17 29 18 30
REMARK H PARENT 18 31
REMARK Flexibility Score: inf
ROOT
ATOM      1  C   UNL     1      51.768 -27.649   6.028  1.00  0.00     0.004 C 
ENDROOT
BRANCH   1   2
ATOM      2  C   UNL     1      50.709 -27.556   7.162  1.00  0.00     0.004 C 
BRANCH   2   3
ATOM      3  C   UNL     1      49.344 -26.823   6.898  1.00  0.00    -0.009 C 
BRANCH   3   4
ATOM      4  C   UNL     1      48.550 -26.412   8.168  1.00  0.00     0.000 C 
ATOM      5  C   UNL     1      49.063 -27.106   9.432  1.00  0.00     0.004 C 
ENDBRANCH   3   4
BRANCH   3   6
ATOM      6  C   UNL     1      48.418 -27.497   5.830  1.00  0.00    -0.014 C 
ATOM      7  C   UNL     1      47.066 -27.947   6.411  1.00  0.00     0.007 C 
ATOM      8  C   UNL     1      48.201 -26.666   4.562  1.00  0.00     0.007 C 
ENDBRANCH   3   6
ENDBRANCH   2   3
ENDBRANCH   1   2
BRANCH   1   9
ATOM      9  C   UNL     1      51.888 -29.014   5.291  1.00  0.00    -0.011 C 
ATOM     10  C   UNL     1      50.997 -30.064   5.988  1.00  0.00     0.008 C 
BRANCH   9  11
ATOM     11  C   UNL     1      51.491 -28.867   3.779  1.00  0.00    -0.002 C 
ATOM     12  C   UNL     1      51.520 -27.396   3.281  1.00  0.00     0.005 C 
ATOM     13  C   UNL     1      52.348 -29.630   2.717  1.00  0.00    -0.026 C 
ATOM     14  C   UNL     1      51.901 -27.420   1.796  1.00  0.00     0.005 C 
ATOM     15  C   UNL     1      51.913 -28.896   1.434  1.00  0.00    -0.001 C 
ATOM     16  C   UNL     1      52.018 -31.150   2.558  1.00  0.00     0.007 C 
ATOM     17  C   UNL     1      53.872 -29.446   3.014  1.00  0.00     0.012 C 
ATOM     18  C   UNL     1      52.730 -29.319   0.190  1.00  0.00     0.000 C 
ATOM     19  C   UNL     1      51.878 -31.620   1.087  1.00  0.00     0.005 C 
ATOM     20  C   UNL     1      52.839 -30.891   0.095  1.00  0.00     0.003 C 
ATOM     21  C   UNL     1      52.156 -28.689  -1.083  1.00  0.00     0.031 C 
ATOM     22  C   UNL     1      52.791 -31.492  -1.382  1.00  0.00    -0.008 C 
ATOM     23  C   UNL     1      52.927 -29.163  -2.274  1.00  0.00    -0.027 C 
ATOM     24  C   UNL     1      53.276 -30.457  -2.410  1.00  0.00    -0.065 C 
ATOM     25  C   UNL     1      53.709 -32.758  -1.424  1.00  0.00     0.014 C 
ATOM     26  C   UNL     1      51.352 -31.910  -1.795  1.00  0.00     0.016 C 
ATOM     27  C   UNL     1      53.859 -30.896  -3.741  1.00  0.00     0.063 C 
ATOM     28  C   UNL     1      54.032 -33.238  -2.842  1.00  0.00     0.033 C 
ATOM     29  C   UNL     1      54.754 -32.131  -3.615  1.00  0.00     0.118 C 
BRANCH  29  30
ATOM     30  O   UNL     1      55.088 -32.585  -4.901  1.00  0.00    -0.393 OA
ATOM     31  H   UNL     1      54.255 -32.551  -5.441  1.00  0.00     0.210 HD
ENDBRANCH  29  30
ENDBRANCH   9  11
ENDBRANCH   1   9
TORSDOF 7
ENDMDL
MODEL 4
REMARK VINA RESULT:    -7.475      4.514     11.532
REMARK INTER + INTRA:         -11.709
REMARK INTER:                 -10.193
REMARK INTRA:                  -1.516
REMARK UNBOUND:                -1.394
REMARK SMILES CC[C@@H](CC[C@@H](C)[C@H]1CC[C@H]2[C@@H]3CC=C4C[C@H](O)CC[C@@]4(C)[C@@H]3CC[C@]12C)C(C)C
REMARK SMILES IDX 5 1 4 2 3 3 2 4 1 5 28 6 29 7 30 8 6 9 7 10 8 11 9 12 26 13
REMARK SMILES IDX 10 14 11 15 25 16 27 17 12 18 24 19 23 20 13 21 21 22 14 23
REMARK SMILES IDX 15 24 20 25 22 26 16 27 19 28 17 29 18 30
REMARK H PARENT 18 31
REMARK Flexibility Score: inf
ROOT
ATOM      1  C   UNL     1      52.203 -32.548  -5.587  1.00  0.00     0.004 C 
ENDROOT
BRANCH   1   2
ATOM      2  C   UNL     1      52.774 -32.818  -7.007  1.00  0.00     0.004 C 
BRANCH   2   3
ATOM      3  C   UNL     1      52.975 -31.623  -8.009  1.00  0.00    -0.009 C 
BRANCH   3   4
ATOM      4  C   UNL     1      52.166 -31.716  -9.331  1.00  0.00     0.000 C 
ATOM      5  C   UNL     1      50.784 -32.346  -9.132  1.00  0.00     0.004 C 
ENDBRANCH   3   4
BRANCH   3   6
ATOM      6  C   UNL     1      54.464 -31.212  -8.269  1.00  0.00    -0.014 C 
ATOM      7  C   UNL     1      55.057 -30.367  -7.127  1.00  0.00     0.007 C 
ATOM      8  C   UNL     1      55.395 -32.380  -8.605  1.00  0.00     0.007 C 
ENDBRANCH   3   6
ENDBRANCH   2   3
ENDBRANCH   1   2
BRANCH   1   9
ATOM      9  C   UNL     1      53.145 -32.845  -4.385  1.00  0.00    -0.011 C 
ATOM     10  C   UNL     1      54.477 -33.433  -4.898  1.00  0.00     0.008 C 
BRANCH   9  11
ATOM     11  C   UNL     1      53.403 -31.544  -3.543  1.00  0.00    -0.002 C 
ATOM     12  C   UNL     1      52.796 -30.269  -4.191  1.00  0.00     0.005 C 
ATOM     13  C   UNL     1      52.864 -31.500  -2.076  1.00  0.00    -0.026 C 
ATOM     14  C   UNL     1      52.400 -29.318  -3.055  1.00  0.00     0.005 C 
ATOM     15  C   UNL     1      52.940 -29.986  -1.801  1.00  0.00    -0.001 C 
ATOM     16  C   UNL     1      53.743 -32.244  -1.018  1.00  0.00     0.007 C 
ATOM     17  C   UNL     1      51.396 -32.037  -2.019  1.00  0.00     0.012 C 
ATOM     18  C   UNL     1      52.303 -29.586  -0.449  1.00  0.00     0.000 C 
ATOM     19  C   UNL     1      53.999 -31.434   0.279  1.00  0.00     0.005 C 
ATOM     20  C   UNL     1      52.798 -30.535   0.711  1.00  0.00     0.003 C 
ATOM     21  C   UNL     1      52.548 -28.104  -0.146  1.00  0.00     0.031 C 
ATOM     22  C   UNL     1      53.020 -29.829   2.124  1.00  0.00    -0.008 C 
ATOM     23  C   UNL     1      51.974 -27.761   1.193  1.00  0.00    -0.027 C 
ATOM     24  C   UNL     1      52.140 -28.574   2.253  1.00  0.00    -0.065 C 
ATOM     25  C   UNL     1      52.654 -30.856   3.246  1.00  0.00     0.014 C 
ATOM     26  C   UNL     1      54.494 -29.379   2.327  1.00  0.00     0.016 C 
ATOM     27  C   UNL     1      51.723 -28.053   3.617  1.00  0.00     0.063 C 
ATOM     28  C   UNL     1      52.488 -30.223   4.630  1.00  0.00     0.033 C 
ATOM     29  C   UNL     1      51.371 -29.176   4.595  1.00  0.00     0.118 C 
BRANCH  29  30
ATOM     30  O   UNL     1      51.190 -28.626   5.874  1.00  0.00    -0.393 OA
ATOM     31  H   UNL     1      51.974 -28.904   6.418  1.00  0.00     0.210 HD
ENDBRANCH  29  30
ENDBRANCH   9  11
ENDBRANCH   1   9
TORSDOF 7
ENDMDL
MODEL 5
REMARK VINA RESULT:    -7.433      5.247      9.469
REMARK INTER + INTRA:         -11.652
REMARK INTER:                  -9.617
REMARK INTRA:                  -2.035
REMARK UNBOUND:                -1.394
REMARK SMILES CC[C@@H](CC[C@@H](C)[C@H]1CC[C@H]2[C@@H]3CC=C4C[C@H](O)CC[C@@]4(C)[C@@H]3CC[C@]12C)C(C)C
REMARK SMILES IDX 5 1 4 2 3 3 2 4 1 5 28 6 29 7 30 8 6 9 7 10 8 11 9 12 26 13
REMARK SMILES IDX 10 14 11 15 25 16 27 17 12 18 24 19 23 20 13 21 21 22 14 23
REMARK SMILES IDX 15 24 20 25 22 26 16 27 19 28 17 29 18 30
REMARK H PARENT 18 31
REMARK Flexibility Score: inf
ROOT
ATOM      1  C   UNL     1      55.066 -29.273   0.841  1.00  0.00     0.004 C 
ENDROOT
BRANCH   1   2
ATOM      2  C   UNL     1      54.638 -29.810   2.235  1.00  0.00     0.004 C 
BRANCH   2   3
ATOM      3  C   UNL     1      53.670 -31.045   2.333  1.00  0.00    -0.009 C 
BRANCH   3   4
ATOM      4  C   UNL     1      52.360 -30.806   3.131  1.00  0.00     0.000 C 
ATOM      5  C   UNL     1      52.616 -30.202   4.515  1.00  0.00     0.004 C 
ENDBRANCH   3   4
BRANCH   3   6
ATOM      6  C   UNL     1      54.351 -32.398   2.732  1.00  0.00    -0.014 C 
ATOM      7  C   UNL     1      53.953 -33.562   1.806  1.00  0.00     0.007 C 
ATOM      8  C   UNL     1      55.875 -32.326   2.870  1.00  0.00     0.007 C 
ENDBRANCH   3   6
ENDBRANCH   2   3
ENDBRANCH   1   2
BRANCH   1   9
ATOM      9  C   UNL     1      54.017 -29.379  -0.303  1.00  0.00    -0.011 C 
ATOM     10  C   UNL     1      53.791 -27.990  -0.937  1.00  0.00     0.008 C 
BRANCH   9  11
ATOM     11  C   UNL     1      54.480 -30.414  -1.390  1.00  0.00    -0.002 C 
ATOM     12  C   UNL     1      55.503 -31.450  -0.848  1.00  0.00     0.005 C 
ATOM     13  C   UNL     1      53.388 -31.302  -2.071  1.00  0.00    -0.026 C 
ATOM     14  C   UNL     1      55.287 -32.758  -1.618  1.00  0.00     0.005 C 
ATOM     15  C   UNL     1      54.274 -32.399  -2.693  1.00  0.00    -0.001 C 
ATOM     16  C   UNL     1      52.580 -30.607  -3.215  1.00  0.00     0.007 C 
ATOM     17  C   UNL     1      52.404 -31.874  -0.999  1.00  0.00     0.012 C 
ATOM     18  C   UNL     1      53.455 -33.554  -3.316  1.00  0.00     0.000 C 
ATOM     19  C   UNL     1      52.428 -31.463  -4.499  1.00  0.00     0.005 C 
ATOM     20  C   UNL     1      52.292 -32.994  -4.225  1.00  0.00     0.003 C 
ATOM     21  C   UNL     1      54.369 -34.532  -4.062  1.00  0.00     0.031 C 
ATOM     22  C   UNL     1      51.984 -33.842  -5.541  1.00  0.00    -0.008 C 
ATOM     23  C   UNL     1      53.545 -35.603  -4.705  1.00  0.00    -0.027 C 
ATOM     24  C   UNL     1      52.404 -35.310  -5.357  1.00  0.00    -0.065 C 
ATOM     25  C   UNL     1      50.449 -33.758  -5.829  1.00  0.00     0.014 C 
ATOM     26  C   UNL     1      52.750 -33.296  -6.779  1.00  0.00     0.016 C 
ATOM     27  C   UNL     1      51.748 -36.414  -6.166  1.00  0.00     0.063 C 
ATOM     28  C   UNL     1      49.955 -34.788  -6.848  1.00  0.00     0.033 C 
ATOM     29  C   UNL     1      50.242 -36.204  -6.339  1.00  0.00     0.118 C 
BRANCH  29  30
ATOM     30  O   UNL     1      49.752 -37.150  -7.254  1.00  0.00    -0.393 OA
ATOM     31  H   UNL     1      49.328 -37.872  -6.718  1.00  0.00     0.210 HD
ENDBRANCH  29  30
ENDBRANCH   9  11
ENDBRANCH   1   9
TORSDOF 7
ENDMDL
MODEL 6
REMARK VINA RESULT:    -7.406      7.394     12.609
REMARK INTER + INTRA:         -11.615
REMARK INTER:                 -10.127
REMARK INTRA:                  -1.488
REMARK UNBOUND:                -1.394
REMARK SMILES CC[C@@H](CC[C@@H](C)[C@H]1CC[C@H]2[C@@H]3CC=C4C[C@H](O)CC[C@@]4(C)[C@@H]3CC[C@]12C)C(C)C
REMARK SMILES IDX 5 1 4 2 3 3 2 4 1 5 28 6 29 7 30 8 6 9 7 10 8 11 9 12 26 13
REMARK SMILES IDX 10 14 11 15 25 16 27 17 12 18 24 19 23 20 13 21 21 22 14 23
REMARK SMILES IDX 15 24 20 25 22 26 16 27 19 28 17 29 18 30
REMARK H PARENT 18 31
REMARK Flexibility Score: inf
ROOT
ATOM      1  C   UNL     1      53.151 -35.419  -8.662  1.00  0.00     0.004 C 
ENDROOT
BRANCH   1   2
ATOM      2  C   UNL     1      51.597 -35.370  -8.627  1.00  0.00     0.004 C 
BRANCH   2   3
ATOM      3  C   UNL     1      50.833 -35.769  -7.312  1.00  0.00    -0.009 C 
BRANCH   3   4
ATOM      4  C   UNL     1      50.147 -37.162  -7.334  1.00  0.00     0.000 C 
ATOM      5  C   UNL     1      50.512 -38.016  -6.116  1.00  0.00     0.004 C 
ENDBRANCH   3   4
BRANCH   3   6
ATOM      6  C   UNL     1      49.884 -34.667  -6.730  1.00  0.00    -0.014 C 
ATOM      7  C   UNL     1      50.124 -34.405  -5.232  1.00  0.00     0.007 C 
ATOM      8  C   UNL     1      49.891 -33.348  -7.508  1.00  0.00     0.007 C 
ENDBRANCH   3   6
ENDBRANCH   2   3
ENDBRANCH   1   2
BRANCH   1   9
ATOM      9  C   UNL     1      53.904 -34.393  -7.768  1.00  0.00    -0.011 C 
ATOM     10  C   UNL     1      53.540 -32.957  -8.200  1.00  0.00     0.008 C 
BRANCH   9  11
ATOM     11  C   UNL     1      53.563 -34.618  -6.251  1.00  0.00    -0.002 C 
ATOM     12  C   UNL     1      54.160 -35.934  -5.681  1.00  0.00     0.005 C 
ATOM     13  C   UNL     1      54.024 -33.533  -5.225  1.00  0.00    -0.026 C 
ATOM     14  C   UNL     1      54.466 -35.697  -4.198  1.00  0.00     0.005 C 
ATOM     15  C   UNL     1      53.885 -34.322  -3.909  1.00  0.00    -0.001 C 
ATOM     16  C   UNL     1      53.118 -32.262  -5.142  1.00  0.00     0.007 C 
ATOM     17  C   UNL     1      55.504 -33.111  -5.507  1.00  0.00     0.012 C 
ATOM     18  C   UNL     1      54.440 -33.556  -2.685  1.00  0.00     0.000 C 
ATOM     19  C   UNL     1      52.770 -31.822  -3.697  1.00  0.00     0.005 C 
ATOM     20  C   UNL     1      53.917 -32.067  -2.667  1.00  0.00     0.003 C 
ATOM     21  C   UNL     1      54.133 -34.306  -1.385  1.00  0.00     0.031 C 
ATOM     22  C   UNL     1      53.602 -31.470  -1.222  1.00  0.00    -0.008 C 
ATOM     23  C   UNL     1      54.626 -33.513  -0.215  1.00  0.00    -0.027 C 
ATOM     24  C   UNL     1      54.433 -32.183  -0.142  1.00  0.00    -0.065 C 
ATOM     25  C   UNL     1      53.943 -29.943  -1.238  1.00  0.00     0.014 C 
ATOM     26  C   UNL     1      52.105 -31.638  -0.835  1.00  0.00     0.016 C 
ATOM     27  C   UNL     1      54.764 -31.490   1.168  1.00  0.00     0.063 C 
ATOM     28  C   UNL     1      54.018 -29.313   0.155  1.00  0.00     0.033 C 
ATOM     29  C   UNL     1      55.101 -30.009   0.985  1.00  0.00     0.118 C 
BRANCH  29  30
ATOM     30  O   UNL     1      55.199 -29.405   2.248  1.00  0.00    -0.393 OA
ATOM     31  H   UNL     1      56.168 -29.346   2.462  1.00  0.00     0.210 HD
ENDBRANCH  29  30
ENDBRANCH   9  11
ENDBRANCH   1   9
TORSDOF 7
ENDMDL
MODEL 7
REMARK VINA RESULT:    -7.333     14.553     17.732
REMARK INTER + INTRA:         -11.514
REMARK INTER:                 -10.809
REMARK INTRA:                  -0.705
REMARK UNBOUND:                -1.394
REMARK SMILES CC[C@@H](CC[C@@H](C)[C@H]1CC[C@H]2[C@@H]3CC=C4C[C@H](O)CC[C@@]4(C)[C@@H]3CC[C@]12C)C(C)C
REMARK SMILES IDX 5 1 4 2 3 3 2 4 1 5 28 6 29 7 30 8 6 9 7 10 8 11 9 12 26 13
REMARK SMILES IDX 10 14 11 15 25 16 27 17 12 18 24 19 23 20 13 21 21 22 14 23
REMARK SMILES IDX 15 24 20 25 22 26 16 27 19 28 17 29 18 30
REMARK H PARENT 18 31
REMARK Flexibility Score: inf
ROOT
ATOM      1  C   UNL     1      38.068 -24.175  -8.454  1.00  0.00     0.004 C 
ENDROOT
BRANCH   1   2
ATOM      2  C   UNL     1      39.469 -24.323  -9.113  1.00  0.00     0.004 C 
BRANCH   2   3
ATOM      3  C   UNL     1      40.728 -23.680  -8.425  1.00  0.00    -0.009 C 
BRANCH   3   4
ATOM      4  C   UNL     1      41.395 -22.516  -9.207  1.00  0.00     0.000 C 
ATOM      5  C   UNL     1      41.051 -21.142  -8.623  1.00  0.00     0.004 C 
ENDBRANCH   3   4
BRANCH   3   6
ATOM      6  C   UNL     1      41.789 -24.699  -7.887  1.00  0.00    -0.014 C 
ATOM      7  C   UNL     1      43.222 -24.137  -7.914  1.00  0.00     0.007 C 
ATOM      8  C   UNL     1      41.471 -25.276  -6.504  1.00  0.00     0.007 C 
ENDBRANCH   3   6
ENDBRANCH   2   3
ENDBRANCH   1   2
BRANCH   1   9
ATOM      9  C   UNL     1      37.411 -22.766  -8.514  1.00  0.00    -0.011 C 
ATOM     10  C   UNL     1      35.875 -22.907  -8.561  1.00  0.00     0.008 C 
BRANCH   9  11
ATOM     11  C   UNL     1      37.850 -21.893  -7.285  1.00  0.00    -0.002 C 
ATOM     12  C   UNL     1      37.208 -20.478  -7.282  1.00  0.00     0.005 C 
ATOM     13  C   UNL     1      37.542 -22.436  -5.852  1.00  0.00    -0.026 C 
ATOM     14  C   UNL     1      37.031 -20.055  -5.820  1.00  0.00     0.005 C 
ATOM     15  C   UNL     1      37.725 -21.149  -5.024  1.00  0.00    -0.001 C 
ATOM     16  C   UNL     1      38.538 -23.517  -5.318  1.00  0.00     0.007 C 
ATOM     17  C   UNL     1      36.078 -22.981  -5.778  1.00  0.00     0.012 C 
ATOM     18  C   UNL     1      37.319 -21.321  -3.542  1.00  0.00     0.000 C 
ATOM     19  C   UNL     1      39.024 -23.273  -3.866  1.00  0.00     0.005 C 
ATOM     20  C   UNL     1      37.943 -22.638  -2.935  1.00  0.00     0.003 C 
ATOM     21  C   UNL     1      37.671 -20.071  -2.729  1.00  0.00     0.031 C 
ATOM     22  C   UNL     1      38.406 -22.536  -1.412  1.00  0.00    -0.008 C 
ATOM     23  C   UNL     1      37.322 -20.289  -1.290  1.00  0.00    -0.027 C 
ATOM     24  C   UNL     1      37.612 -21.449  -0.670  1.00  0.00    -0.065 C 
ATOM     25  C   UNL     1      38.171 -23.926  -0.736  1.00  0.00     0.014 C 
ATOM     26  C   UNL     1      39.913 -22.173  -1.284  1.00  0.00     0.016 C 
ATOM     27  C   UNL     1      37.429 -21.511   0.836  1.00  0.00     0.063 C 
ATOM     28  C   UNL     1      38.245 -23.889   0.793  1.00  0.00     0.033 C 
ATOM     29  C   UNL     1      37.182 -22.933   1.343  1.00  0.00     0.118 C 
BRANCH  29  30
ATOM     30  O   UNL     1      37.221 -22.930   2.747  1.00  0.00    -0.393 OA
ATOM     31  H   UNL     1      36.662 -22.165   3.046  1.00  0.00     0.210 HD
ENDBRANCH  29  30
ENDBRANCH   9  11
ENDBRANCH   1   9
TORSDOF 7
ENDMDL
MODEL 8
REMARK VINA RESULT:    -7.301      4.533     10.849
REMARK INTER + INTRA:         -11.469
REMARK INTER:                 -10.351
REMARK INTRA:                  -1.118
REMARK UNBOUND:                -1.394
REMARK SMILES CC[C@@H](CC[C@@H](C)[C@H]1CC[C@H]2[C@@H]3CC=C4C[C@H](O)CC[C@@]4(C)[C@@H]3CC[C@]12C)C(C)C
REMARK SMILES IDX 5 1 4 2 3 3 2 4 1 5 28 6 29 7 30 8 6 9 7 10 8 11 9 12 26 13
REMARK SMILES IDX 10 14 11 15 25 16 27 17 12 18 24 19 23 20 13 21 21 22 14 23
REMARK SMILES IDX 15 24 20 25 22 26 16 27 19 28 17 29 18 30
REMARK H PARENT 18 31
REMARK Flexibility Score: inf
ROOT
ATOM      1  C   UNL     1      52.886 -32.530  -5.664  1.00  0.00     0.004 C 
ENDROOT
BRANCH   1   2
ATOM      2  C   UNL     1      52.474 -33.704  -6.597  1.00  0.00     0.004 C 
BRANCH   2   3
ATOM      3  C   UNL     1      51.066 -33.688  -7.297  1.00  0.00    -0.009 C 
BRANCH   3   4
ATOM      4  C   UNL     1      50.549 -32.289  -7.727  1.00  0.00     0.000 C 
ATOM      5  C   UNL     1      49.027 -32.248  -7.887  1.00  0.00     0.004 C 
ENDBRANCH   3   4
BRANCH   3   6
ATOM      6  C   UNL     1      49.952 -34.520  -6.576  1.00  0.00    -0.014 C 
ATOM      7  C   UNL     1      50.023 -36.022  -6.904  1.00  0.00     0.007 C 
ATOM      8  C   UNL     1      49.883 -34.310  -5.060  1.00  0.00     0.007 C 
ENDBRANCH   3   6
ENDBRANCH   2   3
ENDBRANCH   1   2
BRANCH   1   9
ATOM      9  C   UNL     1      53.120 -32.875  -4.165  1.00  0.00    -0.011 C 
ATOM     10  C   UNL     1      54.311 -33.847  -4.032  1.00  0.00     0.008 C 
BRANCH   9  11
ATOM     11  C   UNL     1      53.372 -31.572  -3.326  1.00  0.00    -0.002 C 
ATOM     12  C   UNL     1      52.813 -30.292  -4.005  1.00  0.00     0.005 C 
ATOM     13  C   UNL     1      52.783 -31.505  -1.879  1.00  0.00    -0.026 C 
ATOM     14  C   UNL     1      52.396 -29.324  -2.892  1.00  0.00     0.005 C 
ATOM     15  C   UNL     1      52.878 -29.990  -1.614  1.00  0.00    -0.001 C 
ATOM     16  C   UNL     1      53.609 -32.255  -0.785  1.00  0.00     0.007 C 
ATOM     17  C   UNL     1      51.304 -32.014  -1.869  1.00  0.00     0.012 C 
ATOM     18  C   UNL     1      52.201 -29.566  -0.289  1.00  0.00     0.000 C 
ATOM     19  C   UNL     1      53.835 -31.439   0.514  1.00  0.00     0.005 C 
ATOM     20  C   UNL     1      52.637 -30.513   0.896  1.00  0.00     0.003 C 
ATOM     21  C   UNL     1      52.464 -28.086   0.010  1.00  0.00     0.031 C 
ATOM     22  C   UNL     1      52.822 -29.799   2.310  1.00  0.00    -0.008 C 
ATOM     23  C   UNL     1      51.850 -27.720   1.325  1.00  0.00    -0.027 C 
ATOM     24  C   UNL     1      51.963 -28.527   2.397  1.00  0.00    -0.065 C 
ATOM     25  C   UNL     1      52.397 -30.809   3.427  1.00  0.00     0.014 C 
ATOM     26  C   UNL     1      54.297 -29.376   2.562  1.00  0.00     0.016 C 
ATOM     27  C   UNL     1      51.507 -27.986   3.741  1.00  0.00     0.063 C 
ATOM     28  C   UNL     1      52.195 -30.161   4.799  1.00  0.00     0.033 C 
ATOM     29  C   UNL     1      51.100 -29.093   4.716  1.00  0.00     0.118 C 
BRANCH  29  30
ATOM     30  O   UNL     1      50.885 -28.528   5.983  1.00  0.00    -0.393 OA
ATOM     31  H   UNL     1      50.129 -29.027   6.393  1.00  0.00     0.210 HD
ENDBRANCH  29  30
ENDBRANCH   9  11
ENDBRANCH   1   9
TORSDOF 7
ENDMDL
MODEL 9
REMARK VINA RESULT:    -7.283      6.149     12.518
REMARK INTER + INTRA:         -11.445
REMARK INTER:                  -9.803
REMARK INTRA:                  -1.641
REMARK UNBOUND:                -1.394
REMARK SMILES CC[C@@H](CC[C@@H](C)[C@H]1CC[C@H]2[C@@H]3CC=C4C[C@H](O)CC[C@@]4(C)[C@@H]3CC[C@]12C)C(C)C
REMARK SMILES IDX 5 1 4 2 3 3 2 4 1 5 28 6 29 7 30 8 6 9 7 10 8 11 9 12 26 13
REMARK SMILES IDX 10 14 11 15 25 16 27 17 12 18 24 19 23 20 13 21 21 22 14 23
REMARK SMILES IDX 15 24 20 25 22 26 16 27 19 28 17 29 18 30
REMARK H PARENT 18 31
REMARK Flexibility Score: inf
ROOT
ATOM      1  C   UNL     1      53.056 -33.220  -8.609  1.00  0.00     0.004 C 
ENDROOT
BRANCH   1   2
ATOM      2  C   UNL     1      51.866 -34.049  -9.170  1.00  0.00     0.004 C 
BRANCH   2   3
ATOM      3  C   UNL     1      50.704 -34.497  -8.211  1.00  0.00    -0.009 C 
BRANCH   3   4
ATOM      4  C   UNL     1      50.136 -33.387  -7.286  1.00  0.00     0.000 C 
ATOM      5  C   UNL     1      49.444 -32.267  -8.069  1.00  0.00     0.004 C 
ENDBRANCH   3   4
BRANCH   3   6
ATOM      6  C   UNL     1      50.961 -35.828  -7.426  1.00  0.00    -0.014 C 
ATOM      7  C   UNL     1      49.710 -36.333  -6.684  1.00  0.00     0.007 C 
ATOM      8  C   UNL     1      51.570 -36.953  -8.268  1.00  0.00     0.007 C 
ENDBRANCH   3   6
ENDBRANCH   2   3
ENDBRANCH   1   2
BRANCH   1   9
ATOM      9  C   UNL     1      53.706 -33.732  -7.292  1.00  0.00    -0.011 C 
ATOM     10  C   UNL     1      55.061 -34.401  -7.603  1.00  0.00     0.008 C 
BRANCH   9  11
ATOM     11  C   UNL     1      53.892 -32.556  -6.268  1.00  0.00    -0.002 C 
ATOM     12  C   UNL     1      53.153 -31.257  -6.691  1.00  0.00     0.005 C 
ATOM     13  C   UNL     1      53.419 -32.782  -4.795  1.00  0.00    -0.026 C 
ATOM     14  C   UNL     1      52.731 -30.528  -5.410  1.00  0.00     0.005 C 
ATOM     15  C   UNL     1      53.381 -31.326  -4.291  1.00  0.00    -0.001 C 
ATOM     16  C   UNL     1      54.403 -33.596  -3.893  1.00  0.00     0.007 C 
ATOM     17  C   UNL     1      52.005 -33.450  -4.774  1.00  0.00     0.012 C 
ATOM     18  C   UNL     1      52.775 -31.193  -2.875  1.00  0.00     0.000 C 
ATOM     19  C   UNL     1      54.650 -32.971  -2.496  1.00  0.00     0.005 C 
ATOM     20  C   UNL     1      53.399 -32.258  -1.892  1.00  0.00     0.003 C 
ATOM     21  C   UNL     1      52.909 -29.758  -2.354  1.00  0.00     0.031 C 
ATOM     22  C   UNL     1      53.625 -31.757  -0.394  1.00  0.00    -0.008 C 
ATOM     23  C   UNL     1      52.370 -29.674  -0.961  1.00  0.00    -0.027 C 
ATOM     24  C   UNL     1      52.651 -30.620  -0.045  1.00  0.00    -0.065 C 
ATOM     25  C   UNL     1      53.397 -32.970   0.567  1.00  0.00     0.014 C 
ATOM     26  C   UNL     1      55.064 -31.214  -0.171  1.00  0.00     0.016 C 
ATOM     27  C   UNL     1      52.254 -30.350   1.396  1.00  0.00     0.063 C 
ATOM     28  C   UNL     1      53.242 -32.572   2.037  1.00  0.00     0.033 C 
ATOM     29  C   UNL     1      52.041 -31.635   2.200  1.00  0.00     0.118 C 
BRANCH  29  30
ATOM     30  O   UNL     1      51.873 -31.302   3.553  1.00  0.00    -0.393 OA
ATOM     31  H   UNL     1      51.985 -30.317   3.621  1.00  0.00     0.210 HD
ENDBRANCH  29  30
ENDBRANCH   9  11
ENDBRANCH   1   9
TORSDOF 7
ENDMDL
