MODEL 1
REMARK VINA RESULT:    -4.028      0.000      0.000
REMARK INTER + INTRA:          -8.872
REMARK INTER:                  -6.854
REMARK INTRA:                  -2.018
REMARK UNBOUND:                -2.018
REMARK SMILES CCCCCCCCCCCCCC(=O)[O-]
REMARK SMILES IDX 8 1 9 2 10 3 11 4 12 5 13 6 14 7 15 8 16 9 7 10 6 11 5 12
REMARK SMILES IDX 4 13 3 14 2 15 1 16
REMARK H PARENT
REMARK Flexibility Score: inf
ROOT
ATOM      1  C   UNL     1      20.217  32.122  44.228  1.00  0.00     0.000 C 
ENDROOT
BRANCH   1   2
ATOM      2  C   UNL     1      19.010  31.191  44.031  1.00  0.00     0.000 C 
BRANCH   2   3
ATOM      3  C   UNL     1      18.768  30.270  45.236  1.00  0.00     0.000 C 
BRANCH   3   4
ATOM      4  C   UNL     1      18.135  31.044  46.400  1.00  0.00     0.000 C 
BRANCH   4   5
ATOM      5  C   UNL     1      18.598  30.485  47.751  1.00  0.00     0.006 C 
BRANCH   5   6
ATOM      6  C   UNL     1      19.814  29.571  47.579  1.00  0.00     0.053 C 
BRANCH   6   7
ATOM      7  C   UNL     1      20.241  29.013  48.899  1.00  0.00     0.041 C 
ATOM      8  O   UNL     1      19.392  28.496  49.673  1.00  0.00    -0.550 OA
ATOM      9  O   UNL     1      21.568  29.107  49.299  1.00  0.00    -0.550 OA
ENDBRANCH   6   7
ENDBRANCH   5   6
ENDBRANCH   4   5
ENDBRANCH   3   4
ENDBRANCH   2   3
ENDBRANCH   1   2
BRANCH   1  10
ATOM     10  C   UNL     1      19.898  33.585  43.875  1.00  0.00     0.000 C 
BRANCH  10  11
ATOM     11  C   UNL     1      20.082  34.543  45.068  1.00  0.00    -0.000 C 
BRANCH  11  12
ATOM     12  C   UNL     1      18.885  34.620  46.034  1.00  0.00    -0.000 C 
BRANCH  12  13
ATOM     13  C   UNL     1      19.217  34.301  47.504  1.00  0.00    -0.000 C 
BRANCH  13  14
ATOM     14  C   UNL     1      20.725  34.384  47.831  1.00  0.00    -0.000 C 
BRANCH  14  15
ATOM     15  C   UNL     1      21.325  33.058  48.331  1.00  0.00    -0.003 C 
ATOM     16  C   UNL     1      22.172  32.360  47.267  1.00  0.00     0.004 C 
ENDBRANCH  14  15
ENDBRANCH  13  14
ENDBRANCH  12  13
ENDBRANCH  11  12
ENDBRANCH  10  11
ENDBRANCH   1  10
TORSDOF 12
ENDMDL
MODEL 2
REMARK VINA RESULT:    -4.010      1.688      2.005
REMARK INTER + INTRA:          -8.841
REMARK INTER:                  -7.015
REMARK INTRA:                  -1.825
REMARK UNBOUND:                -2.018
REMARK SMILES CCCCCCCCCCCCCC(=O)[O-]
REMARK SMILES IDX 8 1 9 2 10 3 11 4 12 5 13 6 14 7 15 8 16 9 7 10 6 11 5 12
REMARK SMILES IDX 4 13 3 14 2 15 1 16
REMARK H PARENT
REMARK Flexibility Score: inf
ROOT
ATOM      1  C   UNL     1      18.706  32.683  44.465  1.00  0.00     0.000 C 
ENDROOT
BRANCH   1   2
ATOM      2  C   UNL     1      19.202  31.229  44.429  1.00  0.00     0.000 C 
BRANCH   2   3
ATOM      3  C   UNL     1      18.629  30.378  45.573  1.00  0.00     0.000 C 
BRANCH   3   4
ATOM      4  C   UNL     1      17.944  31.260  46.624  1.00  0.00     0.000 C 
BRANCH   4   5
ATOM      5  C   UNL     1      18.670  31.178  47.972  1.00  0.00     0.006 C 
BRANCH   5   6
ATOM      6  C   UNL     1      17.895  31.926  49.060  1.00  0.00     0.053 C 
BRANCH   6   7
ATOM      7  C   UNL     1      18.508  31.681  50.402  1.00  0.00     0.041 C 
ATOM      8  O   UNL     1      18.482  32.580  51.284  1.00  0.00    -0.550 OA
ATOM      9  O   UNL     1      19.153  30.479  50.664  1.00  0.00    -0.550 OA
ENDBRANCH   6   7
ENDBRANCH   5   6
ENDBRANCH   4   5
ENDBRANCH   3   4
ENDBRANCH   2   3
ENDBRANCH   1   2
BRANCH   1  10
ATOM     10  C   UNL     1      19.765  33.681  43.965  1.00  0.00     0.000 C 
BRANCH  10  11
ATOM     11  C   UNL     1      20.101  34.768  45.004  1.00  0.00    -0.000 C 
BRANCH  11  12
ATOM     12  C   UNL     1      19.033  34.984  46.092  1.00  0.00    -0.000 C 
BRANCH  12  13
ATOM     13  C   UNL     1      19.564  34.950  47.538  1.00  0.00    -0.000 C 
BRANCH  13  14
ATOM     14  C   UNL     1      20.823  34.071  47.715  1.00  0.00    -0.000 C 
BRANCH  14  15
ATOM     15  C   UNL     1      21.277  33.927  49.178  1.00  0.00    -0.003 C 
ATOM     16  C   UNL     1      22.006  32.609  49.439  1.00  0.00     0.004 C 
ENDBRANCH  14  15
ENDBRANCH  13  14
ENDBRANCH  12  13
ENDBRANCH  11  12
ENDBRANCH  10  11
ENDBRANCH   1  10
TORSDOF 12
ENDMDL
MODEL 3
REMARK VINA RESULT:    -3.944      0.968      1.726
REMARK INTER + INTRA:          -8.730
REMARK INTER:                  -6.793
REMARK INTRA:                  -1.937
REMARK UNBOUND:                -2.018
REMARK SMILES CCCCCCCCCCCCCC(=O)[O-]
REMARK SMILES IDX 8 1 9 2 10 3 11 4 12 5 13 6 14 7 15 8 16 9 7 10 6 11 5 12
REMARK SMILES IDX 4 13 3 14 2 15 1 16
REMARK H PARENT
REMARK Flexibility Score: inf
ROOT
ATOM      1  C   UNL     1      20.394  33.600  44.393  1.00  0.00     0.000 C 
ENDROOT
BRANCH   1   2
ATOM      2  C   UNL     1      19.147  32.728  44.176  1.00  0.00     0.000 C 
BRANCH   2   3
ATOM      3  C   UNL     1      19.493  31.258  43.891  1.00  0.00     0.000 C 
BRANCH   3   4
ATOM      4  C   UNL     1      18.570  30.315  44.672  1.00  0.00     0.000 C 
BRANCH   4   5
ATOM      5  C   UNL     1      18.427  30.766  46.131  1.00  0.00     0.006 C 
BRANCH   5   6
ATOM      6  C   UNL     1      19.569  30.216  46.989  1.00  0.00     0.053 C 
BRANCH   6   7
ATOM      7  C   UNL     1      19.107  29.990  48.394  1.00  0.00     0.041 C 
ATOM      8  O   UNL     1      19.379  28.911  48.984  1.00  0.00    -0.550 OA
ATOM      9  O   UNL     1      18.333  30.949  49.035  1.00  0.00    -0.550 OA
ENDBRANCH   6   7
ENDBRANCH   5   6
ENDBRANCH   4   5
ENDBRANCH   3   4
ENDBRANCH   2   3
ENDBRANCH   1   2
BRANCH   1  10
ATOM     10  C   UNL     1      20.117  34.809  45.305  1.00  0.00     0.000 C 
BRANCH  10  11
ATOM     11  C   UNL     1      18.824  34.653  46.129  1.00  0.00    -0.000 C 
BRANCH  11  12
ATOM     12  C   UNL     1      19.018  34.075  47.544  1.00  0.00    -0.000 C 
BRANCH  12  13
ATOM     13  C   UNL     1      20.357  34.436  48.213  1.00  0.00    -0.000 C 
BRANCH  13  14
ATOM     14  C   UNL     1      21.238  33.208  48.538  1.00  0.00    -0.000 C 
BRANCH  14  15
ATOM     15  C   UNL     1      22.582  33.195  47.787  1.00  0.00    -0.003 C 
ATOM     16  C   UNL     1      22.677  32.052  46.777  1.00  0.00     0.004 C 
ENDBRANCH  14  15
ENDBRANCH  13  14
ENDBRANCH  12  13
ENDBRANCH  11  12
ENDBRANCH  10  11
ENDBRANCH   1  10
TORSDOF 12
ENDMDL
MODEL 4
REMARK VINA RESULT:    -3.887      1.234      2.310
REMARK INTER + INTRA:          -8.633
REMARK INTER:                  -6.910
REMARK INTRA:                  -1.723
REMARK UNBOUND:                -2.018
REMARK SMILES CCCCCCCCCCCCCC(=O)[O-]
REMARK SMILES IDX 8 1 9 2 10 3 11 4 12 5 13 6 14 7 15 8 16 9 7 10 6 11 5 12
REMARK SMILES IDX 4 13 3 14 2 15 1 16
REMARK H PARENT
REMARK Flexibility Score: inf
ROOT
ATOM      1  C   UNL     1      20.035  34.702  44.770  1.00  0.00     0.000 C 
ENDROOT
BRANCH   1   2
ATOM      2  C   UNL     1      20.218  33.441  43.911  1.00  0.00     0.000 C 
BRANCH   2   3
ATOM      3  C   UNL     1      19.001  32.504  43.964  1.00  0.00     0.000 C 
BRANCH   3   4
ATOM      4  C   UNL     1      19.435  31.035  43.875  1.00  0.00     0.000 C 
BRANCH   4   5
ATOM      5  C   UNL     1      18.706  30.181  44.920  1.00  0.00     0.006 C 
BRANCH   5   6
ATOM      6  C   UNL     1      18.625  30.908  46.264  1.00  0.00     0.053 C 
BRANCH   6   7
ATOM      7  C   UNL     1      18.879  29.956  47.391  1.00  0.00     0.041 C 
ATOM      8  O   UNL     1      18.091  29.913  48.373  1.00  0.00    -0.550 OA
ATOM      9  O   UNL     1      20.011  29.153  47.381  1.00  0.00    -0.550 OA
ENDBRANCH   6   7
ENDBRANCH   5   6
ENDBRANCH   4   5
ENDBRANCH   3   4
ENDBRANCH   2   3
ENDBRANCH   1   2
BRANCH   1  10
ATOM     10  C   UNL     1      18.939  34.534  45.838  1.00  0.00     0.000 C 
BRANCH  10  11
ATOM     11  C   UNL     1      19.279  35.245  47.162  1.00  0.00    -0.000 C 
BRANCH  11  12
ATOM     12  C   UNL     1      19.639  34.310  48.332  1.00  0.00    -0.000 C 
BRANCH  12  13
ATOM     13  C   UNL     1      21.001  34.593  48.993  1.00  0.00    -0.000 C 
BRANCH  13  14
ATOM     14  C   UNL     1      22.144  33.696  48.467  1.00  0.00    -0.000 C 
BRANCH  14  15
ATOM     15  C   UNL     1      21.674  32.604  47.490  1.00  0.00    -0.003 C 
ATOM     16  C   UNL     1      22.732  32.258  46.442  1.00  0.00     0.004 C 
ENDBRANCH  14  15
ENDBRANCH  13  14
ENDBRANCH  12  13
ENDBRANCH  11  12
ENDBRANCH  10  11
ENDBRANCH   1  10
TORSDOF 12
ENDMDL
MODEL 5
REMARK VINA RESULT:    -3.875      1.083      2.056
REMARK INTER + INTRA:          -8.612
REMARK INTER:                  -6.779
REMARK INTRA:                  -1.833
REMARK UNBOUND:                -2.018
REMARK SMILES CCCCCCCCCCCCCC(=O)[O-]
REMARK SMILES IDX 8 1 9 2 10 3 11 4 12 5 13 6 14 7 15 8 16 9 7 10 6 11 5 12
REMARK SMILES IDX 4 13 3 14 2 15 1 16
REMARK H PARENT
REMARK Flexibility Score: inf
ROOT
ATOM      1  C   UNL     1      19.109  31.942  44.621  1.00  0.00     0.000 C 
ENDROOT
BRANCH   1   2
ATOM      2  C   UNL     1      18.699  30.597  44.000  1.00  0.00     0.000 C 
BRANCH   2   3
ATOM      3  C   UNL     1      18.503  29.494  45.051  1.00  0.00     0.000 C 
BRANCH   3   4
ATOM      4  C   UNL     1      18.396  30.090  46.460  1.00  0.00     0.000 C 
BRANCH   4   5
ATOM      5  C   UNL     1      19.401  29.434  47.415  1.00  0.00     0.006 C 
BRANCH   5   6
ATOM      6  C   UNL     1      19.475  30.194  48.741  1.00  0.00     0.053 C 
BRANCH   6   7
ATOM      7  C   UNL     1      20.745  29.869  49.461  1.00  0.00     0.041 C 
ATOM      8  O   UNL     1      21.048  28.670  49.701  1.00  0.00    -0.550 OA
ATOM      9  O   UNL     1      21.571  30.890  49.912  1.00  0.00    -0.550 OA
ENDBRANCH   6   7
ENDBRANCH   5   6
ENDBRANCH   4   5
ENDBRANCH   3   4
ENDBRANCH   2   3
ENDBRANCH   1   2
BRANCH   1  10
ATOM     10  C   UNL     1      20.282  32.603  43.875  1.00  0.00     0.000 C 
BRANCH  10  11
ATOM     11  C   UNL     1      21.533  32.772  44.758  1.00  0.00    -0.000 C 
BRANCH  11  12
ATOM     12  C   UNL     1      21.393  32.242  46.197  1.00  0.00    -0.000 C 
BRANCH  12  13
ATOM     13  C   UNL     1      21.402  33.327  47.291  1.00  0.00    -0.000 C 
BRANCH  13  14
ATOM     14  C   UNL     1      20.016  33.574  47.930  1.00  0.00    -0.000 C 
BRANCH  14  15
ATOM     15  C   UNL     1      19.486  35.004  47.727  1.00  0.00    -0.003 C 
ATOM     16  C   UNL     1      18.887  35.215  46.337  1.00  0.00     0.004 C 
ENDBRANCH  14  15
ENDBRANCH  13  14
ENDBRANCH  12  13
ENDBRANCH  11  12
ENDBRANCH  10  11
ENDBRANCH   1  10
TORSDOF 12
ENDMDL
MODEL 6
REMARK VINA RESULT:    -3.860     10.673     12.512
REMARK INTER + INTRA:          -8.587
REMARK INTER:                  -6.472
REMARK INTRA:                  -2.114
REMARK UNBOUND:                -2.018
REMARK SMILES CCCCCCCCCCCCCC(=O)[O-]
REMARK SMILES IDX 8 1 9 2 10 3 11 4 12 5 13 6 14 7 15 8 16 9 7 10 6 11 5 12
REMARK SMILES IDX 4 13 3 14 2 15 1 16
REMARK H PARENT
REMARK Flexibility Score: inf
ROOT
ATOM      1  C   UNL     1      27.481  37.357  46.717  1.00  0.00     0.000 C 
ENDROOT
BRANCH   1   2
ATOM      2  C   UNL     1      27.627  37.569  48.232  1.00  0.00     0.000 C 
BRANCH   2   3
ATOM      3  C   UNL     1      26.751  38.717  48.758  1.00  0.00     0.000 C 
BRANCH   3   4
ATOM      4  C   UNL     1      26.337  39.657  47.619  1.00  0.00     0.000 C 
BRANCH   4   5
ATOM      5  C   UNL     1      26.802  41.093  47.892  1.00  0.00     0.006 C 
BRANCH   5   6
ATOM      6  C   UNL     1      26.853  41.909  46.598  1.00  0.00     0.053 C 
BRANCH   6   7
ATOM      7  C   UNL     1      26.127  43.206  46.768  1.00  0.00     0.041 C 
ATOM      8  O   UNL     1      25.660  43.807  45.764  1.00  0.00    -0.550 OA
ATOM      9  O   UNL     1      26.009  43.778  48.028  1.00  0.00    -0.550 OA
ENDBRANCH   6   7
ENDBRANCH   5   6
ENDBRANCH   4   5
ENDBRANCH   3   4
ENDBRANCH   2   3
ENDBRANCH   1   2
BRANCH   1  10
ATOM     10  C   UNL     1      28.784  36.867  46.062  1.00  0.00     0.000 C 
BRANCH  10  11
ATOM     11  C   UNL     1      29.141  37.648  44.782  1.00  0.00    -0.000 C 
BRANCH  11  12
ATOM     12  C   UNL     1      28.480  39.034  44.657  1.00  0.00    -0.000 C 
BRANCH  12  13
ATOM     13  C   UNL     1      29.462  40.221  44.634  1.00  0.00    -0.000 C 
BRANCH  13  14
ATOM     14  C   UNL     1      30.681  40.034  45.566  1.00  0.00    -0.000 C 
BRANCH  14  15
ATOM     15  C   UNL     1      30.389  40.366  47.040  1.00  0.00    -0.003 C 
ATOM     16  C   UNL     1      30.915  39.296  47.997  1.00  0.00     0.004 C 
ENDBRANCH  14  15
ENDBRANCH  13  14
ENDBRANCH  12  13
ENDBRANCH  11  12
ENDBRANCH  10  11
ENDBRANCH   1  10
TORSDOF 12
ENDMDL
MODEL 7
REMARK VINA RESULT:    -3.818     10.999     13.185
REMARK INTER + INTRA:          -8.515
REMARK INTER:                  -6.684
REMARK INTRA:                  -1.830
REMARK UNBOUND:                -2.018
REMARK SMILES CCCCCCCCCCCCCC(=O)[O-]
REMARK SMILES IDX 8 1 9 2 10 3 11 4 12 5 13 6 14 7 15 8 16 9 7 10 6 11 5 12
REMARK SMILES IDX 4 13 3 14 2 15 1 16
REMARK H PARENT
REMARK Flexibility Score: inf
ROOT
ATOM      1  C   UNL     1      27.798  41.599  45.275  1.00  0.00     0.000 C 
ENDROOT
BRANCH   1   2
ATOM      2  C   UNL     1      27.573  43.088  44.966  1.00  0.00     0.000 C 
BRANCH   2   3
ATOM      3  C   UNL     1      26.461  43.711  45.824  1.00  0.00     0.000 C 
BRANCH   3   4
ATOM      4  C   UNL     1      26.037  42.758  46.949  1.00  0.00     0.000 C 
BRANCH   4   5
ATOM      5  C   UNL     1      26.384  43.341  48.325  1.00  0.00     0.006 C 
BRANCH   5   6
ATOM      6  C   UNL     1      27.167  42.331  49.167  1.00  0.00     0.053 C 
BRANCH   6   7
ATOM      7  C   UNL     1      28.632  42.439  48.886  1.00  0.00     0.041 C 
ATOM      8  O   UNL     1      29.083  43.424  48.243  1.00  0.00    -0.550 OA
ATOM      9  O   UNL     1      29.495  41.428  49.290  1.00  0.00    -0.550 OA
ENDBRANCH   6   7
ENDBRANCH   5   6
ENDBRANCH   4   5
ENDBRANCH   3   4
ENDBRANCH   2   3
ENDBRANCH   1   2
BRANCH   1  10
ATOM     10  C   UNL     1      28.467  40.850  44.109  1.00  0.00     0.000 C 
BRANCH  10  11
ATOM     11  C   UNL     1      29.596  39.910  44.571  1.00  0.00    -0.000 C 
BRANCH  11  12
ATOM     12  C   UNL     1      30.071  40.123  46.021  1.00  0.00    -0.000 C 
BRANCH  12  13
ATOM     13  C   UNL     1      29.941  38.887  46.933  1.00  0.00    -0.000 C 
BRANCH  13  14
ATOM     14  C   UNL     1      28.539  38.238  46.901  1.00  0.00    -0.000 C 
BRANCH  14  15
ATOM     15  C   UNL     1      27.565  38.815  47.943  1.00  0.00    -0.003 C 
ATOM     16  C   UNL     1      26.167  39.053  47.372  1.00  0.00     0.004 C 
ENDBRANCH  14  15
ENDBRANCH  13  14
ENDBRANCH  12  13
ENDBRANCH  11  12
ENDBRANCH  10  11
ENDBRANCH   1  10
TORSDOF 12
ENDMDL
MODEL 8
REMARK VINA RESULT:    -3.809      1.877      2.871
REMARK INTER + INTRA:          -8.500
REMARK INTER:                  -6.789
REMARK INTRA:                  -1.711
REMARK UNBOUND:                -2.018
REMARK SMILES CCCCCCCCCCCCCC(=O)[O-]
REMARK SMILES IDX 8 1 9 2 10 3 11 4 12 5 13 6 14 7 15 8 16 9 7 10 6 11 5 12
REMARK SMILES IDX 4 13 3 14 2 15 1 16
REMARK H PARENT
REMARK Flexibility Score: inf
ROOT
ATOM      1  C   UNL     1      18.715  30.378  45.212  1.00  0.00     0.000 C 
ENDROOT
BRANCH   1   2
ATOM      2  C   UNL     1      17.900  31.288  46.145  1.00  0.00     0.000 C 
BRANCH   2   3
ATOM      3  C   UNL     1      18.144  30.985  47.631  1.00  0.00     0.000 C 
BRANCH   3   4
ATOM      4  C   UNL     1      19.630  30.713  47.899  1.00  0.00     0.000 C 
BRANCH   4   5
ATOM      5  C   UNL     1      19.844  30.172  49.318  1.00  0.00     0.006 C 
BRANCH   5   6
ATOM      6  C   UNL     1      18.994  30.942  50.333  1.00  0.00     0.053 C 
BRANCH   6   7
ATOM      7  C   UNL     1      19.816  31.987  51.018  1.00  0.00     0.041 C 
ATOM      8  O   UNL     1      19.254  32.913  51.662  1.00  0.00    -0.550 OA
ATOM      9  O   UNL     1      21.200  31.969  50.906  1.00  0.00    -0.550 OA
ENDBRANCH   6   7
ENDBRANCH   5   6
ENDBRANCH   4   5
ENDBRANCH   3   4
ENDBRANCH   2   3
ENDBRANCH   1   2
BRANCH   1  10
ATOM     10  C   UNL     1      19.061  31.060  43.877  1.00  0.00     0.000 C 
BRANCH  10  11
ATOM     11  C   UNL     1      20.285  31.990  43.980  1.00  0.00    -0.000 C 
BRANCH  11  12
ATOM     12  C   UNL     1      19.972  33.495  43.883  1.00  0.00    -0.000 C 
BRANCH  12  13
ATOM     13  C   UNL     1      20.476  34.341  45.068  1.00  0.00    -0.000 C 
BRANCH  13  14
ATOM     14  C   UNL     1      19.342  34.898  45.958  1.00  0.00    -0.000 C 
BRANCH  14  15
ATOM     15  C   UNL     1      19.441  34.465  47.431  1.00  0.00    -0.003 C 
ATOM     16  C   UNL     1      20.870  34.116  47.845  1.00  0.00     0.004 C 
ENDBRANCH  14  15
ENDBRANCH  13  14
ENDBRANCH  12  13
ENDBRANCH  11  12
ENDBRANCH  10  11
ENDBRANCH   1  10
TORSDOF 12
ENDMDL
MODEL 9
REMARK VINA RESULT:    -3.734      2.091      4.112
REMARK INTER + INTRA:          -8.372
REMARK INTER:                  -6.661
REMARK INTRA:                  -1.711
REMARK UNBOUND:                -2.018
REMARK SMILES CCCCCCCCCCCCCC(=O)[O-]
REMARK SMILES IDX 8 1 9 2 10 3 11 4 12 5 13 6 14 7 15 8 16 9 7 10 6 11 5 12
REMARK SMILES IDX 4 13 3 14 2 15 1 16
REMARK H PARENT
REMARK Flexibility Score: inf
ROOT
ATOM      1  C   UNL     1      20.134  34.688  45.179  1.00  0.00     0.000 C 
ENDROOT
BRANCH   1   2
ATOM      2  C   UNL     1      18.905  34.561  46.092  1.00  0.00     0.000 C 
BRANCH   2   3
ATOM      3  C   UNL     1      19.263  34.644  47.584  1.00  0.00     0.000 C 
BRANCH   3   4
ATOM      4  C   UNL     1      20.642  34.030  47.853  1.00  0.00     0.000 C 
BRANCH   4   5
ATOM      5  C   UNL     1      21.039  34.187  49.326  1.00  0.00     0.006 C 
BRANCH   5   6
ATOM      6  C   UNL     1      20.823  32.882  50.095  1.00  0.00     0.053 C 
BRANCH   6   7
ATOM      7  C   UNL     1      19.713  33.035  51.086  1.00  0.00     0.041 C 
ATOM      8  O   UNL     1      19.873  33.747  52.112  1.00  0.00    -0.550 OA
ATOM      9  O   UNL     1      18.517  32.352  50.902  1.00  0.00    -0.550 OA
ENDBRANCH   6   7
ENDBRANCH   5   6
ENDBRANCH   4   5
ENDBRANCH   3   4
ENDBRANCH   2   3
ENDBRANCH   1   2
BRANCH   1  10
ATOM     10  C   UNL     1      20.034  33.797  43.928  1.00  0.00     0.000 C 
BRANCH  10  11
ATOM     11  C   UNL     1      20.459  32.340  44.195  1.00  0.00    -0.000 C 
BRANCH  11  12
ATOM     12  C   UNL     1      19.387  31.280  43.879  1.00  0.00    -0.000 C 
BRANCH  12  13
ATOM     13  C   UNL     1      18.797  30.567  45.111  1.00  0.00    -0.000 C 
BRANCH  13  14
ATOM     14  C   UNL     1      19.557  30.868  46.424  1.00  0.00    -0.000 C 
BRANCH  14  15
ATOM     15  C   UNL     1      18.661  30.853  47.674  1.00  0.00    -0.003 C 
ATOM     16  C   UNL     1      19.143  29.856  48.729  1.00  0.00     0.004 C 
ENDBRANCH  14  15
ENDBRANCH  13  14
ENDBRANCH  12  13
ENDBRANCH  11  12
ENDBRANCH  10  11
ENDBRANCH   1  10
TORSDOF 12
ENDMDL
