MODEL 1
REMARK VINA RESULT:     4.637      0.000      0.000
REMARK INTER + INTRA:           7.278
REMARK INTER:                   7.619
REMARK INTRA:                  -0.340
REMARK UNBOUND:                -0.340
REMARK SMILES C[C@H]1O[C@H](OC[C@@H]2O[C@@H](Oc3c(-c4ccc(O)c(O)c4)oc4cc(O)cc(O)c4c3=O)[C@H](O)[C@H](O)[C@H]2O)[C@H](O)[C@@H](O)[C@@H]1O
REMARK SMILES IDX 7 1 36 2 34 3 32 4 9 5 8 6 6 7 5 8 4 9 1 10 2 11 42 12 3 13
REMARK SMILES IDX 40 14 38 15 43 16 41 18 39 20 37 22 35 24 10 26 11 27 12 28
REMARK SMILES IDX 30 29 21 30 29 31 31 32 22 33 27 34 23 35 26 36 24 37 13 38
REMARK SMILES IDX 20 39 14 40 18 41 15 42 16 43 19 44 17 46 28 48 25 50 33 52
REMARK H PARENT 43 17 41 19 39 21 37 23 35 25 19 45 17 47 28 49 25 51 33 53
REMARK Flexibility Score: inf
ROOT
ATOM      1  C   UNL     1       8.184  -1.888  16.622  1.00  0.00     0.180 C 
ATOM      2  C   UNL     1       7.187  -3.022  17.023  1.00  0.00     0.177 C 
ATOM      3  C   UNL     1       6.919  -2.907  18.519  1.00  0.00     0.180 C 
ATOM      4  C   UNL     1       8.232  -3.147  19.286  1.00  0.00     0.214 C 
ATOM      5  C   UNL     1       9.439  -2.456  18.596  1.00  0.00     0.339 C 
ATOM      6  O   UNL     1       9.058  -1.448  17.667  1.00  0.00    -0.332 OA
ENDROOT
BRANCH   1   7
ATOM      7  C   UNL     1       8.939  -2.182  15.307  1.00  0.00     0.198 C 
BRANCH   7   8
ATOM      8  O   UNL     1       9.094  -1.023  14.496  1.00  0.00    -0.347 OA
BRANCH   8   9
ATOM      9  C   UNL     1       9.242  -1.336  13.112  1.00  0.00     0.281 C 
ATOM     10  C   UNL     1       8.769   1.523  10.770  1.00  0.00     0.041 C 
ATOM     11  C   UNL     1       9.523   0.401  11.481  1.00  0.00     0.150 C 
ATOM     12  C   UNL     1      10.108  -0.602  10.475  1.00  0.00     0.174 C 
ATOM     13  O   UNL     1       8.638  -0.272  12.358  1.00  0.00    -0.344 OA
ATOM     14  C   UNL     1      10.992  -1.640  11.210  1.00  0.00     0.179 C 
ATOM     15  C   UNL     1      10.732  -1.670  12.743  1.00  0.00     0.202 C 
BRANCH  12  16
ATOM     16  O   UNL     1      10.820   0.048   9.448  1.00  0.00    -0.388 OA
ATOM     17  H   UNL     1      10.191   0.238   8.691  1.00  0.00     0.211 HD
ENDBRANCH  12  16
BRANCH  14  18
ATOM     18  O   UNL     1      10.782  -2.920  10.663  1.00  0.00    -0.387 OA
ATOM     19  H   UNL     1       9.808  -3.099  10.707  1.00  0.00     0.211 HD
ENDBRANCH  14  18
BRANCH  15  20
ATOM     20  O   UNL     1      11.591  -0.763  13.397  1.00  0.00    -0.385 OA
ATOM     21  H   UNL     1      12.070  -1.275  14.106  1.00  0.00     0.211 HD
ENDBRANCH  15  20
ENDBRANCH   8   9
ENDBRANCH   7   8
ENDBRANCH   1   7
BRANCH   2  22
ATOM     22  O   UNL     1       5.972  -2.881  16.333  1.00  0.00    -0.387 OA
ATOM     23  H   UNL     1       5.781  -3.762  15.912  1.00  0.00     0.211 HD
ENDBRANCH   2  22
BRANCH   3  24
ATOM     24  O   UNL     1       5.928  -3.819  18.922  1.00  0.00    -0.387 OA
ATOM     25  H   UNL     1       5.212  -3.764  18.232  1.00  0.00     0.211 HD
ENDBRANCH   3  24
BRANCH   5  26
ATOM     26  O   UNL     1      10.212  -1.832  19.624  1.00  0.00    -0.454 OA
BRANCH  26  27
ATOM     27  C   UNL     1      11.558  -1.481  19.481  1.00  0.00     0.214 A 
ATOM     28  C   UNL     1      11.923  -0.138  19.265  1.00  0.00     0.180 A 
ATOM     29  C   UNL     1      12.573  -2.432  19.658  1.00  0.00     0.239 A 
ATOM     30  O   UNL     1      13.204   0.195  19.133  1.00  0.00    -0.452 OA
ATOM     31  C   UNL     1      13.924  -2.045  19.540  1.00  0.00     0.111 A 
ATOM     32  O   UNL     1      12.263  -3.616  19.961  1.00  0.00    -0.285 OA
ATOM     33  C   UNL     1      14.193  -0.691  19.229  1.00  0.00     0.146 A 
ATOM     34  C   UNL     1      15.001  -2.934  19.743  1.00  0.00     0.134 A 
ATOM     35  C   UNL     1      15.507  -0.259  19.037  1.00  0.00     0.094 A 
ATOM     36  C   UNL     1      16.316  -2.480  19.557  1.00  0.00     0.093 A 
ATOM     37  C   UNL     1      16.569  -1.155  19.176  1.00  0.00     0.123 A 
BRANCH  28  38
ATOM     38  C   UNL     1      10.912   0.938  19.244  1.00  0.00     0.025 A 
ATOM     39  C   UNL     1       9.828   0.854  18.360  1.00  0.00     0.062 A 
ATOM     40  C   UNL     1      11.007   2.026  20.125  1.00  0.00     0.016 A 
ATOM     41  C   UNL     1       8.860   1.866  18.329  1.00  0.00     0.158 A 
ATOM     42  C   UNL     1      10.038   3.035  20.102  1.00  0.00     0.051 A 
ATOM     43  C   UNL     1       8.969   2.966  19.201  1.00  0.00     0.157 A 
BRANCH  41  44
ATOM     44  O   UNL     1       7.789   1.778  17.450  1.00  0.00    -0.504 OA
ATOM     45  H   UNL     1       7.425   0.881  17.140  1.00  0.00     0.293 HD
ENDBRANCH  41  44
BRANCH  43  46
ATOM     46  O   UNL     1       8.028   3.991  19.196  1.00  0.00    -0.504 OA
ATOM     47  H   UNL     1       7.028   3.794  19.205  1.00  0.00     0.293 HD
ENDBRANCH  43  46
ENDBRANCH  28  38
BRANCH  34  48
ATOM     48  O   UNL     1      14.779  -4.257  20.123  1.00  0.00    -0.507 OA
ATOM     49  H   UNL     1      15.446  -4.769  20.675  1.00  0.00     0.293 HD
ENDBRANCH  34  48
BRANCH  37  50
ATOM     50  O   UNL     1      17.878  -0.751  18.924  1.00  0.00    -0.508 OA
ATOM     51  H   UNL     1      18.671  -1.359  19.121  1.00  0.00     0.293 HD
ENDBRANCH  37  50
ENDBRANCH  26  27
ENDBRANCH   5  26
BRANCH   4  52
ATOM     52  O   UNL     1       8.502  -4.531  19.387  1.00  0.00    -0.384 OA
ATOM     53  H   UNL     1       7.878  -5.001  18.775  1.00  0.00     0.211 HD
ENDBRANCH   4  52
TORSDOF 16
ENDMDL
