MODEL 1
REMARK VINA RESULT:    -3.191      0.000      0.000
REMARK INTER + INTRA:         -10.580
REMARK INTER:                  -6.923
REMARK INTRA:                  -3.657
REMARK UNBOUND:                -3.657
REMARK SMILES CCCCCCCCCCCCCCCCCCCCCC(=O)[O-]
REMARK SMILES IDX 12 1 11 2 10 3 9 4 8 5 7 6 6 7 5 8 4 9 3 10 2 11 1 12 13 13
REMARK SMILES IDX 14 14 15 15 16 16 17 17 18 18 19 19 20 20 21 21 22 22 23 23
REMARK SMILES IDX 24 24
REMARK H PARENT
REMARK Flexibility Score: inf
ROOT
ATOM      1  C   UNL     1       4.754   1.943  -5.953  1.00  0.00     0.000 C 
ENDROOT
BRANCH   1   2
ATOM      2  C   UNL     1       5.498   0.934  -5.060  1.00  0.00     0.000 C 
BRANCH   2   3
ATOM      3  C   UNL     1       5.377  -0.513  -5.564  1.00  0.00     0.000 C 
BRANCH   3   4
ATOM      4  C   UNL     1       6.735  -1.126  -5.954  1.00  0.00    -0.000 C 
BRANCH   4   5
ATOM      5  C   UNL     1       7.457  -0.437  -7.131  1.00  0.00    -0.000 C 
BRANCH   5   6
ATOM      6  C   UNL     1       8.803   0.223  -6.781  1.00  0.00    -0.000 C 
BRANCH   6   7
ATOM      7  C   UNL     1       9.058   1.512  -7.579  1.00  0.00    -0.000 C 
BRANCH   7   8
ATOM      8  C   UNL     1       7.985   1.774  -8.653  1.00  0.00    -0.000 C 
BRANCH   8   9
ATOM      9  C   UNL     1       8.348   2.850  -9.694  1.00  0.00    -0.000 C 
BRANCH   9  10
ATOM     10  C   UNL     1       7.491   4.128  -9.643  1.00  0.00    -0.000 C 
BRANCH  10  11
ATOM     11  C   UNL     1       6.946   4.457  -8.236  1.00  0.00    -0.003 C 
ATOM     12  C   UNL     1       5.772   5.434  -8.270  1.00  0.00     0.004 C 
ENDBRANCH  10  11
ENDBRANCH   9  10
ENDBRANCH   8   9
ENDBRANCH   7   8
ENDBRANCH   6   7
ENDBRANCH   5   6
ENDBRANCH   4   5
ENDBRANCH   3   4
ENDBRANCH   2   3
ENDBRANCH   1   2
BRANCH   1  13
ATOM     13  C   UNL     1       3.911   1.324  -7.087  1.00  0.00     0.000 C 
BRANCH  13  14
ATOM     14  C   UNL     1       4.165   1.910  -8.488  1.00  0.00     0.000 C 
BRANCH  14  15
ATOM     15  C   UNL     1       4.719   0.913  -9.523  1.00  0.00     0.000 C 
BRANCH  15  16
ATOM     16  C   UNL     1       4.248  -0.541  -9.307  1.00  0.00     0.000 C 
BRANCH  16  17
ATOM     17  C   UNL     1       5.268  -1.578  -9.807  1.00  0.00     0.000 C 
BRANCH  17  18
ATOM     18  C   UNL     1       5.295  -2.853  -8.947  1.00  0.00     0.000 C 
BRANCH  18  19
ATOM     19  C   UNL     1       6.693  -3.497  -8.841  1.00  0.00     0.000 C 
BRANCH  19  20
ATOM     20  C   UNL     1       6.668  -4.816  -8.054  1.00  0.00     0.006 C 
BRANCH  20  21
ATOM     21  C   UNL     1       6.079  -4.611  -6.655  1.00  0.00     0.053 C 
BRANCH  21  22
ATOM     22  C   UNL     1       7.121  -4.844  -5.607  1.00  0.00     0.041 C 
ATOM     23  O   UNL     1       8.254  -5.290  -5.928  1.00  0.00    -0.550 OA
ATOM     24  O   UNL     1       6.826  -4.611  -4.269  1.00  0.00    -0.550 OA
ENDBRANCH  21  22
ENDBRANCH  20  21
ENDBRANCH  19  20
ENDBRANCH  18  19
ENDBRANCH  17  18
ENDBRANCH  16  17
ENDBRANCH  15  16
ENDBRANCH  14  15
ENDBRANCH  13  14
ENDBRANCH   1  13
TORSDOF 20
ENDMDL
MODEL 2
REMARK VINA RESULT:    -3.167      1.295      2.828
REMARK INTER + INTRA:         -10.525
REMARK INTER:                  -7.800
REMARK INTRA:                  -2.725
REMARK UNBOUND:                -3.657
REMARK SMILES CCCCCCCCCCCCCCCCCCCCCC(=O)[O-]
REMARK SMILES IDX 12 1 11 2 10 3 9 4 8 5 7 6 6 7 5 8 4 9 3 10 2 11 1 12 13 13
REMARK SMILES IDX 14 14 15 15 16 16 17 17 18 18 19 19 20 20 21 21 22 22 23 23
REMARK SMILES IDX 24 24
REMARK H PARENT
REMARK Flexibility Score: inf
ROOT
ATOM      1  C   UNL     1       7.322   0.292  -6.503  1.00  0.00     0.000 C 
ENDROOT
BRANCH   1   2
ATOM      2  C   UNL     1       6.303  -0.429  -5.603  1.00  0.00     0.000 C 
BRANCH   2   3
ATOM      3  C   UNL     1       5.220   0.513  -5.052  1.00  0.00     0.000 C 
BRANCH   3   4
ATOM      4  C   UNL     1       4.133   0.846  -6.091  1.00  0.00    -0.000 C 
BRANCH   4   5
ATOM      5  C   UNL     1       4.173   2.282  -6.653  1.00  0.00    -0.000 C 
BRANCH   5   6
ATOM      6  C   UNL     1       4.037   2.395  -8.182  1.00  0.00    -0.000 C 
BRANCH   6   7
ATOM      7  C   UNL     1       5.156   3.237  -8.817  1.00  0.00    -0.000 C 
BRANCH   7   8
ATOM      8  C   UNL     1       5.802   4.222  -7.825  1.00  0.00    -0.000 C 
BRANCH   8   9
ATOM      9  C   UNL     1       6.378   5.504  -8.457  1.00  0.00    -0.000 C 
BRANCH   9  10
ATOM     10  C   UNL     1       5.333   6.545  -8.899  1.00  0.00    -0.000 C 
BRANCH  10  11
ATOM     11  C   UNL     1       5.658   7.985  -8.447  1.00  0.00    -0.003 C 
ATOM     12  C   UNL     1       5.159   8.289  -7.034  1.00  0.00     0.004 C 
ENDBRANCH  10  11
ENDBRANCH   9  10
ENDBRANCH   8   9
ENDBRANCH   7   8
ENDBRANCH   6   7
ENDBRANCH   5   6
ENDBRANCH   4   5
ENDBRANCH   3   4
ENDBRANCH   2   3
ENDBRANCH   1   2
BRANCH   1  13
ATOM     13  C   UNL     1       7.627  -0.407  -7.844  1.00  0.00     0.000 C 
BRANCH  13  14
ATOM     14  C   UNL     1       7.117   0.327  -9.098  1.00  0.00     0.000 C 
BRANCH  14  15
ATOM     15  C   UNL     1       6.033  -0.421  -9.898  1.00  0.00     0.000 C 
BRANCH  15  16
ATOM     16  C   UNL     1       4.938  -1.063  -9.020  1.00  0.00     0.000 C 
BRANCH  16  17
ATOM     17  C   UNL     1       4.550  -2.475  -9.491  1.00  0.00     0.000 C 
BRANCH  17  18
ATOM     18  C   UNL     1       5.766  -3.399  -9.676  1.00  0.00     0.000 C 
BRANCH  18  19
ATOM     19  C   UNL     1       6.001  -4.356  -8.488  1.00  0.00     0.000 C 
BRANCH  19  20
ATOM     20  C   UNL     1       6.216  -3.602  -7.168  1.00  0.00     0.006 C 
BRANCH  20  21
ATOM     21  C   UNL     1       5.850  -4.479  -5.967  1.00  0.00     0.053 C 
BRANCH  21  22
ATOM     22  C   UNL     1       7.083  -4.912  -5.238  1.00  0.00     0.041 C 
ATOM     23  O   UNL     1       8.094  -5.303  -5.879  1.00  0.00    -0.550 OA
ATOM     24  O   UNL     1       7.101  -4.926  -3.848  1.00  0.00    -0.550 OA
ENDBRANCH  21  22
ENDBRANCH  20  21
ENDBRANCH  19  20
ENDBRANCH  18  19
ENDBRANCH  17  18
ENDBRANCH  16  17
ENDBRANCH  15  16
ENDBRANCH  14  15
ENDBRANCH  13  14
ENDBRANCH   1  13
TORSDOF 20
ENDMDL
MODEL 3
REMARK VINA RESULT:    -3.135      4.139      7.751
REMARK INTER + INTRA:         -10.456
REMARK INTER:                  -6.993
REMARK INTRA:                  -3.464
REMARK UNBOUND:                -3.657
REMARK SMILES CCCCCCCCCCCCCCCCCCCCCC(=O)[O-]
REMARK SMILES IDX 12 1 11 2 10 3 9 4 8 5 7 6 6 7 5 8 4 9 3 10 2 11 1 12 13 13
REMARK SMILES IDX 14 14 15 15 16 16 17 17 18 18 19 19 20 20 21 21 22 22 23 23
REMARK SMILES IDX 24 24
REMARK H PARENT
REMARK Flexibility Score: inf
ROOT
ATOM      1  C   UNL     1       6.915  -0.896  -5.761  1.00  0.00     0.000 C 
ENDROOT
BRANCH   1   2
ATOM      2  C   UNL     1       8.046  -0.608  -6.765  1.00  0.00     0.000 C 
BRANCH   2   3
ATOM      3  C   UNL     1       8.053   0.849  -7.257  1.00  0.00     0.000 C 
BRANCH   3   4
ATOM      4  C   UNL     1       7.471   1.003  -8.674  1.00  0.00    -0.000 C 
BRANCH   4   5
ATOM      5  C   UNL     1       7.036  -0.310  -9.357  1.00  0.00    -0.000 C 
BRANCH   5   6
ATOM      6  C   UNL     1       5.516  -0.551  -9.411  1.00  0.00    -0.000 C 
BRANCH   6   7
ATOM      7  C   UNL     1       5.122  -1.963  -8.948  1.00  0.00    -0.000 C 
BRANCH   7   8
ATOM      8  C   UNL     1       6.228  -3.006  -9.199  1.00  0.00    -0.000 C 
BRANCH   8   9
ATOM      9  C   UNL     1       6.640  -3.833  -7.965  1.00  0.00    -0.000 C 
BRANCH   9  10
ATOM     10  C   UNL     1       5.479  -4.277  -7.056  1.00  0.00    -0.000 C 
BRANCH  10  11
ATOM     11  C   UNL     1       5.727  -4.012  -5.555  1.00  0.00    -0.003 C 
ATOM     12  C   UNL     1       6.926  -4.786  -5.008  1.00  0.00     0.004 C 
ENDBRANCH  10  11
ENDBRANCH   9  10
ENDBRANCH   8   9
ENDBRANCH   7   8
ENDBRANCH   6   7
ENDBRANCH   5   6
ENDBRANCH   4   5
ENDBRANCH   3   4
ENDBRANCH   2   3
ENDBRANCH   1   2
BRANCH   1  13
ATOM     13  C   UNL     1       6.026   0.314  -5.406  1.00  0.00     0.000 C 
BRANCH  13  14
ATOM     14  C   UNL     1       4.510   0.042  -5.420  1.00  0.00     0.000 C 
BRANCH  14  15
ATOM     15  C   UNL     1       3.688   0.972  -6.332  1.00  0.00     0.000 C 
BRANCH  15  16
ATOM     16  C   UNL     1       4.469   2.202  -6.841  1.00  0.00     0.000 C 
BRANCH  16  17
ATOM     17  C   UNL     1       4.031   2.646  -8.247  1.00  0.00     0.000 C 
BRANCH  17  18
ATOM     18  C   UNL     1       5.073   3.536  -8.945  1.00  0.00     0.000 C 
BRANCH  18  19
ATOM     19  C   UNL     1       5.832   4.471  -7.979  1.00  0.00     0.000 C 
BRANCH  19  20
ATOM     20  C   UNL     1       6.345   5.738  -8.680  1.00  0.00     0.006 C 
BRANCH  20  21
ATOM     21  C   UNL     1       5.610   6.983  -8.175  1.00  0.00     0.053 C 
BRANCH  21  22
ATOM     22  C   UNL     1       4.706   7.526  -9.237  1.00  0.00     0.041 C 
ATOM     23  O   UNL     1       4.793   8.732  -9.588  1.00  0.00    -0.550 OA
ATOM     24  O   UNL     1       3.737   6.710  -9.809  1.00  0.00    -0.550 OA
ENDBRANCH  21  22
ENDBRANCH  20  21
ENDBRANCH  19  20
ENDBRANCH  18  19
ENDBRANCH  17  18
ENDBRANCH  16  17
ENDBRANCH  15  16
ENDBRANCH  14  15
ENDBRANCH  13  14
ENDBRANCH   1  13
TORSDOF 20
ENDMDL
MODEL 4
REMARK VINA RESULT:    -3.113      1.156      2.972
REMARK INTER + INTRA:         -10.408
REMARK INTER:                  -7.109
REMARK INTRA:                  -3.300
REMARK UNBOUND:                -3.657
REMARK SMILES CCCCCCCCCCCCCCCCCCCCCC(=O)[O-]
REMARK SMILES IDX 12 1 11 2 10 3 9 4 8 5 7 6 6 7 5 8 4 9 3 10 2 11 1 12 13 13
REMARK SMILES IDX 14 14 15 15 16 16 17 17 18 18 19 19 20 20 21 21 22 22 23 23
REMARK SMILES IDX 24 24
REMARK H PARENT
REMARK Flexibility Score: inf
ROOT
ATOM      1  C   UNL     1       4.860  -0.019  -5.146  1.00  0.00     0.000 C 
ENDROOT
BRANCH   1   2
ATOM      2  C   UNL     1       4.975   1.393  -5.749  1.00  0.00     0.000 C 
BRANCH   2   3
ATOM      3  C   UNL     1       3.763   1.775  -6.614  1.00  0.00     0.000 C 
BRANCH   3   4
ATOM      4  C   UNL     1       4.161   2.488  -7.919  1.00  0.00    -0.000 C 
BRANCH   4   5
ATOM      5  C   UNL     1       5.660   2.827  -8.056  1.00  0.00    -0.000 C 
BRANCH   5   6
ATOM      6  C   UNL     1       6.020   4.311  -7.860  1.00  0.00    -0.000 C 
BRANCH   6   7
ATOM      7  C   UNL     1       6.397   5.010  -9.177  1.00  0.00    -0.000 C 
BRANCH   7   8
ATOM      8  C   UNL     1       7.875   5.442  -9.225  1.00  0.00    -0.000 C 
BRANCH   8   9
ATOM      9  C   UNL     1       8.793   4.752  -8.197  1.00  0.00    -0.000 C 
BRANCH   9  10
ATOM     10  C   UNL     1       9.777   3.723  -8.784  1.00  0.00    -0.000 C 
BRANCH  10  11
ATOM     11  C   UNL     1       9.467   2.265  -8.381  1.00  0.00    -0.003 C 
ATOM     12  C   UNL     1       9.063   2.130  -6.913  1.00  0.00     0.004 C 
ENDBRANCH  10  11
ENDBRANCH   9  10
ENDBRANCH   8   9
ENDBRANCH   7   8
ENDBRANCH   6   7
ENDBRANCH   5   6
ENDBRANCH   4   5
ENDBRANCH   3   4
ENDBRANCH   2   3
ENDBRANCH   1   2
BRANCH   1  13
ATOM     13  C   UNL     1       5.569  -1.135  -5.941  1.00  0.00     0.000 C 
BRANCH  13  14
ATOM     14  C   UNL     1       6.709  -0.663  -6.862  1.00  0.00     0.000 C 
BRANCH  14  15
ATOM     15  C   UNL     1       6.437  -0.814  -8.370  1.00  0.00     0.000 C 
BRANCH  15  16
ATOM     16  C   UNL     1       4.951  -1.048  -8.719  1.00  0.00     0.000 C 
BRANCH  16  17
ATOM     17  C   UNL     1       4.712  -2.386  -9.438  1.00  0.00     0.000 C 
BRANCH  17  18
ATOM     18  C   UNL     1       6.011  -3.171  -9.687  1.00  0.00     0.000 C 
BRANCH  18  19
ATOM     19  C   UNL     1       6.048  -4.544  -8.982  1.00  0.00     0.000 C 
BRANCH  19  20
ATOM     20  C   UNL     1       5.934  -4.417  -7.455  1.00  0.00     0.006 C 
BRANCH  20  21
ATOM     21  C   UNL     1       7.313  -4.481  -6.792  1.00  0.00     0.053 C 
BRANCH  21  22
ATOM     22  C   UNL     1       7.221  -5.142  -5.453  1.00  0.00     0.041 C 
ATOM     23  O   UNL     1       6.492  -4.650  -4.551  1.00  0.00    -0.550 OA
ATOM     24  O   UNL     1       7.974  -6.279  -5.185  1.00  0.00    -0.550 OA
ENDBRANCH  21  22
ENDBRANCH  20  21
ENDBRANCH  19  20
ENDBRANCH  18  19
ENDBRANCH  17  18
ENDBRANCH  16  17
ENDBRANCH  15  16
ENDBRANCH  14  15
ENDBRANCH  13  14
ENDBRANCH   1  13
TORSDOF 20
ENDMDL
MODEL 5
REMARK VINA RESULT:    -3.043      1.705      3.396
REMARK INTER + INTRA:         -10.258
REMARK INTER:                  -7.588
REMARK INTRA:                  -2.670
REMARK UNBOUND:                -3.657
REMARK SMILES CCCCCCCCCCCCCCCCCCCCCC(=O)[O-]
REMARK SMILES IDX 12 1 11 2 10 3 9 4 8 5 7 6 6 7 5 8 4 9 3 10 2 11 1 12 13 13
REMARK SMILES IDX 14 14 15 15 16 16 17 17 18 18 19 19 20 20 21 21 22 22 23 23
REMARK SMILES IDX 24 24
REMARK H PARENT
REMARK Flexibility Score: inf
ROOT
ATOM      1  C   UNL     1       4.500   0.032  -5.286  1.00  0.00     0.000 C 
ENDROOT
BRANCH   1   2
ATOM      2  C   UNL     1       3.675   0.869  -6.279  1.00  0.00     0.000 C 
BRANCH   2   3
ATOM      3  C   UNL     1       4.399   2.147  -6.733  1.00  0.00     0.000 C 
BRANCH   3   4
ATOM      4  C   UNL     1       4.317   2.373  -8.254  1.00  0.00    -0.000 C 
BRANCH   4   5
ATOM      5  C   UNL     1       5.558   3.031  -8.892  1.00  0.00    -0.000 C 
BRANCH   5   6
ATOM      6  C   UNL     1       6.523   3.713  -7.904  1.00  0.00    -0.000 C 
BRANCH   6   7
ATOM      7  C   UNL     1       6.850   5.163  -8.299  1.00  0.00    -0.000 C 
BRANCH   7   8
ATOM      8  C   UNL     1       5.602   6.064  -8.356  1.00  0.00    -0.000 C 
BRANCH   8   9
ATOM      9  C   UNL     1       5.883   7.555  -8.624  1.00  0.00    -0.000 C 
BRANCH   9  10
ATOM     10  C   UNL     1       5.016   8.541  -7.818  1.00  0.00    -0.000 C 
BRANCH  10  11
ATOM     11  C   UNL     1       5.540   8.806  -6.390  1.00  0.00    -0.003 C 
ATOM     12  C   UNL     1       4.557   8.361  -5.308  1.00  0.00     0.004 C 
ENDBRANCH  10  11
ENDBRANCH   9  10
ENDBRANCH   8   9
ENDBRANCH   7   8
ENDBRANCH   6   7
ENDBRANCH   5   6
ENDBRANCH   4   5
ENDBRANCH   3   4
ENDBRANCH   2   3
ENDBRANCH   1   2
BRANCH   1  13
ATOM     13  C   UNL     1       6.025   0.262  -5.339  1.00  0.00     0.000 C 
BRANCH  13  14
ATOM     14  C   UNL     1       6.800  -0.690  -6.269  1.00  0.00     0.000 C 
BRANCH  14  15
ATOM     15  C   UNL     1       7.273  -0.066  -7.596  1.00  0.00     0.000 C 
BRANCH  15  16
ATOM     16  C   UNL     1       6.558  -0.629  -8.843  1.00  0.00     0.000 C 
BRANCH  16  17
ATOM     17  C   UNL     1       5.334  -1.491  -8.488  1.00  0.00     0.000 C 
BRANCH  17  18
ATOM     18  C   UNL     1       5.014  -2.545  -9.562  1.00  0.00     0.000 C 
BRANCH  18  19
ATOM     19  C   UNL     1       5.317  -3.991  -9.118  1.00  0.00     0.000 C 
BRANCH  19  20
ATOM     20  C   UNL     1       5.472  -4.111  -7.595  1.00  0.00     0.006 C 
BRANCH  20  21
ATOM     21  C   UNL     1       6.901  -4.509  -7.216  1.00  0.00     0.053 C 
BRANCH  21  22
ATOM     22  C   UNL     1       6.989  -4.820  -5.755  1.00  0.00     0.041 C 
ATOM     23  O   UNL     1       7.929  -5.536  -5.315  1.00  0.00    -0.550 OA
ATOM     24  O   UNL     1       6.010  -4.358  -4.884  1.00  0.00    -0.550 OA
ENDBRANCH  21  22
ENDBRANCH  20  21
ENDBRANCH  19  20
ENDBRANCH  18  19
ENDBRANCH  17  18
ENDBRANCH  16  17
ENDBRANCH  15  16
ENDBRANCH  14  15
ENDBRANCH  13  14
ENDBRANCH   1  13
TORSDOF 20
ENDMDL
MODEL 6
REMARK VINA RESULT:    -3.035      4.354      7.979
REMARK INTER + INTRA:         -10.241
REMARK INTER:                  -6.983
REMARK INTRA:                  -3.257
REMARK UNBOUND:                -3.657
REMARK SMILES CCCCCCCCCCCCCCCCCCCCCC(=O)[O-]
REMARK SMILES IDX 12 1 11 2 10 3 9 4 8 5 7 6 6 7 5 8 4 9 3 10 2 11 1 12 13 13
REMARK SMILES IDX 14 14 15 15 16 16 17 17 18 18 19 19 20 20 21 21 22 22 23 23
REMARK SMILES IDX 24 24
REMARK H PARENT
REMARK Flexibility Score: inf
ROOT
ATOM      1  C   UNL     1       4.880  -0.181  -5.378  1.00  0.00     0.000 C 
ENDROOT
BRANCH   1   2
ATOM      2  C   UNL     1       6.301  -0.756  -5.511  1.00  0.00     0.000 C 
BRANCH   2   3
ATOM      3  C   UNL     1       7.201   0.080  -6.436  1.00  0.00     0.000 C 
BRANCH   3   4
ATOM      4  C   UNL     1       7.445  -0.593  -7.799  1.00  0.00    -0.000 C 
BRANCH   4   5
ATOM      5  C   UNL     1       6.877   0.161  -9.020  1.00  0.00    -0.000 C 
BRANCH   5   6
ATOM      6  C   UNL     1       5.678  -0.513  -9.711  1.00  0.00    -0.000 C 
BRANCH   6   7
ATOM      7  C   UNL     1       5.042  -1.619  -8.853  1.00  0.00    -0.000 C 
BRANCH   7   8
ATOM      8  C   UNL     1       5.213  -3.024  -9.462  1.00  0.00    -0.000 C 
BRANCH   8   9
ATOM      9  C   UNL     1       5.234  -4.181  -8.445  1.00  0.00    -0.000 C 
BRANCH   9  10
ATOM     10  C   UNL     1       6.278  -4.047  -7.320  1.00  0.00    -0.000 C 
BRANCH  10  11
ATOM     11  C   UNL     1       5.697  -4.249  -5.905  1.00  0.00    -0.003 C 
ATOM     12  C   UNL     1       6.775  -4.516  -4.855  1.00  0.00     0.004 C 
ENDBRANCH  10  11
ENDBRANCH   9  10
ENDBRANCH   8   9
ENDBRANCH   7   8
ENDBRANCH   6   7
ENDBRANCH   5   6
ENDBRANCH   4   5
ENDBRANCH   3   4
ENDBRANCH   2   3
ENDBRANCH   1   2
BRANCH   1  13
ATOM     13  C   UNL     1       4.735   1.309  -5.748  1.00  0.00     0.000 C 
BRANCH  13  14
ATOM     14  C   UNL     1       3.790   1.604  -6.928  1.00  0.00     0.000 C 
BRANCH  14  15
ATOM     15  C   UNL     1       4.342   2.587  -7.977  1.00  0.00     0.000 C 
BRANCH  15  16
ATOM     16  C   UNL     1       5.569   3.391  -7.498  1.00  0.00     0.000 C 
BRANCH  16  17
ATOM     17  C   UNL     1       6.461   3.863  -8.659  1.00  0.00     0.000 C 
BRANCH  17  18
ATOM     18  C   UNL     1       5.653   4.362  -9.869  1.00  0.00     0.000 C 
BRANCH  18  19
ATOM     19  C   UNL     1       5.101   5.793  -9.696  1.00  0.00     0.000 C 
BRANCH  19  20
ATOM     20  C   UNL     1       6.138   6.745  -9.081  1.00  0.00     0.006 C 
BRANCH  20  21
ATOM     21  C   UNL     1       5.568   7.460  -7.852  1.00  0.00     0.053 C 
BRANCH  21  22
ATOM     22  C   UNL     1       6.273   8.761  -7.629  1.00  0.00     0.041 C 
ATOM     23  O   UNL     1       6.724   9.413  -8.608  1.00  0.00    -0.550 OA
ATOM     24  O   UNL     1       6.470   9.233  -6.337  1.00  0.00    -0.550 OA
ENDBRANCH  21  22
ENDBRANCH  20  21
ENDBRANCH  19  20
ENDBRANCH  18  19
ENDBRANCH  17  18
ENDBRANCH  16  17
ENDBRANCH  15  16
ENDBRANCH  14  15
ENDBRANCH  13  14
ENDBRANCH   1  13
TORSDOF 20
ENDMDL
MODEL 7
REMARK VINA RESULT:    -2.997      4.230      7.121
REMARK INTER + INTRA:         -10.158
REMARK INTER:                  -6.449
REMARK INTRA:                  -3.709
REMARK UNBOUND:                -3.657
REMARK SMILES CCCCCCCCCCCCCCCCCCCCCC(=O)[O-]
REMARK SMILES IDX 12 1 11 2 10 3 9 4 8 5 7 6 6 7 5 8 4 9 3 10 2 11 1 12 13 13
REMARK SMILES IDX 14 14 15 15 16 16 17 17 18 18 19 19 20 20 21 21 22 22 23 23
REMARK SMILES IDX 24 24
REMARK H PARENT
REMARK Flexibility Score: inf
ROOT
ATOM      1  C   UNL     1       5.616  -1.738  -5.630  1.00  0.00     0.000 C 
ENDROOT
BRANCH   1   2
ATOM      2  C   UNL     1       6.612  -2.904  -5.768  1.00  0.00     0.000 C 
BRANCH   2   3
ATOM      3  C   UNL     1       6.011  -4.122  -6.488  1.00  0.00     0.000 C 
BRANCH   3   4
ATOM      4  C   UNL     1       6.293  -4.121  -8.001  1.00  0.00    -0.000 C 
BRANCH   4   5
ATOM      5  C   UNL     1       5.047  -4.023  -8.906  1.00  0.00    -0.000 C 
BRANCH   5   6
ATOM      6  C   UNL     1       4.976  -2.770  -9.796  1.00  0.00    -0.000 C 
BRANCH   6   7
ATOM      7  C   UNL     1       4.835  -1.472  -8.985  1.00  0.00    -0.000 C 
BRANCH   7   8
ATOM      8  C   UNL     1       5.220  -0.217  -9.790  1.00  0.00    -0.000 C 
BRANCH   8   9
ATOM      9  C   UNL     1       6.734   0.011  -9.964  1.00  0.00    -0.000 C 
BRANCH   9  10
ATOM     10  C   UNL     1       7.536   0.123  -8.653  1.00  0.00    -0.000 C 
BRANCH  10  11
ATOM     11  C   UNL     1       8.444  -1.093  -8.373  1.00  0.00    -0.003 C 
ATOM     12  C   UNL     1       8.774  -1.889  -9.636  1.00  0.00     0.004 C 
ENDBRANCH  10  11
ENDBRANCH   9  10
ENDBRANCH   8   9
ENDBRANCH   7   8
ENDBRANCH   6   7
ENDBRANCH   5   6
ENDBRANCH   4   5
ENDBRANCH   3   4
ENDBRANCH   2   3
ENDBRANCH   1   2
BRANCH   1  13
ATOM     13  C   UNL     1       6.252  -0.355  -5.377  1.00  0.00     0.000 C 
BRANCH  13  14
ATOM     14  C   UNL     1       5.253   0.801  -5.186  1.00  0.00     0.000 C 
BRANCH  14  15
ATOM     15  C   UNL     1       4.070   0.813  -6.173  1.00  0.00     0.000 C 
BRANCH  15  16
ATOM     16  C   UNL     1       4.038   2.049  -7.098  1.00  0.00     0.000 C 
BRANCH  16  17
ATOM     17  C   UNL     1       5.381   2.799  -7.134  1.00  0.00     0.000 C 
BRANCH  17  18
ATOM     18  C   UNL     1       5.705   3.376  -8.523  1.00  0.00     0.000 C 
BRANCH  18  19
ATOM     19  C   UNL     1       4.482   3.450  -9.462  1.00  0.00     0.000 C 
BRANCH  19  20
ATOM     20  C   UNL     1       4.330   4.833 -10.112  1.00  0.00     0.006 C 
BRANCH  20  21
ATOM     21  C   UNL     1       5.173   5.881  -9.380  1.00  0.00     0.053 C 
BRANCH  21  22
ATOM     22  C   UNL     1       4.415   7.164  -9.246  1.00  0.00     0.041 C 
ATOM     23  O   UNL     1       4.853   8.085  -8.505  1.00  0.00    -0.550 OA
ATOM     24  O   UNL     1       3.201   7.327  -9.902  1.00  0.00    -0.550 OA
ENDBRANCH  21  22
ENDBRANCH  20  21
ENDBRANCH  19  20
ENDBRANCH  18  19
ENDBRANCH  17  18
ENDBRANCH  16  17
ENDBRANCH  15  16
ENDBRANCH  14  15
ENDBRANCH  13  14
ENDBRANCH   1  13
TORSDOF 20
ENDMDL
MODEL 8
REMARK VINA RESULT:    -2.968      6.001      8.561
REMARK INTER + INTRA:         -10.094
REMARK INTER:                  -8.073
REMARK INTRA:                  -2.021
REMARK UNBOUND:                -3.657
REMARK SMILES CCCCCCCCCCCCCCCCCCCCCC(=O)[O-]
REMARK SMILES IDX 12 1 11 2 10 3 9 4 8 5 7 6 6 7 5 8 4 9 3 10 2 11 1 12 13 13
REMARK SMILES IDX 14 14 15 15 16 16 17 17 18 18 19 19 20 20 21 21 22 22 23 23
REMARK SMILES IDX 24 24
REMARK H PARENT
REMARK Flexibility Score: inf
ROOT
ATOM      1  C   UNL     1       4.641   8.257  -5.517  1.00  0.00     0.000 C 
ENDROOT
BRANCH   1   2
ATOM      2  C   UNL     1       4.748   8.344  -3.984  1.00  0.00     0.000 C 
BRANCH   2   3
ATOM      3  C   UNL     1       4.913   9.786  -3.477  1.00  0.00     0.000 C 
BRANCH   3   4
ATOM      4  C   UNL     1       5.078   9.866  -1.948  1.00  0.00    -0.000 C 
BRANCH   4   5
ATOM      5  C   UNL     1       4.915   8.529  -1.194  1.00  0.00    -0.000 C 
BRANCH   5   6
ATOM      6  C   UNL     1       5.388   8.537   0.271  1.00  0.00    -0.000 C 
BRANCH   6   7
ATOM      7  C   UNL     1       6.214   9.785   0.622  1.00  0.00    -0.000 C 
BRANCH   7   8
ATOM      8  C   UNL     1       7.581   9.443   1.244  1.00  0.00    -0.000 C 
BRANCH   8   9
ATOM      9  C   UNL     1       8.145   8.060   0.866  1.00  0.00    -0.000 C 
BRANCH   9  10
ATOM     10  C   UNL     1       9.136   8.056  -0.313  1.00  0.00    -0.000 C 
BRANCH  10  11
ATOM     11  C   UNL     1       8.600   7.346  -1.575  1.00  0.00    -0.003 C 
ATOM     12  C   UNL     1       8.317   8.314  -2.723  1.00  0.00     0.004 C 
ENDBRANCH  10  11
ENDBRANCH   9  10
ENDBRANCH   8   9
ENDBRANCH   7   8
ENDBRANCH   6   7
ENDBRANCH   5   6
ENDBRANCH   4   5
ENDBRANCH   3   4
ENDBRANCH   2   3
ENDBRANCH   1   2
BRANCH   1  13
ATOM     13  C   UNL     1       5.715   9.042  -6.298  1.00  0.00     0.000 C 
BRANCH  13  14
ATOM     14  C   UNL     1       6.042   8.493  -7.699  1.00  0.00     0.000 C 
BRANCH  14  15
ATOM     15  C   UNL     1       5.390   7.139  -8.038  1.00  0.00     0.000 C 
BRANCH  15  16
ATOM     16  C   UNL     1       6.403   6.020  -8.362  1.00  0.00     0.000 C 
BRANCH  16  17
ATOM     17  C   UNL     1       5.818   4.612  -8.160  1.00  0.00     0.000 C 
BRANCH  17  18
ATOM     18  C   UNL     1       6.897   3.550  -7.885  1.00  0.00     0.000 C 
BRANCH  18  19
ATOM     19  C   UNL     1       6.382   2.339  -7.079  1.00  0.00     0.000 C 
BRANCH  19  20
ATOM     20  C   UNL     1       4.899   2.479  -6.704  1.00  0.00     0.006 C 
BRANCH  20  21
ATOM     21  C   UNL     1       4.305   1.129  -6.291  1.00  0.00     0.053 C 
BRANCH  21  22
ATOM     22  C   UNL     1       5.165   0.472  -5.258  1.00  0.00     0.041 C 
ATOM     23  O   UNL     1       5.666  -0.663  -5.479  1.00  0.00    -0.550 OA
ATOM     24  O   UNL     1       5.377   1.092  -4.033  1.00  0.00    -0.550 OA
ENDBRANCH  21  22
ENDBRANCH  20  21
ENDBRANCH  19  20
ENDBRANCH  18  19
ENDBRANCH  17  18
ENDBRANCH  16  17
ENDBRANCH  15  16
ENDBRANCH  14  15
ENDBRANCH  13  14
ENDBRANCH   1  13
TORSDOF 20
ENDMDL
MODEL 9
REMARK VINA RESULT:    -2.912      2.629      5.836
REMARK INTER + INTRA:          -9.974
REMARK INTER:                  -6.022
REMARK INTRA:                  -3.952
REMARK UNBOUND:                -3.657
REMARK SMILES CCCCCCCCCCCCCCCCCCCCCC(=O)[O-]
REMARK SMILES IDX 12 1 11 2 10 3 9 4 8 5 7 6 6 7 5 8 4 9 3 10 2 11 1 12 13 13
REMARK SMILES IDX 14 14 15 15 16 16 17 17 18 18 19 19 20 20 21 21 22 22 23 23
REMARK SMILES IDX 24 24
REMARK H PARENT
REMARK Flexibility Score: inf
ROOT
ATOM      1  C   UNL     1       6.579  -2.411  -5.566  1.00  0.00     0.000 C 
ENDROOT
BRANCH   1   2
ATOM      2  C   UNL     1       5.660  -3.646  -5.588  1.00  0.00     0.000 C 
BRANCH   2   3
ATOM      3  C   UNL     1       6.383  -4.921  -6.053  1.00  0.00     0.000 C 
BRANCH   3   4
ATOM      4  C   UNL     1       7.880  -4.692  -6.331  1.00  0.00    -0.000 C 
BRANCH   4   5
ATOM      5  C   UNL     1       8.380  -5.183  -7.706  1.00  0.00    -0.000 C 
BRANCH   5   6
ATOM      6  C   UNL     1       9.214  -4.165  -8.505  1.00  0.00    -0.000 C 
BRANCH   6   7
ATOM      7  C   UNL     1       8.964  -2.714  -8.063  1.00  0.00    -0.000 C 
BRANCH   7   8
ATOM      8  C   UNL     1       8.407  -1.830  -9.195  1.00  0.00    -0.000 C 
BRANCH   8   9
ATOM      9  C   UNL     1       7.387  -2.519 -10.122  1.00  0.00    -0.000 C 
BRANCH   9  10
ATOM     10  C   UNL     1       5.911  -2.180  -9.841  1.00  0.00    -0.000 C 
BRANCH  10  11
ATOM     11  C   UNL     1       5.129  -3.321  -9.157  1.00  0.00    -0.003 C 
ATOM     12  C   UNL     1       5.385  -4.683  -9.802  1.00  0.00     0.004 C 
ENDBRANCH  10  11
ENDBRANCH   9  10
ENDBRANCH   8   9
ENDBRANCH   7   8
ENDBRANCH   6   7
ENDBRANCH   5   6
ENDBRANCH   4   5
ENDBRANCH   3   4
ENDBRANCH   2   3
ENDBRANCH   1   2
BRANCH   1  13
ATOM     13  C   UNL     1       6.055  -1.186  -6.343  1.00  0.00     0.000 C 
BRANCH  13  14
ATOM     14  C   UNL     1       4.906  -0.419  -5.663  1.00  0.00     0.000 C 
BRANCH  14  15
ATOM     15  C   UNL     1       5.289   0.959  -5.090  1.00  0.00     0.000 C 
BRANCH  15  16
ATOM     16  C   UNL     1       4.876   2.146  -5.986  1.00  0.00     0.000 C 
BRANCH  16  17
ATOM     17  C   UNL     1       3.689   1.814  -6.906  1.00  0.00     0.000 C 
BRANCH  17  18
ATOM     18  C   UNL     1       4.022   1.988  -8.397  1.00  0.00     0.000 C 
BRANCH  18  19
ATOM     19  C   UNL     1       5.452   2.508  -8.654  1.00  0.00     0.000 C 
BRANCH  19  20
ATOM     20  C   UNL     1       6.417   1.383  -9.056  1.00  0.00     0.006 C 
BRANCH  20  21
ATOM     21  C   UNL     1       7.863   1.886  -9.098  1.00  0.00     0.053 C 
BRANCH  21  22
ATOM     22  C   UNL     1       8.328   2.263  -7.727  1.00  0.00     0.041 C 
ATOM     23  O   UNL     1       8.656   3.452  -7.473  1.00  0.00    -0.550 OA
ATOM     24  O   UNL     1       8.441   1.292  -6.739  1.00  0.00    -0.550 OA
ENDBRANCH  21  22
ENDBRANCH  20  21
ENDBRANCH  19  20
ENDBRANCH  18  19
ENDBRANCH  17  18
ENDBRANCH  16  17
ENDBRANCH  15  16
ENDBRANCH  14  15
ENDBRANCH  13  14
ENDBRANCH   1  13
TORSDOF 20
ENDMDL
