MODEL 1
REMARK VINA RESULT:    -6.893      0.000      0.000
REMARK INTER + INTRA:          -8.312
REMARK INTER:                  -8.102
REMARK INTRA:                  -0.210
REMARK UNBOUND:                -0.210
REMARK SMILES O=c1c(O)c(-c2ccc(O)cc2)oc2cc(O)cc(O)c12
REMARK SMILES IDX 5 1 3 2 2 3 1 4 21 5 19 6 18 7 16 8 15 9 14 10 13 11 6 12
REMARK SMILES IDX 7 13 8 14 9 15 12 16 11 17 10 18 4 20 20 22 17 24
REMARK H PARENT 10 19 4 21 20 23 17 25
REMARK Flexibility Score: inf
ROOT
ATOM      1  C   UNL     1      98.203 104.322 116.167  1.00  0.00     0.180 A 
ATOM      2  C   UNL     1      98.260 103.120 115.439  1.00  0.00     0.208 A 
ATOM      3  C   UNL     1      98.277 101.901 116.136  1.00  0.00     0.238 A 
ATOM      4  O   UNL     1      98.272 100.828 115.477  1.00  0.00    -0.285 OA
ATOM      5  C   UNL     1      98.256 101.898 117.551  1.00  0.00     0.111 A 
ATOM      6  C   UNL     1      98.311 100.724 118.360  1.00  0.00     0.134 A 
ATOM      7  C   UNL     1      98.152 100.832 119.747  1.00  0.00     0.093 A 
ATOM      8  C   UNL     1      98.004 102.079 120.360  1.00  0.00     0.123 A 
ATOM      9  C   UNL     1      98.009 103.236 119.584  1.00  0.00     0.094 A 
ATOM     10  C   UNL     1      98.129 103.157 118.195  1.00  0.00     0.146 A 
ATOM     11  O   UNL     1      98.119 104.284 117.492  1.00  0.00    -0.452 OA
ENDROOT
BRANCH   1  12
ATOM     12  C   UNL     1      98.206 105.645 115.505  1.00  0.00     0.021 A 
ATOM     13  C   UNL     1      99.332 106.489 115.557  1.00  0.00     0.016 A 
ATOM     14  C   UNL     1      99.302 107.746 114.943  1.00  0.00     0.047 A 
ATOM     15  C   UNL     1      98.145 108.181 114.285  1.00  0.00     0.115 A 
ATOM     16  C   UNL     1      97.044 106.099 114.860  1.00  0.00     0.016 A 
ATOM     17  C   UNL     1      97.017 107.356 114.247  1.00  0.00     0.047 A 
BRANCH  15  18
ATOM     18  O   UNL     1      98.104 109.429 113.670  1.00  0.00    -0.508 OA
ATOM     19  H   UNL     1      98.849 110.105 113.795  1.00  0.00     0.293 HD
ENDBRANCH  15  18
ENDBRANCH   1  12
BRANCH   2  20
ATOM     20  O   UNL     1      98.257 103.146 114.041  1.00  0.00    -0.502 OA
ATOM     21  H   UNL     1      98.153 104.004 113.513  1.00  0.00     0.293 HD
ENDBRANCH   2  20
BRANCH   6  22
ATOM     22  O   UNL     1      98.547  99.441 117.857  1.00  0.00    -0.507 OA
ATOM     23  H   UNL     1      99.200  98.781 118.250  1.00  0.00     0.293 HD
ENDBRANCH   6  22
BRANCH   8  24
ATOM     24  O   UNL     1      97.862 102.179 121.742  1.00  0.00    -0.508 OA
ATOM     25  H   UNL     1      97.654 103.063 122.191  1.00  0.00     0.293 HD
ENDBRANCH   8  24
TORSDOF 5
ENDMDL
MODEL 2
REMARK VINA RESULT:    -6.889     10.947     12.332
REMARK INTER + INTRA:          -8.307
REMARK INTER:                  -8.111
REMARK INTRA:                  -0.196
REMARK UNBOUND:                -0.210
REMARK SMILES O=c1c(O)c(-c2ccc(O)cc2)oc2cc(O)cc(O)c12
REMARK SMILES IDX 5 1 3 2 2 3 1 4 21 5 19 6 18 7 16 8 15 9 14 10 13 11 6 12
REMARK SMILES IDX 7 13 8 14 9 15 12 16 11 17 10 18 4 20 20 22 17 24
REMARK H PARENT 10 19 4 21 20 23 17 25
REMARK Flexibility Score: inf
ROOT
ATOM      1  C   UNL     1     109.174 103.132 116.348  1.00  0.00     0.180 A 
ATOM      2  C   UNL     1     109.159 104.340 115.629  1.00  0.00     0.208 A 
ATOM      3  C   UNL     1     109.156 105.553 116.336  1.00  0.00     0.238 A 
ATOM      4  O   UNL     1     109.197 106.631 115.686  1.00  0.00    -0.285 OA
ATOM      5  C   UNL     1     109.152 105.544 117.751  1.00  0.00     0.111 A 
ATOM      6  C   UNL     1     109.108 106.713 118.569  1.00  0.00     0.134 A 
ATOM      7  C   UNL     1     109.239 106.590 119.958  1.00  0.00     0.093 A 
ATOM      8  C   UNL     1     109.348 105.334 120.563  1.00  0.00     0.123 A 
ATOM      9  C   UNL     1     109.331 104.184 119.777  1.00  0.00     0.094 A 
ATOM     10  C   UNL     1     109.238 104.277 118.386  1.00  0.00     0.146 A 
ATOM     11  O   UNL     1     109.236 103.157 117.674  1.00  0.00    -0.452 OA
ENDROOT
BRANCH   1  12
ATOM     12  C   UNL     1     109.154 101.814 115.674  1.00  0.00     0.021 A 
ATOM     13  C   UNL     1     108.021 100.980 115.728  1.00  0.00     0.016 A 
ATOM     14  C   UNL     1     108.034  99.729 115.103  1.00  0.00     0.047 A 
ATOM     15  C   UNL     1     109.182  99.289 114.432  1.00  0.00     0.115 A 
ATOM     16  C   UNL     1     110.307 101.355 115.015  1.00  0.00     0.016 A 
ATOM     17  C   UNL     1     110.317 100.104 114.391  1.00  0.00     0.047 A 
BRANCH  15  18
ATOM     18  O   UNL     1     109.206  98.045 113.805  1.00  0.00    -0.508 OA
ATOM     19  H   UNL     1     108.840  97.917 112.869  1.00  0.00     0.293 HD
ENDBRANCH  15  18
ENDBRANCH   1  12
BRANCH   2  20
ATOM     20  O   UNL     1     109.185 104.326 114.232  1.00  0.00    -0.502 OA
ATOM     21  H   UNL     1     108.345 104.241 113.673  1.00  0.00     0.293 HD
ENDBRANCH   2  20
BRANCH   6  22
ATOM     22  O   UNL     1     108.910 108.004 118.074  1.00  0.00    -0.507 OA
ATOM     23  H   UNL     1     108.583 108.220 117.144  1.00  0.00     0.293 HD
ENDBRANCH   6  22
BRANCH   8  24
ATOM     24  O   UNL     1     109.463 105.220 121.946  1.00  0.00    -0.508 OA
ATOM     25  H   UNL     1     108.963 105.838 122.573  1.00  0.00     0.293 HD
ENDBRANCH   8  24
TORSDOF 5
ENDMDL
MODEL 3
REMARK VINA RESULT:    -6.541      5.155      7.476
REMARK INTER + INTRA:          -7.898
REMARK INTER:                  -7.629
REMARK INTRA:                  -0.269
REMARK UNBOUND:                -0.210
REMARK SMILES O=c1c(O)c(-c2ccc(O)cc2)oc2cc(O)cc(O)c12
REMARK SMILES IDX 5 1 3 2 2 3 1 4 21 5 19 6 18 7 16 8 15 9 14 10 13 11 6 12
REMARK SMILES IDX 7 13 8 14 9 15 12 16 11 17 10 18 4 20 20 22 17 24
REMARK H PARENT 10 19 4 21 20 23 17 25
REMARK Flexibility Score: inf
ROOT
ATOM      1  C   UNL     1     100.487 104.761 112.089  1.00  0.00     0.180 A 
ATOM      2  C   UNL     1     100.829 103.661 112.895  1.00  0.00     0.208 A 
ATOM      3  C   UNL     1     101.654 102.657 112.364  1.00  0.00     0.238 A 
ATOM      4  O   UNL     1     102.001 101.702 113.108  1.00  0.00    -0.285 OA
ATOM      5  C   UNL     1     102.113 102.756 111.029  1.00  0.00     0.111 A 
ATOM      6  C   UNL     1     102.920 101.777 110.375  1.00  0.00     0.134 A 
ATOM      7  C   UNL     1     103.425 102.040 109.095  1.00  0.00     0.093 A 
ATOM      8  C   UNL     1     103.097 103.219 108.420  1.00  0.00     0.123 A 
ATOM      9  C   UNL     1     102.261 104.154 109.027  1.00  0.00     0.094 A 
ATOM     10  C   UNL     1     101.773 103.936 110.317  1.00  0.00     0.146 A 
ATOM     11  O   UNL     1     100.987 104.857 110.863  1.00  0.00    -0.452 OA
ENDROOT
BRANCH   1  12
ATOM     12  C   UNL     1      99.603 105.846 112.570  1.00  0.00     0.021 A 
ATOM     13  C   UNL     1      98.206 105.687 112.617  1.00  0.00     0.016 A 
ATOM     14  C   UNL     1      97.389 106.735 113.053  1.00  0.00     0.047 A 
ATOM     15  C   UNL     1      97.955 107.959 113.432  1.00  0.00     0.115 A 
ATOM     16  C   UNL     1     100.160 107.084 112.932  1.00  0.00     0.016 A 
ATOM     17  C   UNL     1      99.342 108.130 113.368  1.00  0.00     0.047 A 
BRANCH  15  18
ATOM     18  O   UNL     1      97.152 109.009 113.868  1.00  0.00    -0.508 OA
ATOM     19  H   UNL     1      97.040 109.215 114.854  1.00  0.00     0.293 HD
ENDBRANCH  15  18
ENDBRANCH   1  12
BRANCH   2  20
ATOM     20  O   UNL     1     100.383 103.595 114.218  1.00  0.00    -0.502 OA
ATOM     21  H   UNL     1     100.321 104.412 114.813  1.00  0.00     0.293 HD
ENDBRANCH   2  20
BRANCH   6  22
ATOM     22  O   UNL     1     103.230 100.529 110.922  1.00  0.00    -0.507 OA
ATOM     23  H   UNL     1     103.876 100.378 111.682  1.00  0.00     0.293 HD
ENDBRANCH   6  22
BRANCH   8  24
ATOM     24  O   UNL     1     103.591 103.467 107.141  1.00  0.00    -0.508 OA
ATOM     25  H   UNL     1     104.505 103.139 106.853  1.00  0.00     0.293 HD
ENDBRANCH   8  24
TORSDOF 5
ENDMDL
MODEL 4
REMARK VINA RESULT:    -6.541      2.201      6.690
REMARK INTER + INTRA:          -7.898
REMARK INTER:                  -7.750
REMARK INTRA:                  -0.147
REMARK UNBOUND:                -0.210
REMARK SMILES O=c1c(O)c(-c2ccc(O)cc2)oc2cc(O)cc(O)c12
REMARK SMILES IDX 5 1 3 2 2 3 1 4 21 5 19 6 18 7 16 8 15 9 14 10 13 11 6 12
REMARK SMILES IDX 7 13 8 14 9 15 12 16 11 17 10 18 4 20 20 22 17 24
REMARK H PARENT 10 19 4 21 20 23 17 25
REMARK Flexibility Score: inf
ROOT
ATOM      1  C   UNL     1      98.042 102.662 118.548  1.00  0.00     0.180 A 
ATOM      2  C   UNL     1      96.808 102.120 118.148  1.00  0.00     0.208 A 
ATOM      3  C   UNL     1      96.072 102.768 117.143  1.00  0.00     0.238 A 
ATOM      4  O   UNL     1      94.994 102.248 116.752  1.00  0.00    -0.285 OA
ATOM      5  C   UNL     1      96.569 103.960 116.563  1.00  0.00     0.111 A 
ATOM      6  C   UNL     1      95.889 104.722 115.567  1.00  0.00     0.134 A 
ATOM      7  C   UNL     1      96.534 105.812 114.971  1.00  0.00     0.093 A 
ATOM      8  C   UNL     1      97.810 106.207 115.381  1.00  0.00     0.123 A 
ATOM      9  C   UNL     1      98.459 105.505 116.395  1.00  0.00     0.094 A 
ATOM     10  C   UNL     1      97.855 104.391 116.983  1.00  0.00     0.146 A 
ATOM     11  O   UNL     1      98.512 103.744 117.939  1.00  0.00    -0.452 OA
ENDROOT
BRANCH   1  12
ATOM     12  C   UNL     1      98.863 102.049 119.616  1.00  0.00     0.021 A 
ATOM     13  C   UNL     1      99.456 100.784 119.451  1.00  0.00     0.016 A 
ATOM     14  C   UNL     1     100.207 100.214 120.484  1.00  0.00     0.047 A 
ATOM     15  C   UNL     1     100.362 100.894 121.699  1.00  0.00     0.115 A 
ATOM     16  C   UNL     1      99.006 102.713 120.846  1.00  0.00     0.016 A 
ATOM     17  C   UNL     1      99.758 102.142 121.877  1.00  0.00     0.047 A 
BRANCH  15  18
ATOM     18  O   UNL     1     101.108 100.337 122.735  1.00  0.00    -0.508 OA
ATOM     19  H   UNL     1     100.874 100.506 123.706  1.00  0.00     0.293 HD
ENDBRANCH  15  18
ENDBRANCH   1  12
BRANCH   2  20
ATOM     20  O   UNL     1      96.346 100.930 118.719  1.00  0.00    -0.502 OA
ATOM     21  H   UNL     1      95.442 100.860 119.171  1.00  0.00     0.293 HD
ENDBRANCH   2  20
BRANCH   6  22
ATOM     22  O   UNL     1      94.578 104.469 115.152  1.00  0.00    -0.507 OA
ATOM     23  H   UNL     1      94.215 104.680 114.235  1.00  0.00     0.293 HD
ENDBRANCH   6  22
BRANCH   8  24
ATOM     24  O   UNL     1      98.439 107.302 114.793  1.00  0.00    -0.508 OA
ATOM     25  H   UNL     1      98.346 108.235 115.176  1.00  0.00     0.293 HD
ENDBRANCH   8  24
TORSDOF 5
ENDMDL
MODEL 5
REMARK VINA RESULT:    -6.535      4.901      7.094
REMARK INTER + INTRA:          -7.891
REMARK INTER:                  -7.591
REMARK INTRA:                  -0.300
REMARK UNBOUND:                -0.210
REMARK SMILES O=c1c(O)c(-c2ccc(O)cc2)oc2cc(O)cc(O)c12
REMARK SMILES IDX 5 1 3 2 2 3 1 4 21 5 19 6 18 7 16 8 15 9 14 10 13 11 6 12
REMARK SMILES IDX 7 13 8 14 9 15 12 16 11 17 10 18 4 20 20 22 17 24
REMARK H PARENT 10 19 4 21 20 23 17 25
REMARK Flexibility Score: inf
ROOT
ATOM      1  C   UNL     1     101.091 105.288 111.599  1.00  0.00     0.180 A 
ATOM      2  C   UNL     1     100.651 104.175 112.336  1.00  0.00     0.208 A 
ATOM      3  C   UNL     1      99.742 104.370 113.388  1.00  0.00     0.238 A 
ATOM      4  O   UNL     1      99.309 103.364 114.009  1.00  0.00    -0.285 OA
ATOM      5  C   UNL     1      99.297 105.677 113.702  1.00  0.00     0.111 A 
ATOM      6  C   UNL     1      98.409 105.996 114.772  1.00  0.00     0.134 A 
ATOM      7  C   UNL     1      97.934 107.307 114.908  1.00  0.00     0.093 A 
ATOM      8  C   UNL     1      98.367 108.323 114.052  1.00  0.00     0.123 A 
ATOM      9  C   UNL     1      99.281 108.032 113.041  1.00  0.00     0.094 A 
ATOM     10  C   UNL     1      99.744 106.728 112.857  1.00  0.00     0.146 A 
ATOM     11  O   UNL     1     100.606 106.493 111.875  1.00  0.00    -0.452 OA
ENDROOT
BRANCH   1  12
ATOM     12  C   UNL     1     102.067 105.164 110.492  1.00  0.00     0.021 A 
ATOM     13  C   UNL     1     103.452 105.242 110.725  1.00  0.00     0.016 A 
ATOM     14  C   UNL     1     104.354 105.147 109.659  1.00  0.00     0.047 A 
ATOM     15  C   UNL     1     103.883 104.988 108.350  1.00  0.00     0.115 A 
ATOM     16  C   UNL     1     101.603 105.026 109.174  1.00  0.00     0.016 A 
ATOM     17  C   UNL     1     102.506 104.930 108.110  1.00  0.00     0.047 A 
BRANCH  15  18
ATOM     18  O   UNL     1     104.771 104.891 107.282  1.00  0.00    -0.508 OA
ATOM     19  H   UNL     1     104.610 105.386 106.413  1.00  0.00     0.293 HD
ENDBRANCH  15  18
ENDBRANCH   1  12
BRANCH   2  20
ATOM     20  O   UNL     1     101.085 102.891 111.996  1.00  0.00    -0.502 OA
ATOM     21  H   UNL     1     101.927 102.727 111.457  1.00  0.00     0.293 HD
ENDBRANCH   2  20
BRANCH   6  22
ATOM     22  O   UNL     1      97.989 105.077 115.737  1.00  0.00    -0.507 OA
ATOM     23  H   UNL     1      98.591 104.646 116.421  1.00  0.00     0.293 HD
ENDBRANCH   6  22
BRANCH   8  24
ATOM     24  O   UNL     1      97.901 109.627 114.204  1.00  0.00    -0.508 OA
ATOM     25  H   UNL     1      97.969 110.114 115.089  1.00  0.00     0.293 HD
ENDBRANCH   8  24
TORSDOF 5
ENDMDL
MODEL 6
REMARK VINA RESULT:    -6.521     11.482     12.621
REMARK INTER + INTRA:          -7.875
REMARK INTER:                  -7.632
REMARK INTRA:                  -0.243
REMARK UNBOUND:                -0.210
REMARK SMILES O=c1c(O)c(-c2ccc(O)cc2)oc2cc(O)cc(O)c12
REMARK SMILES IDX 5 1 3 2 2 3 1 4 21 5 19 6 18 7 16 8 15 9 14 10 13 11 6 12
REMARK SMILES IDX 7 13 8 14 9 15 12 16 11 17 10 18 4 20 20 22 17 24
REMARK H PARENT 10 19 4 21 20 23 17 25
REMARK Flexibility Score: inf
ROOT
ATOM      1  C   UNL     1     109.443 104.695 118.515  1.00  0.00     0.180 A 
ATOM      2  C   UNL     1     110.684 105.233 118.131  1.00  0.00     0.208 A 
ATOM      3  C   UNL     1     111.421 104.594 117.121  1.00  0.00     0.238 A 
ATOM      4  O   UNL     1     112.505 105.111 116.744  1.00  0.00    -0.285 OA
ATOM      5  C   UNL     1     110.918 103.415 116.521  1.00  0.00     0.111 A 
ATOM      6  C   UNL     1     111.598 102.663 115.517  1.00  0.00     0.134 A 
ATOM      7  C   UNL     1     110.949 101.587 114.901  1.00  0.00     0.093 A 
ATOM      8  C   UNL     1     109.666 101.196 115.297  1.00  0.00     0.123 A 
ATOM      9  C   UNL     1     109.017 101.888 116.318  1.00  0.00     0.094 A 
ATOM     10  C   UNL     1     109.626 102.988 116.926  1.00  0.00     0.146 A 
ATOM     11  O   UNL     1     108.968 103.626 117.887  1.00  0.00    -0.452 OA
ENDROOT
BRANCH   1  12
ATOM     12  C   UNL     1     108.621 105.299 119.588  1.00  0.00     0.021 A 
ATOM     13  C   UNL     1     107.863 106.463 119.364  1.00  0.00     0.016 A 
ATOM     14  C   UNL     1     107.113 107.029 120.400  1.00  0.00     0.047 A 
ATOM     15  C   UNL     1     107.122 106.448 121.675  1.00  0.00     0.115 A 
ATOM     16  C   UNL     1     108.640 104.735 120.875  1.00  0.00     0.016 A 
ATOM     17  C   UNL     1     107.889 105.302 121.909  1.00  0.00     0.047 A 
BRANCH  15  18
ATOM     18  O   UNL     1     106.379 107.002 122.713  1.00  0.00    -0.508 OA
ATOM     19  H   UNL     1     105.836 106.422 123.343  1.00  0.00     0.293 HD
ENDBRANCH  15  18
ENDBRANCH   1  12
BRANCH   2  20
ATOM     20  O   UNL     1     111.152 106.410 118.722  1.00  0.00    -0.502 OA
ATOM     21  H   UNL     1     111.692 106.410 119.580  1.00  0.00     0.293 HD
ENDBRANCH   2  20
BRANCH   6  22
ATOM     22  O   UNL     1     112.913 102.911 115.114  1.00  0.00    -0.507 OA
ATOM     23  H   UNL     1     113.235 102.890 114.158  1.00  0.00     0.293 HD
ENDBRANCH   6  22
BRANCH   8  24
ATOM     24  O   UNL     1     109.033 100.115 114.689  1.00  0.00    -0.508 OA
ATOM     25  H   UNL     1     108.110  99.812 114.975  1.00  0.00     0.293 HD
ENDBRANCH   8  24
TORSDOF 5
ENDMDL
MODEL 7
REMARK VINA RESULT:    -6.478      2.049      2.342
REMARK INTER + INTRA:          -7.824
REMARK INTER:                  -7.538
REMARK INTRA:                  -0.287
REMARK UNBOUND:                -0.210
REMARK SMILES O=c1c(O)c(-c2ccc(O)cc2)oc2cc(O)cc(O)c12
REMARK SMILES IDX 5 1 3 2 2 3 1 4 21 5 19 6 18 7 16 8 15 9 14 10 13 11 6 12
REMARK SMILES IDX 7 13 8 14 9 15 12 16 11 17 10 18 4 20 20 22 17 24
REMARK H PARENT 10 19 4 21 20 23 17 25
REMARK Flexibility Score: inf
ROOT
ATOM      1  C   UNL     1      98.565 103.871 116.068  1.00  0.00     0.180 A 
ATOM      2  C   UNL     1      97.221 103.501 116.247  1.00  0.00     0.208 A 
ATOM      3  C   UNL     1      96.903 102.535 117.215  1.00  0.00     0.238 A 
ATOM      4  O   UNL     1      95.692 102.248 117.408  1.00  0.00    -0.285 OA
ATOM      5  C   UNL     1      97.933 101.939 117.980  1.00  0.00     0.111 A 
ATOM      6  C   UNL     1      97.730 100.921 118.960  1.00  0.00     0.134 A 
ATOM      7  C   UNL     1      98.806 100.496 119.748  1.00  0.00     0.093 A 
ATOM      8  C   UNL     1     100.092 101.007 119.549  1.00  0.00     0.123 A 
ATOM      9  C   UNL     1     100.311 101.958 118.554  1.00  0.00     0.094 A 
ATOM     10  C   UNL     1      99.251 102.427 117.776  1.00  0.00     0.146 A 
ATOM     11  O   UNL     1      99.501 103.342 116.846  1.00  0.00    -0.452 OA
ENDROOT
BRANCH   1  12
ATOM     12  C   UNL     1      98.980 104.864 115.051  1.00  0.00     0.021 A 
ATOM     13  C   UNL     1      99.170 104.499 113.706  1.00  0.00     0.016 A 
ATOM     14  C   UNL     1      99.586 105.450 112.767  1.00  0.00     0.047 A 
ATOM     15  C   UNL     1      99.833 106.770 113.165  1.00  0.00     0.115 A 
ATOM     16  C   UNL     1      99.250 106.185 115.444  1.00  0.00     0.016 A 
ATOM     17  C   UNL     1      99.665 107.134 114.504  1.00  0.00     0.047 A 
BRANCH  15  18
ATOM     18  O   UNL     1     100.246 107.725 112.239  1.00  0.00    -0.508 OA
ATOM     19  H   UNL     1     100.625 107.460 111.338  1.00  0.00     0.293 HD
ENDBRANCH  15  18
ENDBRANCH   1  12
BRANCH   2  20
ATOM     20  O   UNL     1      96.216 104.119 115.496  1.00  0.00    -0.502 OA
ATOM     21  H   UNL     1      96.084 105.123 115.487  1.00  0.00     0.293 HD
ENDBRANCH   2  20
BRANCH   6  22
ATOM     22  O   UNL     1      96.508 100.279 119.176  1.00  0.00    -0.507 OA
ATOM     23  H   UNL     1      96.405  99.347 119.546  1.00  0.00     0.293 HD
ENDBRANCH   6  22
BRANCH   8  24
ATOM     24  O   UNL     1     101.160 100.568 120.328  1.00  0.00    -0.508 OA
ATOM     25  H   UNL     1     102.100 100.511 119.954  1.00  0.00     0.293 HD
ENDBRANCH   8  24
TORSDOF 5
ENDMDL
MODEL 8
REMARK VINA RESULT:    -6.458      9.275     11.608
REMARK INTER + INTRA:          -7.800
REMARK INTER:                  -7.518
REMARK INTRA:                  -0.282
REMARK UNBOUND:                -0.210
REMARK SMILES O=c1c(O)c(-c2ccc(O)cc2)oc2cc(O)cc(O)c12
REMARK SMILES IDX 5 1 3 2 2 3 1 4 21 5 19 6 18 7 16 8 15 9 14 10 13 11 6 12
REMARK SMILES IDX 7 13 8 14 9 15 12 16 11 17 10 18 4 20 20 22 17 24
REMARK H PARENT 10 19 4 21 20 23 17 25
REMARK Flexibility Score: inf
ROOT
ATOM      1  C   UNL     1     106.410 102.553 111.813  1.00  0.00     0.180 A 
ATOM      2  C   UNL     1     106.215 103.886 112.212  1.00  0.00     0.208 A 
ATOM      3  C   UNL     1     105.320 104.691 111.488  1.00  0.00     0.238 A 
ATOM      4  O   UNL     1     105.109 105.867 111.884  1.00  0.00    -0.285 OA
ATOM      5  C   UNL     1     104.646 104.158 110.363  1.00  0.00     0.111 A 
ATOM      6  C   UNL     1     103.749 104.894 109.533  1.00  0.00     0.134 A 
ATOM      7  C   UNL     1     103.038 104.230 108.525  1.00  0.00     0.093 A 
ATOM      8  C   UNL     1     103.240 102.869 108.277  1.00  0.00     0.123 A 
ATOM      9  C   UNL     1     104.159 102.156 109.045  1.00  0.00     0.094 A 
ATOM     10  C   UNL     1     104.855 102.783 110.080  1.00  0.00     0.146 A 
ATOM     11  O   UNL     1     105.714 102.063 110.794  1.00  0.00    -0.452 OA
ENDROOT
BRANCH   1  12
ATOM     12  C   UNL     1     107.355 101.651 112.511  1.00  0.00     0.021 A 
ATOM     13  C   UNL     1     108.736 101.688 112.244  1.00  0.00     0.016 A 
ATOM     14  C   UNL     1     109.605 100.809 112.899  1.00  0.00     0.047 A 
ATOM     15  C   UNL     1     109.105  99.875 113.815  1.00  0.00     0.115 A 
ATOM     16  C   UNL     1     106.860 100.698 113.416  1.00  0.00     0.016 A 
ATOM     17  C   UNL     1     107.731  99.821 114.070  1.00  0.00     0.047 A 
BRANCH  15  18
ATOM     18  O   UNL     1     109.961  98.997 114.474  1.00  0.00    -0.508 OA
ATOM     19  H   UNL     1     110.968  99.077 114.392  1.00  0.00     0.293 HD
ENDBRANCH  15  18
ENDBRANCH   1  12
BRANCH   2  20
ATOM     20  O   UNL     1     106.875 104.386 113.339  1.00  0.00    -0.502 OA
ATOM     21  H   UNL     1     107.652 103.902 113.772  1.00  0.00     0.293 HD
ENDBRANCH   2  20
BRANCH   6  22
ATOM     22  O   UNL     1     103.543 106.272 109.636  1.00  0.00    -0.507 OA
ATOM     23  H   UNL     1     103.214 106.862 108.887  1.00  0.00     0.293 HD
ENDBRANCH   6  22
BRANCH   8  24
ATOM     24  O   UNL     1     102.540 102.220 107.263  1.00  0.00    -0.508 OA
ATOM     25  H   UNL     1     102.343 102.674 106.380  1.00  0.00     0.293 HD
ENDBRANCH   8  24
TORSDOF 5
ENDMDL
MODEL 9
REMARK VINA RESULT:    -6.429     10.459     11.747
REMARK INTER + INTRA:          -7.767
REMARK INTER:                  -7.504
REMARK INTRA:                  -0.263
REMARK UNBOUND:                -0.210
REMARK SMILES O=c1c(O)c(-c2ccc(O)cc2)oc2cc(O)cc(O)c12
REMARK SMILES IDX 5 1 3 2 2 3 1 4 21 5 19 6 18 7 16 8 15 9 14 10 13 11 6 12
REMARK SMILES IDX 7 13 8 14 9 15 12 16 11 17 10 18 4 20 20 22 17 24
REMARK H PARENT 10 19 4 21 20 23 17 25
REMARK Flexibility Score: inf
ROOT
ATOM      1  C   UNL     1     108.815 103.450 116.027  1.00  0.00     0.180 A 
ATOM      2  C   UNL     1     110.174 103.750 116.229  1.00  0.00     0.208 A 
ATOM      3  C   UNL     1     110.524 104.721 117.181  1.00  0.00     0.238 A 
ATOM      4  O   UNL     1     111.745 104.944 117.395  1.00  0.00    -0.285 OA
ATOM      5  C   UNL     1     109.512 105.393 117.907  1.00  0.00     0.111 A 
ATOM      6  C   UNL     1     109.750 106.422 118.866  1.00  0.00     0.134 A 
ATOM      7  C   UNL     1     108.682 106.926 119.619  1.00  0.00     0.093 A 
ATOM      8  C   UNL     1     107.375 106.483 119.401  1.00  0.00     0.123 A 
ATOM      9  C   UNL     1     107.125 105.521 118.425  1.00  0.00     0.094 A 
ATOM     10  C   UNL     1     108.174 104.973 117.684  1.00  0.00     0.146 A 
ATOM     11  O   UNL     1     107.893 104.051 116.770  1.00  0.00    -0.452 OA
ENDROOT
BRANCH   1  12
ATOM     12  C   UNL     1     108.367 102.457 115.025  1.00  0.00     0.021 A 
ATOM     13  C   UNL     1     108.321 102.769 113.654  1.00  0.00     0.016 A 
ATOM     14  C   UNL     1     107.871 101.821 112.728  1.00  0.00     0.047 A 
ATOM     15  C   UNL     1     107.448 100.559 113.162  1.00  0.00     0.115 A 
ATOM     16  C   UNL     1     107.921 101.196 115.453  1.00  0.00     0.016 A 
ATOM     17  C   UNL     1     107.472 100.250 114.526  1.00  0.00     0.047 A 
BRANCH  15  18
ATOM     18  O   UNL     1     106.999  99.608 112.250  1.00  0.00    -0.508 OA
ATOM     19  H   UNL     1     106.044  99.608 111.911  1.00  0.00     0.293 HD
ENDBRANCH  15  18
ENDBRANCH   1  12
BRANCH   2  20
ATOM     20  O   UNL     1     111.158 103.058 115.517  1.00  0.00    -0.502 OA
ATOM     21  H   UNL     1     112.044 102.793 115.931  1.00  0.00     0.293 HD
ENDBRANCH   2  20
BRANCH   6  22
ATOM     22  O   UNL     1     111.002 107.000 119.095  1.00  0.00    -0.507 OA
ATOM     23  H   UNL     1     111.793 106.924 118.474  1.00  0.00     0.293 HD
ENDBRANCH   6  22
BRANCH   8  24
ATOM     24  O   UNL     1     106.316 107.000 120.144  1.00  0.00    -0.508 OA
ATOM     25  H   UNL     1     105.619 107.603 119.724  1.00  0.00     0.293 HD
ENDBRANCH   8  24
TORSDOF 5
ENDMDL
