MODEL 1
REMARK VINA RESULT:    -5.179      0.000      0.000
REMARK INTER + INTRA:          -6.703
REMARK INTER:                  -6.390
REMARK INTRA:                  -0.313
REMARK UNBOUND:                -0.313
REMARK SMILES Oc1cc(O)c2cc(O)c(-c3cc(O)c(O)c(O)c3)[o+]c2c1
REMARK SMILES IDX 10 1 20 2 21 3 22 4 2 5 3 6 4 7 6 8 7 9 8 10 11 11 12 12
REMARK SMILES IDX 13 13 19 14 15 15 17 16 14 17 16 19 18 21 9 23 1 25 5 27
REMARK H PARENT 14 18 16 20 18 22 9 24 1 26 5 28
REMARK Flexibility Score: inf
ROOT
ATOM      1  C   UNL     1     -13.370 -33.102  32.316  1.00  0.00     0.402 A 
ATOM      2  O   UNL     1     -12.334 -33.108  33.153  1.00  0.00    -0.202 OA
ATOM      3  C   UNL     1     -12.240 -32.296  34.200  1.00  0.00     0.368 A 
ATOM      4  C   UNL     1     -11.116 -32.362  35.029  1.00  0.00     0.162 A 
ATOM      5  C   UNL     1     -11.003 -31.510  36.133  1.00  0.00     0.128 A 
ATOM      6  C   UNL     1     -12.019 -30.586  36.410  1.00  0.00     0.093 A 
ATOM      7  C   UNL     1     -13.154 -30.509  35.588  1.00  0.00     0.136 A 
ATOM      8  C   UNL     1     -13.266 -31.367  34.477  1.00  0.00     0.125 A 
ATOM      9  C   UNL     1     -14.378 -31.340  33.628  1.00  0.00     0.078 A 
ATOM     10  C   UNL     1     -14.444 -32.218  32.542  1.00  0.00     0.223 A 
ENDROOT
BRANCH   1  11
ATOM     11  C   UNL     1     -13.357 -34.050  31.179  1.00  0.00     0.091 A 
ATOM     12  C   UNL     1     -13.182 -33.606  29.856  1.00  0.00     0.068 A 
ATOM     13  C   UNL     1     -13.150 -34.520  28.795  1.00  0.00     0.162 A 
ATOM     14  C   UNL     1     -13.464 -35.428  31.427  1.00  0.00     0.068 A 
ATOM     15  C   UNL     1     -13.281 -35.895  29.053  1.00  0.00     0.200 A 
ATOM     16  C   UNL     1     -13.434 -36.346  30.369  1.00  0.00     0.162 A 
BRANCH  13  17
ATOM     17  O   UNL     1     -12.982 -34.068  27.487  1.00  0.00    -0.504 OA
ATOM     18  H   UNL     1     -12.952 -33.080  27.267  1.00  0.00     0.293 HD
ENDBRANCH  13  17
BRANCH  15  19
ATOM     19  O   UNL     1     -13.257 -36.825  28.013  1.00  0.00    -0.502 OA
ATOM     20  H   UNL     1     -12.480 -36.888  27.364  1.00  0.00     0.293 HD
ENDBRANCH  15  19
BRANCH  16  21
ATOM     21  O   UNL     1     -13.556 -37.712  30.621  1.00  0.00    -0.504 OA
ATOM     22  H   UNL     1     -13.969 -38.341  29.941  1.00  0.00     0.293 HD
ENDBRANCH  16  21
ENDBRANCH   1  11
BRANCH  10  23
ATOM     23  O   UNL     1     -15.572 -32.231  31.721  1.00  0.00    -0.500 OA
ATOM     24  H   UNL     1     -15.722 -31.523  31.012  1.00  0.00     0.294 HD
ENDBRANCH  10  23
BRANCH   5  25
ATOM     25  O   UNL     1      -9.876 -31.590  36.947  1.00  0.00    -0.507 OA
ATOM     26  H   UNL     1      -9.821 -31.088  37.827  1.00  0.00     0.293 HD
ENDBRANCH   5  25
BRANCH   7  27
ATOM     27  O   UNL     1     -14.160 -29.586  35.874  1.00  0.00    -0.507 OA
ATOM     28  H   UNL     1     -14.102 -28.623  35.565  1.00  0.00     0.293 HD
ENDBRANCH   7  27
TORSDOF 7
ENDMDL
MODEL 2
REMARK VINA RESULT:    -4.322      1.237      2.647
REMARK INTER + INTRA:          -5.646
REMARK INTER:                  -5.549
REMARK INTRA:                  -0.098
REMARK UNBOUND:                -0.313
REMARK SMILES Oc1cc(O)c2cc(O)c(-c3cc(O)c(O)c(O)c3)[o+]c2c1
REMARK SMILES IDX 10 1 20 2 21 3 22 4 2 5 3 6 4 7 6 8 7 9 8 10 11 11 12 12
REMARK SMILES IDX 13 13 19 14 15 15 17 16 14 17 16 19 18 21 9 23 1 25 5 27
REMARK H PARENT 14 18 16 20 18 22 9 24 1 26 5 28
REMARK Flexibility Score: inf
ROOT
ATOM      1  C   UNL     1     -12.281 -33.863  32.042  1.00  0.00     0.402 A 
ATOM      2  O   UNL     1     -13.127 -33.008  32.615  1.00  0.00    -0.202 OA
ATOM      3  C   UNL     1     -12.796 -32.239  33.647  1.00  0.00     0.368 A 
ATOM      4  C   UNL     1     -13.744 -31.370  34.195  1.00  0.00     0.162 A 
ATOM      5  C   UNL     1     -13.411 -30.557  35.283  1.00  0.00     0.128 A 
ATOM      6  C   UNL     1     -12.120 -30.613  35.827  1.00  0.00     0.093 A 
ATOM      7  C   UNL     1     -11.157 -31.478  35.287  1.00  0.00     0.136 A 
ATOM      8  C   UNL     1     -11.495 -32.296  34.192  1.00  0.00     0.125 A 
ATOM      9  C   UNL     1     -10.573 -33.172  33.607  1.00  0.00     0.078 A 
ATOM     10  C   UNL     1     -10.958 -33.958  32.516  1.00  0.00     0.223 A 
ENDROOT
BRANCH   1  11
ATOM     11  C   UNL     1     -12.769 -34.674  30.903  1.00  0.00     0.091 A 
ATOM     12  C   UNL     1     -13.333 -34.071  29.764  1.00  0.00     0.068 A 
ATOM     13  C   UNL     1     -13.769 -34.854  28.686  1.00  0.00     0.162 A 
ATOM     14  C   UNL     1     -12.616 -36.068  30.932  1.00  0.00     0.068 A 
ATOM     15  C   UNL     1     -13.631 -36.251  28.736  1.00  0.00     0.200 A 
ATOM     16  C   UNL     1     -13.052 -36.855  29.858  1.00  0.00     0.162 A 
BRANCH  13  17
ATOM     17  O   UNL     1     -14.332 -34.247  27.565  1.00  0.00    -0.504 OA
ATOM     18  H   UNL     1     -14.750 -34.791  26.820  1.00  0.00     0.293 HD
ENDBRANCH  13  17
BRANCH  15  19
ATOM     19  O   UNL     1     -14.062 -37.051  27.677  1.00  0.00    -0.502 OA
ATOM     20  H   UNL     1     -14.817 -36.771  27.062  1.00  0.00     0.293 HD
ENDBRANCH  15  19
BRANCH  16  21
ATOM     21  O   UNL     1     -12.911 -38.242  29.898  1.00  0.00    -0.504 OA
ATOM     22  H   UNL     1     -13.093 -38.768  30.745  1.00  0.00     0.293 HD
ENDBRANCH  16  21
ENDBRANCH   1  11
BRANCH  10  23
ATOM     23  O   UNL     1     -10.030 -34.796  31.898  1.00  0.00    -0.500 OA
ATOM     24  H   UNL     1      -9.037 -34.715  32.079  1.00  0.00     0.294 HD
ENDBRANCH  10  23
BRANCH   5  25
ATOM     25  O   UNL     1     -14.369 -29.699  35.817  1.00  0.00    -0.507 OA
ATOM     26  H   UNL     1     -14.133 -28.755  36.104  1.00  0.00     0.293 HD
ENDBRANCH   5  25
BRANCH   7  27
ATOM     27  O   UNL     1      -9.875 -31.524  35.835  1.00  0.00    -0.507 OA
ATOM     28  H   UNL     1      -9.061 -31.732  35.268  1.00  0.00     0.293 HD
ENDBRANCH   7  27
TORSDOF 7
ENDMDL
MODEL 3
REMARK VINA RESULT:    -4.272      1.232      3.152
REMARK INTER + INTRA:          -5.585
REMARK INTER:                  -5.422
REMARK INTRA:                  -0.163
REMARK UNBOUND:                -0.313
REMARK SMILES Oc1cc(O)c2cc(O)c(-c3cc(O)c(O)c(O)c3)[o+]c2c1
REMARK SMILES IDX 10 1 20 2 21 3 22 4 2 5 3 6 4 7 6 8 7 9 8 10 11 11 12 12
REMARK SMILES IDX 13 13 19 14 15 15 17 16 14 17 16 19 18 21 9 23 1 25 5 27
REMARK H PARENT 14 18 16 20 18 22 9 24 1 26 5 28
REMARK Flexibility Score: inf
ROOT
ATOM      1  C   UNL     1     -12.180 -33.847  32.112  1.00  0.00     0.402 A 
ATOM      2  O   UNL     1     -13.052 -33.006  32.665  1.00  0.00    -0.202 OA
ATOM      3  C   UNL     1     -12.755 -32.222  33.695  1.00  0.00     0.368 A 
ATOM      4  C   UNL     1     -13.730 -31.369  34.221  1.00  0.00     0.162 A 
ATOM      5  C   UNL     1     -13.432 -30.541  35.308  1.00  0.00     0.128 A 
ATOM      6  C   UNL     1     -12.149 -30.565  35.872  1.00  0.00     0.093 A 
ATOM      7  C   UNL     1     -11.159 -31.413  35.355  1.00  0.00     0.136 A 
ATOM      8  C   UNL     1     -11.462 -32.247  34.261  1.00  0.00     0.125 A 
ATOM      9  C   UNL     1     -10.512 -33.107  33.699  1.00  0.00     0.078 A 
ATOM     10  C   UNL     1     -10.862 -33.910  32.608  1.00  0.00     0.223 A 
ENDROOT
BRANCH   1  11
ATOM     11  C   UNL     1     -12.632 -34.677  30.972  1.00  0.00     0.091 A 
ATOM     12  C   UNL     1     -12.522 -36.078  30.998  1.00  0.00     0.068 A 
ATOM     13  C   UNL     1     -12.977 -36.849  29.919  1.00  0.00     0.162 A 
ATOM     14  C   UNL     1     -13.236 -34.060  29.865  1.00  0.00     0.068 A 
ATOM     15  C   UNL     1     -13.559 -36.219  28.806  1.00  0.00     0.200 A 
ATOM     16  C   UNL     1     -13.690 -34.825  28.783  1.00  0.00     0.162 A 
BRANCH  13  17
ATOM     17  O   UNL     1     -12.858 -38.237  29.952  1.00  0.00    -0.504 OA
ATOM     18  H   UNL     1     -12.125 -38.695  30.481  1.00  0.00     0.293 HD
ENDBRANCH  13  17
BRANCH  15  19
ATOM     19  O   UNL     1     -14.015 -36.964  27.718  1.00  0.00    -0.502 OA
ATOM     20  H   UNL     1     -13.480 -37.048  26.861  1.00  0.00     0.293 HD
ENDBRANCH  15  19
BRANCH  16  21
ATOM     21  O   UNL     1     -14.275 -34.205  27.680  1.00  0.00    -0.504 OA
ATOM     22  H   UNL     1     -15.259 -33.961  27.669  1.00  0.00     0.293 HD
ENDBRANCH  16  21
ENDBRANCH   1  11
BRANCH  10  23
ATOM     23  O   UNL     1      -9.907 -34.733  32.011  1.00  0.00    -0.500 OA
ATOM     24  H   UNL     1      -9.044 -34.975  32.483  1.00  0.00     0.294 HD
ENDBRANCH  10  23
BRANCH   5  25
ATOM     25  O   UNL     1     -14.416 -29.699  35.819  1.00  0.00    -0.507 OA
ATOM     26  H   UNL     1     -14.233 -28.718  36.000  1.00  0.00     0.293 HD
ENDBRANCH   5  25
BRANCH   7  27
ATOM     27  O   UNL     1      -9.886 -31.427  35.924  1.00  0.00    -0.507 OA
ATOM     28  H   UNL     1      -9.580 -32.184  36.525  1.00  0.00     0.293 HD
ENDBRANCH   7  27
TORSDOF 7
ENDMDL
MODEL 4
REMARK VINA RESULT:    -4.067      1.386      7.045
REMARK INTER + INTRA:          -5.332
REMARK INTER:                  -5.332
REMARK INTRA:                   0.000
REMARK UNBOUND:                -0.313
REMARK SMILES Oc1cc(O)c2cc(O)c(-c3cc(O)c(O)c(O)c3)[o+]c2c1
REMARK SMILES IDX 10 1 20 2 21 3 22 4 2 5 3 6 4 7 6 8 7 9 8 10 11 11 12 12
REMARK SMILES IDX 13 13 19 14 15 15 17 16 14 17 16 19 18 21 9 23 1 25 5 27
REMARK H PARENT 14 18 16 20 18 22 9 24 1 26 5 28
REMARK Flexibility Score: inf
ROOT
ATOM      1  C   UNL     1     -12.884 -33.126  32.500  1.00  0.00     0.402 A 
ATOM      2  O   UNL     1     -11.952 -33.177  31.550  1.00  0.00    -0.202 OA
ATOM      3  C   UNL     1     -12.114 -33.833  30.406  1.00  0.00     0.368 A 
ATOM      4  C   UNL     1     -11.084 -33.842  29.461  1.00  0.00     0.162 A 
ATOM      5  C   UNL     1     -11.240 -34.531  28.254  1.00  0.00     0.128 A 
ATOM      6  C   UNL     1     -12.434 -35.215  27.990  1.00  0.00     0.093 A 
ATOM      7  C   UNL     1     -13.478 -35.214  28.927  1.00  0.00     0.136 A 
ATOM      8  C   UNL     1     -13.319 -34.520  30.142  1.00  0.00     0.125 A 
ATOM      9  C   UNL     1     -14.328 -34.478  31.110  1.00  0.00     0.078 A 
ATOM     10  C   UNL     1     -14.122 -33.768  32.298  1.00  0.00     0.223 A 
ENDROOT
BRANCH   1  11
ATOM     11  C   UNL     1     -12.583 -32.369  33.737  1.00  0.00     0.091 A 
ATOM     12  C   UNL     1     -11.363 -32.533  34.416  1.00  0.00     0.068 A 
ATOM     13  C   UNL     1     -11.086 -31.791  35.572  1.00  0.00     0.162 A 
ATOM     14  C   UNL     1     -13.508 -31.427  34.213  1.00  0.00     0.068 A 
ATOM     15  C   UNL     1     -12.029 -30.867  36.053  1.00  0.00     0.200 A 
ATOM     16  C   UNL     1     -13.237 -30.684  35.369  1.00  0.00     0.162 A 
BRANCH  13  17
ATOM     17  O   UNL     1      -9.875 -31.966  36.242  1.00  0.00    -0.504 OA
ATOM     18  H   UNL     1      -9.458 -31.221  36.788  1.00  0.00     0.293 HD
ENDBRANCH  13  17
BRANCH  15  19
ATOM     19  O   UNL     1     -11.778 -30.120  37.205  1.00  0.00    -0.502 OA
ATOM     20  H   UNL     1     -12.232 -30.323  38.088  1.00  0.00     0.293 HD
ENDBRANCH  15  19
BRANCH  16  21
ATOM     21  O   UNL     1     -14.166 -29.760  35.846  1.00  0.00    -0.504 OA
ATOM     22  H   UNL     1     -14.312 -29.619  36.839  1.00  0.00     0.293 HD
ENDBRANCH  16  21
ENDBRANCH   1  11
BRANCH  10  23
ATOM     23  O   UNL     1     -15.142 -33.680  33.245  1.00  0.00    -0.500 OA
ATOM     24  H   UNL     1     -15.759 -34.460  33.436  1.00  0.00     0.294 HD
ENDBRANCH  10  23
BRANCH   5  25
ATOM     25  O   UNL     1     -10.203 -34.530  27.325  1.00  0.00    -0.507 OA
ATOM     26  H   UNL     1     -10.000 -35.345  26.756  1.00  0.00     0.293 HD
ENDBRANCH   5  25
BRANCH   7  27
ATOM     27  O   UNL     1     -14.663 -35.897  28.652  1.00  0.00    -0.507 OA
ATOM     28  H   UNL     1     -15.034 -35.960  27.711  1.00  0.00     0.293 HD
ENDBRANCH   7  27
TORSDOF 7
ENDMDL
MODEL 5
REMARK VINA RESULT:    -4.034      1.395      7.025
REMARK INTER + INTRA:          -5.291
REMARK INTER:                  -5.156
REMARK INTRA:                  -0.135
REMARK UNBOUND:                -0.313
REMARK SMILES Oc1cc(O)c2cc(O)c(-c3cc(O)c(O)c(O)c3)[o+]c2c1
REMARK SMILES IDX 10 1 20 2 21 3 22 4 2 5 3 6 4 7 6 8 7 9 8 10 11 11 12 12
REMARK SMILES IDX 13 13 19 14 15 15 17 16 14 17 16 19 18 21 9 23 1 25 5 27
REMARK H PARENT 14 18 16 20 18 22 9 24 1 26 5 28
REMARK Flexibility Score: inf
ROOT
ATOM      1  C   UNL     1     -12.928 -33.228  32.276  1.00  0.00     0.402 A 
ATOM      2  O   UNL     1     -12.108 -33.138  31.230  1.00  0.00    -0.202 OA
ATOM      3  C   UNL     1     -12.283 -33.827  30.107  1.00  0.00     0.368 A 
ATOM      4  C   UNL     1     -11.374 -33.680  29.056  1.00  0.00     0.162 A 
ATOM      5  C   UNL     1     -11.544 -34.401  27.870  1.00  0.00     0.128 A 
ATOM      6  C   UNL     1     -12.630 -35.276  27.734  1.00  0.00     0.093 A 
ATOM      7  C   UNL     1     -13.552 -35.433  28.780  1.00  0.00     0.136 A 
ATOM      8  C   UNL     1     -13.379 -34.706  29.973  1.00  0.00     0.125 A 
ATOM      9  C   UNL     1     -14.271 -34.817  31.046  1.00  0.00     0.078 A 
ATOM     10  C   UNL     1     -14.057 -34.068  32.207  1.00  0.00     0.223 A 
ENDROOT
BRANCH   1  11
ATOM     11  C   UNL     1     -12.623 -32.416  33.476  1.00  0.00     0.091 A 
ATOM     12  C   UNL     1     -13.557 -31.504  33.999  1.00  0.00     0.068 A 
ATOM     13  C   UNL     1     -13.260 -30.761  35.150  1.00  0.00     0.162 A 
ATOM     14  C   UNL     1     -11.401 -32.598  34.142  1.00  0.00     0.068 A 
ATOM     15  C   UNL     1     -12.024 -30.934  35.795  1.00  0.00     0.200 A 
ATOM     16  C   UNL     1     -11.098 -31.856  35.291  1.00  0.00     0.162 A 
BRANCH  13  17
ATOM     17  O   UNL     1     -14.191 -29.855  35.656  1.00  0.00    -0.504 OA
ATOM     18  H   UNL     1     -14.188 -29.580  36.632  1.00  0.00     0.293 HD
ENDBRANCH  13  17
BRANCH  15  19
ATOM     19  O   UNL     1     -11.704 -30.202  36.939  1.00  0.00    -0.502 OA
ATOM     20  H   UNL     1     -12.344 -30.114  37.719  1.00  0.00     0.293 HD
ENDBRANCH  15  19
BRANCH  16  21
ATOM     21  O   UNL     1      -9.876 -32.030  35.939  1.00  0.00    -0.504 OA
ATOM     22  H   UNL     1      -9.013 -31.669  35.549  1.00  0.00     0.293 HD
ENDBRANCH  16  21
ENDBRANCH   1  11
BRANCH  10  23
ATOM     23  O   UNL     1     -14.970 -34.136  33.260  1.00  0.00    -0.500 OA
ATOM     24  H   UNL     1     -14.927 -33.495  34.043  1.00  0.00     0.294 HD
ENDBRANCH  10  23
BRANCH   5  25
ATOM     25  O   UNL     1     -10.627 -34.242  26.833  1.00  0.00    -0.507 OA
ATOM     26  H   UNL     1      -9.761 -34.768  26.807  1.00  0.00     0.293 HD
ENDBRANCH   5  25
BRANCH   7  27
ATOM     27  O   UNL     1     -14.631 -36.306  28.632  1.00  0.00    -0.507 OA
ATOM     28  H   UNL     1     -14.593 -37.095  27.998  1.00  0.00     0.293 HD
ENDBRANCH   7  27
TORSDOF 7
ENDMDL
MODEL 6
REMARK VINA RESULT:    -3.526      1.276      6.928
REMARK INTER + INTRA:          -4.664
REMARK INTER:                  -4.642
REMARK INTRA:                  -0.022
REMARK UNBOUND:                -0.313
REMARK SMILES Oc1cc(O)c2cc(O)c(-c3cc(O)c(O)c(O)c3)[o+]c2c1
REMARK SMILES IDX 10 1 20 2 21 3 22 4 2 5 3 6 4 7 6 8 7 9 8 10 11 11 12 12
REMARK SMILES IDX 13 13 19 14 15 15 17 16 14 17 16 19 18 21 9 23 1 25 5 27
REMARK H PARENT 14 18 16 20 18 22 9 24 1 26 5 28
REMARK Flexibility Score: inf
ROOT
ATOM      1  C   UNL     1     -13.113 -33.368  32.413  1.00  0.00     0.402 A 
ATOM      2  O   UNL     1     -12.715 -34.636  32.504  1.00  0.00    -0.202 OA
ATOM      3  C   UNL     1     -12.975 -35.549  31.575  1.00  0.00     0.368 A 
ATOM      4  C   UNL     1     -12.526 -36.861  31.748  1.00  0.00     0.162 A 
ATOM      5  C   UNL     1     -12.796 -37.833  30.779  1.00  0.00     0.128 A 
ATOM      6  C   UNL     1     -13.521 -37.490  29.629  1.00  0.00     0.093 A 
ATOM      7  C   UNL     1     -13.977 -36.177  29.440  1.00  0.00     0.136 A 
ATOM      8  C   UNL     1     -13.704 -35.201  30.417  1.00  0.00     0.125 A 
ATOM      9  C   UNL     1     -14.127 -33.874  30.278  1.00  0.00     0.078 A 
ATOM     10  C   UNL     1     -13.825 -32.940  31.275  1.00  0.00     0.223 A 
ENDROOT
BRANCH   1  11
ATOM     11  C   UNL     1     -12.768 -32.445  33.519  1.00  0.00     0.091 A 
ATOM     12  C   UNL     1     -13.712 -31.542  34.040  1.00  0.00     0.068 A 
ATOM     13  C   UNL     1     -13.375 -30.692  35.102  1.00  0.00     0.162 A 
ATOM     14  C   UNL     1     -11.492 -32.508  34.100  1.00  0.00     0.068 A 
ATOM     15  C   UNL     1     -12.087 -30.748  35.660  1.00  0.00     0.200 A 
ATOM     16  C   UNL     1     -11.149 -31.660  35.160  1.00  0.00     0.162 A 
BRANCH  13  17
ATOM     17  O   UNL     1     -14.316 -29.796  35.606  1.00  0.00    -0.504 OA
ATOM     18  H   UNL     1     -14.798 -29.138  35.006  1.00  0.00     0.293 HD
ENDBRANCH  13  17
BRANCH  15  19
ATOM     19  O   UNL     1     -11.726 -29.909  36.715  1.00  0.00    -0.502 OA
ATOM     20  H   UNL     1     -11.171 -29.073  36.572  1.00  0.00     0.293 HD
ENDBRANCH  15  19
BRANCH  16  21
ATOM     21  O   UNL     1      -9.875 -31.717  35.723  1.00  0.00    -0.504 OA
ATOM     22  H   UNL     1      -9.306 -32.554  35.663  1.00  0.00     0.293 HD
ENDBRANCH  16  21
ENDBRANCH   1  11
BRANCH  10  23
ATOM     23  O   UNL     1     -14.200 -31.606  31.119  1.00  0.00    -0.500 OA
ATOM     24  H   UNL     1     -14.724 -31.292  30.312  1.00  0.00     0.294 HD
ENDBRANCH  10  23
BRANCH   5  25
ATOM     25  O   UNL     1     -12.341 -39.136  30.969  1.00  0.00    -0.507 OA
ATOM     26  H   UNL     1     -12.142 -39.497  31.894  1.00  0.00     0.293 HD
ENDBRANCH   5  25
BRANCH   7  27
ATOM     27  O   UNL     1     -14.696 -35.848  28.291  1.00  0.00    -0.507 OA
ATOM     28  H   UNL     1     -15.709 -35.856  28.277  1.00  0.00     0.293 HD
ENDBRANCH   7  27
TORSDOF 7
ENDMDL
MODEL 7
REMARK VINA RESULT:    -3.184      1.612      7.355
REMARK INTER + INTRA:          -4.242
REMARK INTER:                  -4.126
REMARK INTRA:                  -0.116
REMARK UNBOUND:                -0.313
REMARK SMILES Oc1cc(O)c2cc(O)c(-c3cc(O)c(O)c(O)c3)[o+]c2c1
REMARK SMILES IDX 10 1 20 2 21 3 22 4 2 5 3 6 4 7 6 8 7 9 8 10 11 11 12 12
REMARK SMILES IDX 13 13 19 14 15 15 17 16 14 17 16 19 18 21 9 23 1 25 5 27
REMARK H PARENT 14 18 16 20 18 22 9 24 1 26 5 28
REMARK Flexibility Score: inf
ROOT
ATOM      1  C   UNL     1     -11.994 -33.421  31.982  1.00  0.00     0.402 A 
ATOM      2  O   UNL     1     -12.933 -34.333  31.733  1.00  0.00    -0.202 OA
ATOM      3  C   UNL     1     -12.995 -35.022  30.599  1.00  0.00     0.368 A 
ATOM      4  C   UNL     1     -14.016 -35.958  30.413  1.00  0.00     0.162 A 
ATOM      5  C   UNL     1     -14.096 -36.688  29.222  1.00  0.00     0.128 A 
ATOM      6  C   UNL     1     -13.148 -36.480  28.211  1.00  0.00     0.093 A 
ATOM      7  C   UNL     1     -12.117 -35.545  28.383  1.00  0.00     0.136 A 
ATOM      8  C   UNL     1     -12.039 -34.811  29.582  1.00  0.00     0.125 A 
ATOM      9  C   UNL     1     -11.028 -33.871  29.812  1.00  0.00     0.078 A 
ATOM     10  C   UNL     1     -10.991 -33.173  31.024  1.00  0.00     0.223 A 
ENDROOT
BRANCH   1  11
ATOM     11  C   UNL     1     -12.034 -32.711  33.281  1.00  0.00     0.091 A 
ATOM     12  C   UNL     1     -10.928 -32.709  34.148  1.00  0.00     0.068 A 
ATOM     13  C   UNL     1     -10.976 -32.012  35.364  1.00  0.00     0.162 A 
ATOM     14  C   UNL     1     -13.178 -31.978  33.633  1.00  0.00     0.068 A 
ATOM     15  C   UNL     1     -12.135 -31.300  35.716  1.00  0.00     0.200 A 
ATOM     16  C   UNL     1     -13.233 -31.281  34.847  1.00  0.00     0.162 A 
BRANCH  13  17
ATOM     17  O   UNL     1      -9.875 -32.022  36.219  1.00  0.00    -0.504 OA
ATOM     18  H   UNL     1      -9.784 -31.352  36.974  1.00  0.00     0.293 HD
ENDBRANCH  13  17
BRANCH  15  19
ATOM     19  O   UNL     1     -12.209 -30.603  36.922  1.00  0.00    -0.502 OA
ATOM     20  H   UNL     1     -12.831 -29.814  37.051  1.00  0.00     0.293 HD
ENDBRANCH  15  19
BRANCH  16  21
ATOM     21  O   UNL     1     -14.377 -30.567  35.198  1.00  0.00    -0.504 OA
ATOM     22  H   UNL     1     -14.856 -29.973  34.530  1.00  0.00     0.293 HD
ENDBRANCH  16  21
ENDBRANCH   1  11
BRANCH  10  23
ATOM     23  O   UNL     1      -9.958 -32.272  31.280  1.00  0.00    -0.500 OA
ATOM     24  H   UNL     1      -8.989 -32.565  31.299  1.00  0.00     0.294 HD
ENDBRANCH  10  23
BRANCH   5  25
ATOM     25  O   UNL     1     -15.120 -37.616  29.054  1.00  0.00    -0.507 OA
ATOM     26  H   UNL     1     -15.751 -37.572  28.261  1.00  0.00     0.293 HD
ENDBRANCH   5  25
BRANCH   7  27
ATOM     27  O   UNL     1     -11.178 -35.347  27.370  1.00  0.00    -0.507 OA
ATOM     28  H   UNL     1     -10.421 -36.002  27.212  1.00  0.00     0.293 HD
ENDBRANCH   7  27
TORSDOF 7
ENDMDL
