MODEL 1
REMARK VINA RESULT:    -3.431      0.000      0.000
REMARK INTER + INTRA:          -7.765
REMARK INTER:                  -6.239
REMARK INTRA:                  -1.526
REMARK UNBOUND:                -1.526
REMARK SMILES CCCCCCCCCCCCCCCC(=O)[O-]
REMARK SMILES IDX 9 1 10 2 11 3 12 4 13 5 14 6 15 7 16 8 17 9 18 10 8 11 7 12
REMARK SMILES IDX 6 13 5 14 4 15 3 16 2 17 1 18
REMARK H PARENT
REMARK Flexibility Score: inf
ROOT
ATOM      1  C   UNL     1      12.151  25.247  96.317  1.00  0.00     0.000 C 
ENDROOT
BRANCH   1   2
ATOM      2  C   UNL     1      11.798  26.516  95.517  1.00  0.00     0.000 C 
BRANCH   2   3
ATOM      3  C   UNL     1      12.818  26.904  94.431  1.00  0.00     0.000 C 
BRANCH   3   4
ATOM      4  C   UNL     1      12.735  26.075  93.135  1.00  0.00     0.000 C 
BRANCH   4   5
ATOM      5  C   UNL     1      11.322  26.044  92.535  1.00  0.00     0.000 C 
BRANCH   5   6
ATOM      6  C   UNL     1      10.821  24.600  92.385  1.00  0.00     0.006 C 
BRANCH   6   7
ATOM      7  C   UNL     1      11.918  23.570  92.688  1.00  0.00     0.053 C 
BRANCH   7   8
ATOM      8  C   UNL     1      11.363  22.345  93.348  1.00  0.00     0.041 C 
ATOM      9  O   UNL     1      10.346  21.775  92.873  1.00  0.00    -0.550 OA
ATOM     10  O   UNL     1      11.993  21.811  94.466  1.00  0.00    -0.550 OA
ENDBRANCH   7   8
ENDBRANCH   6   7
ENDBRANCH   5   6
ENDBRANCH   4   5
ENDBRANCH   3   4
ENDBRANCH   2   3
ENDBRANCH   1   2
BRANCH   1  11
ATOM     11  C   UNL     1      11.772  25.329  97.810  1.00  0.00     0.000 C 
BRANCH  11  12
ATOM     12  C   UNL     1      11.858  26.763  98.358  1.00  0.00    -0.000 C 
BRANCH  12  13
ATOM     13  C   UNL     1      12.768  26.878  99.594  1.00  0.00    -0.000 C 
BRANCH  13  14
ATOM     14  C   UNL     1      14.279  26.932  99.287  1.00  0.00    -0.000 C 
BRANCH  14  15
ATOM     15  C   UNL     1      15.105  25.761  99.853  1.00  0.00    -0.000 C 
BRANCH  15  16
ATOM     16  C   UNL     1      15.548  24.716  98.811  1.00  0.00    -0.000 C 
BRANCH  16  17
ATOM     17  C   UNL     1      16.081  25.353  97.520  1.00  0.00    -0.003 C 
ATOM     18  C   UNL     1      17.491  24.861  97.207  1.00  0.00     0.004 C 
ENDBRANCH  16  17
ENDBRANCH  15  16
ENDBRANCH  14  15
ENDBRANCH  13  14
ENDBRANCH  12  13
ENDBRANCH  11  12
ENDBRANCH   1  11
TORSDOF 14
ENDMDL
MODEL 2
REMARK VINA RESULT:    -3.425      1.286      2.096
REMARK INTER + INTRA:          -7.755
REMARK INTER:                  -6.386
REMARK INTRA:                  -1.370
REMARK UNBOUND:                -1.526
REMARK SMILES CCCCCCCCCCCCCCCC(=O)[O-]
REMARK SMILES IDX 9 1 10 2 11 3 12 4 13 5 14 6 15 7 16 8 17 9 18 10 8 11 7 12
REMARK SMILES IDX 6 13 5 14 4 15 3 16 2 17 1 18
REMARK H PARENT
REMARK Flexibility Score: inf
ROOT
ATOM      1  C   UNL     1      12.421  24.901  97.529  1.00  0.00     0.000 C 
ENDROOT
BRANCH   1   2
ATOM      2  C   UNL     1      11.078  25.608  97.260  1.00  0.00     0.000 C 
BRANCH   2   3
ATOM      3  C   UNL     1      11.059  26.512  96.013  1.00  0.00     0.000 C 
BRANCH   3   4
ATOM      4  C   UNL     1      12.097  26.154  94.934  1.00  0.00     0.000 C 
BRANCH   4   5
ATOM      5  C   UNL     1      11.456  25.786  93.587  1.00  0.00     0.000 C 
BRANCH   5   6
ATOM      6  C   UNL     1      10.485  24.606  93.746  1.00  0.00     0.006 C 
BRANCH   6   7
ATOM      7  C   UNL     1      11.215  23.286  94.026  1.00  0.00     0.053 C 
BRANCH   7   8
ATOM      8  C   UNL     1      11.285  22.419  92.807  1.00  0.00     0.041 C 
ATOM      9  O   UNL     1      12.356  22.335  92.150  1.00  0.00    -0.550 OA
ATOM     10  O   UNL     1      10.178  21.675  92.417  1.00  0.00    -0.550 OA
ENDBRANCH   7   8
ENDBRANCH   6   7
ENDBRANCH   5   6
ENDBRANCH   4   5
ENDBRANCH   3   4
ENDBRANCH   2   3
ENDBRANCH   1   2
BRANCH   1  11
ATOM     11  C   UNL     1      12.797  24.832  99.025  1.00  0.00     0.000 C 
BRANCH  11  12
ATOM     12  C   UNL     1      13.453  26.130  99.523  1.00  0.00    -0.000 C 
BRANCH  12  13
ATOM     13  C   UNL     1      14.951  25.963  99.833  1.00  0.00    -0.000 C 
BRANCH  13  14
ATOM     14  C   UNL     1      15.631  24.765  99.138  1.00  0.00    -0.000 C 
BRANCH  14  15
ATOM     15  C   UNL     1      16.916  25.103  98.357  1.00  0.00    -0.000 C 
BRANCH  15  16
ATOM     16  C   UNL     1      16.698  25.475  96.879  1.00  0.00    -0.000 C 
BRANCH  16  17
ATOM     17  C   UNL     1      15.613  26.544  96.687  1.00  0.00    -0.003 C 
ATOM     18  C   UNL     1      15.658  27.124  95.276  1.00  0.00     0.004 C 
ENDBRANCH  16  17
ENDBRANCH  15  16
ENDBRANCH  14  15
ENDBRANCH  13  14
ENDBRANCH  12  13
ENDBRANCH  11  12
ENDBRANCH   1  11
TORSDOF 14
ENDMDL
MODEL 3
REMARK VINA RESULT:    -3.154      2.807      6.578
REMARK INTER + INTRA:          -7.262
REMARK INTER:                  -5.818
REMARK INTRA:                  -1.445
REMARK UNBOUND:                -1.526
REMARK SMILES CCCCCCCCCCCCCCCC(=O)[O-]
REMARK SMILES IDX 9 1 10 2 11 3 12 4 13 5 14 6 15 7 16 8 17 9 18 10 8 11 7 12
REMARK SMILES IDX 6 13 5 14 4 15 3 16 2 17 1 18
REMARK H PARENT
REMARK Flexibility Score: inf
ROOT
ATOM      1  C   UNL     1      11.733  25.081  96.166  1.00  0.00     0.000 C 
ENDROOT
BRANCH   1   2
ATOM      2  C   UNL     1      11.711  25.345  97.684  1.00  0.00     0.000 C 
BRANCH   2   3
ATOM      3  C   UNL     1      12.234  26.729  98.111  1.00  0.00     0.000 C 
BRANCH   3   4
ATOM      4  C   UNL     1      12.945  26.763  99.477  1.00  0.00     0.000 C 
BRANCH   4   5
ATOM      5  C   UNL     1      14.434  27.122  99.367  1.00  0.00     0.000 C 
BRANCH   5   6
ATOM      6  C   UNL     1      14.949  26.895  97.938  1.00  0.00     0.006 C 
BRANCH   6   7
ATOM      7  C   UNL     1      15.286  25.423  97.668  1.00  0.00     0.053 C 
BRANCH   7   8
ATOM      8  C   UNL     1      16.245  24.877  98.681  1.00  0.00     0.041 C 
ATOM      9  O   UNL     1      15.819  24.233  99.675  1.00  0.00    -0.550 OA
ATOM     10  O   UNL     1      17.613  25.047  98.507  1.00  0.00    -0.550 OA
ENDBRANCH   7   8
ENDBRANCH   6   7
ENDBRANCH   5   6
ENDBRANCH   4   5
ENDBRANCH   3   4
ENDBRANCH   2   3
ENDBRANCH   1   2
BRANCH   1  11
ATOM     11  C   UNL     1      11.430  26.331  95.314  1.00  0.00     0.000 C 
BRANCH  11  12
ATOM     12  C   UNL     1      12.599  26.709  94.390  1.00  0.00    -0.000 C 
BRANCH  12  13
ATOM     13  C   UNL     1      12.243  26.595  92.897  1.00  0.00    -0.000 C 
BRANCH  13  14
ATOM     14  C   UNL     1      13.092  25.584  92.100  1.00  0.00    -0.000 C 
BRANCH  14  15
ATOM     15  C   UNL     1      12.460  24.188  91.930  1.00  0.00    -0.000 C 
BRANCH  15  16
ATOM     16  C   UNL     1      10.935  24.137  92.132  1.00  0.00    -0.000 C 
BRANCH  16  17
ATOM     17  C   UNL     1      10.521  23.282  93.337  1.00  0.00    -0.003 C 
ATOM     18  C   UNL     1      11.615  22.284  93.704  1.00  0.00     0.004 C 
ENDBRANCH  16  17
ENDBRANCH  15  16
ENDBRANCH  14  15
ENDBRANCH  13  14
ENDBRANCH  12  13
ENDBRANCH  11  12
ENDBRANCH   1  11
TORSDOF 14
ENDMDL
MODEL 4
REMARK VINA RESULT:    -2.826      1.458      3.281
REMARK INTER + INTRA:          -6.666
REMARK INTER:                  -5.154
REMARK INTRA:                  -1.512
REMARK UNBOUND:                -1.526
REMARK SMILES CCCCCCCCCCCCCCCC(=O)[O-]
REMARK SMILES IDX 9 1 10 2 11 3 12 4 13 5 14 6 15 7 16 8 17 9 18 10 8 11 7 12
REMARK SMILES IDX 6 13 5 14 4 15 3 16 2 17 1 18
REMARK H PARENT
REMARK Flexibility Score: inf
ROOT
ATOM      1  C   UNL     1      12.785  24.611  98.686  1.00  0.00     0.000 C 
ENDROOT
BRANCH   1   2
ATOM      2  C   UNL     1      12.309  25.910  98.006  1.00  0.00     0.000 C 
BRANCH   2   3
ATOM      3  C   UNL     1      10.987  25.787  97.225  1.00  0.00     0.000 C 
BRANCH   3   4
ATOM      4  C   UNL     1      10.896  26.660  95.959  1.00  0.00     0.000 C 
BRANCH   4   5
ATOM      5  C   UNL     1      10.501  25.860  94.709  1.00  0.00     0.000 C 
BRANCH   5   6
ATOM      6  C   UNL     1      10.603  24.350  94.970  1.00  0.00     0.006 C 
BRANCH   6   7
ATOM      7  C   UNL     1      10.531  23.530  93.675  1.00  0.00     0.053 C 
BRANCH   7   8
ATOM      8  C   UNL     1      11.630  22.515  93.597  1.00  0.00     0.041 C 
ATOM      9  O   UNL     1      12.179  22.258  92.494  1.00  0.00    -0.550 OA
ATOM     10  O   UNL     1      12.073  21.879  94.751  1.00  0.00    -0.550 OA
ENDBRANCH   7   8
ENDBRANCH   6   7
ENDBRANCH   5   6
ENDBRANCH   4   5
ENDBRANCH   3   4
ENDBRANCH   2   3
ENDBRANCH   1   2
BRANCH   1  11
ATOM     11  C   UNL     1      14.247  24.241  98.362  1.00  0.00     0.000 C 
BRANCH  11  12
ATOM     12  C   UNL     1      15.251  25.238  98.962  1.00  0.00    -0.000 C 
BRANCH  12  13
ATOM     13  C   UNL     1      16.616  25.216  98.251  1.00  0.00    -0.000 C 
BRANCH  13  14
ATOM     14  C   UNL     1      16.574  25.570  96.751  1.00  0.00    -0.000 C 
BRANCH  14  15
ATOM     15  C   UNL     1      15.924  26.927  96.415  1.00  0.00    -0.000 C 
BRANCH  15  16
ATOM     16  C   UNL     1      15.566  27.125  94.930  1.00  0.00    -0.000 C 
BRANCH  16  17
ATOM     17  C   UNL     1      14.092  26.821  94.628  1.00  0.00    -0.003 C 
ATOM     18  C   UNL     1      13.851  26.713  93.125  1.00  0.00     0.004 C 
ENDBRANCH  16  17
ENDBRANCH  15  16
ENDBRANCH  14  15
ENDBRANCH  13  14
ENDBRANCH  12  13
ENDBRANCH  11  12
ENDBRANCH   1  11
TORSDOF 14
ENDMDL
MODEL 5
REMARK VINA RESULT:    -2.689      1.112      3.009
REMARK INTER + INTRA:          -6.416
REMARK INTER:                  -4.985
REMARK INTRA:                  -1.431
REMARK UNBOUND:                -1.526
REMARK SMILES CCCCCCCCCCCCCCCC(=O)[O-]
REMARK SMILES IDX 9 1 10 2 11 3 12 4 13 5 14 6 15 7 16 8 17 9 18 10 8 11 7 12
REMARK SMILES IDX 6 13 5 14 4 15 3 16 2 17 1 18
REMARK H PARENT
REMARK Flexibility Score: inf
ROOT
ATOM      1  C   UNL     1      13.802  27.098  95.873  1.00  0.00     0.000 C 
ENDROOT
BRANCH   1   2
ATOM      2  C   UNL     1      12.894  26.438  94.818  1.00  0.00     0.000 C 
BRANCH   2   3
ATOM      3  C   UNL     1      11.406  26.350  95.204  1.00  0.00     0.000 C 
BRANCH   3   4
ATOM      4  C   UNL     1      10.574  25.361  94.366  1.00  0.00     0.000 C 
BRANCH   4   5
ATOM      5  C   UNL     1      10.495  25.753  92.883  1.00  0.00     0.000 C 
BRANCH   5   6
ATOM      6  C   UNL     1      10.700  24.528  91.980  1.00  0.00     0.006 C 
BRANCH   6   7
ATOM      7  C   UNL     1      11.844  23.631  92.468  1.00  0.00     0.053 C 
BRANCH   7   8
ATOM      8  C   UNL     1      11.335  22.359  93.074  1.00  0.00     0.041 C 
ATOM      9  O   UNL     1      10.417  21.710  92.507  1.00  0.00    -0.550 OA
ATOM     10  O   UNL     1      11.899  21.871  94.247  1.00  0.00    -0.550 OA
ENDBRANCH   7   8
ENDBRANCH   6   7
ENDBRANCH   5   6
ENDBRANCH   4   5
ENDBRANCH   3   4
ENDBRANCH   2   3
ENDBRANCH   1   2
BRANCH   1  11
ATOM     11  C   UNL     1      15.299  26.764  95.701  1.00  0.00     0.000 C 
BRANCH  11  12
ATOM     12  C   UNL     1      16.042  26.692  97.045  1.00  0.00    -0.000 C 
BRANCH  12  13
ATOM     13  C   UNL     1      16.312  25.249  97.503  1.00  0.00    -0.000 C 
BRANCH  13  14
ATOM     14  C   UNL     1      15.146  24.574  98.254  1.00  0.00    -0.000 C 
BRANCH  14  15
ATOM     15  C   UNL     1      14.397  25.479  99.252  1.00  0.00    -0.000 C 
BRANCH  15  16
ATOM     16  C   UNL     1      12.869  25.519  99.071  1.00  0.00    -0.000 C 
BRANCH  16  17
ATOM     17  C   UNL     1      12.281  26.922  99.274  1.00  0.00    -0.003 C 
ATOM     18  C   UNL     1      10.919  27.050  98.599  1.00  0.00     0.004 C 
ENDBRANCH  16  17
ENDBRANCH  15  16
ENDBRANCH  14  15
ENDBRANCH  13  14
ENDBRANCH  12  13
ENDBRANCH  11  12
ENDBRANCH   1  11
TORSDOF 14
ENDMDL
MODEL 6
REMARK VINA RESULT:    -2.647      1.351      2.523
REMARK INTER + INTRA:          -6.340
REMARK INTER:                  -5.173
REMARK INTRA:                  -1.167
REMARK UNBOUND:                -1.526
REMARK SMILES CCCCCCCCCCCCCCCC(=O)[O-]
REMARK SMILES IDX 9 1 10 2 11 3 12 4 13 5 14 6 15 7 16 8 17 9 18 10 8 11 7 12
REMARK SMILES IDX 6 13 5 14 4 15 3 16 2 17 1 18
REMARK H PARENT
REMARK Flexibility Score: inf
ROOT
ATOM      1  C   UNL     1      11.993  25.550  96.740  1.00  0.00     0.000 C 
ENDROOT
BRANCH   1   2
ATOM      2  C   UNL     1      10.474  25.622  96.489  1.00  0.00     0.000 C 
BRANCH   2   3
ATOM      3  C   UNL     1      10.048  26.562  95.346  1.00  0.00     0.000 C 
BRANCH   3   4
ATOM      4  C   UNL     1       9.922  25.891  93.965  1.00  0.00     0.000 C 
BRANCH   4   5
ATOM      5  C   UNL     1      11.103  26.208  93.036  1.00  0.00     0.000 C 
BRANCH   5   6
ATOM      6  C   UNL     1      11.376  25.040  92.077  1.00  0.00     0.006 C 
BRANCH   6   7
ATOM      7  C   UNL     1      10.308  23.943  92.178  1.00  0.00     0.053 C 
BRANCH   7   8
ATOM      8  C   UNL     1      10.916  22.594  92.413  1.00  0.00     0.041 C 
ATOM      9  O   UNL     1      12.166  22.469  92.505  1.00  0.00    -0.550 OA
ATOM     10  O   UNL     1      10.100  21.480  92.568  1.00  0.00    -0.550 OA
ENDBRANCH   7   8
ENDBRANCH   6   7
ENDBRANCH   5   6
ENDBRANCH   4   5
ENDBRANCH   3   4
ENDBRANCH   2   3
ENDBRANCH   1   2
BRANCH   1  11
ATOM     11  C   UNL     1      12.711  26.908  96.596  1.00  0.00     0.000 C 
BRANCH  11  12
ATOM     12  C   UNL     1      13.607  26.968  95.348  1.00  0.00    -0.000 C 
BRANCH  12  13
ATOM     13  C   UNL     1      15.107  26.994  95.689  1.00  0.00    -0.000 C 
BRANCH  13  14
ATOM     14  C   UNL     1      15.442  26.757  97.176  1.00  0.00    -0.000 C 
BRANCH  14  15
ATOM     15  C   UNL     1      16.212  25.457  97.476  1.00  0.00    -0.000 C 
BRANCH  15  16
ATOM     16  C   UNL     1      15.911  24.826  98.848  1.00  0.00    -0.000 C 
BRANCH  16  17
ATOM     17  C   UNL     1      14.447  25.001  99.275  1.00  0.00    -0.003 C 
ATOM     18  C   UNL     1      14.256  26.291 100.066  1.00  0.00     0.004 C 
ENDBRANCH  16  17
ENDBRANCH  15  16
ENDBRANCH  14  15
ENDBRANCH  13  14
ENDBRANCH  12  13
ENDBRANCH  11  12
ENDBRANCH   1  11
TORSDOF 14
ENDMDL
MODEL 7
REMARK VINA RESULT:    -2.637      2.548      6.750
REMARK INTER + INTRA:          -6.322
REMARK INTER:                  -5.052
REMARK INTRA:                  -1.269
REMARK UNBOUND:                -1.526
REMARK SMILES CCCCCCCCCCCCCCCC(=O)[O-]
REMARK SMILES IDX 9 1 10 2 11 3 12 4 13 5 14 6 15 7 16 8 17 9 18 10 8 11 7 12
REMARK SMILES IDX 6 13 5 14 4 15 3 16 2 17 1 18
REMARK H PARENT
REMARK Flexibility Score: inf
ROOT
ATOM      1  C   UNL     1      12.752  26.573  96.560  1.00  0.00     0.000 C 
ENDROOT
BRANCH   1   2
ATOM      2  C   UNL     1      11.955  26.192  97.822  1.00  0.00     0.000 C 
BRANCH   2   3
ATOM      3  C   UNL     1      12.803  25.645  98.985  1.00  0.00     0.000 C 
BRANCH   3   4
ATOM      4  C   UNL     1      13.428  24.259  98.739  1.00  0.00     0.000 C 
BRANCH   4   5
ATOM      5  C   UNL     1      14.797  24.092  99.417  1.00  0.00     0.000 C 
BRANCH   5   6
ATOM      6  C   UNL     1      15.580  25.413  99.405  1.00  0.00     0.006 C 
BRANCH   6   7
ATOM      7  C   UNL     1      17.023  25.229  98.919  1.00  0.00     0.053 C 
BRANCH   7   8
ATOM      8  C   UNL     1      17.106  25.181  97.424  1.00  0.00     0.041 C 
ATOM      9  O   UNL     1      18.046  24.560  96.861  1.00  0.00    -0.550 OA
ATOM     10  O   UNL     1      16.124  25.790  96.652  1.00  0.00    -0.550 OA
ENDBRANCH   7   8
ENDBRANCH   6   7
ENDBRANCH   5   6
ENDBRANCH   4   5
ENDBRANCH   3   4
ENDBRANCH   2   3
ENDBRANCH   1   2
BRANCH   1  11
ATOM     11  C   UNL     1      11.991  26.312  95.243  1.00  0.00     0.000 C 
BRANCH  11  12
ATOM     12  C   UNL     1      12.803  26.726  94.005  1.00  0.00    -0.000 C 
BRANCH  12  13
ATOM     13  C   UNL     1      12.093  26.389  92.682  1.00  0.00    -0.000 C 
BRANCH  13  14
ATOM     14  C   UNL     1      10.627  25.930  92.829  1.00  0.00    -0.000 C 
BRANCH  14  15
ATOM     15  C   UNL     1      10.355  24.466  92.429  1.00  0.00    -0.000 C 
BRANCH  15  16
ATOM     16  C   UNL     1      10.297  23.473  93.604  1.00  0.00    -0.000 C 
BRANCH  16  17
ATOM     17  C   UNL     1      11.270  22.297  93.438  1.00  0.00    -0.003 C 
ATOM     18  C   UNL     1      12.263  22.561  92.310  1.00  0.00     0.004 C 
ENDBRANCH  16  17
ENDBRANCH  15  16
ENDBRANCH  14  15
ENDBRANCH  13  14
ENDBRANCH  12  13
ENDBRANCH  11  12
ENDBRANCH   1  11
TORSDOF 14
ENDMDL
MODEL 8
REMARK VINA RESULT:    -2.343      2.517      6.079
REMARK INTER + INTRA:          -5.788
REMARK INTER:                  -5.040
REMARK INTRA:                  -0.747
REMARK UNBOUND:                -1.526
REMARK SMILES CCCCCCCCCCCCCCCC(=O)[O-]
REMARK SMILES IDX 9 1 10 2 11 3 12 4 13 5 14 6 15 7 16 8 17 9 18 10 8 11 7 12
REMARK SMILES IDX 6 13 5 14 4 15 3 16 2 17 1 18
REMARK H PARENT
REMARK Flexibility Score: inf
ROOT
ATOM      1  C   UNL     1      12.760  24.939  97.753  1.00  0.00     0.000 C 
ENDROOT
BRANCH   1   2
ATOM      2  C   UNL     1      13.125  24.866  99.249  1.00  0.00     0.000 C 
BRANCH   2   3
ATOM      3  C   UNL     1      13.625  26.187  99.861  1.00  0.00     0.000 C 
BRANCH   3   4
ATOM      4  C   UNL     1      14.438  27.081  98.905  1.00  0.00     0.000 C 
BRANCH   4   5
ATOM      5  C   UNL     1      15.914  26.663  98.807  1.00  0.00     0.000 C 
BRANCH   5   6
ATOM      6  C   UNL     1      16.064  25.369  97.995  1.00  0.00     0.006 C 
BRANCH   6   7
ATOM      7  C   UNL     1      16.968  25.554  96.769  1.00  0.00     0.053 C 
BRANCH   7   8
ATOM      8  C   UNL     1      16.344  26.456  95.748  1.00  0.00     0.041 C 
ATOM      9  O   UNL     1      15.099  26.638  95.740  1.00  0.00    -0.550 OA
ATOM     10  O   UNL     1      17.143  27.125  94.829  1.00  0.00    -0.550 OA
ENDBRANCH   7   8
ENDBRANCH   6   7
ENDBRANCH   5   6
ENDBRANCH   4   5
ENDBRANCH   3   4
ENDBRANCH   2   3
ENDBRANCH   1   2
BRANCH   1  11
ATOM     11  C   UNL     1      11.268  25.235  97.493  1.00  0.00     0.000 C 
BRANCH  11  12
ATOM     12  C   UNL     1      11.002  26.728  97.240  1.00  0.00    -0.000 C 
BRANCH  12  13
ATOM     13  C   UNL     1      10.944  27.081  95.744  1.00  0.00    -0.000 C 
BRANCH  13  14
ATOM     14  C   UNL     1      10.680  25.888  94.802  1.00  0.00    -0.000 C 
BRANCH  14  15
ATOM     15  C   UNL     1      11.870  25.482  93.909  1.00  0.00    -0.000 C 
BRANCH  15  16
ATOM     16  C   UNL     1      11.532  24.471  92.799  1.00  0.00    -0.000 C 
BRANCH  16  17
ATOM     17  C   UNL     1      10.787  23.236  93.324  1.00  0.00    -0.003 C 
ATOM     18  C   UNL     1      11.750  22.255  93.986  1.00  0.00     0.004 C 
ENDBRANCH  16  17
ENDBRANCH  15  16
ENDBRANCH  14  15
ENDBRANCH  13  14
ENDBRANCH  12  13
ENDBRANCH  11  12
ENDBRANCH   1  11
TORSDOF 14
ENDMDL
