MODEL 1
REMARK VINA RESULT:    -2.765      0.000      0.000
REMARK INTER + INTRA:          -7.911
REMARK INTER:                  -6.320
REMARK INTRA:                  -1.590
REMARK UNBOUND:                -1.590
REMARK SMILES CCCCCCCCCCCCCCCCCCCCCCCC(=O)[O-]
REMARK SMILES IDX 13 1 14 2 15 3 16 4 17 5 18 6 19 7 20 8 21 9 22 10 23 11
REMARK SMILES IDX 24 12 25 13 26 14 12 15 11 16 10 17 9 18 8 19 7 20 6 21 5 22
REMARK SMILES IDX 4 23 3 24 2 25 1 26
REMARK H PARENT
REMARK Flexibility Score: inf
ROOT
ATOM      1  C   UNL     1       8.311   7.254  -2.539  1.00  0.00     0.000 C 
ENDROOT
BRANCH   1   2
ATOM      2  C   UNL     1       7.960   8.308  -1.469  1.00  0.00     0.000 C 
BRANCH   2   3
ATOM      3  C   UNL     1       9.163   9.046  -0.854  1.00  0.00     0.000 C 
BRANCH   3   4
ATOM      4  C   UNL     1       8.916   9.475   0.602  1.00  0.00     0.000 C 
BRANCH   4   5
ATOM      5  C   UNL     1       7.443   9.817   0.882  1.00  0.00     0.000 C 
BRANCH   5   6
ATOM      6  C   UNL     1       6.969   9.336   2.266  1.00  0.00     0.000 C 
BRANCH   6   7
ATOM      7  C   UNL     1       7.917   9.772   3.395  1.00  0.00     0.000 C 
BRANCH   7   8
ATOM      8  C   UNL     1       7.991   8.732   4.526  1.00  0.00     0.000 C 
BRANCH   8   9
ATOM      9  C   UNL     1       9.277   8.855   5.360  1.00  0.00     0.000 C 
BRANCH   9  10
ATOM     10  C   UNL     1       9.127   8.268   6.773  1.00  0.00     0.006 C 
BRANCH  10  11
ATOM     11  C   UNL     1       8.574   6.840   6.718  1.00  0.00     0.053 C 
BRANCH  11  12
ATOM     12  C   UNL     1       9.400   5.924   7.566  1.00  0.00     0.041 C 
ATOM     13  O   UNL     1       9.902   6.340   8.645  1.00  0.00    -0.550 OA
ATOM     14  O   UNL     1       9.575   4.598   7.189  1.00  0.00    -0.550 OA
ENDBRANCH  11  12
ENDBRANCH  10  11
ENDBRANCH   9  10
ENDBRANCH   8   9
ENDBRANCH   7   8
ENDBRANCH   6   7
ENDBRANCH   5   6
ENDBRANCH   4   5
ENDBRANCH   3   4
ENDBRANCH   2   3
ENDBRANCH   1   2
BRANCH   1  15
ATOM     15  C   UNL     1       9.753   7.323  -3.078  1.00  0.00     0.000 C 
BRANCH  15  16
ATOM     16  C   UNL     1       9.966   8.478  -4.068  1.00  0.00     0.000 C 
BRANCH  16  17
ATOM     17  C   UNL     1       9.504   8.087  -5.480  1.00  0.00     0.000 C 
BRANCH  17  18
ATOM     18  C   UNL     1       8.085   8.586  -5.800  1.00  0.00    -0.000 C 
BRANCH  18  19
ATOM     19  C   UNL     1       8.078   9.729  -6.832  1.00  0.00    -0.000 C 
BRANCH  19  20
ATOM     20  C   UNL     1       6.923   9.607  -7.839  1.00  0.00    -0.000 C 
BRANCH  20  21
ATOM     21  C   UNL     1       5.816   8.656  -7.360  1.00  0.00    -0.000 C 
BRANCH  21  22
ATOM     22  C   UNL     1       4.602   9.442  -6.845  1.00  0.00    -0.000 C 
BRANCH  22  23
ATOM     23  C   UNL     1       4.063   8.828  -5.544  1.00  0.00    -0.000 C 
BRANCH  23  24
ATOM     24  C   UNL     1       5.032   8.986  -4.358  1.00  0.00    -0.000 C 
BRANCH  24  25
ATOM     25  C   UNL     1       4.526   8.400  -3.028  1.00  0.00    -0.003 C 
ATOM     26  C   UNL     1       4.853   6.915  -2.866  1.00  0.00     0.004 C 
ENDBRANCH  24  25
ENDBRANCH  23  24
ENDBRANCH  22  23
ENDBRANCH  21  22
ENDBRANCH  20  21
ENDBRANCH  19  20
ENDBRANCH  18  19
ENDBRANCH  17  18
ENDBRANCH  16  17
ENDBRANCH  15  16
ENDBRANCH   1  15
TORSDOF 22
ENDMDL
MODEL 2
REMARK VINA RESULT:    -2.609     15.002     17.632
REMARK INTER + INTRA:          -7.554
REMARK INTER:                  -5.723
REMARK INTRA:                  -1.831
REMARK UNBOUND:                -1.590
REMARK SMILES CCCCCCCCCCCCCCCCCCCCCCCC(=O)[O-]
REMARK SMILES IDX 13 1 14 2 15 3 16 4 17 5 18 6 19 7 20 8 21 9 22 10 23 11
REMARK SMILES IDX 24 12 25 13 26 14 12 15 11 16 10 17 9 18 8 19 7 20 6 21 5 22
REMARK SMILES IDX 4 23 3 24 2 25 1 26
REMARK H PARENT
REMARK Flexibility Score: inf
ROOT
ATOM      1  C   UNL     1      -9.827   3.717  -7.113  1.00  0.00     0.000 C 
ENDROOT
BRANCH   1   2
ATOM      2  C   UNL     1      -9.762   2.523  -8.086  1.00  0.00     0.000 C 
BRANCH   2   3
ATOM      3  C   UNL     1      -8.979   1.300  -7.573  1.00  0.00     0.000 C 
BRANCH   3   4
ATOM      4  C   UNL     1      -9.882   0.263  -6.885  1.00  0.00     0.000 C 
BRANCH   4   5
ATOM      5  C   UNL     1      -9.979   0.471  -5.365  1.00  0.00     0.000 C 
BRANCH   5   6
ATOM      6  C   UNL     1      -8.642   0.900  -4.732  1.00  0.00     0.000 C 
BRANCH   6   7
ATOM      7  C   UNL     1      -8.735   2.267  -4.035  1.00  0.00     0.000 C 
BRANCH   7   8
ATOM      8  C   UNL     1      -7.769   2.380  -2.843  1.00  0.00     0.000 C 
BRANCH   8   9
ATOM      9  C   UNL     1      -6.433   1.662  -3.094  1.00  0.00     0.000 C 
BRANCH   9  10
ATOM     10  C   UNL     1      -5.288   2.218  -2.231  1.00  0.00     0.006 C 
BRANCH  10  11
ATOM     11  C   UNL     1      -5.826   2.833  -0.936  1.00  0.00     0.053 C 
BRANCH  11  12
ATOM     12  C   UNL     1      -5.335   2.067   0.252  1.00  0.00     0.041 C 
ATOM     13  O   UNL     1      -4.802   0.935   0.100  1.00  0.00    -0.550 OA
ATOM     14  O   UNL     1      -5.421   2.624   1.523  1.00  0.00    -0.550 OA
ENDBRANCH  11  12
ENDBRANCH  10  11
ENDBRANCH   9  10
ENDBRANCH   8   9
ENDBRANCH   7   8
ENDBRANCH   6   7
ENDBRANCH   5   6
ENDBRANCH   4   5
ENDBRANCH   3   4
ENDBRANCH   2   3
ENDBRANCH   1   2
BRANCH   1  15
ATOM     15  C   UNL     1      -9.117   4.997  -7.595  1.00  0.00     0.000 C 
BRANCH  15  16
ATOM     16  C   UNL     1      -8.229   4.759  -8.826  1.00  0.00     0.000 C 
BRANCH  16  17
ATOM     17  C   UNL     1      -8.739   5.556 -10.036  1.00  0.00     0.000 C 
BRANCH  17  18
ATOM     18  C   UNL     1      -8.472   7.065  -9.909  1.00  0.00    -0.000 C 
BRANCH  18  19
ATOM     19  C   UNL     1      -7.358   7.387  -8.896  1.00  0.00    -0.000 C 
BRANCH  19  20
ATOM     20  C   UNL     1      -7.073   8.893  -8.791  1.00  0.00    -0.000 C 
BRANCH  20  21
ATOM     21  C   UNL     1      -7.393   9.462  -7.400  1.00  0.00    -0.000 C 
BRANCH  21  22
ATOM     22  C   UNL     1      -8.908   9.626  -7.209  1.00  0.00    -0.000 C 
BRANCH  22  23
ATOM     23  C   UNL     1      -9.231  10.121  -5.792  1.00  0.00    -0.000 C 
BRANCH  23  24
ATOM     24  C   UNL     1      -9.919   9.052  -4.924  1.00  0.00    -0.000 C 
BRANCH  24  25
ATOM     25  C   UNL     1      -9.474   7.607  -5.205  1.00  0.00    -0.003 C 
ATOM     26  C   UNL     1     -10.036   6.601  -4.201  1.00  0.00     0.004 C 
ENDBRANCH  24  25
ENDBRANCH  23  24
ENDBRANCH  22  23
ENDBRANCH  21  22
ENDBRANCH  20  21
ENDBRANCH  19  20
ENDBRANCH  18  19
ENDBRANCH  17  18
ENDBRANCH  16  17
ENDBRANCH  15  16
ENDBRANCH   1  15
TORSDOF 22
ENDMDL
MODEL 3
REMARK VINA RESULT:    -2.582     15.970     19.605
REMARK INTER + INTRA:          -7.492
REMARK INTER:                  -5.184
REMARK INTRA:                  -2.309
REMARK UNBOUND:                -1.590
REMARK SMILES CCCCCCCCCCCCCCCCCCCCCCCC(=O)[O-]
REMARK SMILES IDX 13 1 14 2 15 3 16 4 17 5 18 6 19 7 20 8 21 9 22 10 23 11
REMARK SMILES IDX 24 12 25 13 26 14 12 15 11 16 10 17 9 18 8 19 7 20 6 21 5 22
REMARK SMILES IDX 4 23 3 24 2 25 1 26
REMARK H PARENT
REMARK Flexibility Score: inf
ROOT
ATOM      1  C   UNL     1      -9.675   1.827 -10.125  1.00  0.00     0.000 C 
ENDROOT
BRANCH   1   2
ATOM      2  C   UNL     1      -8.772   3.040  -9.824  1.00  0.00     0.000 C 
BRANCH   2   3
ATOM      3  C   UNL     1      -9.352   4.058  -8.823  1.00  0.00     0.000 C 
BRANCH   3   4
ATOM      4  C   UNL     1      -8.777   3.891  -7.407  1.00  0.00     0.000 C 
BRANCH   4   5
ATOM      5  C   UNL     1      -9.800   4.218  -6.306  1.00  0.00     0.000 C 
BRANCH   5   6
ATOM      6  C   UNL     1      -9.240   5.165  -5.229  1.00  0.00     0.000 C 
BRANCH   6   7
ATOM      7  C   UNL     1     -10.109   6.419  -5.041  1.00  0.00     0.000 C 
BRANCH   7   8
ATOM      8  C   UNL     1      -9.283   7.637  -4.593  1.00  0.00     0.000 C 
BRANCH   8   9
ATOM      9  C   UNL     1     -10.022   8.967  -4.814  1.00  0.00     0.000 C 
BRANCH   9  10
ATOM     10  C   UNL     1      -9.919   9.471  -6.263  1.00  0.00     0.006 C 
BRANCH  10  11
ATOM     11  C   UNL     1      -8.470   9.424  -6.759  1.00  0.00     0.053 C 
BRANCH  11  12
ATOM     12  C   UNL     1      -8.381   8.669  -8.048  1.00  0.00     0.041 C 
ATOM     13  O   UNL     1      -7.766   9.163  -9.031  1.00  0.00    -0.550 OA
ATOM     14  O   UNL     1      -8.934   7.398  -8.149  1.00  0.00    -0.550 OA
ENDBRANCH  11  12
ENDBRANCH  10  11
ENDBRANCH   9  10
ENDBRANCH   8   9
ENDBRANCH   7   8
ENDBRANCH   6   7
ENDBRANCH   5   6
ENDBRANCH   4   5
ENDBRANCH   3   4
ENDBRANCH   2   3
ENDBRANCH   1   2
BRANCH   1  15
ATOM     15  C   UNL     1      -9.047   0.452  -9.826  1.00  0.00     0.000 C 
BRANCH  15  16
ATOM     16  C   UNL     1      -9.884  -0.388  -8.850  1.00  0.00     0.000 C 
BRANCH  16  17
ATOM     17  C   UNL     1     -10.125   0.370  -7.536  1.00  0.00     0.000 C 
BRANCH  17  18
ATOM     18  C   UNL     1      -8.914   0.316  -6.589  1.00  0.00    -0.000 C 
BRANCH  18  19
ATOM     19  C   UNL     1      -9.229  -0.406  -5.266  1.00  0.00    -0.000 C 
BRANCH  19  20
ATOM     20  C   UNL     1      -9.319   0.560  -4.074  1.00  0.00    -0.000 C 
BRANCH  20  21
ATOM     21  C   UNL     1      -8.313   1.718  -4.171  1.00  0.00    -0.000 C 
BRANCH  21  22
ATOM     22  C   UNL     1      -7.046   1.414  -3.360  1.00  0.00    -0.000 C 
BRANCH  22  23
ATOM     23  C   UNL     1      -6.508   2.687  -2.688  1.00  0.00    -0.000 C 
BRANCH  23  24
ATOM     24  C   UNL     1      -5.449   2.395  -1.610  1.00  0.00    -0.000 C 
BRANCH  24  25
ATOM     25  C   UNL     1      -5.738   3.019  -0.233  1.00  0.00    -0.003 C 
ATOM     26  C   UNL     1      -5.309   2.126   0.931  1.00  0.00     0.004 C 
ENDBRANCH  24  25
ENDBRANCH  23  24
ENDBRANCH  22  23
ENDBRANCH  21  22
ENDBRANCH  20  21
ENDBRANCH  19  20
ENDBRANCH  18  19
ENDBRANCH  17  18
ENDBRANCH  16  17
ENDBRANCH  15  16
ENDBRANCH   1  15
TORSDOF 22
ENDMDL
MODEL 4
REMARK VINA RESULT:    -2.562     15.479     19.125
REMARK INTER + INTRA:          -7.447
REMARK INTER:                  -5.359
REMARK INTRA:                  -2.088
REMARK UNBOUND:                -1.590
REMARK SMILES CCCCCCCCCCCCCCCCCCCCCCCC(=O)[O-]
REMARK SMILES IDX 13 1 14 2 15 3 16 4 17 5 18 6 19 7 20 8 21 9 22 10 23 11
REMARK SMILES IDX 24 12 25 13 26 14 12 15 11 16 10 17 9 18 8 19 7 20 6 21 5 22
REMARK SMILES IDX 4 23 3 24 2 25 1 26
REMARK H PARENT
REMARK Flexibility Score: inf
ROOT
ATOM      1  C   UNL     1      -8.855   1.087  -7.509  1.00  0.00     0.000 C 
ENDROOT
BRANCH   1   2
ATOM      2  C   UNL     1      -9.493   1.194  -8.909  1.00  0.00     0.000 C 
BRANCH   2   3
ATOM      3  C   UNL     1      -8.573   1.758 -10.009  1.00  0.00     0.000 C 
BRANCH   3   4
ATOM      4  C   UNL     1      -8.631   3.292 -10.102  1.00  0.00     0.000 C 
BRANCH   4   5
ATOM      5  C   UNL     1      -7.568   3.983  -9.233  1.00  0.00     0.000 C 
BRANCH   5   6
ATOM      6  C   UNL     1      -8.137   5.147  -8.401  1.00  0.00     0.000 C 
BRANCH   6   7
ATOM      7  C   UNL     1      -8.299   4.784  -6.916  1.00  0.00     0.000 C 
BRANCH   7   8
ATOM      8  C   UNL     1      -9.387   5.624  -6.226  1.00  0.00     0.000 C 
BRANCH   8   9
ATOM      9  C   UNL     1      -8.809   6.817  -5.448  1.00  0.00     0.000 C 
BRANCH   9  10
ATOM     10  C   UNL     1      -9.646   8.096  -5.612  1.00  0.00     0.006 C 
BRANCH  10  11
ATOM     11  C   UNL     1      -8.786   9.252  -6.132  1.00  0.00     0.053 C 
BRANCH  11  12
ATOM     12  C   UNL     1      -8.223   8.922  -7.478  1.00  0.00     0.041 C 
ATOM     13  O   UNL     1      -8.972   8.472  -8.386  1.00  0.00    -0.550 OA
ATOM     14  O   UNL     1      -6.880   9.159  -7.747  1.00  0.00    -0.550 OA
ENDBRANCH  11  12
ENDBRANCH  10  11
ENDBRANCH   9  10
ENDBRANCH   8   9
ENDBRANCH   7   8
ENDBRANCH   6   7
ENDBRANCH   5   6
ENDBRANCH   4   5
ENDBRANCH   3   4
ENDBRANCH   2   3
ENDBRANCH   1   2
BRANCH   1  15
ATOM     15  C   UNL     1      -9.645   0.242  -6.492  1.00  0.00     0.000 C 
BRANCH  15  16
ATOM     16  C   UNL     1      -9.581   0.809  -5.066  1.00  0.00     0.000 C 
BRANCH  16  17
ATOM     17  C   UNL     1      -8.648   2.028  -4.998  1.00  0.00     0.000 C 
BRANCH  17  18
ATOM     18  C   UNL     1      -8.765   2.792  -3.669  1.00  0.00    -0.000 C 
BRANCH  18  19
ATOM     19  C   UNL     1      -7.539   2.589  -2.759  1.00  0.00    -0.000 C 
BRANCH  19  20
ATOM     20  C   UNL     1      -6.626   1.452  -3.244  1.00  0.00    -0.000 C 
BRANCH  20  21
ATOM     21  C   UNL     1      -5.135   1.759  -3.036  1.00  0.00    -0.000 C 
BRANCH  21  22
ATOM     22  C   UNL     1      -4.514   0.797  -2.014  1.00  0.00    -0.000 C 
BRANCH  22  23
ATOM     23  C   UNL     1      -5.055   1.071  -0.603  1.00  0.00    -0.000 C 
BRANCH  23  24
ATOM     24  C   UNL     1      -4.874   2.535  -0.164  1.00  0.00    -0.000 C 
BRANCH  24  25
ATOM     25  C   UNL     1      -5.761   2.971   1.016  1.00  0.00    -0.003 C 
ATOM     26  C   UNL     1      -5.422   2.247   2.319  1.00  0.00     0.004 C 
ENDBRANCH  24  25
ENDBRANCH  23  24
ENDBRANCH  22  23
ENDBRANCH  21  22
ENDBRANCH  20  21
ENDBRANCH  19  20
ENDBRANCH  18  19
ENDBRANCH  17  18
ENDBRANCH  16  17
ENDBRANCH  15  16
ENDBRANCH   1  15
TORSDOF 22
ENDMDL
MODEL 5
REMARK VINA RESULT:    -2.481      1.329      2.054
REMARK INTER + INTRA:          -7.263
REMARK INTER:                  -5.697
REMARK INTRA:                  -1.566
REMARK UNBOUND:                -1.590
REMARK SMILES CCCCCCCCCCCCCCCCCCCCCCCC(=O)[O-]
REMARK SMILES IDX 13 1 14 2 15 3 16 4 17 5 18 6 19 7 20 8 21 9 22 10 23 11
REMARK SMILES IDX 24 12 25 13 26 14 12 15 11 16 10 17 9 18 8 19 7 20 6 21 5 22
REMARK SMILES IDX 4 23 3 24 2 25 1 26
REMARK H PARENT
REMARK Flexibility Score: inf
ROOT
ATOM      1  C   UNL     1       7.860   7.607  -2.114  1.00  0.00     0.000 C 
ENDROOT
BRANCH   1   2
ATOM      2  C   UNL     1       7.218   8.596  -1.121  1.00  0.00     0.000 C 
BRANCH   2   3
ATOM      3  C   UNL     1       8.093   9.807  -0.742  1.00  0.00     0.000 C 
BRANCH   3   4
ATOM      4  C   UNL     1       8.703   9.681   0.664  1.00  0.00     0.000 C 
BRANCH   4   5
ATOM      5  C   UNL     1       7.658   9.345   1.741  1.00  0.00     0.000 C 
BRANCH   5   6
ATOM      6  C   UNL     1       8.166   9.603   3.171  1.00  0.00     0.000 C 
BRANCH   6   7
ATOM      7  C   UNL     1       7.481   8.699   4.208  1.00  0.00     0.000 C 
BRANCH   7   8
ATOM      8  C   UNL     1       8.284   8.602   5.517  1.00  0.00     0.000 C 
BRANCH   8   9
ATOM      9  C   UNL     1       8.332   7.171   6.078  1.00  0.00     0.000 C 
BRANCH   9  10
ATOM     10  C   UNL     1       9.046   7.089   7.437  1.00  0.00     0.006 C 
BRANCH  10  11
ATOM     11  C   UNL     1       8.048   7.231   8.591  1.00  0.00     0.053 C 
BRANCH  11  12
ATOM     12  C   UNL     1       7.826   5.910   9.258  1.00  0.00     0.041 C 
ATOM     13  O   UNL     1       6.669   5.571   9.625  1.00  0.00    -0.550 OA
ATOM     14  O   UNL     1       8.889   5.032   9.432  1.00  0.00    -0.550 OA
ENDBRANCH  11  12
ENDBRANCH  10  11
ENDBRANCH   9  10
ENDBRANCH   8   9
ENDBRANCH   7   8
ENDBRANCH   6   7
ENDBRANCH   5   6
ENDBRANCH   4   5
ENDBRANCH   3   4
ENDBRANCH   2   3
ENDBRANCH   1   2
BRANCH   1  15
ATOM     15  C   UNL     1       9.396   7.513  -2.046  1.00  0.00     0.000 C 
BRANCH  15  16
ATOM     16  C   UNL     1      10.094   8.301  -3.165  1.00  0.00     0.000 C 
BRANCH  16  17
ATOM     17  C   UNL     1       9.937   7.593  -4.519  1.00  0.00     0.000 C 
BRANCH  17  18
ATOM     18  C   UNL     1       9.074   8.392  -5.510  1.00  0.00    -0.000 C 
BRANCH  18  19
ATOM     19  C   UNL     1       9.918   9.231  -6.487  1.00  0.00    -0.000 C 
BRANCH  19  20
ATOM     20  C   UNL     1       9.066   9.910  -7.571  1.00  0.00    -0.000 C 
BRANCH  20  21
ATOM     21  C   UNL     1       8.537   8.917  -8.617  1.00  0.00    -0.000 C 
BRANCH  21  22
ATOM     22  C   UNL     1       7.051   9.167  -8.909  1.00  0.00    -0.000 C 
BRANCH  22  23
ATOM     23  C   UNL     1       6.353   9.799  -7.695  1.00  0.00    -0.000 C 
BRANCH  23  24
ATOM     24  C   UNL     1       5.143   8.984  -7.206  1.00  0.00    -0.000 C 
BRANCH  24  25
ATOM     25  C   UNL     1       4.644   9.349  -5.797  1.00  0.00    -0.003 C 
ATOM     26  C   UNL     1       5.519   8.771  -4.684  1.00  0.00     0.004 C 
ENDBRANCH  24  25
ENDBRANCH  23  24
ENDBRANCH  22  23
ENDBRANCH  21  22
ENDBRANCH  20  21
ENDBRANCH  19  20
ENDBRANCH  18  19
ENDBRANCH  17  18
ENDBRANCH  16  17
ENDBRANCH  15  16
ENDBRANCH   1  15
TORSDOF 22
ENDMDL
MODEL 6
REMARK VINA RESULT:    -2.436     15.300     18.931
REMARK INTER + INTRA:          -7.160
REMARK INTER:                  -5.579
REMARK INTRA:                  -1.581
REMARK UNBOUND:                -1.590
REMARK SMILES CCCCCCCCCCCCCCCCCCCCCCCC(=O)[O-]
REMARK SMILES IDX 13 1 14 2 15 3 16 4 17 5 18 6 19 7 20 8 21 9 22 10 23 11
REMARK SMILES IDX 24 12 25 13 26 14 12 15 11 16 10 17 9 18 8 19 7 20 6 21 5 22
REMARK SMILES IDX 4 23 3 24 2 25 1 26
REMARK H PARENT
REMARK Flexibility Score: inf
ROOT
ATOM      1  C   UNL     1      -9.496   3.962  -7.579  1.00  0.00     0.000 C 
ENDROOT
BRANCH   1   2
ATOM      2  C   UNL     1      -8.559   3.304  -8.612  1.00  0.00     0.000 C 
BRANCH   2   3
ATOM      3  C   UNL     1      -7.430   4.207  -9.144  1.00  0.00     0.000 C 
BRANCH   3   4
ATOM      4  C   UNL     1      -7.959   5.495  -9.796  1.00  0.00     0.000 C 
BRANCH   4   5
ATOM      5  C   UNL     1      -7.930   6.702  -8.844  1.00  0.00     0.000 C 
BRANCH   5   6
ATOM      6  C   UNL     1      -6.854   7.737  -9.218  1.00  0.00     0.000 C 
BRANCH   6   7
ATOM      7  C   UNL     1      -7.402   9.173  -9.237  1.00  0.00     0.000 C 
BRANCH   7   8
ATOM      8  C   UNL     1      -7.844   9.646  -7.842  1.00  0.00     0.000 C 
BRANCH   8   9
ATOM      9  C   UNL     1      -9.365   9.848  -7.739  1.00  0.00     0.000 C 
BRANCH   9  10
ATOM     10  C   UNL     1      -9.832  10.122  -6.300  1.00  0.00     0.006 C 
BRANCH  10  11
ATOM     11  C   UNL     1      -9.050   9.268  -5.297  1.00  0.00     0.053 C 
BRANCH  11  12
ATOM     12  C   UNL     1      -9.785   7.998  -5.003  1.00  0.00     0.041 C 
ATOM     13  O   UNL     1     -10.119   7.227  -5.943  1.00  0.00    -0.550 OA
ATOM     14  O   UNL     1     -10.058   7.641  -3.688  1.00  0.00    -0.550 OA
ENDBRANCH  11  12
ENDBRANCH  10  11
ENDBRANCH   9  10
ENDBRANCH   8   9
ENDBRANCH   7   8
ENDBRANCH   6   7
ENDBRANCH   5   6
ENDBRANCH   4   5
ENDBRANCH   3   4
ENDBRANCH   2   3
ENDBRANCH   1   2
BRANCH   1  15
ATOM     15  C   UNL     1      -9.094   3.758  -6.106  1.00  0.00     0.000 C 
BRANCH  15  16
ATOM     16  C   UNL     1     -10.072   2.856  -5.338  1.00  0.00     0.000 C 
BRANCH  16  17
ATOM     17  C   UNL     1      -9.853   1.377  -5.695  1.00  0.00     0.000 C 
BRANCH  17  18
ATOM     18  C   UNL     1      -8.544   0.815  -5.117  1.00  0.00    -0.000 C 
BRANCH  18  19
ATOM     19  C   UNL     1      -8.324   1.217  -3.647  1.00  0.00    -0.000 C 
BRANCH  19  20
ATOM     20  C   UNL     1      -7.078   2.096  -3.455  1.00  0.00    -0.000 C 
BRANCH  20  21
ATOM     21  C   UNL     1      -5.792   1.274  -3.285  1.00  0.00    -0.000 C 
BRANCH  21  22
ATOM     22  C   UNL     1      -5.155   1.528  -1.912  1.00  0.00    -0.000 C 
BRANCH  22  23
ATOM     23  C   UNL     1      -5.725   2.803  -1.271  1.00  0.00    -0.000 C 
BRANCH  23  24
ATOM     24  C   UNL     1      -6.042   2.634   0.225  1.00  0.00    -0.000 C 
BRANCH  24  25
ATOM     25  C   UNL     1      -4.810   2.580   1.145  1.00  0.00    -0.003 C 
ATOM     26  C   UNL     1      -5.167   2.653   2.630  1.00  0.00     0.004 C 
ENDBRANCH  24  25
ENDBRANCH  23  24
ENDBRANCH  22  23
ENDBRANCH  21  22
ENDBRANCH  20  21
ENDBRANCH  19  20
ENDBRANCH  18  19
ENDBRANCH  17  18
ENDBRANCH  16  17
ENDBRANCH  15  16
ENDBRANCH   1  15
TORSDOF 22
ENDMDL
MODEL 7
REMARK VINA RESULT:    -2.241     13.597     16.666
REMARK INTER + INTRA:          -6.714
REMARK INTER:                  -4.568
REMARK INTRA:                  -2.146
REMARK UNBOUND:                -1.590
REMARK SMILES CCCCCCCCCCCCCCCCCCCCCCCC(=O)[O-]
REMARK SMILES IDX 13 1 14 2 15 3 16 4 17 5 18 6 19 7 20 8 21 9 22 10 23 11
REMARK SMILES IDX 24 12 25 13 26 14 12 15 11 16 10 17 9 18 8 19 7 20 6 21 5 22
REMARK SMILES IDX 4 23 3 24 2 25 1 26
REMARK H PARENT
REMARK Flexibility Score: inf
ROOT
ATOM      1  C   UNL     1      -9.736   2.524  -7.047  1.00  0.00     0.000 C 
ENDROOT
BRANCH   1   2
ATOM      2  C   UNL     1      -9.712   4.002  -6.610  1.00  0.00     0.000 C 
BRANCH   2   3
ATOM      3  C   UNL     1      -9.106   4.266  -5.218  1.00  0.00     0.000 C 
BRANCH   3   4
ATOM      4  C   UNL     1      -9.866   3.543  -4.094  1.00  0.00     0.000 C 
BRANCH   4   5
ATOM      5  C   UNL     1      -9.028   2.443  -3.419  1.00  0.00     0.000 C 
BRANCH   5   6
ATOM      6  C   UNL     1      -7.522   2.761  -3.404  1.00  0.00     0.000 C 
BRANCH   6   7
ATOM      7  C   UNL     1      -6.661   1.511  -3.157  1.00  0.00     0.000 C 
BRANCH   7   8
ATOM      8  C   UNL     1      -5.191   1.864  -2.873  1.00  0.00     0.000 C 
BRANCH   8   9
ATOM      9  C   UNL     1      -4.491   0.818  -1.991  1.00  0.00     0.000 C 
BRANCH   9  10
ATOM     10  C   UNL     1      -5.152   0.664  -0.612  1.00  0.00     0.006 C 
BRANCH  10  11
ATOM     11  C   UNL     1      -4.360   1.415   0.463  1.00  0.00     0.053 C 
BRANCH  11  12
ATOM     12  C   UNL     1      -5.191   2.508   1.059  1.00  0.00     0.041 C 
ATOM     13  O   UNL     1      -5.814   3.310   0.312  1.00  0.00    -0.550 OA
ATOM     14  O   UNL     1      -5.317   2.612   2.439  1.00  0.00    -0.550 OA
ENDBRANCH  11  12
ENDBRANCH  10  11
ENDBRANCH   9  10
ENDBRANCH   8   9
ENDBRANCH   7   8
ENDBRANCH   6   7
ENDBRANCH   5   6
ENDBRANCH   4   5
ENDBRANCH   3   4
ENDBRANCH   2   3
ENDBRANCH   1   2
BRANCH   1  15
ATOM     15  C   UNL     1      -8.677   2.133  -8.095  1.00  0.00     0.000 C 
BRANCH  15  16
ATOM     16  C   UNL     1      -8.617   3.110  -9.279  1.00  0.00     0.000 C 
BRANCH  16  17
ATOM     17  C   UNL     1      -7.226   3.752  -9.395  1.00  0.00     0.000 C 
BRANCH  17  18
ATOM     18  C   UNL     1      -7.289   5.273  -9.610  1.00  0.00    -0.000 C 
BRANCH  18  19
ATOM     19  C   UNL     1      -8.734   5.802  -9.676  1.00  0.00    -0.000 C 
BRANCH  19  20
ATOM     20  C   UNL     1      -8.900   7.157  -8.970  1.00  0.00    -0.000 C 
BRANCH  20  21
ATOM     21  C   UNL     1      -7.782   7.436  -7.953  1.00  0.00    -0.000 C 
BRANCH  21  22
ATOM     22  C   UNL     1      -7.864   8.877  -7.429  1.00  0.00    -0.000 C 
BRANCH  22  23
ATOM     23  C   UNL     1      -6.644   9.694  -7.881  1.00  0.00    -0.000 C 
BRANCH  23  24
ATOM     24  C   UNL     1      -5.950   9.103  -9.121  1.00  0.00    -0.000 C 
BRANCH  24  25
ATOM     25  C   UNL     1      -4.615   9.771  -9.495  1.00  0.00    -0.003 C 
ATOM     26  C   UNL     1      -3.732  10.062  -8.282  1.00  0.00     0.004 C 
ENDBRANCH  24  25
ENDBRANCH  23  24
ENDBRANCH  22  23
ENDBRANCH  21  22
ENDBRANCH  20  21
ENDBRANCH  19  20
ENDBRANCH  18  19
ENDBRANCH  17  18
ENDBRANCH  16  17
ENDBRANCH  15  16
ENDBRANCH   1  15
TORSDOF 22
ENDMDL
MODEL 8
REMARK VINA RESULT:    -2.241      4.472     10.968
REMARK INTER + INTRA:          -6.714
REMARK INTER:                  -5.355
REMARK INTRA:                  -1.359
REMARK UNBOUND:                -1.590
REMARK SMILES CCCCCCCCCCCCCCCCCCCCCCCC(=O)[O-]
REMARK SMILES IDX 13 1 14 2 15 3 16 4 17 5 18 6 19 7 20 8 21 9 22 10 23 11
REMARK SMILES IDX 24 12 25 13 26 14 12 15 11 16 10 17 9 18 8 19 7 20 6 21 5 22
REMARK SMILES IDX 4 23 3 24 2 25 1 26
REMARK H PARENT
REMARK Flexibility Score: inf
ROOT
ATOM      1  C   UNL     1       5.777   7.962  -3.321  1.00  0.00     0.000 C 
ENDROOT
BRANCH   1   2
ATOM      2  C   UNL     1       4.625   8.255  -4.303  1.00  0.00     0.000 C 
BRANCH   2   3
ATOM      3  C   UNL     1       4.893   9.389  -5.311  1.00  0.00     0.000 C 
BRANCH   3   4
ATOM      4  C   UNL     1       3.866   9.423  -6.455  1.00  0.00     0.000 C 
BRANCH   4   5
ATOM      5  C   UNL     1       4.466   9.007  -7.808  1.00  0.00     0.000 C 
BRANCH   5   6
ATOM      6  C   UNL     1       5.845   9.637  -8.072  1.00  0.00     0.000 C 
BRANCH   6   7
ATOM      7  C   UNL     1       6.465   9.159  -9.395  1.00  0.00     0.000 C 
BRANCH   7   8
ATOM      8  C   UNL     1       7.799   9.862  -9.700  1.00  0.00     0.000 C 
BRANCH   8   9
ATOM      9  C   UNL     1       8.695   9.995  -8.458  1.00  0.00     0.000 C 
BRANCH   9  10
ATOM     10  C   UNL     1      10.124   9.478  -8.697  1.00  0.00     0.006 C 
BRANCH  10  11
ATOM     11  C   UNL     1      10.103   8.077  -9.315  1.00  0.00     0.053 C 
BRANCH  11  12
ATOM     12  C   UNL     1       9.949   7.036  -8.251  1.00  0.00     0.041 C 
ATOM     13  O   UNL     1       9.871   5.817  -8.563  1.00  0.00    -0.550 OA
ATOM     14  O   UNL     1       9.943   7.406  -6.911  1.00  0.00    -0.550 OA
ENDBRANCH  11  12
ENDBRANCH  10  11
ENDBRANCH   9  10
ENDBRANCH   8   9
ENDBRANCH   7   8
ENDBRANCH   6   7
ENDBRANCH   5   6
ENDBRANCH   4   5
ENDBRANCH   3   4
ENDBRANCH   2   3
ENDBRANCH   1   2
BRANCH   1  15
ATOM     15  C   UNL     1       6.156   9.129  -2.389  1.00  0.00     0.000 C 
BRANCH  15  16
ATOM     16  C   UNL     1       6.935   8.672  -1.146  1.00  0.00     0.000 C 
BRANCH  16  17
ATOM     17  C   UNL     1       8.406   9.107  -1.226  1.00  0.00     0.000 C 
BRANCH  17  18
ATOM     18  C   UNL     1       8.911   9.736   0.084  1.00  0.00    -0.000 C 
BRANCH  18  19
ATOM     19  C   UNL     1       7.764  10.125   1.035  1.00  0.00    -0.000 C 
BRANCH  19  20
ATOM     20  C   UNL     1       7.883   9.449   2.410  1.00  0.00    -0.000 C 
BRANCH  20  21
ATOM     21  C   UNL     1       6.517   9.074   3.006  1.00  0.00    -0.000 C 
BRANCH  21  22
ATOM     22  C   UNL     1       6.435   9.476   4.485  1.00  0.00    -0.000 C 
BRANCH  22  23
ATOM     23  C   UNL     1       7.774  10.051   4.972  1.00  0.00    -0.000 C 
BRANCH  23  24
ATOM     24  C   UNL     1       8.030   9.794   6.468  1.00  0.00    -0.000 C 
BRANCH  24  25
ATOM     25  C   UNL     1       9.047   8.679   6.767  1.00  0.00    -0.003 C 
ATOM     26  C   UNL     1       8.423   7.283   6.763  1.00  0.00     0.004 C 
ENDBRANCH  24  25
ENDBRANCH  23  24
ENDBRANCH  22  23
ENDBRANCH  21  22
ENDBRANCH  20  21
ENDBRANCH  19  20
ENDBRANCH  18  19
ENDBRANCH  17  18
ENDBRANCH  16  17
ENDBRANCH  15  16
ENDBRANCH   1  15
TORSDOF 22
ENDMDL
MODEL 9
REMARK VINA RESULT:    -2.095     14.718     18.906
REMARK INTER + INTRA:          -6.380
REMARK INTER:                  -4.665
REMARK INTRA:                  -1.715
REMARK UNBOUND:                -1.590
REMARK SMILES CCCCCCCCCCCCCCCCCCCCCCCC(=O)[O-]
REMARK SMILES IDX 13 1 14 2 15 3 16 4 17 5 18 6 19 7 20 8 21 9 22 10 23 11
REMARK SMILES IDX 24 12 25 13 26 14 12 15 11 16 10 17 9 18 8 19 7 20 6 21 5 22
REMARK SMILES IDX 4 23 3 24 2 25 1 26
REMARK H PARENT
REMARK Flexibility Score: inf
ROOT
ATOM      1  C   UNL     1      -9.376   3.961  -6.842  1.00  0.00     0.000 C 
ENDROOT
BRANCH   1   2
ATOM      2  C   UNL     1      -9.614   3.189  -8.156  1.00  0.00     0.000 C 
BRANCH   2   3
ATOM      3  C   UNL     1      -8.338   2.758  -8.904  1.00  0.00     0.000 C 
BRANCH   3   4
ATOM      4  C   UNL     1      -7.947   3.736 -10.024  1.00  0.00     0.000 C 
BRANCH   4   5
ATOM      5  C   UNL     1      -6.620   4.461  -9.747  1.00  0.00     0.000 C 
BRANCH   5   6
ATOM      6  C   UNL     1      -6.749   5.994  -9.809  1.00  0.00     0.000 C 
BRANCH   6   7
ATOM      7  C   UNL     1      -7.919   6.519  -8.961  1.00  0.00     0.000 C 
BRANCH   7   8
ATOM      8  C   UNL     1      -8.615   7.725  -9.614  1.00  0.00     0.000 C 
BRANCH   8   9
ATOM      9  C   UNL     1      -8.914   8.851  -8.610  1.00  0.00     0.000 C 
BRANCH   9  10
ATOM     10  C   UNL     1      -7.867   9.976  -8.649  1.00  0.00     0.006 C 
BRANCH  10  11
ATOM     11  C   UNL     1      -6.640   9.613  -7.806  1.00  0.00     0.053 C 
BRANCH  11  12
ATOM     12  C   UNL     1      -5.399   9.655  -8.641  1.00  0.00     0.041 C 
ATOM     13  O   UNL     1      -4.268   9.739  -8.092  1.00  0.00    -0.550 OA
ATOM     14  O   UNL     1      -5.487   9.552 -10.025  1.00  0.00    -0.550 OA
ENDBRANCH  11  12
ENDBRANCH  10  11
ENDBRANCH   9  10
ENDBRANCH   8   9
ENDBRANCH   7   8
ENDBRANCH   6   7
ENDBRANCH   5   6
ENDBRANCH   4   5
ENDBRANCH   3   4
ENDBRANCH   2   3
ENDBRANCH   1   2
BRANCH   1  15
ATOM     15  C   UNL     1      -9.918   3.277  -5.573  1.00  0.00     0.000 C 
BRANCH  15  16
ATOM     16  C   UNL     1      -9.984   1.747  -5.700  1.00  0.00     0.000 C 
BRANCH  16  17
ATOM     17  C   UNL     1      -9.129   1.066  -4.621  1.00  0.00     0.000 C 
BRANCH  17  18
ATOM     18  C   UNL     1      -7.763   1.746  -4.429  1.00  0.00    -0.000 C 
BRANCH  18  19
ATOM     19  C   UNL     1      -7.550   2.252  -2.991  1.00  0.00    -0.000 C 
BRANCH  19  20
ATOM     20  C   UNL     1      -6.063   2.415  -2.637  1.00  0.00    -0.000 C 
BRANCH  20  21
ATOM     21  C   UNL     1      -5.228   1.177  -2.995  1.00  0.00    -0.000 C 
BRANCH  21  22
ATOM     22  C   UNL     1      -4.189   0.881  -1.905  1.00  0.00    -0.000 C 
BRANCH  22  23
ATOM     23  C   UNL     1      -4.873   0.583  -0.562  1.00  0.00    -0.000 C 
BRANCH  23  24
ATOM     24  C   UNL     1      -4.142   1.212   0.637  1.00  0.00    -0.000 C 
BRANCH  24  25
ATOM     25  C   UNL     1      -4.891   2.373   1.315  1.00  0.00    -0.003 C 
ATOM     26  C   UNL     1      -5.899   3.056   0.390  1.00  0.00     0.004 C 
ENDBRANCH  24  25
ENDBRANCH  23  24
ENDBRANCH  22  23
ENDBRANCH  21  22
ENDBRANCH  20  21
ENDBRANCH  19  20
ENDBRANCH  18  19
ENDBRANCH  17  18
ENDBRANCH  16  17
ENDBRANCH  15  16
ENDBRANCH   1  15
TORSDOF 22
ENDMDL
