MODEL 1
REMARK VINA RESULT:    23.621      0.000      0.000
REMARK INTER + INTRA:          57.718
REMARK INTER:                  59.525
REMARK INTRA:                  -1.807
REMARK UNBOUND:                -1.807
REMARK SMILES CCCCCCCCCCCCCCCCCCCCCCCCCCCC(=O)[O-]
REMARK SMILES IDX 15 1 16 2 17 3 18 4 19 5 20 6 21 7 22 8 23 9 24 10 25 11
REMARK SMILES IDX 26 12 27 13 28 14 29 15 30 16 14 17 13 18 12 19 11 20 10 21
REMARK SMILES IDX 9 22 8 23 7 24 6 25 5 26 4 27 3 28 2 29 1 30
REMARK H PARENT
REMARK Flexibility Score: inf
ROOT
ATOM      1  C   UNL     1     -12.569   0.842 -17.530  1.00  0.00     0.000 C 
ENDROOT
BRANCH   1   2
ATOM      2  C   UNL     1     -11.706  -0.283 -18.132  1.00  0.00     0.000 C 
BRANCH   2   3
ATOM      3  C   UNL     1     -12.049  -1.691 -17.604  1.00  0.00     0.000 C 
BRANCH   3   4
ATOM      4  C   UNL     1     -13.547  -1.849 -17.277  1.00  0.00     0.000 C 
BRANCH   4   5
ATOM      5  C   UNL     1     -13.791  -2.184 -15.798  1.00  0.00     0.000 C 
BRANCH   5   6
ATOM      6  C   UNL     1     -14.825  -3.307 -15.616  1.00  0.00     0.000 C 
BRANCH   6   7
ATOM      7  C   UNL     1     -14.202  -4.517 -14.903  1.00  0.00     0.000 C 
BRANCH   7   8
ATOM      8  C   UNL     1     -13.850  -4.224 -13.434  1.00  0.00     0.000 C 
BRANCH   8   9
ATOM      9  C   UNL     1     -14.932  -3.459 -12.645  1.00  0.00     0.000 C 
BRANCH   9  10
ATOM     10  C   UNL     1     -15.018  -3.811 -11.149  1.00  0.00     0.000 C 
BRANCH  10  11
ATOM     11  C   UNL     1     -14.087  -2.952 -10.277  1.00  0.00     0.000 C 
BRANCH  11  12
ATOM     12  C   UNL     1     -14.705  -1.597  -9.901  1.00  0.00     0.006 C 
BRANCH  12  13
ATOM     13  C   UNL     1     -13.654  -0.489  -9.744  1.00  0.00     0.053 C 
BRANCH  13  14
ATOM     14  C   UNL     1     -13.933   0.635 -10.693  1.00  0.00     0.041 C 
ATOM     15  O   UNL     1     -14.979   0.628 -11.396  1.00  0.00    -0.550 OA
ATOM     16  O   UNL     1     -13.061   1.715 -10.765  1.00  0.00    -0.550 OA
ENDBRANCH  13  14
ENDBRANCH  12  13
ENDBRANCH  11  12
ENDBRANCH  10  11
ENDBRANCH   9  10
ENDBRANCH   8   9
ENDBRANCH   7   8
ENDBRANCH   6   7
ENDBRANCH   5   6
ENDBRANCH   4   5
ENDBRANCH   3   4
ENDBRANCH   2   3
ENDBRANCH   1   2
BRANCH   1  17
ATOM     17  C   UNL     1     -11.734   1.942 -16.862  1.00  0.00     0.000 C 
BRANCH  17  18
ATOM     18  C   UNL     1     -12.156   3.340 -17.334  1.00  0.00     0.000 C 
BRANCH  18  19
ATOM     19  C   UNL     1     -12.919   3.309 -18.669  1.00  0.00     0.000 C 
BRANCH  19  20
ATOM     20  C   UNL     1     -14.439   3.476 -18.492  1.00  0.00     0.000 C 
BRANCH  20  21
ATOM     21  C   UNL     1     -14.886   4.947 -18.534  1.00  0.00     0.000 C 
BRANCH  21  22
ATOM     22  C   UNL     1     -14.460   5.686 -19.820  1.00  0.00    -0.000 C 
BRANCH  22  23
ATOM     23  C   UNL     1     -15.337   6.918 -20.100  1.00  0.00    -0.000 C 
BRANCH  23  24
ATOM     24  C   UNL     1     -15.024   8.088 -19.154  1.00  0.00    -0.000 C 
BRANCH  24  25
ATOM     25  C   UNL     1     -13.530   8.458 -19.148  1.00  0.00    -0.000 C 
BRANCH  25  26
ATOM     26  C   UNL     1     -13.051   8.961 -17.776  1.00  0.00    -0.000 C 
BRANCH  26  27
ATOM     27  C   UNL     1     -12.870   7.820 -16.758  1.00  0.00    -0.000 C 
BRANCH  27  28
ATOM     28  C   UNL     1     -14.026   7.743 -15.747  1.00  0.00    -0.000 C 
BRANCH  28  29
ATOM     29  C   UNL     1     -14.529   9.131 -15.319  1.00  0.00    -0.003 C 
ATOM     30  C   UNL     1     -15.848   9.470 -16.007  1.00  0.00     0.004 C 
ENDBRANCH  28  29
ENDBRANCH  27  28
ENDBRANCH  26  27
ENDBRANCH  25  26
ENDBRANCH  24  25
ENDBRANCH  23  24
ENDBRANCH  22  23
ENDBRANCH  21  22
ENDBRANCH  20  21
ENDBRANCH  19  20
ENDBRANCH  18  19
ENDBRANCH  17  18
ENDBRANCH   1  17
TORSDOF 26
ENDMDL
MODEL 2
REMARK VINA RESULT:    24.169      2.844     10.286
REMARK INTER + INTRA:          59.097
REMARK INTER:                  59.794
REMARK INTRA:                  -0.696
REMARK UNBOUND:                -1.807
REMARK SMILES CCCCCCCCCCCCCCCCCCCCCCCCCCCC(=O)[O-]
REMARK SMILES IDX 15 1 16 2 17 3 18 4 19 5 20 6 21 7 22 8 23 9 24 10 25 11
REMARK SMILES IDX 26 12 27 13 28 14 29 15 30 16 14 17 13 18 12 19 11 20 10 21
REMARK SMILES IDX 9 22 8 23 7 24 6 25 5 26 4 27 3 28 2 29 1 30
REMARK H PARENT
REMARK Flexibility Score: inf
ROOT
ATOM      1  C   UNL     1     -12.192   0.700 -17.143  1.00  0.00     0.000 C 
ENDROOT
BRANCH   1   2
ATOM      2  C   UNL     1     -13.041   1.730 -17.912  1.00  0.00     0.000 C 
BRANCH   2   3
ATOM      3  C   UNL     1     -12.525   3.180 -17.801  1.00  0.00     0.000 C 
BRANCH   3   4
ATOM      4  C   UNL     1     -11.319   3.304 -16.849  1.00  0.00     0.000 C 
BRANCH   4   5
ATOM      5  C   UNL     1     -11.507   4.421 -15.811  1.00  0.00     0.000 C 
BRANCH   5   6
ATOM      6  C   UNL     1     -11.603   5.811 -16.459  1.00  0.00     0.000 C 
BRANCH   6   7
ATOM      7  C   UNL     1     -13.033   6.363 -16.365  1.00  0.00     0.000 C 
BRANCH   7   8
ATOM      8  C   UNL     1     -13.258   7.220 -15.107  1.00  0.00     0.000 C 
BRANCH   8   9
ATOM      9  C   UNL     1     -14.275   8.367 -15.274  1.00  0.00     0.000 C 
BRANCH   9  10
ATOM     10  C   UNL     1     -13.917   9.403 -16.355  1.00  0.00     0.000 C 
BRANCH  10  11
ATOM     11  C   UNL     1     -13.775   8.781 -17.755  1.00  0.00     0.000 C 
BRANCH  11  12
ATOM     12  C   UNL     1     -15.026   8.005 -18.193  1.00  0.00     0.006 C 
BRANCH  12  13
ATOM     13  C   UNL     1     -15.199   7.970 -19.717  1.00  0.00     0.053 C 
BRANCH  13  14
ATOM     14  C   UNL     1     -15.137   6.562 -20.220  1.00  0.00     0.041 C 
ATOM     15  O   UNL     1     -15.071   6.332 -21.458  1.00  0.00    -0.550 OA
ATOM     16  O   UNL     1     -15.103   5.504 -19.320  1.00  0.00    -0.550 OA
ENDBRANCH  13  14
ENDBRANCH  12  13
ENDBRANCH  11  12
ENDBRANCH  10  11
ENDBRANCH   9  10
ENDBRANCH   8   9
ENDBRANCH   7   8
ENDBRANCH   6   7
ENDBRANCH   5   6
ENDBRANCH   4   5
ENDBRANCH   3   4
ENDBRANCH   2   3
ENDBRANCH   1   2
BRANCH   1  17
ATOM     17  C   UNL     1     -11.473  -0.289 -18.069  1.00  0.00     0.000 C 
BRANCH  17  18
ATOM     18  C   UNL     1     -11.935  -1.733 -17.826  1.00  0.00     0.000 C 
BRANCH  18  19
ATOM     19  C   UNL     1     -13.417  -1.820 -17.424  1.00  0.00     0.000 C 
BRANCH  19  20
ATOM     20  C   UNL     1     -13.614  -2.096 -15.923  1.00  0.00     0.000 C 
BRANCH  20  21
ATOM     21  C   UNL     1     -14.795  -3.039 -15.639  1.00  0.00     0.000 C 
BRANCH  21  22
ATOM     22  C   UNL     1     -14.380  -4.358 -14.953  1.00  0.00    -0.000 C 
BRANCH  22  23
ATOM     23  C   UNL     1     -13.915  -4.139 -13.503  1.00  0.00    -0.000 C 
BRANCH  23  24
ATOM     24  C   UNL     1     -14.925  -3.324 -12.680  1.00  0.00    -0.000 C 
BRANCH  24  25
ATOM     25  C   UNL     1     -15.060  -3.837 -11.236  1.00  0.00    -0.000 C 
BRANCH  25  26
ATOM     26  C   UNL     1     -14.278  -2.980 -10.228  1.00  0.00    -0.000 C 
BRANCH  26  27
ATOM     27  C   UNL     1     -14.698  -1.498 -10.261  1.00  0.00    -0.000 C 
BRANCH  27  28
ATOM     28  C   UNL     1     -13.628  -0.568  -9.666  1.00  0.00    -0.000 C 
BRANCH  28  29
ATOM     29  C   UNL     1     -13.561   0.789 -10.384  1.00  0.00    -0.003 C 
ATOM     30  C   UNL     1     -14.633   0.889 -11.465  1.00  0.00     0.004 C 
ENDBRANCH  28  29
ENDBRANCH  27  28
ENDBRANCH  26  27
ENDBRANCH  25  26
ENDBRANCH  24  25
ENDBRANCH  23  24
ENDBRANCH  22  23
ENDBRANCH  21  22
ENDBRANCH  20  21
ENDBRANCH  19  20
ENDBRANCH  18  19
ENDBRANCH  17  18
ENDBRANCH   1  17
TORSDOF 26
ENDMDL
MODEL 3
REMARK VINA RESULT:    24.365      2.888     10.464
REMARK INTER + INTRA:          59.591
REMARK INTER:                  61.481
REMARK INTRA:                  -1.891
REMARK UNBOUND:                -1.807
REMARK SMILES CCCCCCCCCCCCCCCCCCCCCCCCCCCC(=O)[O-]
REMARK SMILES IDX 15 1 16 2 17 3 18 4 19 5 20 6 21 7 22 8 23 9 24 10 25 11
REMARK SMILES IDX 26 12 27 13 28 14 29 15 30 16 14 17 13 18 12 19 11 20 10 21
REMARK SMILES IDX 9 22 8 23 7 24 6 25 5 26 4 27 3 28 2 29 1 30
REMARK H PARENT
REMARK Flexibility Score: inf
ROOT
ATOM      1  C   UNL     1     -12.986   1.884 -18.446  1.00  0.00     0.000 C 
ENDROOT
BRANCH   1   2
ATOM      2  C   UNL     1     -12.664   3.322 -17.999  1.00  0.00     0.000 C 
BRANCH   2   3
ATOM      3  C   UNL     1     -11.732   3.406 -16.773  1.00  0.00     0.000 C 
BRANCH   3   4
ATOM      4  C   UNL     1     -11.389   4.860 -16.393  1.00  0.00     0.000 C 
BRANCH   4   5
ATOM      5  C   UNL     1     -12.635   5.756 -16.326  1.00  0.00     0.000 C 
BRANCH   5   6
ATOM      6  C   UNL     1     -12.288   7.217 -16.001  1.00  0.00     0.000 C 
BRANCH   6   7
ATOM      7  C   UNL     1     -12.992   7.675 -14.715  1.00  0.00     0.000 C 
BRANCH   7   8
ATOM      8  C   UNL     1     -14.460   8.075 -14.952  1.00  0.00     0.000 C 
BRANCH   8   9
ATOM      9  C   UNL     1     -14.670   9.201 -15.984  1.00  0.00     0.000 C 
BRANCH   9  10
ATOM     10  C   UNL     1     -16.110   9.343 -16.508  1.00  0.00     0.000 C 
BRANCH  10  11
ATOM     11  C   UNL     1     -16.302   8.730 -17.906  1.00  0.00     0.000 C 
BRANCH  11  12
ATOM     12  C   UNL     1     -15.032   8.050 -18.438  1.00  0.00     0.006 C 
BRANCH  12  13
ATOM     13  C   UNL     1     -15.033   7.903 -19.966  1.00  0.00     0.053 C 
BRANCH  13  14
ATOM     14  C   UNL     1     -15.122   6.459 -20.353  1.00  0.00     0.041 C 
ATOM     15  O   UNL     1     -15.282   6.135 -21.561  1.00  0.00    -0.550 OA
ATOM     16  O   UNL     1     -14.978   5.471 -19.387  1.00  0.00    -0.550 OA
ENDBRANCH  13  14
ENDBRANCH  12  13
ENDBRANCH  11  12
ENDBRANCH  10  11
ENDBRANCH   9  10
ENDBRANCH   8   9
ENDBRANCH   7   8
ENDBRANCH   6   7
ENDBRANCH   5   6
ENDBRANCH   4   5
ENDBRANCH   3   4
ENDBRANCH   2   3
ENDBRANCH   1   2
BRANCH   1  17
ATOM     17  C   UNL     1     -12.519   0.827 -17.436  1.00  0.00     0.000 C 
BRANCH  17  18
ATOM     18  C   UNL     1     -11.737  -0.304 -18.120  1.00  0.00     0.000 C 
BRANCH  18  19
ATOM     19  C   UNL     1     -12.258  -1.699 -17.737  1.00  0.00     0.000 C 
BRANCH  19  20
ATOM     20  C   UNL     1     -13.087  -1.692 -16.440  1.00  0.00     0.000 C 
BRANCH  20  21
ATOM     21  C   UNL     1     -14.122  -2.828 -16.387  1.00  0.00     0.000 C 
BRANCH  21  22
ATOM     22  C   UNL     1     -14.811  -2.972 -15.013  1.00  0.00    -0.000 C 
BRANCH  22  23
ATOM     23  C   UNL     1     -14.376  -4.250 -14.275  1.00  0.00    -0.000 C 
BRANCH  23  24
ATOM     24  C   UNL     1     -13.941  -3.971 -12.828  1.00  0.00    -0.000 C 
BRANCH  24  25
ATOM     25  C   UNL     1     -15.107  -3.498 -11.942  1.00  0.00    -0.000 C 
BRANCH  25  26
ATOM     26  C   UNL     1     -14.688  -3.278 -10.480  1.00  0.00    -0.000 C 
BRANCH  26  27
ATOM     27  C   UNL     1     -14.308  -1.814 -10.187  1.00  0.00    -0.000 C 
BRANCH  27  28
ATOM     28  C   UNL     1     -15.318  -0.814 -10.773  1.00  0.00    -0.000 C 
BRANCH  28  29
ATOM     29  C   UNL     1     -14.711   0.583 -10.981  1.00  0.00    -0.003 C 
ATOM     30  C   UNL     1     -13.362   0.703 -10.278  1.00  0.00     0.004 C 
ENDBRANCH  28  29
ENDBRANCH  27  28
ENDBRANCH  26  27
ENDBRANCH  25  26
ENDBRANCH  24  25
ENDBRANCH  23  24
ENDBRANCH  22  23
ENDBRANCH  21  22
ENDBRANCH  20  21
ENDBRANCH  19  20
ENDBRANCH  18  19
ENDBRANCH  17  18
ENDBRANCH   1  17
TORSDOF 26
ENDMDL
MODEL 4
REMARK VINA RESULT:    24.657      0.929      2.661
REMARK INTER + INTRA:          60.328
REMARK INTER:                  61.908
REMARK INTRA:                  -1.581
REMARK UNBOUND:                -1.807
REMARK SMILES CCCCCCCCCCCCCCCCCCCCCCCCCCCC(=O)[O-]
REMARK SMILES IDX 15 1 16 2 17 3 18 4 19 5 20 6 21 7 22 8 23 9 24 10 25 11
REMARK SMILES IDX 26 12 27 13 28 14 29 15 30 16 14 17 13 18 12 19 11 20 10 21
REMARK SMILES IDX 9 22 8 23 7 24 6 25 5 26 4 27 3 28 2 29 1 30
REMARK H PARENT
REMARK Flexibility Score: inf
ROOT
ATOM      1  C   UNL     1     -12.737   0.838 -17.225  1.00  0.00     0.000 C 
ENDROOT
BRANCH   1   2
ATOM      2  C   UNL     1     -11.566  -0.110 -17.543  1.00  0.00     0.000 C 
BRANCH   2   3
ATOM      3  C   UNL     1     -11.960  -1.600 -17.601  1.00  0.00     0.000 C 
BRANCH   3   4
ATOM      4  C   UNL     1     -13.453  -1.827 -17.293  1.00  0.00     0.000 C 
BRANCH   4   5
ATOM      5  C   UNL     1     -13.696  -2.213 -15.826  1.00  0.00     0.000 C 
BRANCH   5   6
ATOM      6  C   UNL     1     -14.852  -3.212 -15.668  1.00  0.00     0.000 C 
BRANCH   6   7
ATOM      7  C   UNL     1     -14.438  -4.394 -14.778  1.00  0.00     0.000 C 
BRANCH   7   8
ATOM      8  C   UNL     1     -13.950  -3.949 -13.388  1.00  0.00     0.000 C 
BRANCH   8   9
ATOM      9  C   UNL     1     -14.908  -4.277 -12.225  1.00  0.00     0.000 C 
BRANCH   9  10
ATOM     10  C   UNL     1     -15.216  -3.100 -11.283  1.00  0.00     0.000 C 
BRANCH  10  11
ATOM     11  C   UNL     1     -14.120  -2.876 -10.227  1.00  0.00     0.000 C 
BRANCH  11  12
ATOM     12  C   UNL     1     -14.086  -1.434  -9.700  1.00  0.00     0.006 C 
BRANCH  12  13
ATOM     13  C   UNL     1     -15.032  -0.499 -10.466  1.00  0.00     0.053 C 
BRANCH  13  14
ATOM     14  C   UNL     1     -14.293   0.707 -10.957  1.00  0.00     0.041 C 
ATOM     15  O   UNL     1     -14.725   1.356 -11.947  1.00  0.00    -0.550 OA
ATOM     16  O   UNL     1     -13.154   1.142 -10.290  1.00  0.00    -0.550 OA
ENDBRANCH  13  14
ENDBRANCH  12  13
ENDBRANCH  11  12
ENDBRANCH  10  11
ENDBRANCH   9  10
ENDBRANCH   8   9
ENDBRANCH   7   8
ENDBRANCH   6   7
ENDBRANCH   5   6
ENDBRANCH   4   5
ENDBRANCH   3   4
ENDBRANCH   2   3
ENDBRANCH   1   2
BRANCH   1  17
ATOM     17  C   UNL     1     -13.096   1.757 -18.400  1.00  0.00     0.000 C 
BRANCH  17  18
ATOM     18  C   UNL     1     -12.505   3.163 -18.221  1.00  0.00     0.000 C 
BRANCH  18  19
ATOM     19  C   UNL     1     -11.898   3.377 -16.824  1.00  0.00     0.000 C 
BRANCH  19  20
ATOM     20  C   UNL     1     -11.367   4.806 -16.616  1.00  0.00     0.000 C 
BRANCH  20  21
ATOM     21  C   UNL     1     -12.240   5.634 -15.658  1.00  0.00     0.000 C 
BRANCH  21  22
ATOM     22  C   UNL     1     -12.160   7.155 -15.907  1.00  0.00    -0.000 C 
BRANCH  22  23
ATOM     23  C   UNL     1     -13.552   7.793 -16.063  1.00  0.00    -0.000 C 
BRANCH  23  24
ATOM     24  C   UNL     1     -13.685   8.593 -17.369  1.00  0.00    -0.000 C 
BRANCH  24  25
ATOM     25  C   UNL     1     -15.023   8.336 -18.084  1.00  0.00    -0.000 C 
BRANCH  25  26
ATOM     26  C   UNL     1     -14.960   8.652 -19.588  1.00  0.00    -0.000 C 
BRANCH  26  27
ATOM     27  C   UNL     1     -14.488   7.449 -20.425  1.00  0.00    -0.000 C 
BRANCH  27  28
ATOM     28  C   UNL     1     -15.465   6.263 -20.358  1.00  0.00    -0.000 C 
BRANCH  28  29
ATOM     29  C   UNL     1     -14.799   4.979 -19.838  1.00  0.00    -0.003 C 
ATOM     30  C   UNL     1     -14.980   4.841 -18.330  1.00  0.00     0.004 C 
ENDBRANCH  28  29
ENDBRANCH  27  28
ENDBRANCH  26  27
ENDBRANCH  25  26
ENDBRANCH  24  25
ENDBRANCH  23  24
ENDBRANCH  22  23
ENDBRANCH  21  22
ENDBRANCH  20  21
ENDBRANCH  19  20
ENDBRANCH  18  19
ENDBRANCH  17  18
ENDBRANCH   1  17
TORSDOF 26
ENDMDL
MODEL 5
REMARK VINA RESULT:    24.702      0.970      2.049
REMARK INTER + INTRA:          60.440
REMARK INTER:                  61.266
REMARK INTRA:                  -0.826
REMARK UNBOUND:                -1.807
REMARK SMILES CCCCCCCCCCCCCCCCCCCCCCCCCCCC(=O)[O-]
REMARK SMILES IDX 15 1 16 2 17 3 18 4 19 5 20 6 21 7 22 8 23 9 24 10 25 11
REMARK SMILES IDX 26 12 27 13 28 14 29 15 30 16 14 17 13 18 12 19 11 20 10 21
REMARK SMILES IDX 9 22 8 23 7 24 6 25 5 26 4 27 3 28 2 29 1 30
REMARK H PARENT
REMARK Flexibility Score: inf
ROOT
ATOM      1  C   UNL     1     -12.984   1.576 -17.914  1.00  0.00     0.000 C 
ENDROOT
BRANCH   1   2
ATOM      2  C   UNL     1     -12.155   0.580 -17.081  1.00  0.00     0.000 C 
BRANCH   2   3
ATOM      3  C   UNL     1     -11.621  -0.622 -17.886  1.00  0.00     0.000 C 
BRANCH   3   4
ATOM      4  C   UNL     1     -12.400  -1.919 -17.594  1.00  0.00     0.000 C 
BRANCH   4   5
ATOM      5  C   UNL     1     -13.407  -1.751 -16.446  1.00  0.00     0.000 C 
BRANCH   5   6
ATOM      6  C   UNL     1     -14.391  -2.927 -16.354  1.00  0.00     0.000 C 
BRANCH   6   7
ATOM      7  C   UNL     1     -14.837  -3.157 -14.903  1.00  0.00     0.000 C 
BRANCH   7   8
ATOM      8  C   UNL     1     -13.943  -4.165 -14.159  1.00  0.00     0.000 C 
BRANCH   8   9
ATOM      9  C   UNL     1     -14.339  -4.429 -12.692  1.00  0.00     0.000 C 
BRANCH   9  10
ATOM     10  C   UNL     1     -14.833  -3.194 -11.918  1.00  0.00     0.000 C 
BRANCH  10  11
ATOM     11  C   UNL     1     -14.366  -3.180 -10.452  1.00  0.00     0.000 C 
BRANCH  11  12
ATOM     12  C   UNL     1     -14.349  -1.769  -9.846  1.00  0.00     0.006 C 
BRANCH  12  13
ATOM     13  C   UNL     1     -15.194  -0.768 -10.646  1.00  0.00     0.053 C 
BRANCH  13  14
ATOM     14  C   UNL     1     -14.443   0.512 -10.844  1.00  0.00     0.041 C 
ATOM     15  O   UNL     1     -13.389   0.737 -10.189  1.00  0.00    -0.550 OA
ATOM     16  O   UNL     1     -14.880   1.435 -11.786  1.00  0.00    -0.550 OA
ENDBRANCH  13  14
ENDBRANCH  12  13
ENDBRANCH  11  12
ENDBRANCH  10  11
ENDBRANCH   9  10
ENDBRANCH   8   9
ENDBRANCH   7   8
ENDBRANCH   6   7
ENDBRANCH   5   6
ENDBRANCH   4   5
ENDBRANCH   3   4
ENDBRANCH   2   3
ENDBRANCH   1   2
BRANCH   1  17
ATOM     17  C   UNL     1     -12.399   2.994 -17.901  1.00  0.00     0.000 C 
BRANCH  17  18
ATOM     18  C   UNL     1     -13.050   3.886 -18.969  1.00  0.00     0.000 C 
BRANCH  18  19
ATOM     19  C   UNL     1     -14.579   3.959 -18.827  1.00  0.00     0.000 C 
BRANCH  19  20
ATOM     20  C   UNL     1     -15.109   5.404 -18.805  1.00  0.00     0.000 C 
BRANCH  20  21
ATOM     21  C   UNL     1     -15.102   6.064 -20.194  1.00  0.00     0.000 C 
BRANCH  21  22
ATOM     22  C   UNL     1     -14.833   7.583 -20.154  1.00  0.00    -0.000 C 
BRANCH  22  23
ATOM     23  C   UNL     1     -15.267   8.216 -18.821  1.00  0.00    -0.000 C 
BRANCH  23  24
ATOM     24  C   UNL     1     -14.084   8.434 -17.864  1.00  0.00    -0.000 C 
BRANCH  24  25
ATOM     25  C   UNL     1     -14.448   9.339 -16.673  1.00  0.00    -0.000 C 
BRANCH  25  26
ATOM     26  C   UNL     1     -14.502   8.572 -15.342  1.00  0.00    -0.000 C 
BRANCH  26  27
ATOM     27  C   UNL     1     -13.680   7.270 -15.376  1.00  0.00    -0.000 C 
BRANCH  27  28
ATOM     28  C   UNL     1     -12.195   7.517 -15.687  1.00  0.00    -0.000 C 
BRANCH  28  29
ATOM     29  C   UNL     1     -11.509   6.289 -16.305  1.00  0.00    -0.003 C 
ATOM     30  C   UNL     1     -12.225   5.003 -15.902  1.00  0.00     0.004 C 
ENDBRANCH  28  29
ENDBRANCH  27  28
ENDBRANCH  26  27
ENDBRANCH  25  26
ENDBRANCH  24  25
ENDBRANCH  23  24
ENDBRANCH  22  23
ENDBRANCH  21  22
ENDBRANCH  20  21
ENDBRANCH  19  20
ENDBRANCH  18  19
ENDBRANCH  17  18
ENDBRANCH   1  17
TORSDOF 26
ENDMDL
MODEL 6
REMARK VINA RESULT:    24.937      2.120      9.939
REMARK INTER + INTRA:          61.032
REMARK INTER:                  61.504
REMARK INTRA:                  -0.472
REMARK UNBOUND:                -1.807
REMARK SMILES CCCCCCCCCCCCCCCCCCCCCCCCCCCC(=O)[O-]
REMARK SMILES IDX 15 1 16 2 17 3 18 4 19 5 20 6 21 7 22 8 23 9 24 10 25 11
REMARK SMILES IDX 26 12 27 13 28 14 29 15 30 16 14 17 13 18 12 19 11 20 10 21
REMARK SMILES IDX 9 22 8 23 7 24 6 25 5 26 4 27 3 28 2 29 1 30
REMARK H PARENT
REMARK Flexibility Score: inf
ROOT
ATOM      1  C   UNL     1     -12.063  -0.041 -18.946  1.00  0.00     0.000 C 
ENDROOT
BRANCH   1   2
ATOM      2  C   UNL     1     -12.958   0.815 -18.031  1.00  0.00     0.000 C 
BRANCH   2   3
ATOM      3  C   UNL     1     -12.177   1.711 -17.047  1.00  0.00     0.000 C 
BRANCH   3   4
ATOM      4  C   UNL     1     -12.077   3.170 -17.532  1.00  0.00     0.000 C 
BRANCH   4   5
ATOM      5  C   UNL     1     -12.975   3.445 -18.748  1.00  0.00     0.000 C 
BRANCH   5   6
ATOM      6  C   UNL     1     -14.430   3.729 -18.347  1.00  0.00     0.000 C 
BRANCH   6   7
ATOM      7  C   UNL     1     -14.803   5.192 -18.633  1.00  0.00     0.000 C 
BRANCH   7   8
ATOM      8  C   UNL     1     -15.120   5.446 -20.117  1.00  0.00     0.000 C 
BRANCH   8   9
ATOM      9  C   UNL     1     -14.860   6.886 -20.602  1.00  0.00     0.000 C 
BRANCH   9  10
ATOM     10  C   UNL     1     -15.284   7.991 -19.617  1.00  0.00     0.000 C 
BRANCH  10  11
ATOM     11  C   UNL     1     -14.123   8.922 -19.226  1.00  0.00     0.000 C 
BRANCH  11  12
ATOM     12  C   UNL     1     -13.483   8.544 -17.882  1.00  0.00     0.006 C 
BRANCH  12  13
ATOM     13  C   UNL     1     -14.388   8.861 -16.684  1.00  0.00     0.053 C 
BRANCH  13  14
ATOM     14  C   UNL     1     -13.912   8.139 -15.462  1.00  0.00     0.041 C 
ATOM     15  O   UNL     1     -14.366   8.446 -14.327  1.00  0.00    -0.550 OA
ATOM     16  O   UNL     1     -13.003   7.095 -15.582  1.00  0.00    -0.550 OA
ENDBRANCH  13  14
ENDBRANCH  12  13
ENDBRANCH  11  12
ENDBRANCH  10  11
ENDBRANCH   9  10
ENDBRANCH   8   9
ENDBRANCH   7   8
ENDBRANCH   6   7
ENDBRANCH   5   6
ENDBRANCH   4   5
ENDBRANCH   3   4
ENDBRANCH   2   3
ENDBRANCH   1   2
BRANCH   1  17
ATOM     17  C   UNL     1     -11.183  -1.026 -18.166  1.00  0.00     0.000 C 
BRANCH  17  18
ATOM     18  C   UNL     1     -12.021  -2.111 -17.474  1.00  0.00     0.000 C 
BRANCH  18  19
ATOM     19  C   UNL     1     -13.219  -1.532 -16.703  1.00  0.00     0.000 C 
BRANCH  19  20
ATOM     20  C   UNL     1     -14.329  -2.569 -16.459  1.00  0.00     0.000 C 
BRANCH  20  21
ATOM     21  C   UNL     1     -14.045  -3.474 -15.249  1.00  0.00     0.000 C 
BRANCH  21  22
ATOM     22  C   UNL     1     -15.008  -3.244 -14.065  1.00  0.00    -0.000 C 
BRANCH  22  23
ATOM     23  C   UNL     1     -14.442  -3.784 -12.741  1.00  0.00    -0.000 C 
BRANCH  23  24
ATOM     24  C   UNL     1     -15.128  -3.164 -11.513  1.00  0.00    -0.000 C 
BRANCH  24  25
ATOM     25  C   UNL     1     -14.388  -3.479 -10.201  1.00  0.00    -0.000 C 
BRANCH  25  26
ATOM     26  C   UNL     1     -14.213  -2.240  -9.309  1.00  0.00    -0.000 C 
BRANCH  26  27
ATOM     27  C   UNL     1     -13.741  -1.005 -10.098  1.00  0.00    -0.000 C 
BRANCH  27  28
ATOM     28  C   UNL     1     -14.899  -0.064 -10.470  1.00  0.00    -0.000 C 
BRANCH  28  29
ATOM     29  C   UNL     1     -14.528   0.909 -11.601  1.00  0.00    -0.003 C 
ATOM     30  C   UNL     1     -13.292   1.727 -11.235  1.00  0.00     0.004 C 
ENDBRANCH  28  29
ENDBRANCH  27  28
ENDBRANCH  26  27
ENDBRANCH  25  26
ENDBRANCH  24  25
ENDBRANCH  23  24
ENDBRANCH  22  23
ENDBRANCH  21  22
ENDBRANCH  20  21
ENDBRANCH  19  20
ENDBRANCH  18  19
ENDBRANCH  17  18
ENDBRANCH   1  17
TORSDOF 26
ENDMDL
MODEL 7
REMARK VINA RESULT:    25.267      1.120      2.972
REMARK INTER + INTRA:          61.865
REMARK INTER:                  63.521
REMARK INTRA:                  -1.656
REMARK UNBOUND:                -1.807
REMARK SMILES CCCCCCCCCCCCCCCCCCCCCCCCCCCC(=O)[O-]
REMARK SMILES IDX 15 1 16 2 17 3 18 4 19 5 20 6 21 7 22 8 23 9 24 10 25 11
REMARK SMILES IDX 26 12 27 13 28 14 29 15 30 16 14 17 13 18 12 19 11 20 10 21
REMARK SMILES IDX 9 22 8 23 7 24 6 25 5 26 4 27 3 28 2 29 1 30
REMARK H PARENT
REMARK Flexibility Score: inf
ROOT
ATOM      1  C   UNL     1     -13.064   1.437 -18.194  1.00  0.00     0.000 C 
ENDROOT
BRANCH   1   2
ATOM      2  C   UNL     1     -12.350   0.501 -17.202  1.00  0.00     0.000 C 
BRANCH   2   3
ATOM      3  C   UNL     1     -11.954  -0.866 -17.799  1.00  0.00     0.000 C 
BRANCH   3   4
ATOM      4  C   UNL     1     -12.936  -1.986 -17.404  1.00  0.00     0.000 C 
BRANCH   4   5
ATOM      5  C   UNL     1     -13.642  -1.702 -16.070  1.00  0.00     0.000 C 
BRANCH   5   6
ATOM      6  C   UNL     1     -14.634  -2.811 -15.687  1.00  0.00     0.000 C 
BRANCH   6   7
ATOM      7  C   UNL     1     -13.898  -4.034 -15.120  1.00  0.00     0.000 C 
BRANCH   7   8
ATOM      8  C   UNL     1     -14.152  -4.236 -13.616  1.00  0.00     0.000 C 
BRANCH   8   9
ATOM      9  C   UNL     1     -14.897  -3.080 -12.920  1.00  0.00     0.000 C 
BRANCH   9  10
ATOM     10  C   UNL     1     -15.430  -3.402 -11.512  1.00  0.00     0.000 C 
BRANCH  10  11
ATOM     11  C   UNL     1     -14.327  -3.409 -10.441  1.00  0.00     0.000 C 
BRANCH  11  12
ATOM     12  C   UNL     1     -13.922  -1.997  -9.992  1.00  0.00     0.006 C 
BRANCH  12  13
ATOM     13  C   UNL     1     -15.029  -0.960 -10.226  1.00  0.00     0.053 C 
BRANCH  13  14
ATOM     14  C   UNL     1     -14.441   0.349 -10.652  1.00  0.00     0.041 C 
ATOM     15  O   UNL     1     -13.343   0.738 -10.169  1.00  0.00    -0.550 OA
ATOM     16  O   UNL     1     -15.080   1.117 -11.617  1.00  0.00    -0.550 OA
ENDBRANCH  13  14
ENDBRANCH  12  13
ENDBRANCH  11  12
ENDBRANCH  10  11
ENDBRANCH   9  10
ENDBRANCH   8   9
ENDBRANCH   7   8
ENDBRANCH   6   7
ENDBRANCH   5   6
ENDBRANCH   4   5
ENDBRANCH   3   4
ENDBRANCH   2   3
ENDBRANCH   1   2
BRANCH   1  17
ATOM     17  C   UNL     1     -12.702   2.913 -17.988  1.00  0.00     0.000 C 
BRANCH  17  18
ATOM     18  C   UNL     1     -11.662   3.092 -16.872  1.00  0.00     0.000 C 
BRANCH  18  19
ATOM     19  C   UNL     1     -11.271   4.563 -16.658  1.00  0.00     0.000 C 
BRANCH  19  20
ATOM     20  C   UNL     1     -12.435   5.421 -16.131  1.00  0.00     0.000 C 
BRANCH  20  21
ATOM     21  C   UNL     1     -12.004   6.850 -15.763  1.00  0.00     0.000 C 
BRANCH  21  22
ATOM     22  C   UNL     1     -12.804   7.946 -16.499  1.00  0.00    -0.000 C 
BRANCH  22  23
ATOM     23  C   UNL     1     -14.126   8.278 -15.787  1.00  0.00    -0.000 C 
BRANCH  23  24
ATOM     24  C   UNL     1     -15.008   9.234 -16.606  1.00  0.00    -0.000 C 
BRANCH  24  25
ATOM     25  C   UNL     1     -15.932   8.491 -17.587  1.00  0.00    -0.000 C 
BRANCH  25  26
ATOM     26  C   UNL     1     -15.333   8.384 -18.999  1.00  0.00    -0.000 C 
BRANCH  26  27
ATOM     27  C   UNL     1     -15.846   7.153 -19.767  1.00  0.00    -0.000 C 
BRANCH  27  28
ATOM     28  C   UNL     1     -14.712   6.202 -20.185  1.00  0.00    -0.000 C 
BRANCH  28  29
ATOM     29  C   UNL     1     -13.661   6.892 -21.069  1.00  0.00    -0.003 C 
ATOM     30  C   UNL     1     -13.465   6.133 -22.378  1.00  0.00     0.004 C 
ENDBRANCH  28  29
ENDBRANCH  27  28
ENDBRANCH  26  27
ENDBRANCH  25  26
ENDBRANCH  24  25
ENDBRANCH  23  24
ENDBRANCH  22  23
ENDBRANCH  21  22
ENDBRANCH  20  21
ENDBRANCH  19  20
ENDBRANCH  18  19
ENDBRANCH  17  18
ENDBRANCH   1  17
TORSDOF 26
ENDMDL
MODEL 8
REMARK VINA RESULT:    25.341      2.268     10.208
REMARK INTER + INTRA:          62.052
REMARK INTER:                  63.357
REMARK INTRA:                  -1.305
REMARK UNBOUND:                -1.807
REMARK SMILES CCCCCCCCCCCCCCCCCCCCCCCCCCCC(=O)[O-]
REMARK SMILES IDX 15 1 16 2 17 3 18 4 19 5 20 6 21 7 22 8 23 9 24 10 25 11
REMARK SMILES IDX 26 12 27 13 28 14 29 15 30 16 14 17 13 18 12 19 11 20 10 21
REMARK SMILES IDX 9 22 8 23 7 24 6 25 5 26 4 27 3 28 2 29 1 30
REMARK H PARENT
REMARK Flexibility Score: inf
ROOT
ATOM      1  C   UNL     1     -12.190   0.623 -17.014  1.00  0.00     0.000 C 
ENDROOT
BRANCH   1   2
ATOM      2  C   UNL     1     -13.029   1.616 -17.839  1.00  0.00     0.000 C 
BRANCH   2   3
ATOM      3  C   UNL     1     -12.473   3.056 -17.846  1.00  0.00     0.000 C 
BRANCH   3   4
ATOM      4  C   UNL     1     -13.113   3.928 -18.944  1.00  0.00     0.000 C 
BRANCH   4   5
ATOM      5  C   UNL     1     -14.616   4.150 -18.712  1.00  0.00     0.000 C 
BRANCH   5   6
ATOM      6  C   UNL     1     -15.005   5.634 -18.790  1.00  0.00     0.000 C 
BRANCH   6   7
ATOM      7  C   UNL     1     -15.534   5.990 -20.187  1.00  0.00     0.000 C 
BRANCH   7   8
ATOM      8  C   UNL     1     -14.600   6.947 -20.949  1.00  0.00     0.000 C 
BRANCH   8   9
ATOM      9  C   UNL     1     -14.502   8.369 -20.361  1.00  0.00     0.000 C 
BRANCH   9  10
ATOM     10  C   UNL     1     -14.289   8.429 -18.837  1.00  0.00     0.000 C 
BRANCH  10  11
ATOM     11  C   UNL     1     -12.873   8.888 -18.449  1.00  0.00     0.000 C 
BRANCH  11  12
ATOM     12  C   UNL     1     -12.648   8.905 -16.930  1.00  0.00     0.006 C 
BRANCH  12  13
ATOM     13  C   UNL     1     -13.480   7.847 -16.194  1.00  0.00     0.053 C 
BRANCH  13  14
ATOM     14  C   UNL     1     -14.393   8.495 -15.200  1.00  0.00     0.041 C 
ATOM     15  O   UNL     1     -15.421   9.112 -15.590  1.00  0.00    -0.550 OA
ATOM     16  O   UNL     1     -14.134   8.377 -13.840  1.00  0.00    -0.550 OA
ENDBRANCH  13  14
ENDBRANCH  12  13
ENDBRANCH  11  12
ENDBRANCH  10  11
ENDBRANCH   9  10
ENDBRANCH   8   9
ENDBRANCH   7   8
ENDBRANCH   6   7
ENDBRANCH   5   6
ENDBRANCH   4   5
ENDBRANCH   3   4
ENDBRANCH   2   3
ENDBRANCH   1   2
BRANCH   1  17
ATOM     17  C   UNL     1     -11.492  -0.431 -17.882  1.00  0.00     0.000 C 
BRANCH  17  18
ATOM     18  C   UNL     1     -12.265  -1.758 -17.896  1.00  0.00     0.000 C 
BRANCH  18  19
ATOM     19  C   UNL     1     -12.794  -2.150 -16.507  1.00  0.00     0.000 C 
BRANCH  19  20
ATOM     20  C   UNL     1     -14.331  -2.185 -16.440  1.00  0.00     0.000 C 
BRANCH  20  21
ATOM     21  C   UNL     1     -14.858  -3.033 -15.270  1.00  0.00     0.000 C 
BRANCH  21  22
ATOM     22  C   UNL     1     -13.948  -4.226 -14.912  1.00  0.00    -0.000 C 
BRANCH  22  23
ATOM     23  C   UNL     1     -13.914  -4.498 -13.399  1.00  0.00    -0.000 C 
BRANCH  23  24
ATOM     24  C   UNL     1     -14.642  -3.412 -12.591  1.00  0.00    -0.000 C 
BRANCH  24  25
ATOM     25  C   UNL     1     -14.972  -3.863 -11.158  1.00  0.00    -0.000 C 
BRANCH  25  26
ATOM     26  C   UNL     1     -14.564  -2.823 -10.102  1.00  0.00    -0.000 C 
BRANCH  26  27
ATOM     27  C   UNL     1     -14.552  -1.388 -10.659  1.00  0.00    -0.000 C 
BRANCH  27  28
ATOM     28  C   UNL     1     -13.662  -0.442  -9.836  1.00  0.00    -0.000 C 
BRANCH  28  29
ATOM     29  C   UNL     1     -13.532   0.950 -10.474  1.00  0.00    -0.003 C 
ATOM     30  C   UNL     1     -14.591   1.158 -11.552  1.00  0.00     0.004 C 
ENDBRANCH  28  29
ENDBRANCH  27  28
ENDBRANCH  26  27
ENDBRANCH  25  26
ENDBRANCH  24  25
ENDBRANCH  23  24
ENDBRANCH  22  23
ENDBRANCH  21  22
ENDBRANCH  20  21
ENDBRANCH  19  20
ENDBRANCH  18  19
ENDBRANCH  17  18
ENDBRANCH   1  17
TORSDOF 26
ENDMDL
MODEL 9
REMARK VINA RESULT:    25.567      3.043     10.169
REMARK INTER + INTRA:          62.619
REMARK INTER:                  63.081
REMARK INTRA:                  -0.462
REMARK UNBOUND:                -1.807
REMARK SMILES CCCCCCCCCCCCCCCCCCCCCCCCCCCC(=O)[O-]
REMARK SMILES IDX 15 1 16 2 17 3 18 4 19 5 20 6 21 7 22 8 23 9 24 10 25 11
REMARK SMILES IDX 26 12 27 13 28 14 29 15 30 16 14 17 13 18 12 19 11 20 10 21
REMARK SMILES IDX 9 22 8 23 7 24 6 25 5 26 4 27 3 28 2 29 1 30
REMARK H PARENT
REMARK Flexibility Score: inf
ROOT
ATOM      1  C   UNL     1     -11.295  -0.241 -17.524  1.00  0.00     0.000 C 
ENDROOT
BRANCH   1   2
ATOM      2  C   UNL     1     -12.283   0.883 -17.160  1.00  0.00     0.000 C 
BRANCH   2   3
ATOM      3  C   UNL     1     -12.895   1.603 -18.380  1.00  0.00     0.000 C 
BRANCH   3   4
ATOM      4  C   UNL     1     -12.841   3.138 -18.245  1.00  0.00     0.000 C 
BRANCH   4   5
ATOM      5  C   UNL     1     -12.072   3.588 -16.993  1.00  0.00     0.000 C 
BRANCH   5   6
ATOM      6  C   UNL     1     -12.628   4.893 -16.404  1.00  0.00     0.000 C 
BRANCH   6   7
ATOM      7  C   UNL     1     -11.502   5.910 -16.163  1.00  0.00     0.000 C 
BRANCH   7   8
ATOM      8  C   UNL     1     -12.021   7.354 -16.047  1.00  0.00     0.000 C 
BRANCH   8   9
ATOM      9  C   UNL     1     -13.336   7.513 -15.258  1.00  0.00     0.000 C 
BRANCH   9  10
ATOM     10  C   UNL     1     -14.380   8.437 -15.910  1.00  0.00     0.000 C 
BRANCH  10  11
ATOM     11  C   UNL     1     -14.154   8.623 -17.421  1.00  0.00     0.000 C 
BRANCH  11  12
ATOM     12  C   UNL     1     -15.166   7.846 -18.275  1.00  0.00     0.006 C 
BRANCH  12  13
ATOM     13  C   UNL     1     -15.044   8.160 -19.772  1.00  0.00     0.053 C 
BRANCH  13  14
ATOM     14  C   UNL     1     -14.856   6.900 -20.559  1.00  0.00     0.041 C 
ATOM     15  O   UNL     1     -15.770   6.033 -20.595  1.00  0.00    -0.550 OA
ATOM     16  O   UNL     1     -13.692   6.707 -21.291  1.00  0.00    -0.550 OA
ENDBRANCH  13  14
ENDBRANCH  12  13
ENDBRANCH  11  12
ENDBRANCH  10  11
ENDBRANCH   9  10
ENDBRANCH   8   9
ENDBRANCH   7   8
ENDBRANCH   6   7
ENDBRANCH   5   6
ENDBRANCH   4   5
ENDBRANCH   3   4
ENDBRANCH   2   3
ENDBRANCH   1   2
BRANCH   1  17
ATOM     17  C   UNL     1     -11.977  -1.605 -17.689  1.00  0.00     0.000 C 
BRANCH  17  18
ATOM     18  C   UNL     1     -13.443  -1.565 -17.231  1.00  0.00     0.000 C 
BRANCH  18  19
ATOM     19  C   UNL     1     -13.637  -2.141 -15.818  1.00  0.00     0.000 C 
BRANCH  19  20
ATOM     20  C   UNL     1     -14.852  -3.080 -15.717  1.00  0.00     0.000 C 
BRANCH  20  21
ATOM     21  C   UNL     1     -14.552  -4.359 -14.918  1.00  0.00     0.000 C 
BRANCH  21  22
ATOM     22  C   UNL     1     -13.885  -4.092 -13.552  1.00  0.00    -0.000 C 
BRANCH  22  23
ATOM     23  C   UNL     1     -14.870  -3.495 -12.531  1.00  0.00    -0.000 C 
BRANCH  23  24
ATOM     24  C   UNL     1     -14.389  -3.671 -11.082  1.00  0.00    -0.000 C 
BRANCH  24  25
ATOM     25  C   UNL     1     -14.936  -2.581 -10.142  1.00  0.00    -0.000 C 
BRANCH  25  26
ATOM     26  C   UNL     1     -14.250  -1.221 -10.351  1.00  0.00    -0.000 C 
BRANCH  26  27
ATOM     27  C   UNL     1     -15.247  -0.106 -10.714  1.00  0.00    -0.000 C 
BRANCH  27  28
ATOM     28  C   UNL     1     -14.582   1.059 -11.466  1.00  0.00    -0.000 C 
BRANCH  28  29
ATOM     29  C   UNL     1     -13.105   1.240 -11.083  1.00  0.00    -0.003 C 
ATOM     30  C   UNL     1     -12.857   0.810  -9.641  1.00  0.00     0.004 C 
ENDBRANCH  28  29
ENDBRANCH  27  28
ENDBRANCH  26  27
ENDBRANCH  25  26
ENDBRANCH  24  25
ENDBRANCH  23  24
ENDBRANCH  22  23
ENDBRANCH  21  22
ENDBRANCH  20  21
ENDBRANCH  19  20
ENDBRANCH  18  19
ENDBRANCH  17  18
ENDBRANCH   1  17
TORSDOF 26
ENDMDL
