MODEL 1
REMARK VINA RESULT:    -5.556      0.000      0.000
REMARK INTER + INTRA:          -6.512
REMARK INTER:                  -6.368
REMARK INTRA:                  -0.145
REMARK UNBOUND:                -0.145
REMARK SMILES O=C([O-])C=Cc1ccc(O)cc1
REMARK SMILES IDX 6 1 7 2 12 3 8 4 11 5 9 6 5 7 4 8 2 9 1 10 3 11 10 12
REMARK H PARENT 10 13
REMARK Flexibility Score: inf
ROOT
ATOM      1  C   UNL     1     -28.444  -6.814  -0.983  1.00  0.00    -0.025 A 
ATOM      2  C   UNL     1     -28.229  -6.186  -2.222  1.00  0.00     0.012 A 
ATOM      3  C   UNL     1     -29.149  -6.116   0.019  1.00  0.00     0.012 A 
ATOM      4  C   UNL     1     -28.682  -4.883  -2.447  1.00  0.00     0.047 A 
ATOM      5  C   UNL     1     -29.600  -4.813  -0.210  1.00  0.00     0.047 A 
ATOM      6  C   UNL     1     -29.366  -4.192  -1.444  1.00  0.00     0.115 A 
ENDROOT
BRANCH   1   7
ATOM      7  C   UNL     1     -27.953  -8.202  -0.796  1.00  0.00     0.010 C 
ATOM      8  C   UNL     1     -26.789  -8.653  -1.286  1.00  0.00     0.025 C 
BRANCH   8   9
ATOM      9  C   UNL     1     -26.340 -10.041  -1.091  1.00  0.00     0.064 C 
ATOM     10  O   UNL     1     -26.292 -10.853  -2.053  1.00  0.00    -0.545 OA
ATOM     11  O   UNL     1     -25.963 -10.465   0.177  1.00  0.00    -0.545 OA
ENDBRANCH   8   9
ENDBRANCH   1   7
BRANCH   6  12
ATOM     12  O   UNL     1     -29.812  -2.894  -1.682  1.00  0.00    -0.508 OA
ATOM     13  H   UNL     1     -30.785  -2.696  -1.883  1.00  0.00     0.293 HD
ENDBRANCH   6  12
TORSDOF 3
ENDMDL
MODEL 2
REMARK VINA RESULT:    -5.522      2.895      3.657
REMARK INTER + INTRA:          -6.474
REMARK INTER:                  -6.323
REMARK INTRA:                  -0.151
REMARK UNBOUND:                -0.145
REMARK SMILES O=C([O-])C=Cc1ccc(O)cc1
REMARK SMILES IDX 6 1 7 2 12 3 8 4 11 5 9 6 5 7 4 8 2 9 1 10 3 11 10 12
REMARK H PARENT 10 13
REMARK Flexibility Score: inf
ROOT
ATOM      1  C   UNL     1     -29.218  -6.323   0.019  1.00  0.00    -0.025 A 
ATOM      2  C   UNL     1     -28.614  -7.097  -0.988  1.00  0.00     0.012 A 
ATOM      3  C   UNL     1     -29.409  -4.945  -0.207  1.00  0.00     0.012 A 
ATOM      4  C   UNL     1     -28.188  -6.504  -2.180  1.00  0.00     0.047 A 
ATOM      5  C   UNL     1     -28.981  -4.357  -1.400  1.00  0.00     0.047 A 
ATOM      6  C   UNL     1     -28.367  -5.135  -2.391  1.00  0.00     0.115 A 
ENDROOT
BRANCH   1   7
ATOM      7  C   UNL     1     -29.664  -7.000   1.262  1.00  0.00     0.010 C 
ATOM      8  C   UNL     1     -29.720  -8.331   1.406  1.00  0.00     0.025 C 
BRANCH   8   9
ATOM      9  C   UNL     1     -30.180  -8.968   2.652  1.00  0.00     0.064 C 
ATOM     10  O   UNL     1     -29.364  -9.488   3.458  1.00  0.00    -0.545 OA
ATOM     11  O   UNL     1     -31.537  -8.998   2.942  1.00  0.00    -0.545 OA
ENDBRANCH   8   9
ENDBRANCH   1   7
BRANCH   6  12
ATOM     12  O   UNL     1     -27.937  -4.558  -3.583  1.00  0.00    -0.508 OA
ATOM     13  H   UNL     1     -27.052  -4.812  -4.006  1.00  0.00     0.293 HD
ENDBRANCH   6  12
TORSDOF 3
ENDMDL
MODEL 3
REMARK VINA RESULT:    -5.254      6.965     10.128
REMARK INTER + INTRA:          -6.166
REMARK INTER:                  -6.015
REMARK INTRA:                  -0.151
REMARK UNBOUND:                -0.145
REMARK SMILES O=C([O-])C=Cc1ccc(O)cc1
REMARK SMILES IDX 6 1 7 2 12 3 8 4 11 5 9 6 5 7 4 8 2 9 1 10 3 11 10 12
REMARK H PARENT 10 13
REMARK Flexibility Score: inf
ROOT
ATOM      1  C   UNL     1     -26.255 -15.068   2.334  1.00  0.00    -0.025 A 
ATOM      2  C   UNL     1     -26.858 -14.838   3.584  1.00  0.00     0.012 A 
ATOM      3  C   UNL     1     -26.319 -16.362   1.778  1.00  0.00     0.012 A 
ATOM      4  C   UNL     1     -27.485 -15.879   4.273  1.00  0.00     0.047 A 
ATOM      5  C   UNL     1     -26.947 -17.400   2.472  1.00  0.00     0.047 A 
ATOM      6  C   UNL     1     -27.531 -17.162   3.723  1.00  0.00     0.115 A 
ENDROOT
BRANCH   1   7
ATOM      7  C   UNL     1     -25.612 -13.928   1.636  1.00  0.00     0.010 C 
ATOM      8  C   UNL     1     -25.149 -12.836   2.262  1.00  0.00     0.025 C 
BRANCH   8   9
ATOM      9  C   UNL     1     -24.527 -11.718   1.535  1.00  0.00     0.064 C 
ATOM     10  O   UNL     1     -24.840 -11.460   0.342  1.00  0.00    -0.545 OA
ATOM     11  O   UNL     1     -23.575 -10.933   2.173  1.00  0.00    -0.545 OA
ENDBRANCH   8   9
ENDBRANCH   1   7
BRANCH   6  12
ATOM     12  O   UNL     1     -28.158 -18.191   4.421  1.00  0.00    -0.508 OA
ATOM     13  H   UNL     1     -27.902 -18.417   5.375  1.00  0.00     0.293 HD
ENDBRANCH   6  12
TORSDOF 3
ENDMDL
MODEL 4
REMARK VINA RESULT:    -5.167     10.972     12.142
REMARK INTER + INTRA:          -6.067
REMARK INTER:                  -5.926
REMARK INTRA:                  -0.141
REMARK UNBOUND:                -0.145
REMARK SMILES O=C([O-])C=Cc1ccc(O)cc1
REMARK SMILES IDX 6 1 7 2 12 3 8 4 11 5 9 6 5 7 4 8 2 9 1 10 3 11 10 12
REMARK H PARENT 10 13
REMARK Flexibility Score: inf
ROOT
ATOM      1  C   UNL     1     -32.668 -15.557   4.946  1.00  0.00    -0.025 A 
ATOM      2  C   UNL     1     -33.252 -16.289   5.995  1.00  0.00     0.012 A 
ATOM      3  C   UNL     1     -33.472 -15.178   3.852  1.00  0.00     0.012 A 
ATOM      4  C   UNL     1     -34.599 -16.658   5.941  1.00  0.00     0.047 A 
ATOM      5  C   UNL     1     -34.819 -15.549   3.802  1.00  0.00     0.047 A 
ATOM      6  C   UNL     1     -35.386 -16.292   4.846  1.00  0.00     0.115 A 
ENDROOT
BRANCH   1   7
ATOM      7  C   UNL     1     -31.236 -15.180   5.055  1.00  0.00     0.010 C 
ATOM      8  C   UNL     1     -30.244 -16.065   5.220  1.00  0.00     0.025 C 
BRANCH   8   9
ATOM      9  C   UNL     1     -28.835 -15.653   5.336  1.00  0.00     0.064 C 
ATOM     10  O   UNL     1     -28.512 -14.596   5.940  1.00  0.00    -0.545 OA
ATOM     11  O   UNL     1     -27.843 -16.443   4.768  1.00  0.00    -0.545 OA
ENDBRANCH   8   9
ENDBRANCH   1   7
BRANCH   6  12
ATOM     12  O   UNL     1     -36.727 -16.667   4.805  1.00  0.00    -0.508 OA
ATOM     13  H   UNL     1     -37.014 -17.568   4.445  1.00  0.00     0.293 HD
ENDBRANCH   6  12
TORSDOF 3
ENDMDL
MODEL 5
REMARK VINA RESULT:    -5.158      1.769      2.520
REMARK INTER + INTRA:          -6.057
REMARK INTER:                  -5.906
REMARK INTRA:                  -0.151
REMARK UNBOUND:                -0.145
REMARK SMILES O=C([O-])C=Cc1ccc(O)cc1
REMARK SMILES IDX 6 1 7 2 12 3 8 4 11 5 9 6 5 7 4 8 2 9 1 10 3 11 10 12
REMARK H PARENT 10 13
REMARK Flexibility Score: inf
ROOT
ATOM      1  C   UNL     1     -28.656  -7.143  -0.654  1.00  0.00    -0.025 A 
ATOM      2  C   UNL     1     -29.341  -6.283   0.222  1.00  0.00     0.012 A 
ATOM      3  C   UNL     1     -28.209  -6.636  -1.892  1.00  0.00     0.012 A 
ATOM      4  C   UNL     1     -29.598  -4.957  -0.139  1.00  0.00     0.047 A 
ATOM      5  C   UNL     1     -28.468  -5.310  -2.248  1.00  0.00     0.047 A 
ATOM      6  C   UNL     1     -29.165  -4.466  -1.373  1.00  0.00     0.115 A 
ENDROOT
BRANCH   1   7
ATOM      7  C   UNL     1     -28.398  -8.539  -0.221  1.00  0.00     0.010 C 
ATOM      8  C   UNL     1     -29.009  -9.120   0.820  1.00  0.00     0.025 C 
BRANCH   8   9
ATOM      9  C   UNL     1     -28.719 -10.505   1.229  1.00  0.00     0.064 C 
ATOM     10  O   UNL     1     -27.534 -10.908   1.370  1.00  0.00    -0.545 OA
ATOM     11  O   UNL     1     -29.769 -11.383   1.460  1.00  0.00    -0.545 OA
ENDBRANCH   8   9
ENDBRANCH   1   7
BRANCH   6  12
ATOM     12  O   UNL     1     -29.428  -3.143  -1.720  1.00  0.00    -0.508 OA
ATOM     13  H   UNL     1     -29.053  -2.370  -1.183  1.00  0.00     0.293 HD
ENDBRANCH   6  12
TORSDOF 3
ENDMDL
MODEL 6
REMARK VINA RESULT:    -5.126      9.255     11.100
REMARK INTER + INTRA:          -6.020
REMARK INTER:                  -5.887
REMARK INTRA:                  -0.133
REMARK UNBOUND:                -0.145
REMARK SMILES O=C([O-])C=Cc1ccc(O)cc1
REMARK SMILES IDX 6 1 7 2 12 3 8 4 11 5 9 6 5 7 4 8 2 9 1 10 3 11 10 12
REMARK H PARENT 10 13
REMARK Flexibility Score: inf
ROOT
ATOM      1  C   UNL     1     -32.943 -14.439   3.706  1.00  0.00    -0.025 A 
ATOM      2  C   UNL     1     -34.159 -15.138   3.796  1.00  0.00     0.012 A 
ATOM      3  C   UNL     1     -31.927 -14.720   4.644  1.00  0.00     0.012 A 
ATOM      4  C   UNL     1     -34.368 -16.075   4.811  1.00  0.00     0.047 A 
ATOM      5  C   UNL     1     -32.141 -15.658   5.657  1.00  0.00     0.047 A 
ATOM      6  C   UNL     1     -33.363 -16.338   5.745  1.00  0.00     0.115 A 
ENDROOT
BRANCH   1   7
ATOM      7  C   UNL     1     -32.765 -13.461   2.604  1.00  0.00     0.010 C 
ATOM      8  C   UNL     1     -32.217 -12.249   2.765  1.00  0.00     0.025 C 
BRANCH   8   9
ATOM      9  C   UNL     1     -32.068 -11.299   1.650  1.00  0.00     0.064 C 
ATOM     10  O   UNL     1     -30.975 -11.181   1.035  1.00  0.00    -0.545 OA
ATOM     11  O   UNL     1     -33.151 -10.518   1.269  1.00  0.00    -0.545 OA
ENDBRANCH   8   9
ENDBRANCH   1   7
BRANCH   6  12
ATOM     12  O   UNL     1     -33.584 -17.274   6.752  1.00  0.00    -0.508 OA
ATOM     13  H   UNL     1     -33.051 -17.263   7.613  1.00  0.00     0.293 HD
ENDBRANCH   6  12
TORSDOF 3
ENDMDL
MODEL 7
REMARK VINA RESULT:    -5.082      5.934      7.713
REMARK INTER + INTRA:          -5.970
REMARK INTER:                  -5.834
REMARK INTRA:                  -0.136
REMARK UNBOUND:                -0.145
REMARK SMILES O=C([O-])C=Cc1ccc(O)cc1
REMARK SMILES IDX 6 1 7 2 12 3 8 4 11 5 9 6 5 7 4 8 2 9 1 10 3 11 10 12
REMARK H PARENT 10 13
REMARK Flexibility Score: inf
ROOT
ATOM      1  C   UNL     1     -25.646 -12.731   1.602  1.00  0.00    -0.025 A 
ATOM      2  C   UNL     1     -24.627 -12.012   2.251  1.00  0.00     0.012 A 
ATOM      3  C   UNL     1     -26.003 -12.368   0.287  1.00  0.00     0.012 A 
ATOM      4  C   UNL     1     -23.997 -10.939   1.613  1.00  0.00     0.047 A 
ATOM      5  C   UNL     1     -25.370 -11.295  -0.347  1.00  0.00     0.047 A 
ATOM      6  C   UNL     1     -24.366 -10.576   0.315  1.00  0.00     0.115 A 
ENDROOT
BRANCH   1   7
ATOM      7  C   UNL     1     -26.277 -13.869   2.317  1.00  0.00     0.010 C 
ATOM      8  C   UNL     1     -26.000 -15.155   2.060  1.00  0.00     0.025 C 
BRANCH   8   9
ATOM      9  C   UNL     1     -26.655 -16.259   2.781  1.00  0.00     0.064 C 
ATOM     10  O   UNL     1     -26.704 -17.419   2.293  1.00  0.00    -0.545 OA
ATOM     11  O   UNL     1     -27.231 -16.017   4.021  1.00  0.00    -0.545 OA
ENDBRANCH   8   9
ENDBRANCH   1   7
BRANCH   6  12
ATOM     12  O   UNL     1     -23.731  -9.505  -0.308  1.00  0.00    -0.508 OA
ATOM     13  H   UNL     1     -23.467  -8.673   0.206  1.00  0.00     0.293 HD
ENDBRANCH   6  12
TORSDOF 3
ENDMDL
MODEL 8
REMARK VINA RESULT:    -4.913      8.904      9.971
REMARK INTER + INTRA:          -5.775
REMARK INTER:                  -5.635
REMARK INTRA:                  -0.141
REMARK UNBOUND:                -0.145
REMARK SMILES O=C([O-])C=Cc1ccc(O)cc1
REMARK SMILES IDX 6 1 7 2 12 3 8 4 11 5 9 6 5 7 4 8 2 9 1 10 3 11 10 12
REMARK H PARENT 10 13
REMARK Flexibility Score: inf
ROOT
ATOM      1  C   UNL     1     -32.975 -13.615   2.788  1.00  0.00    -0.025 A 
ATOM      2  C   UNL     1     -33.529 -12.582   2.012  1.00  0.00     0.012 A 
ATOM      3  C   UNL     1     -31.574 -13.680   2.932  1.00  0.00     0.012 A 
ATOM      4  C   UNL     1     -32.704 -11.652   1.373  1.00  0.00     0.047 A 
ATOM      5  C   UNL     1     -30.753 -12.748   2.291  1.00  0.00     0.047 A 
ATOM      6  C   UNL     1     -31.316 -11.731   1.508  1.00  0.00     0.115 A 
ENDROOT
BRANCH   1   7
ATOM      7  C   UNL     1     -33.893 -14.571   3.456  1.00  0.00     0.010 C 
ATOM      8  C   UNL     1     -33.494 -15.481   4.357  1.00  0.00     0.025 C 
BRANCH   8   9
ATOM      9  C   UNL     1     -34.432 -16.423   4.990  1.00  0.00     0.064 C 
ATOM     10  O   UNL     1     -35.449 -16.843   4.377  1.00  0.00    -0.545 OA
ATOM     11  O   UNL     1     -34.193 -16.855   6.288  1.00  0.00    -0.545 OA
ENDBRANCH   8   9
ENDBRANCH   1   7
BRANCH   6  12
ATOM     12  O   UNL     1     -30.506 -10.799   0.865  1.00  0.00    -0.508 OA
ATOM     13  H   UNL     1     -30.432  -9.844   1.196  1.00  0.00     0.293 HD
ENDBRANCH   6  12
TORSDOF 3
ENDMDL
MODEL 9
REMARK VINA RESULT:    -4.867      5.652      6.410
REMARK INTER + INTRA:          -5.722
REMARK INTER:                  -5.571
REMARK INTRA:                  -0.151
REMARK UNBOUND:                -0.145
REMARK SMILES O=C([O-])C=Cc1ccc(O)cc1
REMARK SMILES IDX 6 1 7 2 12 3 8 4 11 5 9 6 5 7 4 8 2 9 1 10 3 11 10 12
REMARK H PARENT 10 13
REMARK Flexibility Score: inf
ROOT
ATOM      1  C   UNL     1     -31.874 -10.284   2.235  1.00  0.00    -0.025 A 
ATOM      2  C   UNL     1     -32.174  -9.024   2.782  1.00  0.00     0.012 A 
ATOM      3  C   UNL     1     -32.908 -11.021   1.621  1.00  0.00     0.012 A 
ATOM      4  C   UNL     1     -33.478  -8.523   2.741  1.00  0.00     0.047 A 
ATOM      5  C   UNL     1     -34.210 -10.516   1.583  1.00  0.00     0.047 A 
ATOM      6  C   UNL     1     -34.500  -9.266   2.145  1.00  0.00     0.115 A 
ENDROOT
BRANCH   1   7
ATOM      7  C   UNL     1     -30.472 -10.767   2.292  1.00  0.00     0.010 C 
ATOM      8  C   UNL     1     -29.454 -10.044   2.779  1.00  0.00     0.025 C 
BRANCH   8   9
ATOM      9  C   UNL     1     -28.073 -10.552   2.809  1.00  0.00     0.064 C 
ATOM     10  O   UNL     1     -27.367 -10.585   1.766  1.00  0.00    -0.545 OA
ATOM     11  O   UNL     1     -27.537 -11.004   4.008  1.00  0.00    -0.545 OA
ENDBRANCH   8   9
ENDBRANCH   1   7
BRANCH   6  12
ATOM     12  O   UNL     1     -35.795  -8.755   2.113  1.00  0.00    -0.508 OA
ATOM     13  H   UNL     1     -36.204  -8.295   2.917  1.00  0.00     0.293 HD
ENDBRANCH   6  12
TORSDOF 3
ENDMDL
