MODEL 1
REMARK VINA RESULT:    -4.600      0.000      0.000
REMARK INTER + INTRA:          -8.836
REMARK INTER:                  -7.827
REMARK INTRA:                  -1.009
REMARK UNBOUND:                -1.009
REMARK SMILES CCCCCCCCCCCCCC(=O)[O-]
REMARK SMILES IDX 8 1 9 2 10 3 11 4 12 5 13 6 14 7 15 8 16 9 7 10 6 11 5 12
REMARK SMILES IDX 4 13 3 14 2 15 1 16
REMARK H PARENT
REMARK Flexibility Score: inf
ROOT
ATOM      1  C   UNL     1     191.958   4.234  98.619  1.00  0.00     0.000 C 
ENDROOT
BRANCH   1   2
ATOM      2  C   UNL     1     190.605   4.832  98.193  1.00  0.00     0.000 C 
BRANCH   2   3
ATOM      3  C   UNL     1     189.480   3.787  98.168  1.00  0.00     0.000 C 
BRANCH   3   4
ATOM      4  C   UNL     1     188.826   3.654  96.781  1.00  0.00     0.000 C 
BRANCH   4   5
ATOM      5  C   UNL     1     189.683   4.256  95.652  1.00  0.00     0.006 C 
BRANCH   5   6
ATOM      6  C   UNL     1     190.385   3.205  94.773  1.00  0.00     0.053 C 
BRANCH   6   7
ATOM      7  C   UNL     1     191.854   3.104  95.052  1.00  0.00     0.041 C 
ATOM      8  O   UNL     1     192.547   4.146  95.191  1.00  0.00    -0.550 OA
ATOM      9  O   UNL     1     192.464   1.860  95.126  1.00  0.00    -0.550 OA
ENDBRANCH   6   7
ENDBRANCH   5   6
ENDBRANCH   4   5
ENDBRANCH   3   4
ENDBRANCH   2   3
ENDBRANCH   1   2
BRANCH   1  10
ATOM     10  C   UNL     1     191.868   2.716  98.884  1.00  0.00     0.000 C 
BRANCH  10  11
ATOM     11  C   UNL     1     192.755   2.242 100.048  1.00  0.00    -0.000 C 
BRANCH  11  12
ATOM     12  C   UNL     1     192.369   0.844 100.561  1.00  0.00    -0.000 C 
BRANCH  12  13
ATOM     13  C   UNL     1     192.007   0.840 102.055  1.00  0.00    -0.000 C 
BRANCH  13  14
ATOM     14  C   UNL     1     193.067   1.545 102.920  1.00  0.00    -0.000 C 
BRANCH  14  15
ATOM     15  C   UNL     1     192.450   2.297 104.108  1.00  0.00    -0.003 C 
ATOM     16  C   UNL     1     193.432   2.492 105.263  1.00  0.00     0.004 C 
ENDBRANCH  14  15
ENDBRANCH  13  14
ENDBRANCH  12  13
ENDBRANCH  11  12
ENDBRANCH  10  11
ENDBRANCH   1  10
TORSDOF 12
ENDMDL
MODEL 2
REMARK VINA RESULT:    -4.555      4.022      7.879
REMARK INTER + INTRA:          -8.759
REMARK INTER:                  -7.884
REMARK INTRA:                  -0.875
REMARK UNBOUND:                -1.009
REMARK SMILES CCCCCCCCCCCCCC(=O)[O-]
REMARK SMILES IDX 8 1 9 2 10 3 11 4 12 5 13 6 14 7 15 8 16 9 7 10 6 11 5 12
REMARK SMILES IDX 4 13 3 14 2 15 1 16
REMARK H PARENT
REMARK Flexibility Score: inf
ROOT
ATOM      1  C   UNL     1     191.964   2.523  98.518  1.00  0.00     0.000 C 
ENDROOT
BRANCH   1   2
ATOM      2  C   UNL     1     192.189   1.864  99.890  1.00  0.00     0.000 C 
BRANCH   2   3
ATOM      3  C   UNL     1     193.252   2.590 100.728  1.00  0.00     0.000 C 
BRANCH   3   4
ATOM      4  C   UNL     1     193.675   1.787 101.970  1.00  0.00     0.000 C 
BRANCH   4   5
ATOM      5  C   UNL     1     193.739   2.644 103.248  1.00  0.00     0.006 C 
BRANCH   5   6
ATOM      6  C   UNL     1     192.578   2.393 104.226  1.00  0.00     0.053 C 
BRANCH   6   7
ATOM      7  C   UNL     1     193.047   1.971 105.586  1.00  0.00     0.041 C 
ATOM      8  O   UNL     1     193.780   2.732 106.270  1.00  0.00    -0.550 OA
ATOM      9  O   UNL     1     192.700   0.722 106.084  1.00  0.00    -0.550 OA
ENDBRANCH   6   7
ENDBRANCH   5   6
ENDBRANCH   4   5
ENDBRANCH   3   4
ENDBRANCH   2   3
ENDBRANCH   1   2
BRANCH   1  10
ATOM     10  C   UNL     1     191.927   4.064  98.610  1.00  0.00     0.000 C 
BRANCH  10  11
ATOM     11  C   UNL     1     190.564   4.669  98.236  1.00  0.00    -0.000 C 
BRANCH  11  12
ATOM     12  C   UNL     1     189.551   3.611  97.765  1.00  0.00    -0.000 C 
BRANCH  12  13
ATOM     13  C   UNL     1     189.531   3.450  96.236  1.00  0.00    -0.000 C 
BRANCH  13  14
ATOM     14  C   UNL     1     190.203   4.629  95.510  1.00  0.00    -0.000 C 
BRANCH  14  15
ATOM     15  C   UNL     1     191.224   4.166  94.459  1.00  0.00    -0.003 C 
ATOM     16  C   UNL     1     191.972   2.900  94.875  1.00  0.00     0.004 C 
ENDBRANCH  14  15
ENDBRANCH  13  14
ENDBRANCH  12  13
ENDBRANCH  11  12
ENDBRANCH  10  11
ENDBRANCH   1  10
TORSDOF 12
ENDMDL
MODEL 3
REMARK VINA RESULT:    -4.418      2.469      3.433
REMARK INTER + INTRA:          -8.526
REMARK INTER:                  -7.435
REMARK INTRA:                  -1.091
REMARK UNBOUND:                -1.009
REMARK SMILES CCCCCCCCCCCCCC(=O)[O-]
REMARK SMILES IDX 8 1 9 2 10 3 11 4 12 5 13 6 14 7 15 8 16 9 7 10 6 11 5 12
REMARK SMILES IDX 4 13 3 14 2 15 1 16
REMARK H PARENT
REMARK Flexibility Score: inf
ROOT
ATOM      1  C   UNL     1     192.333   1.786  99.446  1.00  0.00     0.000 C 
ENDROOT
BRANCH   1   2
ATOM      2  C   UNL     1     192.822   3.243  99.534  1.00  0.00     0.000 C 
BRANCH   2   3
ATOM      3  C   UNL     1     192.075   4.175  98.569  1.00  0.00     0.000 C 
BRANCH   3   4
ATOM      4  C   UNL     1     191.121   3.415  97.631  1.00  0.00     0.000 C 
BRANCH   4   5
ATOM      5  C   UNL     1     189.648   3.829  97.806  1.00  0.00     0.006 C 
BRANCH   5   6
ATOM      6  C   UNL     1     189.440   5.347  97.954  1.00  0.00     0.053 C 
BRANCH   6   7
ATOM      7  C   UNL     1     188.081   5.792  97.506  1.00  0.00     0.041 C 
ATOM      8  O   UNL     1     187.263   6.268  98.337  1.00  0.00    -0.550 OA
ATOM      9  O   UNL     1     187.706   5.651  96.177  1.00  0.00    -0.550 OA
ENDBRANCH   6   7
ENDBRANCH   5   6
ENDBRANCH   4   5
ENDBRANCH   3   4
ENDBRANCH   2   3
ENDBRANCH   1   2
BRANCH   1  10
ATOM     10  C   UNL     1     191.486   1.380 100.672  1.00  0.00     0.000 C 
BRANCH  10  11
ATOM     11  C   UNL     1     191.795  -0.035 101.190  1.00  0.00    -0.000 C 
BRANCH  11  12
ATOM     12  C   UNL     1     192.098  -0.065 102.697  1.00  0.00    -0.000 C 
BRANCH  12  13
ATOM     13  C   UNL     1     191.226   0.916 103.497  1.00  0.00    -0.000 C 
BRANCH  13  14
ATOM     14  C   UNL     1     192.059   1.981 104.233  1.00  0.00    -0.000 C 
BRANCH  14  15
ATOM     15  C   UNL     1     193.559   1.872 103.920  1.00  0.00    -0.003 C 
ATOM     16  C   UNL     1     194.038   2.933 102.929  1.00  0.00     0.004 C 
ENDBRANCH  14  15
ENDBRANCH  13  14
ENDBRANCH  12  13
ENDBRANCH  11  12
ENDBRANCH  10  11
ENDBRANCH   1  10
TORSDOF 12
ENDMDL
MODEL 4
REMARK VINA RESULT:    -4.405      1.342      2.360
REMARK INTER + INTRA:          -8.505
REMARK INTER:                  -7.680
REMARK INTRA:                  -0.825
REMARK UNBOUND:                -1.009
REMARK SMILES CCCCCCCCCCCCCC(=O)[O-]
REMARK SMILES IDX 8 1 9 2 10 3 11 4 12 5 13 6 14 7 15 8 16 9 7 10 6 11 5 12
REMARK SMILES IDX 4 13 3 14 2 15 1 16
REMARK H PARENT
REMARK Flexibility Score: inf
ROOT
ATOM      1  C   UNL     1     192.317   1.998  99.725  1.00  0.00     0.000 C 
ENDROOT
BRANCH   1   2
ATOM      2  C   UNL     1     192.770   3.461  99.577  1.00  0.00     0.000 C 
BRANCH   2   3
ATOM      3  C   UNL     1     191.927   4.239  98.557  1.00  0.00     0.000 C 
BRANCH   3   4
ATOM      4  C   UNL     1     190.897   3.350  97.839  1.00  0.00     0.000 C 
BRANCH   4   5
ATOM      5  C   UNL     1     189.934   4.148  96.941  1.00  0.00     0.006 C 
BRANCH   5   6
ATOM      6  C   UNL     1     189.938   3.701  95.469  1.00  0.00     0.053 C 
BRANCH   6   7
ATOM      7  C   UNL     1     191.314   3.394  94.960  1.00  0.00     0.041 C 
ATOM      8  O   UNL     1     191.609   2.226  94.593  1.00  0.00    -0.550 OA
ATOM      9  O   UNL     1     192.280   4.390  94.922  1.00  0.00    -0.550 OA
ENDBRANCH   6   7
ENDBRANCH   5   6
ENDBRANCH   4   5
ENDBRANCH   3   4
ENDBRANCH   2   3
ENDBRANCH   1   2
BRANCH   1  10
ATOM     10  C   UNL     1     192.857   1.347 101.017  1.00  0.00     0.000 C 
BRANCH  10  11
ATOM     11  C   UNL     1     193.621   2.325 101.925  1.00  0.00    -0.000 C 
BRANCH  11  12
ATOM     12  C   UNL     1     193.279   2.148 103.414  1.00  0.00    -0.000 C 
BRANCH  12  13
ATOM     13  C   UNL     1     192.758   0.739 103.739  1.00  0.00    -0.000 C 
BRANCH  13  14
ATOM     14  C   UNL     1     191.507   0.765 104.635  1.00  0.00    -0.000 C 
BRANCH  14  15
ATOM     15  C   UNL     1     190.751   2.100 104.548  1.00  0.00    -0.003 C 
ATOM     16  C   UNL     1     189.848   2.352 105.756  1.00  0.00     0.004 C 
ENDBRANCH  14  15
ENDBRANCH  13  14
ENDBRANCH  12  13
ENDBRANCH  11  12
ENDBRANCH  10  11
ENDBRANCH   1  10
TORSDOF 12
ENDMDL
MODEL 5
REMARK VINA RESULT:    -4.398      3.771      7.762
REMARK INTER + INTRA:          -8.491
REMARK INTER:                  -7.602
REMARK INTRA:                  -0.889
REMARK UNBOUND:                -1.009
REMARK SMILES CCCCCCCCCCCCCC(=O)[O-]
REMARK SMILES IDX 8 1 9 2 10 3 11 4 12 5 13 6 14 7 15 8 16 9 7 10 6 11 5 12
REMARK SMILES IDX 4 13 3 14 2 15 1 16
REMARK H PARENT
REMARK Flexibility Score: inf
ROOT
ATOM      1  C   UNL     1     191.281   3.581  98.418  1.00  0.00     0.000 C 
ENDROOT
BRANCH   1   2
ATOM      2  C   UNL     1     192.015   2.400  99.075  1.00  0.00     0.000 C 
BRANCH   2   3
ATOM      3  C   UNL     1     193.075   2.855 100.089  1.00  0.00     0.000 C 
BRANCH   3   4
ATOM      4  C   UNL     1     193.144   1.939 101.324  1.00  0.00     0.000 C 
BRANCH   4   5
ATOM      5  C   UNL     1     193.457   2.702 102.624  1.00  0.00     0.006 C 
BRANCH   5   6
ATOM      6  C   UNL     1     193.598   1.798 103.861  1.00  0.00     0.053 C 
BRANCH   6   7
ATOM      7  C   UNL     1     192.587   2.108 104.924  1.00  0.00     0.041 C 
ATOM      8  O   UNL     1     191.394   2.360 104.611  1.00  0.00    -0.550 OA
ATOM      9  O   UNL     1     192.971   2.149 106.257  1.00  0.00    -0.550 OA
ENDBRANCH   6   7
ENDBRANCH   5   6
ENDBRANCH   4   5
ENDBRANCH   3   4
ENDBRANCH   2   3
ENDBRANCH   1   2
BRANCH   1  10
ATOM     10  C   UNL     1     189.750   3.491  98.598  1.00  0.00     0.000 C 
BRANCH  10  11
ATOM     11  C   UNL     1     188.958   3.903  97.346  1.00  0.00    -0.000 C 
BRANCH  11  12
ATOM     12  C   UNL     1     189.816   4.668  96.323  1.00  0.00    -0.000 C 
BRANCH  12  13
ATOM     13  C   UNL     1     189.593   4.182  94.882  1.00  0.00    -0.000 C 
BRANCH  13  14
ATOM     14  C   UNL     1     190.902   4.109  94.075  1.00  0.00    -0.000 C 
BRANCH  14  15
ATOM     15  C   UNL     1     192.093   3.649  94.930  1.00  0.00    -0.003 C 
ATOM     16  C   UNL     1     192.154   2.131  95.094  1.00  0.00     0.004 C 
ENDBRANCH  14  15
ENDBRANCH  13  14
ENDBRANCH  12  13
ENDBRANCH  11  12
ENDBRANCH  10  11
ENDBRANCH   1  10
TORSDOF 12
ENDMDL
MODEL 6
REMARK VINA RESULT:    -4.342      4.385      8.123
REMARK INTER + INTRA:          -8.396
REMARK INTER:                  -7.682
REMARK INTRA:                  -0.714
REMARK UNBOUND:                -1.009
REMARK SMILES CCCCCCCCCCCCCC(=O)[O-]
REMARK SMILES IDX 8 1 9 2 10 3 11 4 12 5 13 6 14 7 15 8 16 9 7 10 6 11 5 12
REMARK SMILES IDX 4 13 3 14 2 15 1 16
REMARK H PARENT
REMARK Flexibility Score: inf
ROOT
ATOM      1  C   UNL     1     191.895   1.579 100.793  1.00  0.00     0.000 C 
ENDROOT
BRANCH   1   2
ATOM      2  C   UNL     1     193.144   1.225 101.619  1.00  0.00     0.000 C 
BRANCH   2   3
ATOM      3  C   UNL     1     193.678   2.420 102.424  1.00  0.00     0.000 C 
BRANCH   3   4
ATOM      4  C   UNL     1     193.338   2.323 103.921  1.00  0.00     0.000 C 
BRANCH   4   5
ATOM      5  C   UNL     1     192.338   1.198 104.241  1.00  0.00     0.006 C 
BRANCH   5   6
ATOM      6  C   UNL     1     190.945   1.701 104.660  1.00  0.00     0.053 C 
BRANCH   6   7
ATOM      7  C   UNL     1     190.754   1.704 106.147  1.00  0.00     0.041 C 
ATOM      8  O   UNL     1     191.705   1.388 106.910  1.00  0.00    -0.550 OA
ATOM      9  O   UNL     1     189.517   2.024 106.689  1.00  0.00    -0.550 OA
ENDBRANCH   6   7
ENDBRANCH   5   6
ENDBRANCH   4   5
ENDBRANCH   3   4
ENDBRANCH   2   3
ENDBRANCH   1   2
BRANCH   1  10
ATOM     10  C   UNL     1     192.251   2.026  99.359  1.00  0.00     0.000 C 
BRANCH  10  11
ATOM     11  C   UNL     1     192.679   3.500  99.264  1.00  0.00    -0.000 C 
BRANCH  11  12
ATOM     12  C   UNL     1     191.818   4.309  98.279  1.00  0.00    -0.000 C 
BRANCH  12  13
ATOM     13  C   UNL     1     190.551   3.556  97.841  1.00  0.00    -0.000 C 
BRANCH  13  14
ATOM     14  C   UNL     1     190.560   3.209  96.342  1.00  0.00    -0.000 C 
BRANCH  14  15
ATOM     15  C   UNL     1     191.857   3.649  95.645  1.00  0.00    -0.003 C 
ATOM     16  C   UNL     1     191.617   4.668  94.531  1.00  0.00     0.004 C 
ENDBRANCH  14  15
ENDBRANCH  13  14
ENDBRANCH  12  13
ENDBRANCH  11  12
ENDBRANCH  10  11
ENDBRANCH   1  10
TORSDOF 12
ENDMDL
MODEL 7
REMARK VINA RESULT:    -4.270      2.237      3.761
REMARK INTER + INTRA:          -8.273
REMARK INTER:                  -7.592
REMARK INTRA:                  -0.682
REMARK UNBOUND:                -1.009
REMARK SMILES CCCCCCCCCCCCCC(=O)[O-]
REMARK SMILES IDX 8 1 9 2 10 3 11 4 12 5 13 6 14 7 15 8 16 9 7 10 6 11 5 12
REMARK SMILES IDX 4 13 3 14 2 15 1 16
REMARK H PARENT
REMARK Flexibility Score: inf
ROOT
ATOM      1  C   UNL     1     193.025   1.161 101.391  1.00  0.00     0.000 C 
ENDROOT
BRANCH   1   2
ATOM      2  C   UNL     1     192.076   1.440 100.212  1.00  0.00     0.000 C 
BRANCH   2   3
ATOM      3  C   UNL     1     192.446   2.718  99.446  1.00  0.00     0.000 C 
BRANCH   3   4
ATOM      4  C   UNL     1     191.714   2.833  98.098  1.00  0.00     0.000 C 
BRANCH   4   5
ATOM      5  C   UNL     1     190.836   4.093  97.994  1.00  0.00     0.006 C 
BRANCH   5   6
ATOM      6  C   UNL     1     189.343   3.839  98.270  1.00  0.00     0.053 C 
BRANCH   6   7
ATOM      7  C   UNL     1     188.584   3.453  97.037  1.00  0.00     0.041 C 
ATOM      8  O   UNL     1     187.448   2.918  97.132  1.00  0.00    -0.550 OA
ATOM      9  O   UNL     1     189.144   3.656  95.783  1.00  0.00    -0.550 OA
ENDBRANCH   6   7
ENDBRANCH   5   6
ENDBRANCH   4   5
ENDBRANCH   3   4
ENDBRANCH   2   3
ENDBRANCH   1   2
BRANCH   1  10
ATOM     10  C   UNL     1     193.539   2.461 102.047  1.00  0.00     0.000 C 
BRANCH  10  11
ATOM     11  C   UNL     1     193.813   2.322 103.554  1.00  0.00    -0.000 C 
BRANCH  11  12
ATOM     12  C   UNL     1     192.600   2.704 104.418  1.00  0.00    -0.000 C 
BRANCH  12  13
ATOM     13  C   UNL     1     191.703   1.500 104.747  1.00  0.00    -0.000 C 
BRANCH  13  14
ATOM     14  C   UNL     1     192.377   0.509 105.713  1.00  0.00    -0.000 C 
BRANCH  14  15
ATOM     15  C   UNL     1     191.550   0.277 106.987  1.00  0.00    -0.003 C 
ATOM     16  C   UNL     1     191.246   1.571 107.742  1.00  0.00     0.004 C 
ENDBRANCH  14  15
ENDBRANCH  13  14
ENDBRANCH  12  13
ENDBRANCH  11  12
ENDBRANCH  10  11
ENDBRANCH   1  10
TORSDOF 12
ENDMDL
MODEL 8
REMARK VINA RESULT:    -4.262      1.223      2.855
REMARK INTER + INTRA:          -8.260
REMARK INTER:                  -7.310
REMARK INTRA:                  -0.950
REMARK UNBOUND:                -1.009
REMARK SMILES CCCCCCCCCCCCCC(=O)[O-]
REMARK SMILES IDX 8 1 9 2 10 3 11 4 12 5 13 6 14 7 15 8 16 9 7 10 6 11 5 12
REMARK SMILES IDX 4 13 3 14 2 15 1 16
REMARK H PARENT
REMARK Flexibility Score: inf
ROOT
ATOM      1  C   UNL     1     193.126   2.349 100.488  1.00  0.00     0.000 C 
ENDROOT
BRANCH   1   2
ATOM      2  C   UNL     1     192.708   3.312  99.364  1.00  0.00     0.000 C 
BRANCH   2   3
ATOM      3  C   UNL     1     191.311   2.998  98.807  1.00  0.00     0.000 C 
BRANCH   3   4
ATOM      4  C   UNL     1     190.852   4.021  97.752  1.00  0.00     0.000 C 
BRANCH   4   5
ATOM      5  C   UNL     1     189.685   3.510  96.887  1.00  0.00     0.006 C 
BRANCH   5   6
ATOM      6  C   UNL     1     189.786   3.909  95.404  1.00  0.00     0.053 C 
BRANCH   6   7
ATOM      7  C   UNL     1     191.139   3.632  94.821  1.00  0.00     0.041 C 
ATOM      8  O   UNL     1     191.493   2.450  94.571  1.00  0.00    -0.550 OA
ATOM      9  O   UNL     1     192.021   4.678  94.583  1.00  0.00    -0.550 OA
ENDBRANCH   6   7
ENDBRANCH   5   6
ENDBRANCH   4   5
ENDBRANCH   3   4
ENDBRANCH   2   3
ENDBRANCH   1   2
BRANCH   1  10
ATOM     10  C   UNL     1     193.527   3.095 101.779  1.00  0.00     0.000 C 
BRANCH  10  11
ATOM     11  C   UNL     1     193.624   2.182 103.012  1.00  0.00    -0.000 C 
BRANCH  11  12
ATOM     12  C   UNL     1     192.474   2.402 104.010  1.00  0.00    -0.000 C 
BRANCH  12  13
ATOM     13  C   UNL     1     191.295   1.443 103.777  1.00  0.00    -0.000 C 
BRANCH  13  14
ATOM     14  C   UNL     1     191.756   0.009 103.460  1.00  0.00    -0.000 C 
BRANCH  14  15
ATOM     15  C   UNL     1     191.256  -0.478 102.092  1.00  0.00    -0.003 C 
ATOM     16  C   UNL     1     192.326  -1.234 101.303  1.00  0.00     0.004 C 
ENDBRANCH  14  15
ENDBRANCH  13  14
ENDBRANCH  12  13
ENDBRANCH  11  12
ENDBRANCH  10  11
ENDBRANCH   1  10
TORSDOF 12
ENDMDL
MODEL 9
REMARK VINA RESULT:    -4.254      1.896      3.677
REMARK INTER + INTRA:          -8.246
REMARK INTER:                  -6.968
REMARK INTRA:                  -1.278
REMARK UNBOUND:                -1.009
REMARK SMILES CCCCCCCCCCCCCC(=O)[O-]
REMARK SMILES IDX 8 1 9 2 10 3 11 4 12 5 13 6 14 7 15 8 16 9 7 10 6 11 5 12
REMARK SMILES IDX 4 13 3 14 2 15 1 16
REMARK H PARENT
REMARK Flexibility Score: inf
ROOT
ATOM      1  C   UNL     1     193.355   0.370 101.258  1.00  0.00     0.000 C 
ENDROOT
BRANCH   1   2
ATOM      2  C   UNL     1     192.210   1.341 100.919  1.00  0.00     0.000 C 
BRANCH   2   3
ATOM      3  C   UNL     1     192.333   1.926  99.505  1.00  0.00     0.000 C 
BRANCH   3   4
ATOM      4  C   UNL     1     192.656   3.431  99.514  1.00  0.00     0.000 C 
BRANCH   4   5
ATOM      5  C   UNL     1     191.991   4.197  98.355  1.00  0.00     0.006 C 
BRANCH   5   6
ATOM      6  C   UNL     1     190.481   3.934  98.219  1.00  0.00     0.053 C 
BRANCH   6   7
ATOM      7  C   UNL     1     190.102   3.422  96.862  1.00  0.00     0.041 C 
ATOM      8  O   UNL     1     190.993   3.104  96.031  1.00  0.00    -0.550 OA
ATOM      9  O   UNL     1     188.764   3.327  96.503  1.00  0.00    -0.550 OA
ENDBRANCH   6   7
ENDBRANCH   5   6
ENDBRANCH   4   5
ENDBRANCH   3   4
ENDBRANCH   2   3
ENDBRANCH   1   2
BRANCH   1  10
ATOM     10  C   UNL     1     192.837  -0.967 101.830  1.00  0.00     0.000 C 
BRANCH  10  11
ATOM     11  C   UNL     1     193.382  -1.288 103.232  1.00  0.00    -0.000 C 
BRANCH  11  12
ATOM     12  C   UNL     1     192.325  -1.118 104.337  1.00  0.00    -0.000 C 
BRANCH  12  13
ATOM     13  C   UNL     1     192.547   0.149 105.180  1.00  0.00    -0.000 C 
BRANCH  13  14
ATOM     14  C   UNL     1     191.679   1.329 104.709  1.00  0.00    -0.000 C 
BRANCH  14  15
ATOM     15  C   UNL     1     192.517   2.562 104.336  1.00  0.00    -0.003 C 
ATOM     16  C   UNL     1     194.021   2.303 104.415  1.00  0.00     0.004 C 
ENDBRANCH  14  15
ENDBRANCH  13  14
ENDBRANCH  12  13
ENDBRANCH  11  12
ENDBRANCH  10  11
ENDBRANCH   1  10
TORSDOF 12
ENDMDL
