MODEL 1
REMARK VINA RESULT:    -6.001      0.000      0.000
REMARK INTER + INTRA:          -6.734
REMARK INTER:                  -6.527
REMARK INTRA:                  -0.207
REMARK UNBOUND:                -0.207
REMARK SMILES C[C@H]1[C@H](C)CC[C@@]2(C(=O)[O-])CC[C@@]3(C)C(=CC[C@@H]4[C@]5(C)CC[C@H](O)C(C)(C)[C@@H]5CC[C@@]43C)[C@@H]12
REMARK SMILES IDX 7 1 6 2 11 3 33 4 5 5 12 6 15 7 2 8 3 9 13 10 16 11 1 12
REMARK SMILES IDX 4 13 14 14 31 15 17 16 18 17 30 18 32 19 19 20 29 21 28 22
REMARK SMILES IDX 21 23 20 24 25 25 22 26 23 27 26 28 27 29 8 30 9 31 10 32
REMARK SMILES IDX 24 33
REMARK H PARENT 24 34
REMARK Flexibility Score: inf
ROOT
ATOM      1  C   UNL     1      48.101  14.748  -5.002  1.00  0.00     0.017 C 
ATOM      2  C   UNL     1      48.873  13.482  -5.490  1.00  0.00     0.014 C 
ATOM      3  C   UNL     1      46.986  15.175  -6.011  1.00  0.00     0.014 C 
ATOM      4  C   UNL     1      47.516  14.549  -3.547  1.00  0.00     0.030 C 
ATOM      5  C   UNL     1      48.203  12.156  -5.146  1.00  0.00     0.004 C 
ATOM      6  C   UNL     1      45.623  14.465  -5.890  1.00  0.00     0.013 C 
ATOM      7  C   UNL     1      46.019  14.970  -3.456  1.00  0.00    -0.063 C 
ATOM      8  C   UNL     1      47.990  13.254  -2.793  1.00  0.00    -0.003 C 
ATOM      9  C   UNL     1      48.075  11.928  -3.619  1.00  0.00    -0.011 C 
ATOM     10  C   UNL     1      44.970  14.409  -4.445  1.00  0.00    -0.006 C 
ATOM     11  C   UNL     1      45.787  16.124  -2.797  1.00  0.00    -0.027 C 
ATOM     12  C   UNL     1      47.262  13.060  -1.450  1.00  0.00     0.008 C 
ATOM     13  C   UNL     1      49.246  11.054  -3.126  1.00  0.00     0.008 C 
ATOM     14  C   UNL     1      44.710  12.918  -4.082  1.00  0.00     0.017 C 
ATOM     15  C   UNL     1      43.532  15.173  -4.381  1.00  0.00    -0.020 C 
ATOM     16  C   UNL     1      44.602  17.007  -2.988  1.00  0.00     0.032 C 
ATOM     17  C   UNL     1      43.746  16.723  -4.258  1.00  0.00     0.006 C 
ATOM     18  C   UNL     1      42.687  14.750  -3.126  1.00  0.00     0.008 C 
ATOM     19  C   UNL     1      42.709  14.784  -5.669  1.00  0.00     0.012 C 
ATOM     20  C   UNL     1      42.383  17.603  -4.305  1.00  0.00    -0.025 C 
ATOM     21  C   UNL     1      41.593  15.752  -2.655  1.00  0.00     0.005 C 
ATOM     22  C   UNL     1      41.136  16.789  -3.723  1.00  0.00     0.003 C 
ATOM     23  C   UNL     1      42.572  18.955  -3.518  1.00  0.00     0.010 C 
ATOM     24  C   UNL     1      42.115  17.991  -5.802  1.00  0.00     0.012 C 
ATOM     25  C   UNL     1      39.862  17.657  -3.295  1.00  0.00    -0.006 C 
ATOM     26  C   UNL     1      41.297  19.770  -3.297  1.00  0.00     0.033 C 
ATOM     27  C   UNL     1      40.258  18.950  -2.528  1.00  0.00     0.120 C 
ATOM     28  C   UNL     1      39.027  18.039  -4.552  1.00  0.00     0.014 C 
ATOM     29  C   UNL     1      38.876  16.852  -2.403  1.00  0.00     0.014 C 
ENDROOT
BRANCH   1  30
ATOM     30  C   UNL     1      49.102  15.913  -5.018  1.00  0.00     0.048 C 
ATOM     31  O   UNL     1      50.278  15.750  -4.596  1.00  0.00    -0.550 OA
ATOM     32  O   UNL     1      48.700  17.197  -5.376  1.00  0.00    -0.550 OA
ENDBRANCH   1  30
BRANCH  27  33
ATOM     33  O   UNL     1      40.758  18.630  -1.251  1.00  0.00    -0.393 OA
ATOM     34  H   UNL     1      41.179  17.734  -1.319  1.00  0.00     0.210 HD
ENDBRANCH  27  33
TORSDOF 2
ENDMDL
MODEL 2
REMARK VINA RESULT:    -5.581      1.565      7.822
REMARK INTER + INTRA:          -6.277
REMARK INTER:                  -6.065
REMARK INTRA:                  -0.212
REMARK UNBOUND:                -0.207
REMARK SMILES C[C@H]1[C@H](C)CC[C@@]2(C(=O)[O-])CC[C@@]3(C)C(=CC[C@@H]4[C@]5(C)CC[C@H](O)C(C)(C)[C@@H]5CC[C@@]43C)[C@@H]12
REMARK SMILES IDX 7 1 6 2 11 3 33 4 5 5 12 6 15 7 2 8 3 9 13 10 16 11 1 12
REMARK SMILES IDX 4 13 14 14 31 15 17 16 18 17 30 18 32 19 19 20 29 21 28 22
REMARK SMILES IDX 21 23 20 24 25 25 22 26 23 27 26 28 27 29 8 30 9 31 10 32
REMARK SMILES IDX 24 33
REMARK H PARENT 24 34
REMARK Flexibility Score: inf
ROOT
ATOM      1  C   UNL     1      41.419  18.740  -2.788  1.00  0.00     0.017 C 
ATOM      2  C   UNL     1      40.228  19.501  -3.450  1.00  0.00     0.014 C 
ATOM      3  C   UNL     1      41.210  17.191  -2.819  1.00  0.00     0.014 C 
ATOM      4  C   UNL     1      42.803  19.148  -3.435  1.00  0.00     0.030 C 
ATOM      5  C   UNL     1      40.317  19.626  -4.967  1.00  0.00     0.004 C 
ATOM      6  C   UNL     1      41.633  16.453  -4.104  1.00  0.00     0.013 C 
ATOM      7  C   UNL     1      43.666  17.905  -3.800  1.00  0.00    -0.063 C 
ATOM      8  C   UNL     1      42.758  20.363  -4.431  1.00  0.00    -0.003 C 
ATOM      9  C   UNL     1      41.556  20.433  -5.430  1.00  0.00    -0.011 C 
ATOM     10  C   UNL     1      43.089  16.755  -4.658  1.00  0.00    -0.006 C 
ATOM     11  C   UNL     1      44.731  17.690  -2.998  1.00  0.00    -0.027 C 
ATOM     12  C   UNL     1      44.110  20.599  -5.127  1.00  0.00     0.008 C 
ATOM     13  C   UNL     1      41.151  21.898  -5.692  1.00  0.00     0.008 C 
ATOM     14  C   UNL     1      42.960  17.262  -6.125  1.00  0.00     0.017 C 
ATOM     15  C   UNL     1      44.030  15.424  -4.694  1.00  0.00    -0.020 C 
ATOM     16  C   UNL     1      45.395  16.376  -2.776  1.00  0.00     0.032 C 
ATOM     17  C   UNL     1      44.602  15.126  -3.265  1.00  0.00     0.006 C 
ATOM     18  C   UNL     1      45.277  15.601  -5.634  1.00  0.00     0.008 C 
ATOM     19  C   UNL     1      43.170  14.228  -5.255  1.00  0.00     0.012 C 
ATOM     20  C   UNL     1      45.462  13.754  -3.148  1.00  0.00    -0.025 C 
ATOM     21  C   UNL     1      46.495  14.675  -5.352  1.00  0.00     0.005 C 
ATOM     22  C   UNL     1      46.179  13.391  -4.530  1.00  0.00     0.003 C 
ATOM     23  C   UNL     1      46.524  13.864  -1.990  1.00  0.00     0.010 C 
ATOM     24  C   UNL     1      44.474  12.604  -2.742  1.00  0.00     0.012 C 
ATOM     25  C   UNL     1      47.390  12.349  -4.446  1.00  0.00    -0.006 C 
ATOM     26  C   UNL     1      47.544  12.726  -1.925  1.00  0.00     0.033 C 
ATOM     27  C   UNL     1      48.326  12.627  -3.237  1.00  0.00     0.120 C 
ATOM     28  C   UNL     1      46.840  10.895  -4.349  1.00  0.00     0.014 C 
ATOM     29  C   UNL     1      48.257  12.350  -5.737  1.00  0.00     0.014 C 
ENDROOT
BRANCH   1  30
ATOM     30  C   UNL     1      41.403  19.102  -1.295  1.00  0.00     0.048 C 
ATOM     31  O   UNL     1      42.117  18.463  -0.476  1.00  0.00    -0.550 OA
ATOM     32  O   UNL     1      40.511  20.048  -0.797  1.00  0.00    -0.550 OA
ENDBRANCH   1  30
BRANCH  27  33
ATOM     33  O   UNL     1      49.057  13.812  -3.444  1.00  0.00    -0.393 OA
ATOM     34  H   UNL     1      48.593  14.319  -4.159  1.00  0.00     0.210 HD
ENDBRANCH  27  33
TORSDOF 2
ENDMDL
MODEL 3
REMARK VINA RESULT:    -5.399      1.512      7.808
REMARK INTER + INTRA:          -6.079
REMARK INTER:                  -5.856
REMARK INTRA:                  -0.223
REMARK UNBOUND:                -0.207
REMARK SMILES C[C@H]1[C@H](C)CC[C@@]2(C(=O)[O-])CC[C@@]3(C)C(=CC[C@@H]4[C@]5(C)CC[C@H](O)C(C)(C)[C@@H]5CC[C@@]43C)[C@@H]12
REMARK SMILES IDX 7 1 6 2 11 3 33 4 5 5 12 6 15 7 2 8 3 9 13 10 16 11 1 12
REMARK SMILES IDX 4 13 14 14 31 15 17 16 18 17 30 18 32 19 19 20 29 21 28 22
REMARK SMILES IDX 21 23 20 24 25 25 22 26 23 27 26 28 27 29 8 30 9 31 10 32
REMARK SMILES IDX 24 33
REMARK H PARENT 24 34
REMARK Flexibility Score: inf
ROOT
ATOM      1  C   UNL     1      42.046  18.845  -2.107  1.00  0.00     0.017 C 
ATOM      2  C   UNL     1      40.521  19.128  -1.933  1.00  0.00     0.014 C 
ATOM      3  C   UNL     1      42.487  17.549  -1.352  1.00  0.00     0.014 C 
ATOM      4  C   UNL     1      42.459  18.793  -3.632  1.00  0.00     0.030 C 
ATOM      5  C   UNL     1      39.620  18.380  -2.910  1.00  0.00     0.004 C 
ATOM      6  C   UNL     1      42.295  16.209  -2.090  1.00  0.00     0.013 C 
ATOM      7  C   UNL     1      43.326  17.541  -3.959  1.00  0.00    -0.063 C 
ATOM      8  C   UNL     1      41.353  19.242  -4.653  1.00  0.00    -0.003 C 
ATOM      9  C   UNL     1      39.887  18.765  -4.386  1.00  0.00    -0.011 C 
ATOM     10  C   UNL     1      42.855  16.120  -3.571  1.00  0.00    -0.006 C 
ATOM     11  C   UNL     1      44.633  17.791  -4.182  1.00  0.00    -0.027 C 
ATOM     12  C   UNL     1      41.782  19.021  -6.115  1.00  0.00     0.008 C 
ATOM     13  C   UNL     1      38.875  19.839  -4.833  1.00  0.00     0.008 C 
ATOM     14  C   UNL     1      41.684  15.720  -4.515  1.00  0.00     0.017 C 
ATOM     15  C   UNL     1      44.008  14.978  -3.732  1.00  0.00    -0.020 C 
ATOM     16  C   UNL     1      45.743  16.813  -4.004  1.00  0.00     0.032 C 
ATOM     17  C   UNL     1      45.385  15.521  -3.211  1.00  0.00     0.006 C 
ATOM     18  C   UNL     1      44.240  14.574  -5.233  1.00  0.00     0.008 C 
ATOM     19  C   UNL     1      43.540  13.690  -2.953  1.00  0.00     0.012 C 
ATOM     20  C   UNL     1      46.589  14.432  -3.211  1.00  0.00    -0.025 C 
ATOM     21  C   UNL     1      45.620  13.939  -5.575  1.00  0.00     0.005 C 
ATOM     22  C   UNL     1      46.398  13.343  -4.365  1.00  0.00     0.003 C 
ATOM     23  C   UNL     1      47.983  15.151  -3.359  1.00  0.00     0.010 C 
ATOM     24  C   UNL     1      46.596  13.727  -1.808  1.00  0.00     0.012 C 
ATOM     25  C   UNL     1      47.698  12.503  -4.768  1.00  0.00    -0.006 C 
ATOM     26  C   UNL     1      49.177  14.224  -3.597  1.00  0.00     0.033 C 
ATOM     27  C   UNL     1      48.969  13.391  -4.864  1.00  0.00     0.120 C 
ATOM     28  C   UNL     1      47.942  11.364  -3.734  1.00  0.00     0.014 C 
ATOM     29  C   UNL     1      47.523  11.764  -6.125  1.00  0.00     0.014 C 
ENDROOT
BRANCH   1  30
ATOM     30  C   UNL     1      42.793  19.980  -1.392  1.00  0.00     0.048 C 
ATOM     31  O   UNL     1      42.429  20.361  -0.246  1.00  0.00    -0.550 OA
ATOM     32  O   UNL     1      43.797  20.696  -2.038  1.00  0.00    -0.550 OA
ENDBRANCH   1  30
BRANCH  27  33
ATOM     33  O   UNL     1      48.890  14.242  -5.984  1.00  0.00    -0.393 OA
ATOM     34  H   UNL     1      48.183  13.877  -6.577  1.00  0.00     0.210 HD
ENDBRANCH  27  33
TORSDOF 2
ENDMDL
MODEL 4
REMARK VINA RESULT:    -5.256      2.344      3.639
REMARK INTER + INTRA:          -5.924
REMARK INTER:                  -5.707
REMARK INTRA:                  -0.217
REMARK UNBOUND:                -0.207
REMARK SMILES C[C@H]1[C@H](C)CC[C@@]2(C(=O)[O-])CC[C@@]3(C)C(=CC[C@@H]4[C@]5(C)CC[C@H](O)C(C)(C)[C@@H]5CC[C@@]43C)[C@@H]12
REMARK SMILES IDX 7 1 6 2 11 3 33 4 5 5 12 6 15 7 2 8 3 9 13 10 16 11 1 12
REMARK SMILES IDX 4 13 14 14 31 15 17 16 18 17 30 18 32 19 19 20 29 21 28 22
REMARK SMILES IDX 21 23 20 24 25 25 22 26 23 27 26 28 27 29 8 30 9 31 10 32
REMARK SMILES IDX 24 33
REMARK H PARENT 24 34
REMARK Flexibility Score: inf
ROOT
ATOM      1  C   UNL     1      47.513  12.460  -2.466  1.00  0.00     0.017 C 
ATOM      2  C   UNL     1      49.040  12.328  -2.761  1.00  0.00     0.014 C 
ATOM      3  C   UNL     1      47.138  13.896  -1.975  1.00  0.00     0.014 C 
ATOM      4  C   UNL     1      46.640  12.032  -3.713  1.00  0.00     0.030 C 
ATOM      5  C   UNL     1      49.465  12.798  -4.147  1.00  0.00     0.004 C 
ATOM      6  C   UNL     1      46.882  14.963  -3.058  1.00  0.00     0.013 C 
ATOM      7  C   UNL     1      45.534  13.078  -4.039  1.00  0.00    -0.063 C 
ATOM      8  C   UNL     1      47.426  11.360  -4.897  1.00  0.00    -0.003 C 
ATOM      9  C   UNL     1      48.811  11.976  -5.285  1.00  0.00    -0.011 C 
ATOM     10  C   UNL     1      45.879  14.574  -4.224  1.00  0.00    -0.006 C 
ATOM     11  C   UNL     1      44.277  12.701  -3.724  1.00  0.00    -0.027 C 
ATOM     12  C   UNL     1      46.532  11.111  -6.125  1.00  0.00     0.008 C 
ATOM     13  C   UNL     1      49.784  10.875  -5.754  1.00  0.00     0.008 C 
ATOM     14  C   UNL     1      46.620  14.738  -5.583  1.00  0.00     0.017 C 
ATOM     15  C   UNL     1      44.573  15.549  -4.272  1.00  0.00    -0.020 C 
ATOM     16  C   UNL     1      43.143  13.624  -3.440  1.00  0.00     0.032 C 
ATOM     17  C   UNL     1      43.529  15.112  -3.186  1.00  0.00     0.006 C 
ATOM     18  C   UNL     1      43.824  15.474  -5.652  1.00  0.00     0.008 C 
ATOM     19  C   UNL     1      45.060  17.035  -4.069  1.00  0.00     0.012 C 
ATOM     20  C   UNL     1      42.234  16.081  -3.058  1.00  0.00    -0.025 C 
ATOM     21  C   UNL     1      42.327  15.899  -5.652  1.00  0.00     0.005 C 
ATOM     22  C   UNL     1      41.886  16.785  -4.451  1.00  0.00     0.003 C 
ATOM     23  C   UNL     1      40.991  15.275  -2.524  1.00  0.00     0.010 C 
ATOM     24  C   UNL     1      42.559  17.172  -1.976  1.00  0.00     0.012 C 
ATOM     25  C   UNL     1      40.412  17.393  -4.587  1.00  0.00    -0.006 C 
ATOM     26  C   UNL     1      39.656  16.020  -2.571  1.00  0.00     0.033 C 
ATOM     27  C   UNL     1      39.326  16.447  -4.004  1.00  0.00     0.120 C 
ATOM     28  C   UNL     1      40.333  18.773  -3.870  1.00  0.00     0.014 C 
ATOM     29  C   UNL     1      40.039  17.702  -6.065  1.00  0.00     0.014 C 
ENDROOT
BRANCH   1  30
ATOM     30  C   UNL     1      47.211  11.551  -1.267  1.00  0.00     0.048 C 
ATOM     31  O   UNL     1      48.104  11.301  -0.414  1.00  0.00    -0.550 OA
ATOM     32  O   UNL     1      45.993  10.883  -1.163  1.00  0.00    -0.550 OA
ENDBRANCH   1  30
BRANCH  27  33
ATOM     33  O   UNL     1      39.180  15.307  -4.817  1.00  0.00    -0.393 OA
ATOM     34  H   UNL     1      40.084  15.070  -5.151  1.00  0.00     0.210 HD
ENDBRANCH  27  33
TORSDOF 2
ENDMDL
MODEL 5
REMARK VINA RESULT:    -4.898      2.060      7.806
REMARK INTER + INTRA:          -5.534
REMARK INTER:                  -5.314
REMARK INTRA:                  -0.220
REMARK UNBOUND:                -0.207
REMARK SMILES C[C@H]1[C@H](C)CC[C@@]2(C(=O)[O-])CC[C@@]3(C)C(=CC[C@@H]4[C@]5(C)CC[C@H](O)C(C)(C)[C@@H]5CC[C@@]43C)[C@@H]12
REMARK SMILES IDX 7 1 6 2 11 3 33 4 5 5 12 6 15 7 2 8 3 9 13 10 16 11 1 12
REMARK SMILES IDX 4 13 14 14 31 15 17 16 18 17 30 18 32 19 19 20 29 21 28 22
REMARK SMILES IDX 21 23 20 24 25 25 22 26 23 27 26 28 27 29 8 30 9 31 10 32
REMARK SMILES IDX 24 33
REMARK H PARENT 24 34
REMARK Flexibility Score: inf
ROOT
ATOM      1  C   UNL     1      41.224  17.508  -4.468  1.00  0.00     0.017 C 
ATOM      2  C   UNL     1      40.715  18.714  -5.319  1.00  0.00     0.014 C 
ATOM      3  C   UNL     1      41.734  16.336  -5.367  1.00  0.00     0.014 C 
ATOM      4  C   UNL     1      42.325  17.956  -3.425  1.00  0.00     0.030 C 
ATOM      5  C   UNL     1      41.804  19.678  -5.774  1.00  0.00     0.004 C 
ATOM      6  C   UNL     1      43.189  16.420  -5.869  1.00  0.00     0.013 C 
ATOM      7  C   UNL     1      43.572  17.024  -3.456  1.00  0.00    -0.063 C 
ATOM      8  C   UNL     1      42.536  19.506  -3.280  1.00  0.00    -0.003 C 
ATOM      9  C   UNL     1      42.532  20.361  -4.590  1.00  0.00    -0.011 C 
ATOM     10  C   UNL     1      44.306  16.716  -4.783  1.00  0.00    -0.006 C 
ATOM     11  C   UNL     1      43.695  16.194  -2.399  1.00  0.00    -0.027 C 
ATOM     12  C   UNL     1      43.721  19.851  -2.360  1.00  0.00     0.008 C 
ATOM     13  C   UNL     1      41.912  21.749  -4.332  1.00  0.00     0.008 C 
ATOM     14  C   UNL     1      45.085  17.993  -5.215  1.00  0.00     0.017 C 
ATOM     15  C   UNL     1      45.397  15.509  -4.666  1.00  0.00    -0.020 C 
ATOM     16  C   UNL     1      44.434  14.901  -2.396  1.00  0.00     0.032 C 
ATOM     17  C   UNL     1      44.818  14.338  -3.797  1.00  0.00     0.006 C 
ATOM     18  C   UNL     1      46.719  15.968  -3.952  1.00  0.00     0.008 C 
ATOM     19  C   UNL     1      45.774  15.043  -6.124  1.00  0.00     0.012 C 
ATOM     20  C   UNL     1      45.769  13.026  -3.706  1.00  0.00    -0.025 C 
ATOM     21  C   UNL     1      47.583  14.847  -3.304  1.00  0.00     0.005 C 
ATOM     22  C   UNL     1      47.315  13.409  -3.836  1.00  0.00     0.003 C 
ATOM     23  C   UNL     1      45.507  12.246  -2.362  1.00  0.00     0.010 C 
ATOM     24  C   UNL     1      45.360  12.057  -4.872  1.00  0.00     0.012 C 
ATOM     25  C   UNL     1      48.362  12.313  -3.323  1.00  0.00    -0.006 C 
ATOM     26  C   UNL     1      46.494  11.120  -2.053  1.00  0.00     0.033 C 
ATOM     27  C   UNL     1      47.925  11.660  -1.982  1.00  0.00     0.120 C 
ATOM     28  C   UNL     1      48.546  11.203  -4.401  1.00  0.00     0.014 C 
ATOM     29  C   UNL     1      49.786  12.905  -3.129  1.00  0.00     0.014 C 
ENDROOT
BRANCH   1  30
ATOM     30  C   UNL     1      40.003  16.931  -3.739  1.00  0.00     0.048 C 
ATOM     31  O   UNL     1      39.911  17.014  -2.484  1.00  0.00    -0.550 OA
ATOM     32  O   UNL     1      39.039  16.197  -4.425  1.00  0.00    -0.550 OA
ENDBRANCH   1  30
BRANCH  27  33
ATOM     33  O   UNL     1      48.029  12.588  -0.928  1.00  0.00    -0.393 OA
ATOM     34  H   UNL     1      47.449  13.358  -1.159  1.00  0.00     0.210 HD
ENDBRANCH  27  33
TORSDOF 2
ENDMDL
MODEL 6
REMARK VINA RESULT:    -3.827      2.467      7.794
REMARK INTER + INTRA:          -4.370
REMARK INTER:                  -4.143
REMARK INTRA:                  -0.226
REMARK UNBOUND:                -0.207
REMARK SMILES C[C@H]1[C@H](C)CC[C@@]2(C(=O)[O-])CC[C@@]3(C)C(=CC[C@@H]4[C@]5(C)CC[C@H](O)C(C)(C)[C@@H]5CC[C@@]43C)[C@@H]12
REMARK SMILES IDX 7 1 6 2 11 3 33 4 5 5 12 6 15 7 2 8 3 9 13 10 16 11 1 12
REMARK SMILES IDX 4 13 14 14 31 15 17 16 18 17 30 18 32 19 19 20 29 21 28 22
REMARK SMILES IDX 21 23 20 24 25 25 22 26 23 27 26 28 27 29 8 30 9 31 10 32
REMARK SMILES IDX 24 33
REMARK H PARENT 24 34
REMARK Flexibility Score: inf
ROOT
ATOM      1  C   UNL     1      40.885  18.681  -4.261  1.00  0.00     0.017 C 
ATOM      2  C   UNL     1      40.809  20.239  -4.306  1.00  0.00     0.014 C 
ATOM      3  C   UNL     1      41.840  18.113  -5.361  1.00  0.00     0.014 C 
ATOM      4  C   UNL     1      41.288  18.159  -2.824  1.00  0.00     0.030 C 
ATOM      5  C   UNL     1      41.926  20.954  -3.555  1.00  0.00     0.004 C 
ATOM      6  C   UNL     1      43.344  18.060  -5.025  1.00  0.00     0.013 C 
ATOM      7  C   UNL     1      42.429  17.102  -2.885  1.00  0.00    -0.063 C 
ATOM      8  C   UNL     1      41.314  19.245  -1.688  1.00  0.00    -0.003 C 
ATOM      9  C   UNL     1      41.924  20.642  -2.038  1.00  0.00    -0.011 C 
ATOM     10  C   UNL     1      43.746  17.391  -3.644  1.00  0.00    -0.006 C 
ATOM     11  C   UNL     1      42.049  15.831  -2.637  1.00  0.00    -0.027 C 
ATOM     12  C   UNL     1      41.857  18.687  -0.359  1.00  0.00     0.008 C 
ATOM     13  C   UNL     1      41.184  21.763  -1.280  1.00  0.00     0.008 C 
ATOM     14  C   UNL     1      44.566  18.424  -2.819  1.00  0.00     0.017 C 
ATOM     15  C   UNL     1      44.693  16.078  -3.841  1.00  0.00    -0.020 C 
ATOM     16  C   UNL     1      42.754  14.609  -3.112  1.00  0.00     0.032 C 
ATOM     17  C   UNL     1      43.820  14.833  -4.227  1.00  0.00     0.006 C 
ATOM     18  C   UNL     1      45.451  15.687  -2.522  1.00  0.00     0.008 C 
ATOM     19  C   UNL     1      45.775  16.411  -4.938  1.00  0.00     0.012 C 
ATOM     20  C   UNL     1      44.664  13.489  -4.565  1.00  0.00    -0.025 C 
ATOM     21  C   UNL     1      45.930  14.210  -2.409  1.00  0.00     0.005 C 
ATOM     22  C   UNL     1      46.044  13.442  -3.759  1.00  0.00     0.003 C 
ATOM     23  C   UNL     1      43.805  12.205  -4.259  1.00  0.00     0.010 C 
ATOM     24  C   UNL     1      44.949  13.479  -6.109  1.00  0.00     0.012 C 
ATOM     25  C   UNL     1      46.748  12.010  -3.644  1.00  0.00    -0.006 C 
ATOM     26  C   UNL     1      44.562  10.877  -4.323  1.00  0.00     0.033 C 
ATOM     27  C   UNL     1      45.732  10.875  -3.336  1.00  0.00     0.120 C 
ATOM     28  C   UNL     1      47.507  11.679  -4.962  1.00  0.00     0.014 C 
ATOM     29  C   UNL     1      47.848  11.983  -2.545  1.00  0.00     0.014 C 
ENDROOT
BRANCH   1  30
ATOM     30  C   UNL     1      39.496  18.156  -4.648  1.00  0.00     0.048 C 
ATOM     31  O   UNL     1      38.916  17.295  -3.932  1.00  0.00    -0.550 OA
ATOM     32  O   UNL     1      38.904  18.518  -5.856  1.00  0.00    -0.550 OA
ENDBRANCH   1  30
BRANCH  27  33
ATOM     33  O   UNL     1      45.243  10.996  -2.021  1.00  0.00    -0.393 OA
ATOM     34  H   UNL     1      44.575  11.729  -2.025  1.00  0.00     0.210 HD
ENDBRANCH  27  33
TORSDOF 2
ENDMDL
MODEL 7
REMARK VINA RESULT:    -3.168      4.110      7.134
REMARK INTER + INTRA:          -3.653
REMARK INTER:                  -3.476
REMARK INTRA:                  -0.177
REMARK UNBOUND:                -0.207
REMARK SMILES C[C@H]1[C@H](C)CC[C@@]2(C(=O)[O-])CC[C@@]3(C)C(=CC[C@@H]4[C@]5(C)CC[C@H](O)C(C)(C)[C@@H]5CC[C@@]43C)[C@@H]12
REMARK SMILES IDX 7 1 6 2 11 3 33 4 5 5 12 6 15 7 2 8 3 9 13 10 16 11 1 12
REMARK SMILES IDX 4 13 14 14 31 15 17 16 18 17 30 18 32 19 19 20 29 21 28 22
REMARK SMILES IDX 21 23 20 24 25 25 22 26 23 27 26 28 27 29 8 30 9 31 10 32
REMARK SMILES IDX 24 33
REMARK H PARENT 24 34
REMARK Flexibility Score: inf
ROOT
ATOM      1  C   UNL     1      42.343  20.002  -2.750  1.00  0.00     0.017 C 
ATOM      2  C   UNL     1      42.149  21.457  -3.279  1.00  0.00     0.014 C 
ATOM      3  C   UNL     1      40.979  19.257  -2.583  1.00  0.00     0.014 C 
ATOM      4  C   UNL     1      43.341  19.179  -3.660  1.00  0.00     0.030 C 
ATOM      5  C   UNL     1      42.022  21.573  -4.794  1.00  0.00     0.004 C 
ATOM      6  C   UNL     1      40.394  18.577  -3.837  1.00  0.00     0.013 C 
ATOM      7  C   UNL     1      42.772  17.778  -4.032  1.00  0.00    -0.063 C 
ATOM      8  C   UNL     1      44.104  20.008  -4.755  1.00  0.00    -0.003 C 
ATOM      9  C   UNL     1      43.290  21.089  -5.540  1.00  0.00    -0.011 C 
ATOM     10  C   UNL     1      41.365  17.628  -4.656  1.00  0.00    -0.006 C 
ATOM     11  C   UNL     1      43.355  16.736  -3.403  1.00  0.00    -0.027 C 
ATOM     12  C   UNL     1      44.938  19.112  -5.690  1.00  0.00     0.008 C 
ATOM     13  C   UNL     1      44.183  22.299  -5.882  1.00  0.00     0.008 C 
ATOM     14  C   UNL     1      41.427  18.140  -6.125  1.00  0.00     0.017 C 
ATOM     15  C   UNL     1      40.831  16.088  -4.710  1.00  0.00    -0.020 C 
ATOM     16  C   UNL     1      42.723  15.410  -3.159  1.00  0.00     0.032 C 
ATOM     17  C   UNL     1      41.181  15.345  -3.374  1.00  0.00     0.006 C 
ATOM     18  C   UNL     1      41.512  15.261  -5.859  1.00  0.00     0.008 C 
ATOM     19  C   UNL     1      39.279  16.114  -4.990  1.00  0.00     0.012 C 
ATOM     20  C   UNL     1      40.596  13.836  -3.261  1.00  0.00    -0.025 C 
ATOM     21  C   UNL     1      41.518  13.714  -5.691  1.00  0.00     0.005 C 
ATOM     22  C   UNL     1      40.461  13.148  -4.697  1.00  0.00     0.003 C 
ATOM     23  C   UNL     1      41.503  12.961  -2.315  1.00  0.00     0.010 C 
ATOM     24  C   UNL     1      39.186  13.919  -2.576  1.00  0.00     0.012 C 
ATOM     25  C   UNL     1      40.334  11.553  -4.710  1.00  0.00    -0.006 C 
ATOM     26  C   UNL     1      41.187  11.464  -2.304  1.00  0.00     0.033 C 
ATOM     27  C   UNL     1      41.313  10.875  -3.711  1.00  0.00     0.120 C 
ATOM     28  C   UNL     1      38.875  11.129  -4.369  1.00  0.00     0.014 C 
ATOM     29  C   UNL     1      40.594  10.954  -6.121  1.00  0.00     0.014 C 
ENDROOT
BRANCH   1  30
ATOM     30  C   UNL     1      42.896  20.117  -1.322  1.00  0.00     0.048 C 
ATOM     31  O   UNL     1      42.164  19.852  -0.330  1.00  0.00    -0.550 OA
ATOM     32  O   UNL     1      44.167  20.636  -1.086  1.00  0.00    -0.550 OA
ENDBRANCH   1  30
BRANCH  27  33
ATOM     33  O   UNL     1      42.641  11.003  -4.162  1.00  0.00    -0.393 OA
ATOM     34  H   UNL     1      42.621  10.927  -5.151  1.00  0.00     0.210 HD
ENDBRANCH  27  33
TORSDOF 2
ENDMDL
MODEL 8
REMARK VINA RESULT:    -3.095      2.121      3.545
REMARK INTER + INTRA:          -3.574
REMARK INTER:                  -3.349
REMARK INTRA:                  -0.224
REMARK UNBOUND:                -0.207
REMARK SMILES C[C@H]1[C@H](C)CC[C@@]2(C(=O)[O-])CC[C@@]3(C)C(=CC[C@@H]4[C@]5(C)CC[C@H](O)C(C)(C)[C@@H]5CC[C@@]43C)[C@@H]12
REMARK SMILES IDX 7 1 6 2 11 3 33 4 5 5 12 6 15 7 2 8 3 9 13 10 16 11 1 12
REMARK SMILES IDX 4 13 14 14 31 15 17 16 18 17 30 18 32 19 19 20 29 21 28 22
REMARK SMILES IDX 21 23 20 24 25 25 22 26 23 27 26 28 27 29 8 30 9 31 10 32
REMARK SMILES IDX 24 33
REMARK H PARENT 24 34
REMARK Flexibility Score: inf
ROOT
ATOM      1  C   UNL     1      47.019  12.706  -4.622  1.00  0.00     0.017 C 
ATOM      2  C   UNL     1      48.411  12.419  -3.978  1.00  0.00     0.014 C 
ATOM      3  C   UNL     1      45.861  12.606  -3.576  1.00  0.00     0.014 C 
ATOM      4  C   UNL     1      47.000  14.099  -5.371  1.00  0.00     0.030 C 
ATOM      5  C   UNL     1      49.061  13.621  -3.302  1.00  0.00     0.004 C 
ATOM      6  C   UNL     1      45.574  13.860  -2.727  1.00  0.00     0.013 C 
ATOM      7  C   UNL     1      45.754  14.951  -4.987  1.00  0.00    -0.063 C 
ATOM      8  C   UNL     1      48.393  14.811  -5.521  1.00  0.00    -0.003 C 
ATOM      9  C   UNL     1      49.358  14.776  -4.291  1.00  0.00    -0.011 C 
ATOM     10  C   UNL     1      45.402  15.230  -3.507  1.00  0.00    -0.006 C 
ATOM     11  C   UNL     1      44.807  15.046  -5.944  1.00  0.00    -0.027 C 
ATOM     12  C   UNL     1      48.266  16.221  -6.125  1.00  0.00     0.008 C 
ATOM     13  C   UNL     1      50.827  14.695  -4.754  1.00  0.00     0.008 C 
ATOM     14  C   UNL     1      46.437  16.248  -2.945  1.00  0.00     0.017 C 
ATOM     15  C   UNL     1      43.924  15.886  -3.295  1.00  0.00    -0.020 C 
ATOM     16  C   UNL     1      43.363  15.325  -5.707  1.00  0.00     0.032 C 
ATOM     17  C   UNL     1      42.880  15.185  -4.233  1.00  0.00     0.006 C 
ATOM     18  C   UNL     1      43.890  17.411  -3.670  1.00  0.00     0.008 C 
ATOM     19  C   UNL     1      43.541  15.755  -1.771  1.00  0.00     0.012 C 
ATOM     20  C   UNL     1      41.346  15.672  -4.027  1.00  0.00    -0.025 C 
ATOM     21  C   UNL     1      42.498  18.006  -4.032  1.00  0.00     0.005 C 
ATOM     22  C   UNL     1      41.273  17.189  -3.527  1.00  0.00     0.003 C 
ATOM     23  C   UNL     1      40.526  15.493  -5.361  1.00  0.00     0.010 C 
ATOM     24  C   UNL     1      40.682  14.727  -2.964  1.00  0.00     0.012 C 
ATOM     25  C   UNL     1      39.867  17.928  -3.713  1.00  0.00    -0.006 C 
ATOM     26  C   UNL     1      39.132  16.123  -5.363  1.00  0.00     0.033 C 
ATOM     27  C   UNL     1      39.219  17.627  -5.093  1.00  0.00     0.120 C 
ATOM     28  C   UNL     1      38.885  17.507  -2.579  1.00  0.00     0.014 C 
ATOM     29  C   UNL     1      39.990  19.471  -3.565  1.00  0.00     0.014 C 
ENDROOT
BRANCH   1  30
ATOM     30  C   UNL     1      46.743  11.566  -5.613  1.00  0.00     0.048 C 
ATOM     31  O   UNL     1      47.693  10.876  -6.072  1.00  0.00    -0.550 OA
ATOM     32  O   UNL     1      45.464  11.352  -6.121  1.00  0.00    -0.550 OA
ENDBRANCH   1  30
BRANCH  27  33
ATOM     33  O   UNL     1      39.945  18.254  -6.124  1.00  0.00    -0.393 OA
ATOM     34  H   UNL     1      40.889  18.310  -5.822  1.00  0.00     0.210 HD
ENDBRANCH  27  33
TORSDOF 2
ENDMDL
