MODEL 1
REMARK VINA RESULT:    -2.588      0.000      0.000
REMARK INTER + INTRA:          -7.325
REMARK INTER:                  -4.706
REMARK INTRA:                  -2.619
REMARK UNBOUND:                -2.619
REMARK SMILES CCCCCCCCCCCCCCCC(=O)[O-]
REMARK SMILES IDX 9 1 10 2 11 3 12 4 13 5 14 6 15 7 16 8 17 9 18 10 8 11 7 12
REMARK SMILES IDX 6 13 5 14 4 15 3 16 2 17 1 18
REMARK H PARENT
REMARK Flexibility Score: inf
ROOT
ATOM      1  C   UNL     1       9.034 -17.950  18.392  1.00  0.00     0.000 C 
ENDROOT
BRANCH   1   2
ATOM      2  C   UNL     1       8.344 -16.578  18.284  1.00  0.00     0.000 C 
BRANCH   2   3
ATOM      3  C   UNL     1       8.556 -15.645  19.493  1.00  0.00     0.000 C 
BRANCH   3   4
ATOM      4  C   UNL     1       9.366 -16.255  20.653  1.00  0.00     0.000 C 
BRANCH   4   5
ATOM      5  C   UNL     1      10.773 -15.657  20.852  1.00  0.00     0.000 C 
BRANCH   5   6
ATOM      6  C   UNL     1      11.891 -16.348  20.051  1.00  0.00     0.006 C 
BRANCH   6   7
ATOM      7  C   UNL     1      12.729 -17.308  20.905  1.00  0.00     0.053 C 
BRANCH   7   8
ATOM      8  C   UNL     1      12.345 -18.726  20.626  1.00  0.00     0.041 C 
ATOM      9  O   UNL     1      12.097 -19.095  19.448  1.00  0.00    -0.550 OA
ATOM     10  O   UNL     1      12.211 -19.629  21.673  1.00  0.00    -0.550 OA
ENDBRANCH   7   8
ENDBRANCH   6   7
ENDBRANCH   5   6
ENDBRANCH   4   5
ENDBRANCH   3   4
ENDBRANCH   2   3
ENDBRANCH   1   2
BRANCH   1  11
ATOM     11  C   UNL     1       8.150 -19.104  17.897  1.00  0.00     0.000 C 
BRANCH  11  12
ATOM     12  C   UNL     1       7.964 -20.162  18.991  1.00  0.00    -0.000 C 
BRANCH  12  13
ATOM     13  C   UNL     1       8.765 -19.802  20.247  1.00  0.00    -0.000 C 
BRANCH  13  14
ATOM     14  C   UNL     1       7.849 -19.715  21.477  1.00  0.00    -0.000 C 
BRANCH  14  15
ATOM     15  C   UNL     1       6.396 -19.361  21.116  1.00  0.00    -0.000 C 
BRANCH  15  16
ATOM     16  C   UNL     1       6.018 -17.878  21.300  1.00  0.00    -0.000 C 
BRANCH  16  17
ATOM     17  C   UNL     1       5.191 -17.270  20.154  1.00  0.00    -0.003 C 
ATOM     18  C   UNL     1       4.773 -18.304  19.109  1.00  0.00     0.004 C 
ENDBRANCH  16  17
ENDBRANCH  15  16
ENDBRANCH  14  15
ENDBRANCH  13  14
ENDBRANCH  12  13
ENDBRANCH  11  12
ENDBRANCH   1  11
TORSDOF 14
ENDMDL
MODEL 2
REMARK VINA RESULT:    -2.480      2.897      5.348
REMARK INTER + INTRA:          -7.129
REMARK INTER:                  -4.799
REMARK INTRA:                  -2.331
REMARK UNBOUND:                -2.619
REMARK SMILES CCCCCCCCCCCCCCCC(=O)[O-]
REMARK SMILES IDX 9 1 10 2 11 3 12 4 13 5 14 6 15 7 16 8 17 9 18 10 8 11 7 12
REMARK SMILES IDX 6 13 5 14 4 15 3 16 2 17 1 18
REMARK H PARENT
REMARK Flexibility Score: inf
ROOT
ATOM      1  C   UNL     1      10.656 -19.345  18.513  1.00  0.00     0.000 C 
ENDROOT
BRANCH   1   2
ATOM      2  C   UNL     1       9.489 -18.426  18.110  1.00  0.00     0.000 C 
BRANCH   2   3
ATOM      3  C   UNL     1       8.092 -19.067  18.206  1.00  0.00     0.000 C 
BRANCH   3   4
ATOM      4  C   UNL     1       8.032 -20.385  19.005  1.00  0.00     0.000 C 
BRANCH   4   5
ATOM      5  C   UNL     1       7.542 -20.244  20.460  1.00  0.00     0.000 C 
BRANCH   5   6
ATOM      6  C   UNL     1       6.743 -18.962  20.755  1.00  0.00     0.006 C 
BRANCH   6   7
ATOM      7  C   UNL     1       5.231 -19.211  20.847  1.00  0.00     0.053 C 
BRANCH   7   8
ATOM      8  C   UNL     1       4.544 -18.708  19.617  1.00  0.00     0.041 C 
ATOM      9  O   UNL     1       4.980 -17.691  19.018  1.00  0.00    -0.550 OA
ATOM     10  O   UNL     1       3.390 -19.334  19.161  1.00  0.00    -0.550 OA
ENDBRANCH   7   8
ENDBRANCH   6   7
ENDBRANCH   5   6
ENDBRANCH   4   5
ENDBRANCH   3   4
ENDBRANCH   2   3
ENDBRANCH   1   2
BRANCH   1  11
ATOM     11  C   UNL     1      11.529 -18.747  19.627  1.00  0.00     0.000 C 
BRANCH  11  12
ATOM     12  C   UNL     1      10.672 -18.302  20.818  1.00  0.00    -0.000 C 
BRANCH  12  13
ATOM     13  C   UNL     1      11.089 -16.910  21.306  1.00  0.00    -0.000 C 
BRANCH  13  14
ATOM     14  C   UNL     1      11.228 -15.933  20.129  1.00  0.00    -0.000 C 
BRANCH  14  15
ATOM     15  C   UNL     1      10.065 -14.928  20.046  1.00  0.00    -0.000 C 
BRANCH  15  16
ATOM     16  C   UNL     1       8.865 -15.238  20.963  1.00  0.00    -0.000 C 
BRANCH  16  17
ATOM     17  C   UNL     1       7.558 -15.584  20.229  1.00  0.00    -0.003 C 
ATOM     18  C   UNL     1       7.641 -15.347  18.722  1.00  0.00     0.004 C 
ENDBRANCH  16  17
ENDBRANCH  15  16
ENDBRANCH  14  15
ENDBRANCH  13  14
ENDBRANCH  12  13
ENDBRANCH  11  12
ENDBRANCH   1  11
TORSDOF 14
ENDMDL
MODEL 3
REMARK VINA RESULT:    -2.453      2.552      5.639
REMARK INTER + INTRA:          -7.080
REMARK INTER:                  -4.737
REMARK INTRA:                  -2.343
REMARK UNBOUND:                -2.619
REMARK SMILES CCCCCCCCCCCCCCCC(=O)[O-]
REMARK SMILES IDX 9 1 10 2 11 3 12 4 13 5 14 6 15 7 16 8 17 9 18 10 8 11 7 12
REMARK SMILES IDX 6 13 5 14 4 15 3 16 2 17 1 18
REMARK H PARENT
REMARK Flexibility Score: inf
ROOT
ATOM      1  C   UNL     1      10.937 -19.002  20.822  1.00  0.00     0.000 C 
ENDROOT
BRANCH   1   2
ATOM      2  C   UNL     1      11.423 -18.913  19.364  1.00  0.00     0.000 C 
BRANCH   2   3
ATOM      3  C   UNL     1      10.343 -19.188  18.300  1.00  0.00     0.000 C 
BRANCH   3   4
ATOM      4  C   UNL     1       8.985 -19.664  18.855  1.00  0.00     0.000 C 
BRANCH   4   5
ATOM      5  C   UNL     1       7.750 -18.988  18.228  1.00  0.00     0.000 C 
BRANCH   5   6
ATOM      6  C   UNL     1       6.528 -18.880  19.157  1.00  0.00     0.006 C 
BRANCH   6   7
ATOM      7  C   UNL     1       6.766 -19.518  20.531  1.00  0.00     0.053 C 
BRANCH   7   8
ATOM      8  C   UNL     1       5.950 -18.826  21.576  1.00  0.00     0.041 C 
ATOM      9  O   UNL     1       5.186 -17.877  21.259  1.00  0.00    -0.550 OA
ATOM     10  O   UNL     1       6.069 -19.197  22.910  1.00  0.00    -0.550 OA
ENDBRANCH   7   8
ENDBRANCH   6   7
ENDBRANCH   5   6
ENDBRANCH   4   5
ENDBRANCH   3   4
ENDBRANCH   2   3
ENDBRANCH   1   2
BRANCH   1  11
ATOM     11  C   UNL     1      12.087 -18.949  21.838  1.00  0.00     0.000 C 
BRANCH  11  12
ATOM     12  C   UNL     1      13.259 -18.120  21.301  1.00  0.00    -0.000 C 
BRANCH  12  13
ATOM     13  C   UNL     1      13.073 -16.632  21.619  1.00  0.00    -0.000 C 
BRANCH  13  14
ATOM     14  C   UNL     1      13.451 -15.760  20.412  1.00  0.00    -0.000 C 
BRANCH  14  15
ATOM     15  C   UNL     1      12.224 -15.224  19.653  1.00  0.00    -0.000 C 
BRANCH  15  16
ATOM     16  C   UNL     1      10.909 -15.215  20.458  1.00  0.00    -0.000 C 
BRANCH  16  17
ATOM     17  C   UNL     1       9.670 -15.700  19.685  1.00  0.00    -0.003 C 
ATOM     18  C   UNL     1       8.520 -16.111  20.602  1.00  0.00     0.004 C 
ENDBRANCH  16  17
ENDBRANCH  15  16
ENDBRANCH  14  15
ENDBRANCH  13  14
ENDBRANCH  12  13
ENDBRANCH  11  12
ENDBRANCH   1  11
TORSDOF 14
ENDMDL
MODEL 4
REMARK VINA RESULT:    -2.435      2.571      4.244
REMARK INTER + INTRA:          -7.048
REMARK INTER:                  -5.069
REMARK INTRA:                  -1.979
REMARK UNBOUND:                -2.619
REMARK SMILES CCCCCCCCCCCCCCCC(=O)[O-]
REMARK SMILES IDX 9 1 10 2 11 3 12 4 13 5 14 6 15 7 16 8 17 9 18 10 8 11 7 12
REMARK SMILES IDX 6 13 5 14 4 15 3 16 2 17 1 18
REMARK H PARENT
REMARK Flexibility Score: inf
ROOT
ATOM      1  C   UNL     1       5.997 -16.928  19.143  1.00  0.00     0.000 C 
ENDROOT
BRANCH   1   2
ATOM      2  C   UNL     1       6.848 -16.177  18.103  1.00  0.00     0.000 C 
BRANCH   2   3
ATOM      3  C   UNL     1       8.316 -15.944  18.508  1.00  0.00     0.000 C 
BRANCH   3   4
ATOM      4  C   UNL     1       8.529 -15.522  19.975  1.00  0.00     0.000 C 
BRANCH   4   5
ATOM      5  C   UNL     1       9.618 -14.454  20.195  1.00  0.00     0.000 C 
BRANCH   5   6
ATOM      6  C   UNL     1      10.991 -15.005  20.622  1.00  0.00     0.006 C 
BRANCH   6   7
ATOM      7  C   UNL     1      12.111 -14.642  19.638  1.00  0.00     0.053 C 
BRANCH   7   8
ATOM      8  C   UNL     1      12.734 -13.336  20.016  1.00  0.00     0.041 C 
ATOM      9  O   UNL     1      12.285 -12.258  19.545  1.00  0.00    -0.550 OA
ATOM     10  O   UNL     1      13.845 -13.312  20.851  1.00  0.00    -0.550 OA
ENDBRANCH   7   8
ENDBRANCH   6   7
ENDBRANCH   5   6
ENDBRANCH   4   5
ENDBRANCH   3   4
ENDBRANCH   2   3
ENDBRANCH   1   2
BRANCH   1  11
ATOM     11  C   UNL     1       6.072 -18.454  18.986  1.00  0.00     0.000 C 
BRANCH  11  12
ATOM     12  C   UNL     1       6.570 -19.115  20.276  1.00  0.00    -0.000 C 
BRANCH  12  13
ATOM     13  C   UNL     1       8.092 -19.304  20.246  1.00  0.00    -0.000 C 
BRANCH  13  14
ATOM     14  C   UNL     1       8.556 -19.810  18.873  1.00  0.00    -0.000 C 
BRANCH  14  15
ATOM     15  C   UNL     1       9.987 -19.364  18.523  1.00  0.00    -0.000 C 
BRANCH  15  16
ATOM     16  C   UNL     1      10.661 -18.452  19.566  1.00  0.00    -0.000 C 
BRANCH  16  17
ATOM     17  C   UNL     1      12.055 -18.912  20.029  1.00  0.00    -0.003 C 
ATOM     18  C   UNL     1      12.093 -19.299  21.506  1.00  0.00     0.004 C 
ENDBRANCH  16  17
ENDBRANCH  15  16
ENDBRANCH  14  15
ENDBRANCH  13  14
ENDBRANCH  12  13
ENDBRANCH  11  12
ENDBRANCH   1  11
TORSDOF 14
ENDMDL
MODEL 5
REMARK VINA RESULT:    -2.431      1.603      3.742
REMARK INTER + INTRA:          -7.040
REMARK INTER:                  -4.804
REMARK INTRA:                  -2.236
REMARK UNBOUND:                -2.619
REMARK SMILES CCCCCCCCCCCCCCCC(=O)[O-]
REMARK SMILES IDX 9 1 10 2 11 3 12 4 13 5 14 6 15 7 16 8 17 9 18 10 8 11 7 12
REMARK SMILES IDX 6 13 5 14 4 15 3 16 2 17 1 18
REMARK H PARENT
REMARK Flexibility Score: inf
ROOT
ATOM      1  C   UNL     1       6.785 -18.469  21.168  1.00  0.00     0.000 C 
ENDROOT
BRANCH   1   2
ATOM      2  C   UNL     1       7.120 -19.677  22.061  1.00  0.00     0.000 C 
BRANCH   2   3
ATOM      3  C   UNL     1       8.443 -20.391  21.724  1.00  0.00     0.000 C 
BRANCH   3   4
ATOM      4  C   UNL     1       9.654 -19.458  21.518  1.00  0.00     0.000 C 
BRANCH   4   5
ATOM      5  C   UNL     1      10.723 -19.524  22.626  1.00  0.00     0.000 C 
BRANCH   5   6
ATOM      6  C   UNL     1      12.175 -19.617  22.122  1.00  0.00     0.006 C 
BRANCH   6   7
ATOM      7  C   UNL     1      12.426 -18.766  20.870  1.00  0.00     0.053 C 
BRANCH   7   8
ATOM      8  C   UNL     1      13.303 -17.600  21.200  1.00  0.00     0.041 C 
ATOM      9  O   UNL     1      14.483 -17.785  21.595  1.00  0.00    -0.550 OA
ATOM     10  O   UNL     1      12.799 -16.307  21.118  1.00  0.00    -0.550 OA
ENDBRANCH   7   8
ENDBRANCH   6   7
ENDBRANCH   5   6
ENDBRANCH   4   5
ENDBRANCH   3   4
ENDBRANCH   2   3
ENDBRANCH   1   2
BRANCH   1  11
ATOM     11  C   UNL     1       5.926 -18.846  19.952  1.00  0.00     0.000 C 
BRANCH  11  12
ATOM     12  C   UNL     1       6.600 -18.411  18.646  1.00  0.00    -0.000 C 
BRANCH  12  13
ATOM     13  C   UNL     1       7.752 -19.355  18.280  1.00  0.00    -0.000 C 
BRANCH  13  14
ATOM     14  C   UNL     1       9.028 -18.564  17.954  1.00  0.00    -0.000 C 
BRANCH  14  15
ATOM     15  C   UNL     1       8.894 -17.062  18.257  1.00  0.00    -0.000 C 
BRANCH  15  16
ATOM     16  C   UNL     1       9.768 -16.548  19.418  1.00  0.00    -0.000 C 
BRANCH  16  17
ATOM     17  C   UNL     1       9.132 -15.433  20.266  1.00  0.00    -0.003 C 
ATOM     18  C   UNL     1       7.806 -14.933  19.694  1.00  0.00     0.004 C 
ENDBRANCH  16  17
ENDBRANCH  15  16
ENDBRANCH  14  15
ENDBRANCH  13  14
ENDBRANCH  12  13
ENDBRANCH  11  12
ENDBRANCH   1  11
TORSDOF 14
ENDMDL
MODEL 6
REMARK VINA RESULT:    -2.426      2.554      5.298
REMARK INTER + INTRA:          -7.030
REMARK INTER:                  -5.009
REMARK INTRA:                  -2.021
REMARK UNBOUND:                -2.619
REMARK SMILES CCCCCCCCCCCCCCCC(=O)[O-]
REMARK SMILES IDX 9 1 10 2 11 3 12 4 13 5 14 6 15 7 16 8 17 9 18 10 8 11 7 12
REMARK SMILES IDX 6 13 5 14 4 15 3 16 2 17 1 18
REMARK H PARENT
REMARK Flexibility Score: inf
ROOT
ATOM      1  C   UNL     1      12.634 -15.964  21.902  1.00  0.00     0.000 C 
ENDROOT
BRANCH   1   2
ATOM      2  C   UNL     1      11.897 -15.076  20.883  1.00  0.00     0.000 C 
BRANCH   2   3
ATOM      3  C   UNL     1      11.135 -15.840  19.784  1.00  0.00     0.000 C 
BRANCH   3   4
ATOM      4  C   UNL     1      10.681 -17.261  20.172  1.00  0.00     0.000 C 
BRANCH   4   5
ATOM      5  C   UNL     1      11.441 -18.404  19.471  1.00  0.00     0.000 C 
BRANCH   5   6
ATOM      6  C   UNL     1      10.580 -19.289  18.552  1.00  0.00     0.006 C 
BRANCH   6   7
ATOM      7  C   UNL     1       9.248 -18.631  18.170  1.00  0.00     0.053 C 
BRANCH   7   8
ATOM      8  C   UNL     1       8.101 -19.505  18.568  1.00  0.00     0.041 C 
ATOM      9  O   UNL     1       6.927 -19.051  18.564  1.00  0.00    -0.550 OA
ATOM     10  O   UNL     1       8.335 -20.807  18.992  1.00  0.00    -0.550 OA
ENDBRANCH   7   8
ENDBRANCH   6   7
ENDBRANCH   5   6
ENDBRANCH   4   5
ENDBRANCH   3   4
ENDBRANCH   2   3
ENDBRANCH   1   2
BRANCH   1  11
ATOM     11  C   UNL     1      14.088 -16.251  21.503  1.00  0.00     0.000 C 
BRANCH  11  12
ATOM     12  C   UNL     1      14.408 -17.745  21.631  1.00  0.00    -0.000 C 
BRANCH  12  13
ATOM     13  C   UNL     1      13.725 -18.351  22.862  1.00  0.00    -0.000 C 
BRANCH  13  14
ATOM     14  C   UNL     1      13.887 -19.878  22.885  1.00  0.00    -0.000 C 
BRANCH  14  15
ATOM     15  C   UNL     1      12.541 -20.623  22.909  1.00  0.00    -0.000 C 
BRANCH  15  16
ATOM     16  C   UNL     1      11.294 -19.726  22.771  1.00  0.00    -0.000 C 
BRANCH  16  17
ATOM     17  C   UNL     1       9.950 -20.474  22.789  1.00  0.00    -0.003 C 
ATOM     18  C   UNL     1       8.780 -19.607  22.326  1.00  0.00     0.004 C 
ENDBRANCH  16  17
ENDBRANCH  15  16
ENDBRANCH  14  15
ENDBRANCH  13  14
ENDBRANCH  12  13
ENDBRANCH  11  12
ENDBRANCH   1  11
TORSDOF 14
ENDMDL
MODEL 7
REMARK VINA RESULT:    -2.417      2.428      4.796
REMARK INTER + INTRA:          -7.015
REMARK INTER:                  -5.014
REMARK INTRA:                  -2.001
REMARK UNBOUND:                -2.619
REMARK SMILES CCCCCCCCCCCCCCCC(=O)[O-]
REMARK SMILES IDX 9 1 10 2 11 3 12 4 13 5 14 6 15 7 16 8 17 9 18 10 8 11 7 12
REMARK SMILES IDX 6 13 5 14 4 15 3 16 2 17 1 18
REMARK H PARENT
REMARK Flexibility Score: inf
ROOT
ATOM      1  C   UNL     1       7.632 -18.563  17.875  1.00  0.00     0.000 C 
ENDROOT
BRANCH   1   2
ATOM      2  C   UNL     1       6.509 -17.765  18.560  1.00  0.00     0.000 C 
BRANCH   2   3
ATOM      3  C   UNL     1       6.980 -16.542  19.371  1.00  0.00     0.000 C 
BRANCH   3   4
ATOM      4  C   UNL     1       8.411 -16.062  19.057  1.00  0.00     0.000 C 
BRANCH   4   5
ATOM      5  C   UNL     1       9.369 -16.036  20.263  1.00  0.00     0.000 C 
BRANCH   5   6
ATOM      6  C   UNL     1      10.757 -15.435  19.977  1.00  0.00     0.006 C 
BRANCH   6   7
ATOM      7  C   UNL     1      10.833 -13.935  20.289  1.00  0.00     0.053 C 
BRANCH   7   8
ATOM      8  C   UNL     1      12.189 -13.579  20.813  1.00  0.00     0.041 C 
ATOM      9  O   UNL     1      12.539 -13.943  21.966  1.00  0.00    -0.550 OA
ATOM     10  O   UNL     1      13.047 -12.802  20.045  1.00  0.00    -0.550 OA
ENDBRANCH   7   8
ENDBRANCH   6   7
ENDBRANCH   5   6
ENDBRANCH   4   5
ENDBRANCH   3   4
ENDBRANCH   2   3
ENDBRANCH   1   2
BRANCH   1  11
ATOM     11  C   UNL     1       8.021 -19.832  18.649  1.00  0.00     0.000 C 
BRANCH  11  12
ATOM     12  C   UNL     1       9.317 -19.618  19.439  1.00  0.00    -0.000 C 
BRANCH  12  13
ATOM     13  C   UNL     1      10.496 -19.342  18.500  1.00  0.00    -0.000 C 
BRANCH  13  14
ATOM     14  C   UNL     1      11.766 -19.006  19.295  1.00  0.00    -0.000 C 
BRANCH  14  15
ATOM     15  C   UNL     1      11.537 -19.009  20.817  1.00  0.00    -0.000 C 
BRANCH  15  16
ATOM     16  C   UNL     1      12.805 -18.809  21.671  1.00  0.00    -0.000 C 
BRANCH  16  17
ATOM     17  C   UNL     1      13.174 -17.342  21.953  1.00  0.00    -0.003 C 
ATOM     18  C   UNL     1      14.412 -16.882  21.185  1.00  0.00     0.004 C 
ENDBRANCH  16  17
ENDBRANCH  15  16
ENDBRANCH  14  15
ENDBRANCH  13  14
ENDBRANCH  12  13
ENDBRANCH  11  12
ENDBRANCH   1  11
TORSDOF 14
ENDMDL
MODEL 8
REMARK VINA RESULT:    -2.414      3.167      5.445
REMARK INTER + INTRA:          -7.010
REMARK INTER:                  -4.525
REMARK INTRA:                  -2.485
REMARK UNBOUND:                -2.619
REMARK SMILES CCCCCCCCCCCCCCCC(=O)[O-]
REMARK SMILES IDX 9 1 10 2 11 3 12 4 13 5 14 6 15 7 16 8 17 9 18 10 8 11 7 12
REMARK SMILES IDX 6 13 5 14 4 15 3 16 2 17 1 18
REMARK H PARENT
REMARK Flexibility Score: inf
ROOT
ATOM      1  C   UNL     1       7.305 -19.326  21.039  1.00  0.00     0.000 C 
ENDROOT
BRANCH   1   2
ATOM      2  C   UNL     1       7.949 -18.325  22.016  1.00  0.00     0.000 C 
BRANCH   2   3
ATOM      3  C   UNL     1       7.730 -16.840  21.664  1.00  0.00     0.000 C 
BRANCH   3   4
ATOM      4  C   UNL     1       8.992 -16.088  21.196  1.00  0.00     0.000 C 
BRANCH   4   5
ATOM      5  C   UNL     1       8.971 -15.633  19.723  1.00  0.00     0.000 C 
BRANCH   5   6
ATOM      6  C   UNL     1       7.737 -14.808  19.317  1.00  0.00     0.006 C 
BRANCH   6   7
ATOM      7  C   UNL     1       7.006 -15.390  18.099  1.00  0.00     0.053 C 
BRANCH   7   8
ATOM      8  C   UNL     1       5.543 -15.084  18.174  1.00  0.00     0.041 C 
ATOM      9  O   UNL     1       4.702 -16.019  18.234  1.00  0.00    -0.550 OA
ATOM     10  O   UNL     1       5.106 -13.766  18.125  1.00  0.00    -0.550 OA
ENDBRANCH   7   8
ENDBRANCH   6   7
ENDBRANCH   5   6
ENDBRANCH   4   5
ENDBRANCH   3   4
ENDBRANCH   2   3
ENDBRANCH   1   2
BRANCH   1  11
ATOM     11  C   UNL     1       6.367 -18.654  20.026  1.00  0.00     0.000 C 
BRANCH  11  12
ATOM     12  C   UNL     1       6.873 -18.852  18.593  1.00  0.00    -0.000 C 
BRANCH  12  13
ATOM     13  C   UNL     1       8.154 -19.694  18.572  1.00  0.00    -0.000 C 
BRANCH  13  14
ATOM     14  C   UNL     1       9.335 -18.885  18.016  1.00  0.00    -0.000 C 
BRANCH  14  15
ATOM     15  C   UNL     1      10.697 -19.391  18.523  1.00  0.00    -0.000 C 
BRANCH  15  16
ATOM     16  C   UNL     1      11.392 -18.478  19.553  1.00  0.00    -0.000 C 
BRANCH  16  17
ATOM     17  C   UNL     1      11.387 -19.007  20.997  1.00  0.00    -0.003 C 
ATOM     18  C   UNL     1      12.783 -19.056  21.617  1.00  0.00     0.004 C 
ENDBRANCH  16  17
ENDBRANCH  15  16
ENDBRANCH  14  15
ENDBRANCH  13  14
ENDBRANCH  12  13
ENDBRANCH  11  12
ENDBRANCH   1  11
TORSDOF 14
ENDMDL
