MODEL 1
REMARK VINA RESULT:    -5.154      0.000      0.000
REMARK INTER + INTRA:         -10.500
REMARK INTER:                  -8.770
REMARK INTRA:                  -1.731
REMARK UNBOUND:                -1.731
REMARK SMILES CCCCCCCCCCCCCC(=O)[O-]
REMARK SMILES IDX 8 1 9 2 10 3 11 4 12 5 13 6 14 7 15 8 16 9 7 10 6 11 5 12
REMARK SMILES IDX 4 13 3 14 2 15 1 16
REMARK H PARENT
REMARK Flexibility Score: inf
ROOT
ATOM      1  C   UNL     1      13.661  -6.912  13.206  1.00  0.00     0.000 C 
ENDROOT
BRANCH   1   2
ATOM      2  C   UNL     1      13.626  -5.762  12.179  1.00  0.00     0.000 C 
BRANCH   2   3
ATOM      3  C   UNL     1      14.920  -4.934  12.078  1.00  0.00     0.000 C 
BRANCH   3   4
ATOM      4  C   UNL     1      15.909  -5.408  10.995  1.00  0.00     0.000 C 
BRANCH   4   5
ATOM      5  C   UNL     1      17.297  -5.797  11.549  1.00  0.00     0.006 C 
BRANCH   5   6
ATOM      6  C   UNL     1      17.726  -4.917  12.729  1.00  0.00     0.053 C 
BRANCH   6   7
ATOM      7  C   UNL     1      19.166  -4.533  12.598  1.00  0.00     0.041 C 
ATOM      8  O   UNL     1      19.489  -3.328  12.430  1.00  0.00    -0.550 OA
ATOM      9  O   UNL     1      20.156  -5.501  12.710  1.00  0.00    -0.550 OA
ENDBRANCH   6   7
ENDBRANCH   5   6
ENDBRANCH   4   5
ENDBRANCH   3   4
ENDBRANCH   2   3
ENDBRANCH   1   2
BRANCH   1  10
ATOM     10  C   UNL     1      15.017  -7.123  13.905  1.00  0.00     0.000 C 
BRANCH  10  11
ATOM     11  C   UNL     1      14.875  -7.456  15.397  1.00  0.00    -0.000 C 
BRANCH  11  12
ATOM     12  C   UNL     1      14.564  -6.197  16.215  1.00  0.00    -0.000 C 
BRANCH  12  13
ATOM     13  C   UNL     1      15.588  -5.089  15.933  1.00  0.00    -0.000 C 
BRANCH  13  14
ATOM     14  C   UNL     1      14.934  -3.747  15.558  1.00  0.00    -0.000 C 
BRANCH  14  15
ATOM     15  C   UNL     1      13.450  -3.620  15.946  1.00  0.00    -0.003 C 
ATOM     16  C   UNL     1      12.593  -3.004  14.839  1.00  0.00     0.004 C 
ENDBRANCH  14  15
ENDBRANCH  13  14
ENDBRANCH  12  13
ENDBRANCH  11  12
ENDBRANCH  10  11
ENDBRANCH   1  10
TORSDOF 12
ENDMDL
MODEL 2
REMARK VINA RESULT:    -5.130      1.075      2.447
REMARK INTER + INTRA:         -10.459
REMARK INTER:                  -8.824
REMARK INTRA:                  -1.636
REMARK UNBOUND:                -1.731
REMARK SMILES CCCCCCCCCCCCCC(=O)[O-]
REMARK SMILES IDX 8 1 9 2 10 3 11 4 12 5 13 6 14 7 15 8 16 9 7 10 6 11 5 12
REMARK SMILES IDX 4 13 3 14 2 15 1 16
REMARK H PARENT
REMARK Flexibility Score: inf
ROOT
ATOM      1  C   UNL     1      15.479  -6.610  15.908  1.00  0.00     0.000 C 
ENDROOT
BRANCH   1   2
ATOM      2  C   UNL     1      15.352  -7.752  14.877  1.00  0.00     0.000 C 
BRANCH   2   3
ATOM      3  C   UNL     1      15.796  -7.396  13.447  1.00  0.00     0.000 C 
BRANCH   3   4
ATOM      4  C   UNL     1      15.098  -6.163  12.841  1.00  0.00     0.000 C 
BRANCH   4   5
ATOM      5  C   UNL     1      16.064  -5.186  12.138  1.00  0.00     0.006 C 
BRANCH   5   6
ATOM      6  C   UNL     1      17.462  -5.784  11.937  1.00  0.00     0.053 C 
BRANCH   6   7
ATOM      7  C   UNL     1      18.496  -4.931  12.601  1.00  0.00     0.041 C 
ATOM      8  O   UNL     1      19.696  -5.307  12.645  1.00  0.00    -0.550 OA
ATOM      9  O   UNL     1      18.142  -3.696  13.131  1.00  0.00    -0.550 OA
ENDBRANCH   6   7
ENDBRANCH   5   6
ENDBRANCH   4   5
ENDBRANCH   3   4
ENDBRANCH   2   3
ENDBRANCH   1   2
BRANCH   1  10
ATOM     10  C   UNL     1      16.873  -5.963  15.996  1.00  0.00     0.000 C 
BRANCH  10  11
ATOM     11  C   UNL     1      16.836  -4.539  16.571  1.00  0.00    -0.000 C 
BRANCH  11  12
ATOM     12  C   UNL     1      15.790  -3.681  15.850  1.00  0.00    -0.000 C 
BRANCH  12  13
ATOM     13  C   UNL     1      14.642  -3.301  16.795  1.00  0.00    -0.000 C 
BRANCH  13  14
ATOM     14  C   UNL     1      13.253  -3.585  16.196  1.00  0.00    -0.000 C 
BRANCH  14  15
ATOM     15  C   UNL     1      13.169  -3.455  14.665  1.00  0.00    -0.003 C 
ATOM     16  C   UNL     1      12.321  -2.266  14.212  1.00  0.00     0.004 C 
ENDBRANCH  14  15
ENDBRANCH  13  14
ENDBRANCH  12  13
ENDBRANCH  11  12
ENDBRANCH  10  11
ENDBRANCH   1  10
TORSDOF 12
ENDMDL
MODEL 3
REMARK VINA RESULT:    -5.082      2.506      5.205
REMARK INTER + INTRA:         -10.377
REMARK INTER:                  -8.749
REMARK INTRA:                  -1.628
REMARK UNBOUND:                -1.731
REMARK SMILES CCCCCCCCCCCCCC(=O)[O-]
REMARK SMILES IDX 8 1 9 2 10 3 11 4 12 5 13 6 14 7 15 8 16 9 7 10 6 11 5 12
REMARK SMILES IDX 4 13 3 14 2 15 1 16
REMARK H PARENT
REMARK Flexibility Score: inf
ROOT
ATOM      1  C   UNL     1      16.755  -4.896  16.589  1.00  0.00     0.000 C 
ENDROOT
BRANCH   1   2
ATOM      2  C   UNL     1      15.875  -3.758  16.032  1.00  0.00     0.000 C 
BRANCH   2   3
ATOM      3  C   UNL     1      14.675  -3.366  16.913  1.00  0.00     0.000 C 
BRANCH   3   4
ATOM      4  C   UNL     1      13.298  -3.524  16.240  1.00  0.00     0.000 C 
BRANCH   4   5
ATOM      5  C   UNL     1      13.353  -3.479  14.697  1.00  0.00     0.006 C 
BRANCH   5   6
ATOM      6  C   UNL     1      12.529  -2.325  14.113  1.00  0.00     0.053 C 
BRANCH   6   7
ATOM      7  C   UNL     1      13.267  -1.674  12.987  1.00  0.00     0.041 C 
ATOM      8  O   UNL     1      14.525  -1.666  12.974  1.00  0.00    -0.550 OA
ATOM      9  O   UNL     1      12.564  -1.118  11.925  1.00  0.00    -0.550 OA
ENDBRANCH   6   7
ENDBRANCH   5   6
ENDBRANCH   4   5
ENDBRANCH   3   4
ENDBRANCH   2   3
ENDBRANCH   1   2
BRANCH   1  10
ATOM     10  C   UNL     1      16.557  -6.266  15.915  1.00  0.00     0.000 C 
BRANCH  10  11
ATOM     11  C   UNL     1      15.132  -6.814  16.081  1.00  0.00    -0.000 C 
BRANCH  11  12
ATOM     12  C   UNL     1      14.521  -7.179  14.724  1.00  0.00    -0.000 C 
BRANCH  12  13
ATOM     13  C   UNL     1      15.566  -7.080  13.604  1.00  0.00    -0.000 C 
BRANCH  13  14
ATOM     14  C   UNL     1      15.231  -5.996  12.564  1.00  0.00    -0.000 C 
BRANCH  14  15
ATOM     15  C   UNL     1      16.441  -5.196  12.051  1.00  0.00    -0.003 C 
ATOM     16  C   UNL     1      17.667  -6.070  11.783  1.00  0.00     0.004 C 
ENDBRANCH  14  15
ENDBRANCH  13  14
ENDBRANCH  12  13
ENDBRANCH  11  12
ENDBRANCH  10  11
ENDBRANCH   1  10
TORSDOF 12
ENDMDL
MODEL 4
REMARK VINA RESULT:    -5.024      3.051      5.121
REMARK INTER + INTRA:         -10.279
REMARK INTER:                  -8.550
REMARK INTRA:                  -1.728
REMARK UNBOUND:                -1.731
REMARK SMILES CCCCCCCCCCCCCC(=O)[O-]
REMARK SMILES IDX 8 1 9 2 10 3 11 4 12 5 13 6 14 7 15 8 16 9 7 10 6 11 5 12
REMARK SMILES IDX 4 13 3 14 2 15 1 16
REMARK H PARENT
REMARK Flexibility Score: inf
ROOT
ATOM      1  C   UNL     1      15.620  -2.567  17.100  1.00  0.00     0.000 C 
ENDROOT
BRANCH   1   2
ATOM      2  C   UNL     1      14.311  -3.378  17.007  1.00  0.00     0.000 C 
BRANCH   2   3
ATOM      3  C   UNL     1      13.664  -3.419  15.611  1.00  0.00     0.000 C 
BRANCH   3   4
ATOM      4  C   UNL     1      14.661  -3.423  14.436  1.00  0.00     0.000 C 
BRANCH   4   5
ATOM      5  C   UNL     1      14.023  -3.050  13.080  1.00  0.00     0.006 C 
BRANCH   5   6
ATOM      6  C   UNL     1      13.456  -1.625  13.070  1.00  0.00     0.053 C 
BRANCH   6   7
ATOM      7  C   UNL     1      14.220  -0.765  12.114  1.00  0.00     0.041 C 
ATOM      8  O   UNL     1      13.610  -0.018  11.306  1.00  0.00    -0.550 OA
ATOM      9  O   UNL     1      15.609  -0.752  12.149  1.00  0.00    -0.550 OA
ENDBRANCH   6   7
ENDBRANCH   5   6
ENDBRANCH   4   5
ENDBRANCH   3   4
ENDBRANCH   2   3
ENDBRANCH   1   2
BRANCH   1  10
ATOM     10  C   UNL     1      16.566  -2.983  18.241  1.00  0.00     0.000 C 
BRANCH  10  11
ATOM     11  C   UNL     1      17.811  -3.733  17.744  1.00  0.00    -0.000 C 
BRANCH  11  12
ATOM     12  C   UNL     1      18.004  -3.537  16.235  1.00  0.00    -0.000 C 
BRANCH  12  13
ATOM     13  C   UNL     1      17.892  -4.873  15.487  1.00  0.00    -0.000 C 
BRANCH  13  14
ATOM     14  C   UNL     1      17.075  -5.926  16.258  1.00  0.00    -0.000 C 
BRANCH  14  15
ATOM     15  C   UNL     1      16.004  -6.651  15.425  1.00  0.00    -0.003 C 
ATOM     16  C   UNL     1      14.765  -7.026  16.239  1.00  0.00     0.004 C 
ENDBRANCH  14  15
ENDBRANCH  13  14
ENDBRANCH  12  13
ENDBRANCH  11  12
ENDBRANCH  10  11
ENDBRANCH   1  10
TORSDOF 12
ENDMDL
MODEL 5
REMARK VINA RESULT:    -4.921      1.906      3.422
REMARK INTER + INTRA:         -10.104
REMARK INTER:                  -8.582
REMARK INTRA:                  -1.522
REMARK UNBOUND:                -1.731
REMARK SMILES CCCCCCCCCCCCCC(=O)[O-]
REMARK SMILES IDX 8 1 9 2 10 3 11 4 12 5 13 6 14 7 15 8 16 9 7 10 6 11 5 12
REMARK SMILES IDX 4 13 3 14 2 15 1 16
REMARK H PARENT
REMARK Flexibility Score: inf
ROOT
ATOM      1  C   UNL     1      12.769  -3.065  12.686  1.00  0.00     0.000 C 
ENDROOT
BRANCH   1   2
ATOM      2  C   UNL     1      12.244  -4.508  12.534  1.00  0.00     0.000 C 
BRANCH   2   3
ATOM      3  C   UNL     1      13.230  -5.498  11.888  1.00  0.00     0.000 C 
BRANCH   3   4
ATOM      4  C   UNL     1      13.790  -6.570  12.842  1.00  0.00     0.000 C 
BRANCH   4   5
ATOM      5  C   UNL     1      15.202  -6.248  13.378  1.00  0.00     0.006 C 
BRANCH   5   6
ATOM      6  C   UNL     1      15.902  -5.150  12.568  1.00  0.00     0.053 C 
BRANCH   6   7
ATOM      7  C   UNL     1      16.773  -5.754  11.513  1.00  0.00     0.041 C 
ATOM      8  O   UNL     1      17.864  -6.297  11.826  1.00  0.00    -0.550 OA
ATOM      9  O   UNL     1      16.356  -5.762  10.187  1.00  0.00    -0.550 OA
ENDBRANCH   6   7
ENDBRANCH   5   6
ENDBRANCH   4   5
ENDBRANCH   3   4
ENDBRANCH   2   3
ENDBRANCH   1   2
BRANCH   1  10
ATOM     10  C   UNL     1      13.385  -2.735  14.057  1.00  0.00     0.000 C 
BRANCH  10  11
ATOM     11  C   UNL     1      12.443  -3.050  15.228  1.00  0.00    -0.000 C 
BRANCH  11  12
ATOM     12  C   UNL     1      13.162  -3.863  16.310  1.00  0.00    -0.000 C 
BRANCH  12  13
ATOM     13  C   UNL     1      14.685  -3.703  16.199  1.00  0.00    -0.000 C 
BRANCH  13  14
ATOM     14  C   UNL     1      15.296  -2.934  17.384  1.00  0.00    -0.000 C 
BRANCH  14  15
ATOM     15  C   UNL     1      16.819  -3.089  17.541  1.00  0.00    -0.003 C 
ATOM     16  C   UNL     1      17.440  -3.996  16.478  1.00  0.00     0.004 C 
ENDBRANCH  14  15
ENDBRANCH  13  14
ENDBRANCH  12  13
ENDBRANCH  11  12
ENDBRANCH  10  11
ENDBRANCH   1  10
TORSDOF 12
ENDMDL
MODEL 6
REMARK VINA RESULT:    -4.917      2.584      3.850
REMARK INTER + INTRA:         -10.097
REMARK INTER:                  -8.604
REMARK INTRA:                  -1.493
REMARK UNBOUND:                -1.731
REMARK SMILES CCCCCCCCCCCCCC(=O)[O-]
REMARK SMILES IDX 8 1 9 2 10 3 11 4 12 5 13 6 14 7 15 8 16 9 7 10 6 11 5 12
REMARK SMILES IDX 4 13 3 14 2 15 1 16
REMARK H PARENT
REMARK Flexibility Score: inf
ROOT
ATOM      1  C   UNL     1      16.016  -5.545  11.975  1.00  0.00     0.000 C 
ENDROOT
BRANCH   1   2
ATOM      2  C   UNL     1      16.131  -5.657  10.440  1.00  0.00     0.000 C 
BRANCH   2   3
ATOM      3  C   UNL     1      14.854  -5.292   9.661  1.00  0.00     0.000 C 
BRANCH   3   4
ATOM      4  C   UNL     1      13.536  -5.675  10.361  1.00  0.00     0.000 C 
BRANCH   4   5
ATOM      5  C   UNL     1      12.628  -4.467  10.678  1.00  0.00     0.006 C 
BRANCH   5   6
ATOM      6  C   UNL     1      12.525  -4.188  12.183  1.00  0.00     0.053 C 
BRANCH   6   7
ATOM      7  C   UNL     1      13.088  -2.840  12.504  1.00  0.00     0.041 C 
ATOM      8  O   UNL     1      12.468  -2.061  13.274  1.00  0.00    -0.550 OA
ATOM      9  O   UNL     1      14.323  -2.462  11.991  1.00  0.00    -0.550 OA
ENDBRANCH   6   7
ENDBRANCH   5   6
ENDBRANCH   4   5
ENDBRANCH   3   4
ENDBRANCH   2   3
ENDBRANCH   1   2
BRANCH   1  10
ATOM     10  C   UNL     1      16.556  -6.754  12.760  1.00  0.00     0.000 C 
BRANCH  10  11
ATOM     11  C   UNL     1      15.514  -7.367  13.707  1.00  0.00    -0.000 C 
BRANCH  11  12
ATOM     12  C   UNL     1      14.526  -6.303  14.200  1.00  0.00    -0.000 C 
BRANCH  12  13
ATOM     13  C   UNL     1      14.755  -5.985  15.685  1.00  0.00    -0.000 C 
BRANCH  13  14
ATOM     14  C   UNL     1      15.565  -4.695  15.905  1.00  0.00    -0.000 C 
BRANCH  14  15
ATOM     15  C   UNL     1      14.720  -3.443  16.200  1.00  0.00    -0.003 C 
ATOM     16  C   UNL     1      13.243  -3.761  16.437  1.00  0.00     0.004 C 
ENDBRANCH  14  15
ENDBRANCH  13  14
ENDBRANCH  12  13
ENDBRANCH  11  12
ENDBRANCH  10  11
ENDBRANCH   1  10
TORSDOF 12
ENDMDL
MODEL 7
REMARK VINA RESULT:    -4.891      2.794      4.380
REMARK INTER + INTRA:         -10.053
REMARK INTER:                  -8.520
REMARK INTRA:                  -1.533
REMARK UNBOUND:                -1.731
REMARK SMILES CCCCCCCCCCCCCC(=O)[O-]
REMARK SMILES IDX 8 1 9 2 10 3 11 4 12 5 13 6 14 7 15 8 16 9 7 10 6 11 5 12
REMARK SMILES IDX 4 13 3 14 2 15 1 16
REMARK H PARENT
REMARK Flexibility Score: inf
ROOT
ATOM      1  C   UNL     1      18.866  -5.074  12.507  1.00  0.00     0.000 C 
ENDROOT
BRANCH   1   2
ATOM      2  C   UNL     1      17.549  -5.423  11.781  1.00  0.00     0.000 C 
BRANCH   2   3
ATOM      3  C   UNL     1      16.665  -6.462  12.494  1.00  0.00     0.000 C 
BRANCH   3   4
ATOM      4  C   UNL     1      15.328  -5.916  13.030  1.00  0.00     0.000 C 
BRANCH   4   5
ATOM      5  C   UNL     1      14.659  -4.886  12.094  1.00  0.00     0.006 C 
BRANCH   5   6
ATOM      6  C   UNL     1      13.499  -5.487  11.291  1.00  0.00     0.053 C 
BRANCH   6   7
ATOM      7  C   UNL     1      13.854  -5.565   9.840  1.00  0.00     0.041 C 
ATOM      8  O   UNL     1      12.993  -5.923   8.995  1.00  0.00    -0.550 OA
ATOM      9  O   UNL     1      15.124  -5.196   9.415  1.00  0.00    -0.550 OA
ENDBRANCH   6   7
ENDBRANCH   5   6
ENDBRANCH   4   5
ENDBRANCH   3   4
ENDBRANCH   2   3
ENDBRANCH   1   2
BRANCH   1  10
ATOM     10  C   UNL     1      18.955  -3.632  13.039  1.00  0.00     0.000 C 
BRANCH  10  11
ATOM     11  C   UNL     1      17.943  -3.342  14.157  1.00  0.00    -0.000 C 
BRANCH  11  12
ATOM     12  C   UNL     1      18.171  -4.266  15.359  1.00  0.00    -0.000 C 
BRANCH  12  13
ATOM     13  C   UNL     1      16.853  -4.555  16.091  1.00  0.00    -0.000 C 
BRANCH  13  14
ATOM     14  C   UNL     1      16.243  -3.303  16.747  1.00  0.00    -0.000 C 
BRANCH  14  15
ATOM     15  C   UNL     1      14.709  -3.314  16.862  1.00  0.00    -0.003 C 
ATOM     16  C   UNL     1      14.067  -4.524  16.181  1.00  0.00     0.004 C 
ENDBRANCH  14  15
ENDBRANCH  13  14
ENDBRANCH  12  13
ENDBRANCH  11  12
ENDBRANCH  10  11
ENDBRANCH   1  10
TORSDOF 12
ENDMDL
MODEL 8
REMARK VINA RESULT:    -4.890      2.931      4.111
REMARK INTER + INTRA:         -10.051
REMARK INTER:                  -8.391
REMARK INTRA:                  -1.660
REMARK UNBOUND:                -1.731
REMARK SMILES CCCCCCCCCCCCCC(=O)[O-]
REMARK SMILES IDX 8 1 9 2 10 3 11 4 12 5 13 6 14 7 15 8 16 9 7 10 6 11 5 12
REMARK SMILES IDX 4 13 3 14 2 15 1 16
REMARK H PARENT
REMARK Flexibility Score: inf
ROOT
ATOM      1  C   UNL     1      15.355  -6.754  15.816  1.00  0.00     0.000 C 
ENDROOT
BRANCH   1   2
ATOM      2  C   UNL     1      15.494  -7.681  14.591  1.00  0.00     0.000 C 
BRANCH   2   3
ATOM      3  C   UNL     1      14.876  -7.143  13.289  1.00  0.00     0.000 C 
BRANCH   3   4
ATOM      4  C   UNL     1      15.707  -6.057  12.578  1.00  0.00     0.000 C 
BRANCH   4   5
ATOM      5  C   UNL     1      14.878  -4.835  12.129  1.00  0.00     0.006 C 
BRANCH   5   6
ATOM      6  C   UNL     1      13.377  -5.140  12.049  1.00  0.00     0.053 C 
BRANCH   6   7
ATOM      7  C   UNL     1      12.880  -4.953  10.651  1.00  0.00     0.041 C 
ATOM      8  O   UNL     1      13.393  -5.605   9.704  1.00  0.00    -0.550 OA
ATOM      9  O   UNL     1      11.817  -4.096  10.400  1.00  0.00    -0.550 OA
ENDBRANCH   6   7
ENDBRANCH   5   6
ENDBRANCH   4   5
ENDBRANCH   3   4
ENDBRANCH   2   3
ENDBRANCH   1   2
BRANCH   1  10
ATOM     10  C   UNL     1      16.648  -6.034  16.241  1.00  0.00     0.000 C 
BRANCH  10  11
ATOM     11  C   UNL     1      16.657  -4.546  15.862  1.00  0.00    -0.000 C 
BRANCH  11  12
ATOM     12  C   UNL     1      15.478  -3.807  16.508  1.00  0.00    -0.000 C 
BRANCH  12  13
ATOM     13  C   UNL     1      14.464  -3.355  15.448  1.00  0.00    -0.000 C 
BRANCH  13  14
ATOM     14  C   UNL     1      13.003  -3.561  15.889  1.00  0.00    -0.000 C 
BRANCH  14  15
ATOM     15  C   UNL     1      11.948  -3.073  14.880  1.00  0.00    -0.003 C 
ATOM     16  C   UNL     1      12.489  -2.021  13.911  1.00  0.00     0.004 C 
ENDBRANCH  14  15
ENDBRANCH  13  14
ENDBRANCH  12  13
ENDBRANCH  11  12
ENDBRANCH  10  11
ENDBRANCH   1  10
TORSDOF 12
ENDMDL
MODEL 9
REMARK VINA RESULT:    -4.889      2.931      4.137
REMARK INTER + INTRA:         -10.050
REMARK INTER:                  -8.488
REMARK INTRA:                  -1.562
REMARK UNBOUND:                -1.731
REMARK SMILES CCCCCCCCCCCCCC(=O)[O-]
REMARK SMILES IDX 8 1 9 2 10 3 11 4 12 5 13 6 14 7 15 8 16 9 7 10 6 11 5 12
REMARK SMILES IDX 4 13 3 14 2 15 1 16
REMARK H PARENT
REMARK Flexibility Score: inf
ROOT
ATOM      1  C   UNL     1      15.165  -7.478  14.202  1.00  0.00     0.000 C 
ENDROOT
BRANCH   1   2
ATOM      2  C   UNL     1      16.074  -6.707  13.222  1.00  0.00     0.000 C 
BRANCH   2   3
ATOM      3  C   UNL     1      15.356  -5.669  12.342  1.00  0.00     0.000 C 
BRANCH   3   4
ATOM      4  C   UNL     1      13.819  -5.684  12.445  1.00  0.00     0.000 C 
BRANCH   4   5
ATOM      5  C   UNL     1      13.206  -4.308  12.784  1.00  0.00     0.006 C 
BRANCH   5   6
ATOM      6  C   UNL     1      14.247  -3.181  12.772  1.00  0.00     0.053 C 
BRANCH   6   7
ATOM      7  C   UNL     1      13.579  -1.851  12.912  1.00  0.00     0.041 C 
ATOM      8  O   UNL     1      12.604  -1.710  13.695  1.00  0.00    -0.550 OA
ATOM      9  O   UNL     1      14.064  -0.752  12.213  1.00  0.00    -0.550 OA
ENDBRANCH   6   7
ENDBRANCH   5   6
ENDBRANCH   4   5
ENDBRANCH   3   4
ENDBRANCH   2   3
ENDBRANCH   1   2
BRANCH   1  10
ATOM     10  C   UNL     1      15.310  -7.077  15.681  1.00  0.00     0.000 C 
BRANCH  10  11
ATOM     11  C   UNL     1      15.472  -5.563  15.877  1.00  0.00    -0.000 C 
BRANCH  11  12
ATOM     12  C   UNL     1      14.133  -4.909  16.240  1.00  0.00    -0.000 C 
BRANCH  12  13
ATOM     13  C   UNL     1      14.320  -3.423  16.579  1.00  0.00    -0.000 C 
BRANCH  13  14
ATOM     14  C   UNL     1      15.797  -3.028  16.751  1.00  0.00    -0.000 C 
BRANCH  14  15
ATOM     15  C   UNL     1      16.193  -2.607  18.177  1.00  0.00    -0.003 C 
ATOM     16  C   UNL     1      17.602  -3.059  18.564  1.00  0.00     0.004 C 
ENDBRANCH  14  15
ENDBRANCH  13  14
ENDBRANCH  12  13
ENDBRANCH  11  12
ENDBRANCH  10  11
ENDBRANCH   1  10
TORSDOF 12
ENDMDL
