MODEL 1
REMARK VINA RESULT:    20.973      0.000      0.000
REMARK INTER + INTRA:          44.572
REMARK INTER:                  45.496
REMARK INTRA:                  -0.923
REMARK UNBOUND:                -0.923
REMARK SMILES CCCCCCCCCCCCCCCCCCCCCC(=O)[O-]
REMARK SMILES IDX 12 1 11 2 10 3 9 4 8 5 7 6 6 7 5 8 4 9 3 10 2 11 1 12 13 13
REMARK SMILES IDX 14 14 15 15 16 16 17 17 18 18 19 19 20 20 21 21 22 22 23 23
REMARK SMILES IDX 24 24
REMARK H PARENT
REMARK Flexibility Score: inf
ROOT
ATOM      1  C   UNL     1      -8.060 -13.857  20.978  1.00  0.00     0.000 C 
ENDROOT
BRANCH   1   2
ATOM      2  C   UNL     1      -9.279 -13.951  20.047  1.00  0.00     0.000 C 
BRANCH   2   3
ATOM      3  C   UNL     1      -8.993 -13.400  18.641  1.00  0.00     0.000 C 
BRANCH   3   4
ATOM      4  C   UNL     1      -8.643 -14.507  17.632  1.00  0.00    -0.000 C 
BRANCH   4   5
ATOM      5  C   UNL     1      -9.801 -15.509  17.429  1.00  0.00    -0.000 C 
BRANCH   5   6
ATOM      6  C   UNL     1      -9.651 -16.808  18.245  1.00  0.00    -0.000 C 
BRANCH   6   7
ATOM      7  C   UNL     1     -10.047 -18.094  17.499  1.00  0.00    -0.000 C 
BRANCH   7   8
ATOM      8  C   UNL     1      -8.936 -19.156  17.396  1.00  0.00    -0.000 C 
BRANCH   8   9
ATOM      9  C   UNL     1      -7.752 -18.780  16.484  1.00  0.00    -0.000 C 
BRANCH   9  10
ATOM     10  C   UNL     1      -7.536 -19.711  15.279  1.00  0.00    -0.000 C 
BRANCH  10  11
ATOM     11  C   UNL     1      -6.054 -20.020  15.022  1.00  0.00    -0.003 C 
ATOM     12  C   UNL     1      -5.647 -19.630  13.604  1.00  0.00     0.004 C 
ENDBRANCH  10  11
ENDBRANCH   9  10
ENDBRANCH   8   9
ENDBRANCH   7   8
ENDBRANCH   6   7
ENDBRANCH   5   6
ENDBRANCH   4   5
ENDBRANCH   3   4
ENDBRANCH   2   3
ENDBRANCH   1   2
BRANCH   1  13
ATOM     13  C   UNL     1      -8.215 -12.698  21.969  1.00  0.00     0.000 C 
BRANCH  13  14
ATOM     14  C   UNL     1      -6.935 -12.501  22.796  1.00  0.00     0.000 C 
BRANCH  14  15
ATOM     15  C   UNL     1      -7.222 -12.157  24.268  1.00  0.00     0.000 C 
BRANCH  15  16
ATOM     16  C   UNL     1      -6.069 -12.485  25.235  1.00  0.00     0.000 C 
BRANCH  16  17
ATOM     17  C   UNL     1      -5.619 -13.952  25.139  1.00  0.00     0.000 C 
BRANCH  17  18
ATOM     18  C   UNL     1      -4.937 -14.439  26.428  1.00  0.00     0.000 C 
BRANCH  18  19
ATOM     19  C   UNL     1      -5.276 -15.902  26.752  1.00  0.00     0.000 C 
BRANCH  19  20
ATOM     20  C   UNL     1      -4.478 -16.859  25.859  1.00  0.00     0.006 C 
BRANCH  20  21
ATOM     21  C   UNL     1      -5.301 -18.103  25.512  1.00  0.00     0.053 C 
BRANCH  21  22
ATOM     22  C   UNL     1      -5.489 -18.210  24.032  1.00  0.00     0.041 C 
ATOM     23  O   UNL     1      -4.638 -17.713  23.250  1.00  0.00    -0.550 OA
ATOM     24  O   UNL     1      -6.568 -18.915  23.515  1.00  0.00    -0.550 OA
ENDBRANCH  21  22
ENDBRANCH  20  21
ENDBRANCH  19  20
ENDBRANCH  18  19
ENDBRANCH  17  18
ENDBRANCH  16  17
ENDBRANCH  15  16
ENDBRANCH  14  15
ENDBRANCH  13  14
ENDBRANCH   1  13
TORSDOF 20
ENDMDL
MODEL 2
REMARK VINA RESULT:    21.042      4.410      5.697
REMARK INTER + INTRA:          44.720
REMARK INTER:                  45.497
REMARK INTRA:                  -0.776
REMARK UNBOUND:                -0.923
REMARK SMILES CCCCCCCCCCCCCCCCCCCCCC(=O)[O-]
REMARK SMILES IDX 12 1 11 2 10 3 9 4 8 5 7 6 6 7 5 8 4 9 3 10 2 11 1 12 13 13
REMARK SMILES IDX 14 14 15 15 16 16 17 17 18 18 19 19 20 20 21 21 22 22 23 23
REMARK SMILES IDX 24 24
REMARK H PARENT
REMARK Flexibility Score: inf
ROOT
ATOM      1  C   UNL     1      -8.603 -12.862  21.663  1.00  0.00     0.000 C 
ENDROOT
BRANCH   1   2
ATOM      2  C   UNL     1      -8.552 -14.006  20.638  1.00  0.00     0.000 C 
BRANCH   2   3
ATOM      3  C   UNL     1      -8.392 -13.502  19.196  1.00  0.00     0.000 C 
BRANCH   3   4
ATOM      4  C   UNL     1      -9.171 -14.356  18.180  1.00  0.00    -0.000 C 
BRANCH   4   5
ATOM      5  C   UNL     1      -9.417 -15.795  18.685  1.00  0.00    -0.000 C 
BRANCH   5   6
ATOM      6  C   UNL     1      -9.775 -16.794  17.568  1.00  0.00    -0.000 C 
BRANCH   6   7
ATOM      7  C   UNL     1      -9.545 -18.274  17.920  1.00  0.00    -0.000 C 
BRANCH   7   8
ATOM      8  C   UNL     1      -9.019 -19.144  16.762  1.00  0.00    -0.000 C 
BRANCH   8   9
ATOM      9  C   UNL     1      -7.492 -19.104  16.553  1.00  0.00    -0.000 C 
BRANCH   9  10
ATOM     10  C   UNL     1      -6.953 -20.090  15.502  1.00  0.00    -0.000 C 
BRANCH  10  11
ATOM     11  C   UNL     1      -6.965 -19.510  14.080  1.00  0.00    -0.003 C 
ATOM     12  C   UNL     1      -5.558 -19.465  13.491  1.00  0.00     0.004 C 
ENDBRANCH  10  11
ENDBRANCH   9  10
ENDBRANCH   8   9
ENDBRANCH   7   8
ENDBRANCH   6   7
ENDBRANCH   5   6
ENDBRANCH   4   5
ENDBRANCH   3   4
ENDBRANCH   2   3
ENDBRANCH   1   2
BRANCH   1  13
ATOM     13  C   UNL     1      -7.193 -12.363  21.998  1.00  0.00     0.000 C 
BRANCH  13  14
ATOM     14  C   UNL     1      -7.066 -12.021  23.491  1.00  0.00     0.000 C 
BRANCH  14  15
ATOM     15  C   UNL     1      -5.866 -11.107  23.794  1.00  0.00     0.000 C 
BRANCH  15  16
ATOM     16  C   UNL     1      -6.078 -10.150  24.981  1.00  0.00     0.000 C 
BRANCH  16  17
ATOM     17  C   UNL     1      -5.252  -8.859  24.853  1.00  0.00     0.000 C 
BRANCH  17  18
ATOM     18  C   UNL     1      -3.749  -9.140  24.701  1.00  0.00     0.000 C 
BRANCH  18  19
ATOM     19  C   UNL     1      -3.043  -8.092  23.827  1.00  0.00     0.000 C 
BRANCH  19  20
ATOM     20  C   UNL     1      -1.551  -8.010  24.168  1.00  0.00     0.006 C 
BRANCH  20  21
ATOM     21  C   UNL     1      -1.192  -8.976  25.301  1.00  0.00     0.053 C 
BRANCH  21  22
ATOM     22  C   UNL     1      -0.050  -8.440  26.106  1.00  0.00     0.041 C 
ATOM     23  O   UNL     1       0.558  -9.187  26.915  1.00  0.00    -0.550 OA
ATOM     24  O   UNL     1       0.386  -7.135  25.915  1.00  0.00    -0.550 OA
ENDBRANCH  21  22
ENDBRANCH  20  21
ENDBRANCH  19  20
ENDBRANCH  18  19
ENDBRANCH  17  18
ENDBRANCH  16  17
ENDBRANCH  15  16
ENDBRANCH  14  15
ENDBRANCH  13  14
ENDBRANCH   1  13
TORSDOF 20
ENDMDL
MODEL 3
REMARK VINA RESULT:    21.229      4.401      5.698
REMARK INTER + INTRA:          45.127
REMARK INTER:                  45.869
REMARK INTRA:                  -0.742
REMARK UNBOUND:                -0.923
REMARK SMILES CCCCCCCCCCCCCCCCCCCCCC(=O)[O-]
REMARK SMILES IDX 12 1 11 2 10 3 9 4 8 5 7 6 6 7 5 8 4 9 3 10 2 11 1 12 13 13
REMARK SMILES IDX 14 14 15 15 16 16 17 17 18 18 19 19 20 20 21 21 22 22 23 23
REMARK SMILES IDX 24 24
REMARK H PARENT
REMARK Flexibility Score: inf
ROOT
ATOM      1  C   UNL     1      -7.915 -13.571  21.844  1.00  0.00     0.000 C 
ENDROOT
BRANCH   1   2
ATOM      2  C   UNL     1      -9.101 -13.629  20.868  1.00  0.00     0.000 C 
BRANCH   2   3
ATOM      3  C   UNL     1      -8.727 -14.264  19.520  1.00  0.00     0.000 C 
BRANCH   3   4
ATOM      4  C   UNL     1      -9.356 -13.527  18.324  1.00  0.00    -0.000 C 
BRANCH   4   5
ATOM      5  C   UNL     1      -9.752 -14.487  17.181  1.00  0.00    -0.000 C 
BRANCH   5   6
ATOM      6  C   UNL     1      -9.079 -15.870  17.268  1.00  0.00    -0.000 C 
BRANCH   6   7
ATOM      7  C   UNL     1      -9.919 -16.960  17.956  1.00  0.00    -0.000 C 
BRANCH   7   8
ATOM      8  C   UNL     1      -9.508 -18.407  17.621  1.00  0.00    -0.000 C 
BRANCH   8   9
ATOM      9  C   UNL     1      -8.119 -18.560  16.970  1.00  0.00    -0.000 C 
BRANCH   9  10
ATOM     10  C   UNL     1      -8.109 -19.304  15.624  1.00  0.00    -0.000 C 
BRANCH  10  11
ATOM     11  C   UNL     1      -6.691 -19.532  15.079  1.00  0.00    -0.003 C 
ATOM     12  C   UNL     1      -6.125 -20.866  15.555  1.00  0.00     0.004 C 
ENDBRANCH  10  11
ENDBRANCH   9  10
ENDBRANCH   8   9
ENDBRANCH   7   8
ENDBRANCH   6   7
ENDBRANCH   5   6
ENDBRANCH   4   5
ENDBRANCH   3   4
ENDBRANCH   2   3
ENDBRANCH   1   2
BRANCH   1  13
ATOM     13  C   UNL     1      -7.644 -12.129  22.291  1.00  0.00     0.000 C 
BRANCH  13  14
ATOM     14  C   UNL     1      -7.109 -12.087  23.731  1.00  0.00     0.000 C 
BRANCH  14  15
ATOM     15  C   UNL     1      -5.789 -11.306  23.854  1.00  0.00     0.000 C 
BRANCH  15  16
ATOM     16  C   UNL     1      -5.782 -10.240  24.966  1.00  0.00     0.000 C 
BRANCH  16  17
ATOM     17  C   UNL     1      -5.247  -8.883  24.477  1.00  0.00     0.000 C 
BRANCH  17  18
ATOM     18  C   UNL     1      -3.789  -8.643  24.900  1.00  0.00     0.000 C 
BRANCH  18  19
ATOM     19  C   UNL     1      -2.997  -7.853  23.846  1.00  0.00     0.000 C 
BRANCH  19  20
ATOM     20  C   UNL     1      -1.510  -8.223  23.889  1.00  0.00     0.006 C 
BRANCH  20  21
ATOM     21  C   UNL     1      -1.194  -9.093  25.109  1.00  0.00     0.053 C 
BRANCH  21  22
ATOM     22  C   UNL     1      -0.176  -8.426  25.979  1.00  0.00     0.041 C 
ATOM     23  O   UNL     1       0.221  -7.263  25.709  1.00  0.00    -0.550 OA
ATOM     24  O   UNL     1       0.286  -9.061  27.125  1.00  0.00    -0.550 OA
ENDBRANCH  21  22
ENDBRANCH  20  21
ENDBRANCH  19  20
ENDBRANCH  18  19
ENDBRANCH  17  18
ENDBRANCH  16  17
ENDBRANCH  15  16
ENDBRANCH  14  15
ENDBRANCH  13  14
ENDBRANCH   1  13
TORSDOF 20
ENDMDL
MODEL 4
REMARK VINA RESULT:    21.316      0.735      1.113
REMARK INTER + INTRA:          45.316
REMARK INTER:                  46.232
REMARK INTRA:                  -0.916
REMARK UNBOUND:                -0.923
REMARK SMILES CCCCCCCCCCCCCCCCCCCCCC(=O)[O-]
REMARK SMILES IDX 12 1 11 2 10 3 9 4 8 5 7 6 6 7 5 8 4 9 3 10 2 11 1 12 13 13
REMARK SMILES IDX 14 14 15 15 16 16 17 17 18 18 19 19 20 20 21 21 22 22 23 23
REMARK SMILES IDX 24 24
REMARK H PARENT
REMARK Flexibility Score: inf
ROOT
ATOM      1  C   UNL     1      -7.903 -13.509  21.785  1.00  0.00     0.000 C 
ENDROOT
BRANCH   1   2
ATOM      2  C   UNL     1      -8.995 -13.390  20.711  1.00  0.00     0.000 C 
BRANCH   2   3
ATOM      3  C   UNL     1      -8.588 -14.039  19.378  1.00  0.00     0.000 C 
BRANCH   3   4
ATOM      4  C   UNL     1      -9.494 -13.609  18.211  1.00  0.00    -0.000 C 
BRANCH   4   5
ATOM      5  C   UNL     1      -9.717 -14.745  17.188  1.00  0.00    -0.000 C 
BRANCH   5   6
ATOM      6  C   UNL     1      -8.979 -16.052  17.539  1.00  0.00    -0.000 C 
BRANCH   6   7
ATOM      7  C   UNL     1      -9.872 -17.173  18.099  1.00  0.00    -0.000 C 
BRANCH   7   8
ATOM      8  C   UNL     1      -9.666 -18.555  17.450  1.00  0.00    -0.000 C 
BRANCH   8   9
ATOM      9  C   UNL     1      -8.233 -18.840  16.957  1.00  0.00    -0.000 C 
BRANCH   9  10
ATOM     10  C   UNL     1      -8.143 -19.657  15.656  1.00  0.00    -0.000 C 
BRANCH  10  11
ATOM     11  C   UNL     1      -7.074 -19.123  14.690  1.00  0.00    -0.003 C 
ATOM     12  C   UNL     1      -5.954 -20.139  14.493  1.00  0.00     0.004 C 
ENDBRANCH  10  11
ENDBRANCH   9  10
ENDBRANCH   8   9
ENDBRANCH   7   8
ENDBRANCH   6   7
ENDBRANCH   5   6
ENDBRANCH   4   5
ENDBRANCH   3   4
ENDBRANCH   2   3
ENDBRANCH   1   2
BRANCH   1  13
ATOM     13  C   UNL     1      -7.533 -12.130  22.345  1.00  0.00     0.000 C 
BRANCH  13  14
ATOM     14  C   UNL     1      -6.468 -12.248  23.447  1.00  0.00     0.000 C 
BRANCH  14  15
ATOM     15  C   UNL     1      -7.056 -12.101  24.862  1.00  0.00     0.000 C 
BRANCH  15  16
ATOM     16  C   UNL     1      -6.310 -12.900  25.947  1.00  0.00     0.000 C 
BRANCH  16  17
ATOM     17  C   UNL     1      -5.483 -14.058  25.362  1.00  0.00     0.000 C 
BRANCH  17  18
ATOM     18  C   UNL     1      -4.772 -14.876  26.452  1.00  0.00     0.000 C 
BRANCH  18  19
ATOM     19  C   UNL     1      -4.405 -16.290  25.976  1.00  0.00     0.000 C 
BRANCH  19  20
ATOM     20  C   UNL     1      -5.584 -17.252  26.159  1.00  0.00     0.006 C 
BRANCH  20  21
ATOM     21  C   UNL     1      -5.349 -18.561  25.401  1.00  0.00     0.053 C 
BRANCH  21  22
ATOM     22  C   UNL     1      -5.505 -18.349  23.928  1.00  0.00     0.041 C 
ATOM     23  O   UNL     1      -6.581 -18.660  23.356  1.00  0.00    -0.550 OA
ATOM     24  O   UNL     1      -4.488 -17.748  23.198  1.00  0.00    -0.550 OA
ENDBRANCH  21  22
ENDBRANCH  20  21
ENDBRANCH  19  20
ENDBRANCH  18  19
ENDBRANCH  17  18
ENDBRANCH  16  17
ENDBRANCH  15  16
ENDBRANCH  14  15
ENDBRANCH  13  14
ENDBRANCH   1  13
TORSDOF 20
ENDMDL
MODEL 5
REMARK VINA RESULT:    21.885      4.328     10.507
REMARK INTER + INTRA:          46.550
REMARK INTER:                  47.389
REMARK INTRA:                  -0.839
REMARK UNBOUND:                -0.923
REMARK SMILES CCCCCCCCCCCCCCCCCCCCCC(=O)[O-]
REMARK SMILES IDX 12 1 11 2 10 3 9 4 8 5 7 6 6 7 5 8 4 9 3 10 2 11 1 12 13 13
REMARK SMILES IDX 14 14 15 15 16 16 17 17 18 18 19 19 20 20 21 21 22 22 23 23
REMARK SMILES IDX 24 24
REMARK H PARENT
REMARK Flexibility Score: inf
ROOT
ATOM      1  C   UNL     1      -7.014 -12.911  23.003  1.00  0.00     0.000 C 
ENDROOT
BRANCH   1   2
ATOM      2  C   UNL     1      -6.607 -12.115  24.254  1.00  0.00     0.000 C 
BRANCH   2   3
ATOM      3  C   UNL     1      -5.932 -10.778  23.911  1.00  0.00     0.000 C 
BRANCH   3   4
ATOM      4  C   UNL     1      -5.961  -9.783  25.084  1.00  0.00    -0.000 C 
BRANCH   4   5
ATOM      5  C   UNL     1      -4.765  -8.806  25.059  1.00  0.00    -0.000 C 
BRANCH   5   6
ATOM      6  C   UNL     1      -4.670  -7.971  23.768  1.00  0.00    -0.000 C 
BRANCH   6   7
ATOM      7  C   UNL     1      -3.288  -7.353  23.493  1.00  0.00    -0.000 C 
BRANCH   7   8
ATOM      8  C   UNL     1      -2.111  -8.347  23.536  1.00  0.00    -0.000 C 
BRANCH   8   9
ATOM      9  C   UNL     1      -1.049  -8.059  24.616  1.00  0.00    -0.000 C 
BRANCH   9  10
ATOM     10  C   UNL     1      -0.717  -9.247  25.535  1.00  0.00    -0.000 C 
BRANCH  10  11
ATOM     11  C   UNL     1       0.230  -8.866  26.683  1.00  0.00    -0.003 C 
ATOM     12  C   UNL     1       0.719  -7.428  26.539  1.00  0.00     0.004 C 
ENDBRANCH  10  11
ENDBRANCH   9  10
ENDBRANCH   8   9
ENDBRANCH   7   8
ENDBRANCH   6   7
ENDBRANCH   5   6
ENDBRANCH   4   5
ENDBRANCH   3   4
ENDBRANCH   2   3
ENDBRANCH   1   2
BRANCH   1  13
ATOM     13  C   UNL     1      -7.735 -12.012  21.992  1.00  0.00     0.000 C 
BRANCH  13  14
ATOM     14  C   UNL     1      -8.931 -12.740  21.359  1.00  0.00     0.000 C 
BRANCH  14  15
ATOM     15  C   UNL     1      -8.522 -14.026  20.619  1.00  0.00     0.000 C 
BRANCH  15  16
ATOM     16  C   UNL     1      -8.194 -13.826  19.128  1.00  0.00     0.000 C 
BRANCH  16  17
ATOM     17  C   UNL     1      -9.394 -13.294  18.326  1.00  0.00     0.000 C 
BRANCH  17  18
ATOM     18  C   UNL     1     -10.084 -14.397  17.508  1.00  0.00     0.000 C 
BRANCH  18  19
ATOM     19  C   UNL     1      -9.169 -15.607  17.269  1.00  0.00     0.000 C 
BRANCH  19  20
ATOM     20  C   UNL     1      -9.379 -16.674  18.350  1.00  0.00     0.006 C 
BRANCH  20  21
ATOM     21  C   UNL     1     -10.144 -17.878  17.794  1.00  0.00     0.053 C 
BRANCH  21  22
ATOM     22  C   UNL     1      -9.228 -18.765  17.011  1.00  0.00     0.041 C 
ATOM     23  O   UNL     1      -7.985 -18.711  17.198  1.00  0.00    -0.550 OA
ATOM     24  O   UNL     1      -9.749 -19.696  16.122  1.00  0.00    -0.550 OA
ENDBRANCH  21  22
ENDBRANCH  20  21
ENDBRANCH  19  20
ENDBRANCH  18  19
ENDBRANCH  17  18
ENDBRANCH  16  17
ENDBRANCH  15  16
ENDBRANCH  14  15
ENDBRANCH  13  14
ENDBRANCH   1  13
TORSDOF 20
ENDMDL
MODEL 6
REMARK VINA RESULT:    22.204      1.037      2.179
REMARK INTER + INTRA:          47.242
REMARK INTER:                  47.454
REMARK INTRA:                  -0.212
REMARK UNBOUND:                -0.923
REMARK SMILES CCCCCCCCCCCCCCCCCCCCCC(=O)[O-]
REMARK SMILES IDX 12 1 11 2 10 3 9 4 8 5 7 6 6 7 5 8 4 9 3 10 2 11 1 12 13 13
REMARK SMILES IDX 14 14 15 15 16 16 17 17 18 18 19 19 20 20 21 21 22 22 23 23
REMARK SMILES IDX 24 24
REMARK H PARENT
REMARK Flexibility Score: inf
ROOT
ATOM      1  C   UNL     1      -7.200 -12.949  22.863  1.00  0.00     0.000 C 
ENDROOT
BRANCH   1   2
ATOM      2  C   UNL     1      -8.070 -12.398  21.723  1.00  0.00     0.000 C 
BRANCH   2   3
ATOM      3  C   UNL     1      -9.004 -13.461  21.125  1.00  0.00     0.000 C 
BRANCH   3   4
ATOM      4  C   UNL     1      -8.421 -14.117  19.861  1.00  0.00    -0.000 C 
BRANCH   4   5
ATOM      5  C   UNL     1      -8.908 -13.436  18.563  1.00  0.00    -0.000 C 
BRANCH   5   6
ATOM      6  C   UNL     1      -9.135 -14.414  17.394  1.00  0.00    -0.000 C 
BRANCH   6   7
ATOM      7  C   UNL     1      -9.982 -15.652  17.737  1.00  0.00    -0.000 C 
BRANCH   7   8
ATOM      8  C   UNL     1      -9.195 -16.974  17.827  1.00  0.00    -0.000 C 
BRANCH   8   9
ATOM      9  C   UNL     1     -10.027 -18.249  17.589  1.00  0.00    -0.000 C 
BRANCH   9  10
ATOM     10  C   UNL     1      -9.220 -19.477  17.133  1.00  0.00    -0.000 C 
BRANCH  10  11
ATOM     11  C   UNL     1      -8.153 -19.133  16.083  1.00  0.00    -0.003 C 
ATOM     12  C   UNL     1      -6.753 -19.466  16.591  1.00  0.00     0.004 C 
ENDBRANCH  10  11
ENDBRANCH   9  10
ENDBRANCH   8   9
ENDBRANCH   7   8
ENDBRANCH   6   7
ENDBRANCH   5   6
ENDBRANCH   4   5
ENDBRANCH   3   4
ENDBRANCH   2   3
ENDBRANCH   1   2
BRANCH   1  13
ATOM     13  C   UNL     1      -6.348 -11.838  23.489  1.00  0.00     0.000 C 
BRANCH  13  14
ATOM     14  C   UNL     1      -6.663 -11.674  24.984  1.00  0.00     0.000 C 
BRANCH  14  15
ATOM     15  C   UNL     1      -6.515 -12.988  25.772  1.00  0.00     0.000 C 
BRANCH  15  16
ATOM     16  C   UNL     1      -5.334 -13.868  25.325  1.00  0.00     0.000 C 
BRANCH  16  17
ATOM     17  C   UNL     1      -4.785 -14.741  26.466  1.00  0.00     0.000 C 
BRANCH  17  18
ATOM     18  C   UNL     1      -5.472 -16.115  26.533  1.00  0.00     0.000 C 
BRANCH  18  19
ATOM     19  C   UNL     1      -4.614 -17.229  25.914  1.00  0.00     0.000 C 
BRANCH  19  20
ATOM     20  C   UNL     1      -5.363 -18.566  25.924  1.00  0.00     0.006 C 
BRANCH  20  21
ATOM     21  C   UNL     1      -5.798 -18.963  24.510  1.00  0.00     0.053 C 
BRANCH  21  22
ATOM     22  C   UNL     1      -5.258 -17.996  23.505  1.00  0.00     0.041 C 
ATOM     23  O   UNL     1      -4.016 -17.880  23.345  1.00  0.00    -0.550 OA
ATOM     24  O   UNL     1      -6.125 -17.272  22.697  1.00  0.00    -0.550 OA
ENDBRANCH  21  22
ENDBRANCH  20  21
ENDBRANCH  19  20
ENDBRANCH  18  19
ENDBRANCH  17  18
ENDBRANCH  16  17
ENDBRANCH  15  16
ENDBRANCH  14  15
ENDBRANCH  13  14
ENDBRANCH   1  13
TORSDOF 20
ENDMDL
MODEL 7
REMARK VINA RESULT:    22.217      3.003      8.881
REMARK INTER + INTRA:          47.270
REMARK INTER:                  48.073
REMARK INTRA:                  -0.803
REMARK UNBOUND:                -0.923
REMARK SMILES CCCCCCCCCCCCCCCCCCCCCC(=O)[O-]
REMARK SMILES IDX 12 1 11 2 10 3 9 4 8 5 7 6 6 7 5 8 4 9 3 10 2 11 1 12 13 13
REMARK SMILES IDX 14 14 15 15 16 16 17 17 18 18 19 19 20 20 21 21 22 22 23 23
REMARK SMILES IDX 24 24
REMARK H PARENT
REMARK Flexibility Score: inf
ROOT
ATOM      1  C   UNL     1      -9.129 -14.315  20.091  1.00  0.00     0.000 C 
ENDROOT
BRANCH   1   2
ATOM      2  C   UNL     1      -9.106 -13.272  21.220  1.00  0.00     0.000 C 
BRANCH   2   3
ATOM      3  C   UNL     1      -7.683 -12.809  21.568  1.00  0.00     0.000 C 
BRANCH   3   4
ATOM      4  C   UNL     1      -7.594 -12.167  22.964  1.00  0.00    -0.000 C 
BRANCH   4   5
ATOM      5  C   UNL     1      -6.302 -12.561  23.714  1.00  0.00    -0.000 C 
BRANCH   5   6
ATOM      6  C   UNL     1      -6.382 -12.360  25.240  1.00  0.00    -0.000 C 
BRANCH   6   7
ATOM      7  C   UNL     1      -6.238 -13.645  26.073  1.00  0.00    -0.000 C 
BRANCH   7   8
ATOM      8  C   UNL     1      -4.931 -14.427  25.841  1.00  0.00    -0.000 C 
BRANCH   8   9
ATOM      9  C   UNL     1      -4.941 -15.884  26.345  1.00  0.00    -0.000 C 
BRANCH   9  10
ATOM     10  C   UNL     1      -4.512 -16.935  25.307  1.00  0.00    -0.000 C 
BRANCH  10  11
ATOM     11  C   UNL     1      -5.386 -18.198  25.342  1.00  0.00    -0.003 C 
ATOM     12  C   UNL     1      -5.815 -18.610  23.937  1.00  0.00     0.004 C 
ENDBRANCH  10  11
ENDBRANCH   9  10
ENDBRANCH   8   9
ENDBRANCH   7   8
ENDBRANCH   6   7
ENDBRANCH   5   6
ENDBRANCH   4   5
ENDBRANCH   3   4
ENDBRANCH   2   3
ENDBRANCH   1   2
BRANCH   1  13
ATOM     13  C   UNL     1      -8.270 -13.858  18.906  1.00  0.00     0.000 C 
BRANCH  13  14
ATOM     14  C   UNL     1      -9.103 -13.781  17.616  1.00  0.00     0.000 C 
BRANCH  14  15
ATOM     15  C   UNL     1      -9.940 -15.048  17.370  1.00  0.00     0.000 C 
BRANCH  15  16
ATOM     16  C   UNL     1      -9.146 -16.364  17.466  1.00  0.00     0.000 C 
BRANCH  16  17
ATOM     17  C   UNL     1      -9.998 -17.529  17.998  1.00  0.00     0.000 C 
BRANCH  17  18
ATOM     18  C   UNL     1      -9.704 -18.849  17.268  1.00  0.00     0.000 C 
BRANCH  18  19
ATOM     19  C   UNL     1      -8.199 -19.144  17.177  1.00  0.00     0.000 C 
BRANCH  19  20
ATOM     20  C   UNL     1      -7.721 -19.106  15.722  1.00  0.00     0.006 C 
BRANCH  20  21
ATOM     21  C   UNL     1      -6.318 -19.706  15.587  1.00  0.00     0.053 C 
BRANCH  21  22
ATOM     22  C   UNL     1      -5.929 -19.814  14.147  1.00  0.00     0.041 C 
ATOM     23  O   UNL     1      -6.179 -18.870  13.354  1.00  0.00    -0.550 OA
ATOM     24  O   UNL     1      -5.233 -20.926  13.693  1.00  0.00    -0.550 OA
ENDBRANCH  21  22
ENDBRANCH  20  21
ENDBRANCH  19  20
ENDBRANCH  18  19
ENDBRANCH  17  18
ENDBRANCH  16  17
ENDBRANCH  15  16
ENDBRANCH  14  15
ENDBRANCH  13  14
ENDBRANCH   1  13
TORSDOF 20
ENDMDL
MODEL 8
REMARK VINA RESULT:    22.247      4.080     10.457
REMARK INTER + INTRA:          47.336
REMARK INTER:                  48.113
REMARK INTRA:                  -0.778
REMARK UNBOUND:                -0.923
REMARK SMILES CCCCCCCCCCCCCCCCCCCCCC(=O)[O-]
REMARK SMILES IDX 12 1 11 2 10 3 9 4 8 5 7 6 6 7 5 8 4 9 3 10 2 11 1 12 13 13
REMARK SMILES IDX 14 14 15 15 16 16 17 17 18 18 19 19 20 20 21 21 22 22 23 23
REMARK SMILES IDX 24 24
REMARK H PARENT
REMARK Flexibility Score: inf
ROOT
ATOM      1  C   UNL     1      -7.702 -13.434  21.887  1.00  0.00     0.000 C 
ENDROOT
BRANCH   1   2
ATOM      2  C   UNL     1      -7.281 -12.147  22.612  1.00  0.00     0.000 C 
BRANCH   2   3
ATOM      3  C   UNL     1      -6.276 -12.407  23.745  1.00  0.00     0.000 C 
BRANCH   3   4
ATOM      4  C   UNL     1      -6.310 -11.314  24.829  1.00  0.00    -0.000 C 
BRANCH   4   5
ATOM      5  C   UNL     1      -5.821  -9.946  24.303  1.00  0.00    -0.000 C 
BRANCH   5   6
ATOM      6  C   UNL     1      -5.540  -8.917  25.415  1.00  0.00    -0.000 C 
BRANCH   6   7
ATOM      7  C   UNL     1      -4.137  -8.285  25.376  1.00  0.00    -0.000 C 
BRANCH   7   8
ATOM      8  C   UNL     1      -3.086  -9.083  24.581  1.00  0.00    -0.000 C 
BRANCH   8   9
ATOM      9  C   UNL     1      -2.028  -8.230  23.853  1.00  0.00    -0.000 C 
BRANCH   9  10
ATOM     10  C   UNL     1      -0.755  -7.938  24.667  1.00  0.00    -0.000 C 
BRANCH  10  11
ATOM     11  C   UNL     1      -0.560  -8.913  25.838  1.00  0.00    -0.003 C 
ATOM     12  C   UNL     1       0.532  -8.425  26.785  1.00  0.00     0.004 C 
ENDBRANCH  10  11
ENDBRANCH   9  10
ENDBRANCH   8   9
ENDBRANCH   7   8
ENDBRANCH   6   7
ENDBRANCH   5   6
ENDBRANCH   4   5
ENDBRANCH   3   4
ENDBRANCH   2   3
ENDBRANCH   1   2
BRANCH   1  13
ATOM     13  C   UNL     1      -8.974 -13.208  21.062  1.00  0.00     0.000 C 
BRANCH  13  14
ATOM     14  C   UNL     1      -9.103 -14.254  19.945  1.00  0.00     0.000 C 
BRANCH  14  15
ATOM     15  C   UNL     1      -8.773 -13.685  18.553  1.00  0.00     0.000 C 
BRANCH  15  16
ATOM     16  C   UNL     1      -8.504 -14.752  17.476  1.00  0.00     0.000 C 
BRANCH  16  17
ATOM     17  C   UNL     1      -9.653 -15.768  17.354  1.00  0.00     0.000 C 
BRANCH  17  18
ATOM     18  C   UNL     1      -9.370 -17.065  18.128  1.00  0.00     0.000 C 
BRANCH  18  19
ATOM     19  C   UNL     1     -10.166 -18.259  17.579  1.00  0.00     0.000 C 
BRANCH  19  20
ATOM     20  C   UNL     1      -9.242 -19.246  16.856  1.00  0.00     0.006 C 
BRANCH  20  21
ATOM     21  C   UNL     1      -7.812 -18.704  16.777  1.00  0.00     0.053 C 
BRANCH  21  22
ATOM     22  C   UNL     1      -7.033 -19.431  15.727  1.00  0.00     0.041 C 
ATOM     23  O   UNL     1      -7.259 -19.212  14.509  1.00  0.00    -0.550 OA
ATOM     24  O   UNL     1      -6.013 -20.300  16.091  1.00  0.00    -0.550 OA
ENDBRANCH  21  22
ENDBRANCH  20  21
ENDBRANCH  19  20
ENDBRANCH  18  19
ENDBRANCH  17  18
ENDBRANCH  16  17
ENDBRANCH  15  16
ENDBRANCH  14  15
ENDBRANCH  13  14
ENDBRANCH   1  13
TORSDOF 20
ENDMDL
MODEL 9
REMARK VINA RESULT:    22.672      4.329     10.098
REMARK INTER + INTRA:          48.257
REMARK INTER:                  48.910
REMARK INTRA:                  -0.654
REMARK UNBOUND:                -0.923
REMARK SMILES CCCCCCCCCCCCCCCCCCCCCC(=O)[O-]
REMARK SMILES IDX 12 1 11 2 10 3 9 4 8 5 7 6 6 7 5 8 4 9 3 10 2 11 1 12 13 13
REMARK SMILES IDX 14 14 15 15 16 16 17 17 18 18 19 19 20 20 21 21 22 22 23 23
REMARK SMILES IDX 24 24
REMARK H PARENT
REMARK Flexibility Score: inf
ROOT
ATOM      1  C   UNL     1      -7.498 -13.111  21.889  1.00  0.00     0.000 C 
ENDROOT
BRANCH   1   2
ATOM      2  C   UNL     1      -7.572 -12.143  23.081  1.00  0.00     0.000 C 
BRANCH   2   3
ATOM      3  C   UNL     1      -6.238 -12.033  23.837  1.00  0.00     0.000 C 
BRANCH   3   4
ATOM      4  C   UNL     1      -6.310 -11.056  25.023  1.00  0.00    -0.000 C 
BRANCH   4   5
ATOM      5  C   UNL     1      -5.994  -9.601  24.609  1.00  0.00    -0.000 C 
BRANCH   5   6
ATOM      6  C   UNL     1      -4.729  -9.026  25.275  1.00  0.00    -0.000 C 
BRANCH   6   7
ATOM      7  C   UNL     1      -3.834  -8.183  24.351  1.00  0.00    -0.000 C 
BRANCH   7   8
ATOM      8  C   UNL     1      -2.410  -8.735  24.144  1.00  0.00    -0.000 C 
BRANCH   8   9
ATOM      9  C   UNL     1      -1.475  -7.839  23.308  1.00  0.00    -0.000 C 
BRANCH   9  10
ATOM     10  C   UNL     1      -1.725  -7.874  21.790  1.00  0.00    -0.000 C 
BRANCH  10  11
ATOM     11  C   UNL     1      -2.961  -7.064  21.371  1.00  0.00    -0.003 C 
ATOM     12  C   UNL     1      -3.191  -7.149  19.865  1.00  0.00     0.004 C 
ENDBRANCH  10  11
ENDBRANCH   9  10
ENDBRANCH   8   9
ENDBRANCH   7   8
ENDBRANCH   6   7
ENDBRANCH   5   6
ENDBRANCH   4   5
ENDBRANCH   3   4
ENDBRANCH   2   3
ENDBRANCH   1   2
BRANCH   1  13
ATOM     13  C   UNL     1      -8.787 -13.057  21.059  1.00  0.00     0.000 C 
BRANCH  13  14
ATOM     14  C   UNL     1      -8.962 -14.335  20.224  1.00  0.00     0.000 C 
BRANCH  14  15
ATOM     15  C   UNL     1      -8.722 -14.103  18.722  1.00  0.00     0.000 C 
BRANCH  15  16
ATOM     16  C   UNL     1      -9.727 -14.817  17.799  1.00  0.00     0.000 C 
BRANCH  16  17
ATOM     17  C   UNL     1      -9.152 -16.104  17.185  1.00  0.00     0.000 C 
BRANCH  17  18
ATOM     18  C   UNL     1      -9.845 -17.368  17.719  1.00  0.00     0.000 C 
BRANCH  18  19
ATOM     19  C   UNL     1      -9.075 -18.650  17.368  1.00  0.00     0.000 C 
BRANCH  19  20
ATOM     20  C   UNL     1      -7.809 -18.326  16.568  1.00  0.00     0.006 C 
BRANCH  20  21
ATOM     21  C   UNL     1      -6.868 -19.534  16.515  1.00  0.00     0.053 C 
BRANCH  21  22
ATOM     22  C   UNL     1      -6.571 -19.904  15.096  1.00  0.00     0.041 C 
ATOM     23  O   UNL     1      -5.718 -20.793  14.842  1.00  0.00    -0.550 OA
ATOM     24  O   UNL     1      -7.282 -19.318  14.058  1.00  0.00    -0.550 OA
ENDBRANCH  21  22
ENDBRANCH  20  21
ENDBRANCH  19  20
ENDBRANCH  18  19
ENDBRANCH  17  18
ENDBRANCH  16  17
ENDBRANCH  15  16
ENDBRANCH  14  15
ENDBRANCH  13  14
ENDBRANCH   1  13
TORSDOF 20
ENDMDL
