MODEL 1
REMARK VINA RESULT:    -6.892      0.000      0.000
REMARK INTER + INTRA:          -8.378
REMARK INTER:                  -8.101
REMARK INTRA:                  -0.277
REMARK UNBOUND:                -0.277
REMARK SMILES O=c1cc(-c2ccc(O)c(O)c2)oc2cc(O)cc(O)c12
REMARK SMILES IDX 4 1 3 2 2 3 1 4 21 5 19 6 18 7 16 8 15 9 14 10 13 11 5 12
REMARK SMILES IDX 6 13 7 14 8 15 12 16 10 17 9 18 11 20 20 22 17 24
REMARK H PARENT 9 19 11 21 20 23 17 25
REMARK Flexibility Score: inf
ROOT
ATOM      1  C   UNL     1     169.151 143.623 154.117  1.00  0.00     0.138 A 
ATOM      2  C   UNL     1     169.162 144.956 153.684  1.00  0.00     0.100 A 
ATOM      3  C   UNL     1     169.518 145.250 152.367  1.00  0.00     0.197 A 
ATOM      4  O   UNL     1     169.579 146.460 152.025  1.00  0.00    -0.289 OA
ATOM      5  C   UNL     1     169.836 144.201 151.473  1.00  0.00     0.107 A 
ATOM      6  C   UNL     1     170.175 144.379 150.098  1.00  0.00     0.134 A 
ATOM      7  C   UNL     1     170.584 143.275 149.339  1.00  0.00     0.093 A 
ATOM      8  C   UNL     1     170.608 141.993 149.887  1.00  0.00     0.123 A 
ATOM      9  C   UNL     1     170.228 141.799 151.216  1.00  0.00     0.094 A 
ATOM     10  C   UNL     1     169.848 142.885 152.008  1.00  0.00     0.146 A 
ATOM     11  O   UNL     1     169.507 142.660 153.273  1.00  0.00    -0.456 OA
ENDROOT
BRANCH   1  12
ATOM     12  C   UNL     1     168.778 143.254 155.506  1.00  0.00     0.021 A 
ATOM     13  C   UNL     1     167.888 142.191 155.723  1.00  0.00     0.016 A 
ATOM     14  C   UNL     1     167.517 141.829 157.019  1.00  0.00     0.051 A 
ATOM     15  C   UNL     1     168.017 142.522 158.125  1.00  0.00     0.157 A 
ATOM     16  C   UNL     1     169.271 143.962 156.618  1.00  0.00     0.062 A 
ATOM     17  C   UNL     1     168.901 143.607 157.923  1.00  0.00     0.158 A 
BRANCH  15  18
ATOM     18  O   UNL     1     167.611 142.106 159.395  1.00  0.00    -0.504 OA
ATOM     19  H   UNL     1     168.136 142.278 160.240  1.00  0.00     0.293 HD
ENDBRANCH  15  18
BRANCH  17  20
ATOM     20  O   UNL     1     169.429 144.356 158.976  1.00  0.00    -0.504 OA
ATOM     21  H   UNL     1     170.034 143.979 159.690  1.00  0.00     0.293 HD
ENDBRANCH  17  20
ENDBRANCH   1  12
BRANCH   6  22
ATOM     22  O   UNL     1     170.101 145.604 149.428  1.00  0.00    -0.507 OA
ATOM     23  H   UNL     1     170.509 146.466 149.756  1.00  0.00     0.293 HD
ENDBRANCH   6  22
BRANCH   8  24
ATOM     24  O   UNL     1     171.007 140.917 149.099  1.00  0.00    -0.508 OA
ATOM     25  H   UNL     1     171.205 140.008 149.502  1.00  0.00     0.293 HD
ENDBRANCH   8  24
TORSDOF 5
ENDMDL
MODEL 2
REMARK VINA RESULT:    -6.882      1.903      3.786
REMARK INTER + INTRA:          -8.366
REMARK INTER:                  -8.071
REMARK INTRA:                  -0.295
REMARK UNBOUND:                -0.277
REMARK SMILES O=c1cc(-c2ccc(O)c(O)c2)oc2cc(O)cc(O)c12
REMARK SMILES IDX 4 1 3 2 2 3 1 4 21 5 19 6 18 7 16 8 15 9 14 10 13 11 5 12
REMARK SMILES IDX 6 13 7 14 8 15 12 16 10 17 9 18 11 20 20 22 17 24
REMARK H PARENT 9 19 11 21 20 23 17 25
REMARK Flexibility Score: inf
ROOT
ATOM      1  C   UNL     1     170.134 143.519 152.055  1.00  0.00     0.138 A 
ATOM      2  C   UNL     1     170.686 142.269 151.744  1.00  0.00     0.100 A 
ATOM      3  C   UNL     1     171.418 142.112 150.565  1.00  0.00     0.197 A 
ATOM      4  O   UNL     1     171.848 140.964 150.282  1.00  0.00    -0.289 OA
ATOM      5  C   UNL     1     171.620 143.222 149.710  1.00  0.00     0.107 A 
ATOM      6  C   UNL     1     172.381 143.189 148.503  1.00  0.00     0.134 A 
ATOM      7  C   UNL     1     172.416 144.321 147.679  1.00  0.00     0.093 A 
ATOM      8  C   UNL     1     171.769 145.500 148.046  1.00  0.00     0.123 A 
ATOM      9  C   UNL     1     171.066 145.560 149.249  1.00  0.00     0.094 A 
ATOM     10  C   UNL     1     170.984 144.437 150.077  1.00  0.00     0.146 A 
ATOM     11  O   UNL     1     170.292 144.531 151.209  1.00  0.00    -0.456 OA
ENDROOT
BRANCH   1  12
ATOM     12  C   UNL     1     169.350 143.741 153.296  1.00  0.00     0.021 A 
ATOM     13  C   UNL     1     169.065 145.053 153.707  1.00  0.00     0.016 A 
ATOM     14  C   UNL     1     168.335 145.288 154.874  1.00  0.00     0.051 A 
ATOM     15  C   UNL     1     167.881 144.224 155.660  1.00  0.00     0.157 A 
ATOM     16  C   UNL     1     168.906 142.670 154.094  1.00  0.00     0.062 A 
ATOM     17  C   UNL     1     168.176 142.897 155.268  1.00  0.00     0.158 A 
BRANCH  15  18
ATOM     18  O   UNL     1     167.152 144.527 156.811  1.00  0.00    -0.504 OA
ATOM     19  H   UNL     1     166.346 145.135 156.825  1.00  0.00     0.293 HD
ENDBRANCH  15  18
BRANCH  17  20
ATOM     20  O   UNL     1     167.770 141.786 156.009  1.00  0.00    -0.504 OA
ATOM     21  H   UNL     1     167.189 141.045 155.644  1.00  0.00     0.293 HD
ENDBRANCH  17  20
ENDBRANCH   1  12
BRANCH   6  22
ATOM     22  O   UNL     1     173.136 142.089 148.086  1.00  0.00    -0.507 OA
ATOM     23  H   UNL     1     173.537 141.980 147.167  1.00  0.00     0.293 HD
ENDBRANCH   6  22
BRANCH   8  24
ATOM     24  O   UNL     1     171.837 146.610 147.208  1.00  0.00    -0.508 OA
ATOM     25  H   UNL     1     171.164 147.365 147.271  1.00  0.00     0.293 HD
ENDBRANCH   8  24
TORSDOF 5
ENDMDL
MODEL 3
REMARK VINA RESULT:    -6.780      1.797      6.987
REMARK INTER + INTRA:          -8.246
REMARK INTER:                  -7.952
REMARK INTRA:                  -0.295
REMARK UNBOUND:                -0.277
REMARK SMILES O=c1cc(-c2ccc(O)c(O)c2)oc2cc(O)cc(O)c12
REMARK SMILES IDX 4 1 3 2 2 3 1 4 21 5 19 6 18 7 16 8 15 9 14 10 13 11 5 12
REMARK SMILES IDX 6 13 7 14 8 15 12 16 10 17 9 18 11 20 20 22 17 24
REMARK H PARENT 9 19 11 21 20 23 17 25
REMARK Flexibility Score: inf
ROOT
ATOM      1  C   UNL     1     170.021 144.556 152.500  1.00  0.00     0.138 A 
ATOM      2  C   UNL     1     170.459 145.546 153.391  1.00  0.00     0.100 A 
ATOM      3  C   UNL     1     170.142 145.443 154.746  1.00  0.00     0.197 A 
ATOM      4  O   UNL     1     170.495 146.378 155.511  1.00  0.00    -0.289 OA
ATOM      5  C   UNL     1     169.407 144.328 155.214  1.00  0.00     0.107 A 
ATOM      6  C   UNL     1     169.060 144.099 156.580  1.00  0.00     0.134 A 
ATOM      7  C   UNL     1     168.231 143.018 156.909  1.00  0.00     0.093 A 
ATOM      8  C   UNL     1     167.786 142.128 155.932  1.00  0.00     0.123 A 
ATOM      9  C   UNL     1     168.163 142.312 154.602  1.00  0.00     0.094 A 
ATOM     10  C   UNL     1     168.961 143.399 154.237  1.00  0.00     0.146 A 
ATOM     11  O   UNL     1     169.286 143.548 152.956  1.00  0.00    -0.456 OA
ENDROOT
BRANCH   1  12
ATOM     12  C   UNL     1     170.332 144.615 151.049  1.00  0.00     0.021 A 
ATOM     13  C   UNL     1     170.156 143.469 150.259  1.00  0.00     0.016 A 
ATOM     14  C   UNL     1     170.448 143.497 148.894  1.00  0.00     0.051 A 
ATOM     15  C   UNL     1     170.929 144.662 148.290  1.00  0.00     0.157 A 
ATOM     16  C   UNL     1     170.830 145.785 150.446  1.00  0.00     0.062 A 
ATOM     17  C   UNL     1     171.128 145.821 149.077  1.00  0.00     0.158 A 
BRANCH  15  18
ATOM     18  O   UNL     1     171.196 144.626 146.920  1.00  0.00    -0.504 OA
ATOM     19  H   UNL     1     170.488 144.508 146.209  1.00  0.00     0.293 HD
ENDBRANCH  15  18
BRANCH  17  20
ATOM     20  O   UNL     1     171.620 147.016 148.548  1.00  0.00    -0.504 OA
ATOM     21  H   UNL     1     172.366 147.069 147.870  1.00  0.00     0.293 HD
ENDBRANCH  17  20
ENDBRANCH   1  12
BRANCH   6  22
ATOM     22  O   UNL     1     169.522 144.878 157.644  1.00  0.00    -0.507 OA
ATOM     23  H   UNL     1     170.466 144.870 157.998  1.00  0.00     0.293 HD
ENDBRANCH   6  22
BRANCH   8  24
ATOM     24  O   UNL     1     166.975 141.057 156.299  1.00  0.00    -0.508 OA
ATOM     25  H   UNL     1     167.125 140.126 155.927  1.00  0.00     0.293 HD
ENDBRANCH   8  24
TORSDOF 5
ENDMDL
MODEL 4
REMARK VINA RESULT:    -6.717      1.991      2.936
REMARK INTER + INTRA:          -8.173
REMARK INTER:                  -7.878
REMARK INTRA:                  -0.295
REMARK UNBOUND:                -0.277
REMARK SMILES O=c1cc(-c2ccc(O)c(O)c2)oc2cc(O)cc(O)c12
REMARK SMILES IDX 4 1 3 2 2 3 1 4 21 5 19 6 18 7 16 8 15 9 14 10 13 11 5 12
REMARK SMILES IDX 6 13 7 14 8 15 12 16 10 17 9 18 11 20 20 22 17 24
REMARK H PARENT 9 19 11 21 20 23 17 25
REMARK Flexibility Score: inf
ROOT
ATOM      1  C   UNL     1     169.951 143.848 152.143  1.00  0.00     0.138 A 
ATOM      2  C   UNL     1     169.610 144.677 151.066  1.00  0.00     0.100 A 
ATOM      3  C   UNL     1     170.316 144.575 149.867  1.00  0.00     0.197 A 
ATOM      4  O   UNL     1     170.029 145.376 148.939  1.00  0.00    -0.289 OA
ATOM      5  C   UNL     1     171.349 143.617 149.738  1.00  0.00     0.107 A 
ATOM      6  C   UNL     1     172.109 143.397 148.549  1.00  0.00     0.134 A 
ATOM      7  C   UNL     1     173.184 142.499 148.575  1.00  0.00     0.093 A 
ATOM      8  C   UNL     1     173.489 141.771 149.725  1.00  0.00     0.123 A 
ATOM      9  C   UNL     1     172.719 141.939 150.876  1.00  0.00     0.094 A 
ATOM     10  C   UNL     1     171.661 142.852 150.893  1.00  0.00     0.146 A 
ATOM     11  O   UNL     1     170.961 142.993 152.014  1.00  0.00    -0.456 OA
ENDROOT
BRANCH   1  12
ATOM     12  C   UNL     1     169.232 143.913 153.441  1.00  0.00     0.021 A 
ATOM     13  C   UNL     1     168.920 145.164 153.995  1.00  0.00     0.016 A 
ATOM     14  C   UNL     1     168.250 145.251 155.217  1.00  0.00     0.051 A 
ATOM     15  C   UNL     1     167.885 144.096 155.916  1.00  0.00     0.157 A 
ATOM     16  C   UNL     1     168.878 142.750 154.150  1.00  0.00     0.062 A 
ATOM     17  C   UNL     1     168.208 142.828 155.378  1.00  0.00     0.158 A 
BRANCH  15  18
ATOM     18  O   UNL     1     167.212 144.253 157.129  1.00  0.00    -0.504 OA
ATOM     19  H   UNL     1     166.318 144.711 157.224  1.00  0.00     0.293 HD
ENDBRANCH  15  18
BRANCH  17  20
ATOM     20  O   UNL     1     167.891 141.633 156.025  1.00  0.00    -0.504 OA
ATOM     21  H   UNL     1     168.304 141.334 156.897  1.00  0.00     0.293 HD
ENDBRANCH  17  20
ENDBRANCH   1  12
BRANCH   6  22
ATOM     22  O   UNL     1     171.836 144.008 147.323  1.00  0.00    -0.507 OA
ATOM     23  H   UNL     1     171.915 143.558 146.424  1.00  0.00     0.293 HD
ENDBRANCH   6  22
BRANCH   8  24
ATOM     24  O   UNL     1     174.556 140.877 149.709  1.00  0.00    -0.508 OA
ATOM     25  H   UNL     1     174.875 140.417 150.554  1.00  0.00     0.293 HD
ENDBRANCH   8  24
TORSDOF 5
ENDMDL
MODEL 5
REMARK VINA RESULT:    -6.689      1.563      7.234
REMARK INTER + INTRA:          -8.139
REMARK INTER:                  -7.845
REMARK INTRA:                  -0.293
REMARK UNBOUND:                -0.277
REMARK SMILES O=c1cc(-c2ccc(O)c(O)c2)oc2cc(O)cc(O)c12
REMARK SMILES IDX 4 1 3 2 2 3 1 4 21 5 19 6 18 7 16 8 15 9 14 10 13 11 5 12
REMARK SMILES IDX 6 13 7 14 8 15 12 16 10 17 9 18 11 20 20 22 17 24
REMARK H PARENT 9 19 11 21 20 23 17 25
REMARK Flexibility Score: inf
ROOT
ATOM      1  C   UNL     1     169.705 143.735 153.855  1.00  0.00     0.138 A 
ATOM      2  C   UNL     1     168.666 142.889 154.265  1.00  0.00     0.100 A 
ATOM      3  C   UNL     1     168.386 142.747 155.626  1.00  0.00     0.197 A 
ATOM      4  O   UNL     1     167.489 141.933 155.966  1.00  0.00    -0.289 OA
ATOM      5  C   UNL     1     169.135 143.481 156.577  1.00  0.00     0.107 A 
ATOM      6  C   UNL     1     168.912 143.447 157.987  1.00  0.00     0.134 A 
ATOM      7  C   UNL     1     169.791 144.127 158.840  1.00  0.00     0.093 A 
ATOM      8  C   UNL     1     170.844 144.887 158.333  1.00  0.00     0.123 A 
ATOM      9  C   UNL     1     171.038 144.970 156.954  1.00  0.00     0.094 A 
ATOM     10  C   UNL     1     170.200 144.276 156.078  1.00  0.00     0.146 A 
ATOM     11  O   UNL     1     170.428 144.370 154.772  1.00  0.00    -0.456 OA
ENDROOT
BRANCH   1  12
ATOM     12  C   UNL     1     170.043 143.923 152.422  1.00  0.00     0.021 A 
ATOM     13  C   UNL     1     170.111 142.805 151.576  1.00  0.00     0.016 A 
ATOM     14  C   UNL     1     170.433 142.956 150.226  1.00  0.00     0.051 A 
ATOM     15  C   UNL     1     170.703 144.220 149.692  1.00  0.00     0.157 A 
ATOM     16  C   UNL     1     170.329 145.194 151.890  1.00  0.00     0.062 A 
ATOM     17  C   UNL     1     170.657 145.354 150.537  1.00  0.00     0.158 A 
BRANCH  15  18
ATOM     18  O   UNL     1     171.013 144.303 148.334  1.00  0.00    -0.504 OA
ATOM     19  H   UNL     1     171.513 143.589 147.824  1.00  0.00     0.293 HD
ENDBRANCH  15  18
BRANCH  17  20
ATOM     20  O   UNL     1     170.929 146.645 150.080  1.00  0.00    -0.504 OA
ATOM     21  H   UNL     1     170.289 147.196 149.527  1.00  0.00     0.293 HD
ENDBRANCH  17  20
ENDBRANCH   1  12
BRANCH   6  22
ATOM     22  O   UNL     1     167.838 142.788 158.592  1.00  0.00    -0.507 OA
ATOM     23  H   UNL     1     166.959 142.584 158.143  1.00  0.00     0.293 HD
ENDBRANCH   6  22
BRANCH   8  24
ATOM     24  O   UNL     1     171.688 145.561 159.211  1.00  0.00    -0.508 OA
ATOM     25  H   UNL     1     171.939 145.169 160.112  1.00  0.00     0.293 HD
ENDBRANCH   8  24
TORSDOF 5
ENDMDL
MODEL 6
REMARK VINA RESULT:    -6.600      1.500      7.033
REMARK INTER + INTRA:          -8.035
REMARK INTER:                  -7.766
REMARK INTRA:                  -0.269
REMARK UNBOUND:                -0.277
REMARK SMILES O=c1cc(-c2ccc(O)c(O)c2)oc2cc(O)cc(O)c12
REMARK SMILES IDX 4 1 3 2 2 3 1 4 21 5 19 6 18 7 16 8 15 9 14 10 13 11 5 12
REMARK SMILES IDX 6 13 7 14 8 15 12 16 10 17 9 18 11 20 20 22 17 24
REMARK H PARENT 9 19 11 21 20 23 17 25
REMARK Flexibility Score: inf
ROOT
ATOM      1  C   UNL     1     170.124 143.882 153.457  1.00  0.00     0.138 A 
ATOM      2  C   UNL     1     171.100 144.657 154.097  1.00  0.00     0.100 A 
ATOM      3  C   UNL     1     171.051 144.823 155.482  1.00  0.00     0.197 A 
ATOM      4  O   UNL     1     171.904 145.575 156.020  1.00  0.00    -0.289 OA
ATOM      5  C   UNL     1     170.034 144.184 156.231  1.00  0.00     0.107 A 
ATOM      6  C   UNL     1     169.909 144.250 157.652  1.00  0.00     0.134 A 
ATOM      7  C   UNL     1     168.795 143.671 158.273  1.00  0.00     0.093 A 
ATOM      8  C   UNL     1     167.836 142.980 157.534  1.00  0.00     0.123 A 
ATOM      9  C   UNL     1     167.976 142.864 156.151  1.00  0.00     0.094 A 
ATOM     10  C   UNL     1     169.058 143.459 155.498  1.00  0.00     0.146 A 
ATOM     11  O   UNL     1     169.148 143.337 154.177  1.00  0.00    -0.456 OA
ENDROOT
BRANCH   1  12
ATOM     12  C   UNL     1     170.130 143.671 151.987  1.00  0.00     0.021 A 
ATOM     13  C   UNL     1     169.790 144.734 151.136  1.00  0.00     0.016 A 
ATOM     14  C   UNL     1     169.782 144.558 149.751  1.00  0.00     0.051 A 
ATOM     15  C   UNL     1     170.103 143.320 149.185  1.00  0.00     0.157 A 
ATOM     16  C   UNL     1     170.438 142.420 151.420  1.00  0.00     0.062 A 
ATOM     17  C   UNL     1     170.430 142.235 150.031  1.00  0.00     0.158 A 
BRANCH  15  18
ATOM     18  O   UNL     1     170.082 143.213 147.793  1.00  0.00    -0.504 OA
ATOM     19  H   UNL     1     169.933 142.347 147.296  1.00  0.00     0.293 HD
ENDBRANCH  15  18
BRANCH  17  20
ATOM     20  O   UNL     1     170.745 140.966 149.541  1.00  0.00    -0.504 OA
ATOM     21  H   UNL     1     171.664 140.696 149.222  1.00  0.00     0.293 HD
ENDBRANCH  17  20
ENDBRANCH   1  12
BRANCH   6  22
ATOM     22  O   UNL     1     170.855 144.843 158.492  1.00  0.00    -0.507 OA
ATOM     23  H   UNL     1     171.794 145.090 158.220  1.00  0.00     0.293 HD
ENDBRANCH   6  22
BRANCH   8  24
ATOM     24  O   UNL     1     166.749 142.405 158.189  1.00  0.00    -0.508 OA
ATOM     25  H   UNL     1     165.877 142.219 157.706  1.00  0.00     0.293 HD
ENDBRANCH   8  24
TORSDOF 5
ENDMDL
MODEL 7
REMARK VINA RESULT:    -6.469      2.629      7.589
REMARK INTER + INTRA:          -7.880
REMARK INTER:                  -7.590
REMARK INTRA:                  -0.291
REMARK UNBOUND:                -0.277
REMARK SMILES O=c1cc(-c2ccc(O)c(O)c2)oc2cc(O)cc(O)c12
REMARK SMILES IDX 4 1 3 2 2 3 1 4 21 5 19 6 18 7 16 8 15 9 14 10 13 11 5 12
REMARK SMILES IDX 6 13 7 14 8 15 12 16 10 17 9 18 11 20 20 22 17 24
REMARK H PARENT 9 19 11 21 20 23 17 25
REMARK Flexibility Score: inf
ROOT
ATOM      1  C   UNL     1     169.943 144.998 151.545  1.00  0.00     0.138 A 
ATOM      2  C   UNL     1     168.691 144.625 152.052  1.00  0.00     0.100 A 
ATOM      3  C   UNL     1     168.470 144.649 153.431  1.00  0.00     0.197 A 
ATOM      4  O   UNL     1     167.357 144.249 153.860  1.00  0.00    -0.289 OA
ATOM      5  C   UNL     1     169.501 145.077 154.301  1.00  0.00     0.107 A 
ATOM      6  C   UNL     1     169.376 145.180 155.719  1.00  0.00     0.134 A 
ATOM      7  C   UNL     1     170.500 145.506 156.489  1.00  0.00     0.093 A 
ATOM      8  C   UNL     1     171.726 145.790 155.889  1.00  0.00     0.123 A 
ATOM      9  C   UNL     1     171.846 145.745 154.500  1.00  0.00     0.094 A 
ATOM     10  C   UNL     1     170.752 145.390 153.707  1.00  0.00     0.146 A 
ATOM     11  O   UNL     1     170.911 145.344 152.388  1.00  0.00    -0.456 OA
ENDROOT
BRANCH   1  12
ATOM     12  C   UNL     1     170.232 144.993 150.089  1.00  0.00     0.021 A 
ATOM     13  C   UNL     1     171.250 145.817 149.584  1.00  0.00     0.016 A 
ATOM     14  C   UNL     1     171.536 145.834 148.218  1.00  0.00     0.051 A 
ATOM     15  C   UNL     1     170.809 145.041 147.325  1.00  0.00     0.157 A 
ATOM     16  C   UNL     1     169.489 144.205 149.190  1.00  0.00     0.062 A 
ATOM     17  C   UNL     1     169.767 144.220 147.816  1.00  0.00     0.158 A 
BRANCH  15  18
ATOM     18  O   UNL     1     171.148 145.101 145.972  1.00  0.00    -0.504 OA
ATOM     19  H   UNL     1     171.135 145.948 145.423  1.00  0.00     0.293 HD
ENDBRANCH  15  18
BRANCH  17  20
ATOM     20  O   UNL     1     168.988 143.413 146.986  1.00  0.00    -0.504 OA
ATOM     21  H   UNL     1     168.951 143.505 145.981  1.00  0.00     0.293 HD
ENDBRANCH  17  20
ENDBRANCH   1  12
BRANCH   6  22
ATOM     22  O   UNL     1     168.176 145.000 156.413  1.00  0.00    -0.507 OA
ATOM     23  H   UNL     1     167.626 145.742 156.817  1.00  0.00     0.293 HD
ENDBRANCH   6  22
BRANCH   8  24
ATOM     24  O   UNL     1     172.818 146.125 156.685  1.00  0.00    -0.508 OA
ATOM     25  H   UNL     1     173.154 145.504 157.413  1.00  0.00     0.293 HD
ENDBRANCH   8  24
TORSDOF 5
ENDMDL
MODEL 8
REMARK VINA RESULT:    -6.399      2.851      7.563
REMARK INTER + INTRA:          -7.798
REMARK INTER:                  -7.513
REMARK INTRA:                  -0.284
REMARK UNBOUND:                -0.277
REMARK SMILES O=c1cc(-c2ccc(O)c(O)c2)oc2cc(O)cc(O)c12
REMARK SMILES IDX 4 1 3 2 2 3 1 4 21 5 19 6 18 7 16 8 15 9 14 10 13 11 5 12
REMARK SMILES IDX 6 13 7 14 8 15 12 16 10 17 9 18 11 20 20 22 17 24
REMARK H PARENT 9 19 11 21 20 23 17 25
REMARK Flexibility Score: inf
ROOT
ATOM      1  C   UNL     1     170.523 144.641 155.626  1.00  0.00     0.138 A 
ATOM      2  C   UNL     1     169.628 144.135 156.578  1.00  0.00     0.100 A 
ATOM      3  C   UNL     1     169.879 144.335 157.937  1.00  0.00     0.197 A 
ATOM      4  O   UNL     1     169.091 143.816 158.769  1.00  0.00    -0.289 OA
ATOM      5  C   UNL     1     171.018 145.072 158.340  1.00  0.00     0.107 A 
ATOM      6  C   UNL     1     171.353 145.372 159.695  1.00  0.00     0.134 A 
ATOM      7  C   UNL     1     172.567 146.010 159.980  1.00  0.00     0.093 A 
ATOM      8  C   UNL     1     173.428 146.411 158.959  1.00  0.00     0.123 A 
ATOM      9  C   UNL     1     173.085 146.169 157.628  1.00  0.00     0.094 A 
ATOM     10  C   UNL     1     171.897 145.505 157.313  1.00  0.00     0.146 A 
ATOM     11  O   UNL     1     171.614 145.282 156.033  1.00  0.00    -0.456 OA
ENDROOT
BRANCH   1  12
ATOM     12  C   UNL     1     170.304 144.458 154.169  1.00  0.00     0.021 A 
ATOM     13  C   UNL     1     170.092 143.167 153.659  1.00  0.00     0.016 A 
ATOM     14  C   UNL     1     169.890 142.969 152.293  1.00  0.00     0.051 A 
ATOM     15  C   UNL     1     169.903 144.049 151.404  1.00  0.00     0.157 A 
ATOM     16  C   UNL     1     170.332 145.544 153.275  1.00  0.00     0.062 A 
ATOM     17  C   UNL     1     170.133 145.353 151.901  1.00  0.00     0.158 A 
BRANCH  15  18
ATOM     18  O   UNL     1     169.688 143.784 150.050  1.00  0.00    -0.504 OA
ATOM     19  H   UNL     1     169.129 144.364 149.443  1.00  0.00     0.293 HD
ENDBRANCH  15  18
BRANCH  17  20
ATOM     20  O   UNL     1     170.175 146.478 151.074  1.00  0.00    -0.504 OA
ATOM     21  H   UNL     1     170.205 146.437 150.066  1.00  0.00     0.293 HD
ENDBRANCH  17  20
ENDBRANCH   1  12
BRANCH   6  22
ATOM     22  O   UNL     1     170.524 145.093 160.785  1.00  0.00    -0.507 OA
ATOM     23  H   UNL     1     169.516 145.126 160.767  1.00  0.00     0.293 HD
ENDBRANCH   6  22
BRANCH   8  24
ATOM     24  O   UNL     1     174.620 147.055 159.279  1.00  0.00    -0.508 OA
ATOM     25  H   UNL     1     174.972 147.825 158.723  1.00  0.00     0.293 HD
ENDBRANCH   8  24
TORSDOF 5
ENDMDL
MODEL 9
REMARK VINA RESULT:    -6.388      2.327      2.833
REMARK INTER + INTRA:          -7.785
REMARK INTER:                  -7.518
REMARK INTRA:                  -0.267
REMARK UNBOUND:                -0.277
REMARK SMILES O=c1cc(-c2ccc(O)c(O)c2)oc2cc(O)cc(O)c12
REMARK SMILES IDX 4 1 3 2 2 3 1 4 21 5 19 6 18 7 16 8 15 9 14 10 13 11 5 12
REMARK SMILES IDX 6 13 7 14 8 15 12 16 10 17 9 18 11 20 20 22 17 24
REMARK H PARENT 9 19 11 21 20 23 17 25
REMARK Flexibility Score: inf
ROOT
ATOM      1  C   UNL     1     170.696 145.008 155.299  1.00  0.00     0.138 A 
ATOM      2  C   UNL     1     169.894 145.869 154.538  1.00  0.00     0.100 A 
ATOM      3  C   UNL     1     169.891 145.758 153.146  1.00  0.00     0.197 A 
ATOM      4  O   UNL     1     169.210 146.585 152.486  1.00  0.00    -0.289 OA
ATOM      5  C   UNL     1     170.674 144.760 152.518  1.00  0.00     0.107 A 
ATOM      6  C   UNL     1     170.718 144.529 151.110  1.00  0.00     0.134 A 
ATOM      7  C   UNL     1     171.618 143.587 150.594  1.00  0.00     0.093 A 
ATOM      8  C   UNL     1     172.430 142.829 151.437  1.00  0.00     0.123 A 
ATOM      9  C   UNL     1     172.356 143.009 152.818  1.00  0.00     0.094 A 
ATOM     10  C   UNL     1     171.493 143.964 153.362  1.00  0.00     0.146 A 
ATOM     11  O   UNL     1     171.463 144.115 154.682  1.00  0.00    -0.456 OA
ENDROOT
BRANCH   1  12
ATOM     12  C   UNL     1     170.735 145.081 156.782  1.00  0.00     0.021 A 
ATOM     13  C   UNL     1     169.996 144.157 157.538  1.00  0.00     0.016 A 
ATOM     14  C   UNL     1     170.012 144.209 158.933  1.00  0.00     0.051 A 
ATOM     15  C   UNL     1     170.755 145.186 159.604  1.00  0.00     0.157 A 
ATOM     16  C   UNL     1     171.471 146.073 157.455  1.00  0.00     0.062 A 
ATOM     17  C   UNL     1     171.490 146.134 158.855  1.00  0.00     0.158 A 
BRANCH  15  18
ATOM     18  O   UNL     1     170.732 145.179 161.000  1.00  0.00    -0.504 OA
ATOM     19  H   UNL     1     171.560 145.153 161.578  1.00  0.00     0.293 HD
ENDBRANCH  15  18
BRANCH  17  20
ATOM     20  O   UNL     1     172.242 147.147 159.453  1.00  0.00    -0.504 OA
ATOM     21  H   UNL     1     172.371 148.066 159.053  1.00  0.00     0.293 HD
ENDBRANCH  17  20
ENDBRANCH   1  12
BRANCH   6  22
ATOM     22  O   UNL     1     169.889 145.171 150.187  1.00  0.00    -0.507 OA
ATOM     23  H   UNL     1     170.191 145.877 149.534  1.00  0.00     0.293 HD
ENDBRANCH   6  22
BRANCH   8  24
ATOM     24  O   UNL     1     173.302 141.892 150.889  1.00  0.00    -0.508 OA
ATOM     25  H   UNL     1     173.867 142.106 150.075  1.00  0.00     0.293 HD
ENDBRANCH   8  24
TORSDOF 5
ENDMDL
