MODEL 1
REMARK VINA RESULT:    -1.895      0.000      0.000
REMARK INTER + INTRA:          -4.443
REMARK INTER:                  -3.557
REMARK INTRA:                  -0.886
REMARK UNBOUND:                -0.886
REMARK SMILES CCCCCCCCC=CCCCCCCCC(=O)[O-]
REMARK SMILES IDX 10 1 9 2 11 3 12 4 13 5 14 6 15 7 16 8 17 9 18 10 19 11
REMARK SMILES IDX 20 12 8 13 7 14 6 15 5 16 4 17 3 18 2 19 1 20
REMARK H PARENT
REMARK Flexibility Score: inf
ROOT
ATOM      1  C   UNL     1       1.856 -14.516 -18.133  1.00  0.00    -0.031 C 
ATOM      2  C   UNL     1       0.825 -15.371 -17.992  1.00  0.00    -0.031 C 
ENDROOT
BRANCH   1   3
ATOM      3  C   UNL     1       1.869 -13.296 -19.024  1.00  0.00     0.027 C 
BRANCH   3   4
ATOM      4  C   UNL     1       3.004 -12.324 -18.655  1.00  0.00     0.004 C 
BRANCH   4   5
ATOM      5  C   UNL     1       2.773 -10.871 -19.107  1.00  0.00     0.000 C 
BRANCH   5   6
ATOM      6  C   UNL     1       3.514  -9.846 -18.230  1.00  0.00     0.000 C 
BRANCH   6   7
ATOM      7  C   UNL     1       2.589  -9.214 -17.169  1.00  0.00     0.000 C 
BRANCH   7   8
ATOM      8  C   UNL     1       3.203  -9.175 -15.758  1.00  0.00     0.006 C 
BRANCH   8   9
ATOM      9  C   UNL     1       3.274  -7.759 -15.178  1.00  0.00     0.053 C 
BRANCH   9  10
ATOM     10  C   UNL     1       3.625  -7.805 -13.724  1.00  0.00     0.041 C 
ATOM     11  O   UNL     1       3.606  -6.753 -13.034  1.00  0.00    -0.550 OA
ATOM     12  O   UNL     1       4.021  -9.003 -13.141  1.00  0.00    -0.550 OA
ENDBRANCH   9  10
ENDBRANCH   8   9
ENDBRANCH   7   8
ENDBRANCH   6   7
ENDBRANCH   5   6
ENDBRANCH   4   5
ENDBRANCH   3   4
ENDBRANCH   1   3
BRANCH   2  13
ATOM     13  C   UNL     1      -0.513 -15.244 -18.678  1.00  0.00     0.027 C 
BRANCH  13  14
ATOM     14  C   UNL     1      -1.340 -16.528 -18.544  1.00  0.00     0.004 C 
BRANCH  14  15
ATOM     15  C   UNL     1      -0.898 -17.574 -19.575  1.00  0.00     0.000 C 
BRANCH  15  16
ATOM     16  C   UNL     1      -1.670 -18.887 -19.392  1.00  0.00     0.000 C 
BRANCH  16  17
ATOM     17  C   UNL     1      -0.956 -19.811 -18.398  1.00  0.00    -0.000 C 
BRANCH  17  18
ATOM     18  C   UNL     1       0.555 -19.534 -18.378  1.00  0.00    -0.000 C 
BRANCH  18  19
ATOM     19  C   UNL     1       1.183 -19.788 -16.998  1.00  0.00    -0.003 C 
ATOM     20  C   UNL     1       0.145 -20.124 -15.929  1.00  0.00     0.004 C 
ENDBRANCH  18  19
ENDBRANCH  17  18
ENDBRANCH  16  17
ENDBRANCH  15  16
ENDBRANCH  14  15
ENDBRANCH  13  14
ENDBRANCH   2  13
TORSDOF 15
ENDMDL
MODEL 2
REMARK VINA RESULT:    -1.766      4.559      9.511
REMARK INTER + INTRA:          -4.201
REMARK INTER:                  -3.513
REMARK INTRA:                  -0.688
REMARK UNBOUND:                -0.886
REMARK SMILES CCCCCCCCC=CCCCCCCCC(=O)[O-]
REMARK SMILES IDX 10 1 9 2 11 3 12 4 13 5 14 6 15 7 16 8 17 9 18 10 19 11
REMARK SMILES IDX 20 12 8 13 7 14 6 15 5 16 4 17 3 18 2 19 1 20
REMARK H PARENT
REMARK Flexibility Score: inf
ROOT
ATOM      1  C   UNL     1      -0.707 -15.607 -18.300  1.00  0.00    -0.031 C 
ATOM      2  C   UNL     1       0.546 -15.355 -17.875  1.00  0.00    -0.031 C 
ENDROOT
BRANCH   1   3
ATOM      3  C   UNL     1      -1.254 -15.268 -19.668  1.00  0.00     0.027 C 
BRANCH   3   4
ATOM      4  C   UNL     1      -2.046 -16.438 -20.277  1.00  0.00     0.004 C 
BRANCH   4   5
ATOM      5  C   UNL     1      -2.028 -17.728 -19.436  1.00  0.00     0.000 C 
BRANCH   5   6
ATOM      6  C   UNL     1      -1.980 -19.002 -20.297  1.00  0.00     0.000 C 
BRANCH   6   7
ATOM      7  C   UNL     1      -1.157 -20.124 -19.628  1.00  0.00     0.000 C 
BRANCH   7   8
ATOM      8  C   UNL     1       0.357 -19.847 -19.602  1.00  0.00     0.006 C 
BRANCH   8   9
ATOM      9  C   UNL     1       0.783 -18.972 -18.418  1.00  0.00     0.053 C 
BRANCH   9  10
ATOM     10  C   UNL     1       0.645 -19.726 -17.133  1.00  0.00     0.041 C 
ATOM     11  O   UNL     1      -0.496 -19.966 -16.659  1.00  0.00    -0.550 OA
ATOM     12  O   UNL     1       1.778 -20.120 -16.432  1.00  0.00    -0.550 OA
ENDBRANCH   9  10
ENDBRANCH   8   9
ENDBRANCH   7   8
ENDBRANCH   6   7
ENDBRANCH   5   6
ENDBRANCH   4   5
ENDBRANCH   3   4
ENDBRANCH   1   3
BRANCH   2  13
ATOM     13  C   UNL     1       1.636 -14.717 -18.700  1.00  0.00     0.027 C 
BRANCH  13  14
ATOM     14  C   UNL     1       1.457 -13.197 -18.793  1.00  0.00     0.004 C 
BRANCH  14  15
ATOM     15  C   UNL     1       2.806 -12.498 -19.006  1.00  0.00     0.000 C 
BRANCH  15  16
ATOM     16  C   UNL     1       2.719 -11.012 -18.637  1.00  0.00     0.000 C 
BRANCH  16  17
ATOM     17  C   UNL     1       4.029 -10.285 -18.968  1.00  0.00    -0.000 C 
BRANCH  17  18
ATOM     18  C   UNL     1       5.141 -11.288 -19.313  1.00  0.00    -0.000 C 
BRANCH  18  19
ATOM     19  C   UNL     1       6.044 -10.795 -20.455  1.00  0.00    -0.003 C 
ATOM     20  C   UNL     1       7.502 -10.631 -20.027  1.00  0.00     0.004 C 
ENDBRANCH  18  19
ENDBRANCH  17  18
ENDBRANCH  16  17
ENDBRANCH  15  16
ENDBRANCH  14  15
ENDBRANCH  13  14
ENDBRANCH   2  13
TORSDOF 15
ENDMDL
MODEL 3
REMARK VINA RESULT:    -1.611      4.033      9.653
REMARK INTER + INTRA:          -3.910
REMARK INTER:                  -2.972
REMARK INTRA:                  -0.938
REMARK UNBOUND:                -0.886
REMARK SMILES CCCCCCCCC=CCCCCCCCC(=O)[O-]
REMARK SMILES IDX 10 1 9 2 11 3 12 4 13 5 14 6 15 7 16 8 17 9 18 10 19 11
REMARK SMILES IDX 20 12 8 13 7 14 6 15 5 16 4 17 3 18 2 19 1 20
REMARK H PARENT
REMARK Flexibility Score: inf
ROOT
ATOM      1  C   UNL     1       1.361 -14.887 -18.143  1.00  0.00    -0.031 C 
ATOM      2  C   UNL     1       2.363 -13.988 -18.128  1.00  0.00    -0.031 C 
ENDROOT
BRANCH   1   3
ATOM      3  C   UNL     1       0.004 -14.678 -18.776  1.00  0.00     0.027 C 
BRANCH   3   4
ATOM      4  C   UNL     1      -1.004 -15.760 -18.349  1.00  0.00     0.004 C 
BRANCH   4   5
ATOM      5  C   UNL     1      -1.929 -16.251 -19.477  1.00  0.00     0.000 C 
BRANCH   5   6
ATOM      6  C   UNL     1      -1.628 -17.696 -19.911  1.00  0.00     0.000 C 
BRANCH   6   7
ATOM      7  C   UNL     1      -1.806 -18.699 -18.751  1.00  0.00     0.000 C 
BRANCH   7   8
ATOM      8  C   UNL     1      -0.755 -19.824 -18.739  1.00  0.00     0.006 C 
BRANCH   8   9
ATOM      9  C   UNL     1       0.628 -19.343 -18.286  1.00  0.00     0.053 C 
BRANCH   9  10
ATOM     10  C   UNL     1       0.887 -19.754 -16.871  1.00  0.00     0.041 C 
ATOM     11  O   UNL     1       2.067 -19.812 -16.435  1.00  0.00    -0.550 OA
ATOM     12  O   UNL     1      -0.170 -20.123 -16.048  1.00  0.00    -0.550 OA
ENDBRANCH   9  10
ENDBRANCH   8   9
ENDBRANCH   7   8
ENDBRANCH   6   7
ENDBRANCH   5   6
ENDBRANCH   4   5
ENDBRANCH   3   4
ENDBRANCH   1   3
BRANCH   2  13
ATOM     13  C   UNL     1       2.320 -12.622 -18.768  1.00  0.00     0.027 C 
BRANCH  13  14
ATOM     14  C   UNL     1       3.725 -12.029 -18.927  1.00  0.00     0.004 C 
BRANCH  14  15
ATOM     15  C   UNL     1       3.679 -10.496 -18.913  1.00  0.00     0.000 C 
BRANCH  15  16
ATOM     16  C   UNL     1       2.407  -9.991 -18.220  1.00  0.00     0.000 C 
BRANCH  16  17
ATOM     17  C   UNL     1       2.707  -8.772 -17.339  1.00  0.00    -0.000 C 
BRANCH  17  18
ATOM     18  C   UNL     1       3.136  -9.206 -15.929  1.00  0.00    -0.000 C 
BRANCH  18  19
ATOM     19  C   UNL     1       3.460  -8.011 -15.018  1.00  0.00    -0.003 C 
ATOM     20  C   UNL     1       3.743  -8.427 -13.576  1.00  0.00     0.004 C 
ENDBRANCH  18  19
ENDBRANCH  17  18
ENDBRANCH  16  17
ENDBRANCH  15  16
ENDBRANCH  14  15
ENDBRANCH  13  14
ENDBRANCH   2  13
TORSDOF 15
ENDMDL
MODEL 4
REMARK VINA RESULT:    -1.561      0.824      1.667
REMARK INTER + INTRA:          -3.816
REMARK INTER:                  -3.347
REMARK INTRA:                  -0.469
REMARK UNBOUND:                -0.886
REMARK SMILES CCCCCCCCC=CCCCCCCCC(=O)[O-]
REMARK SMILES IDX 10 1 9 2 11 3 12 4 13 5 14 6 15 7 16 8 17 9 18 10 19 11
REMARK SMILES IDX 20 12 8 13 7 14 6 15 5 16 4 17 3 18 2 19 1 20
REMARK H PARENT
REMARK Flexibility Score: inf
ROOT
ATOM      1  C   UNL     1       2.366 -12.689 -19.129  1.00  0.00    -0.031 C 
ATOM      2  C   UNL     1       1.508 -13.696 -18.875  1.00  0.00    -0.031 C 
ENDROOT
BRANCH   1   3
ATOM      3  C   UNL     1       3.735 -12.526 -18.508  1.00  0.00     0.027 C 
BRANCH   3   4
ATOM      4  C   UNL     1       4.530 -11.381 -19.159  1.00  0.00     0.004 C 
BRANCH   4   5
ATOM      5  C   UNL     1       3.866  -9.996 -19.045  1.00  0.00     0.000 C 
BRANCH   5   6
ATOM      6  C   UNL     1       2.690  -9.979 -18.052  1.00  0.00     0.000 C 
BRANCH   6   7
ATOM      7  C   UNL     1       2.697  -8.714 -17.167  1.00  0.00     0.000 C 
BRANCH   7   8
ATOM      8  C   UNL     1       3.300  -8.941 -15.769  1.00  0.00     0.006 C 
BRANCH   8   9
ATOM      9  C   UNL     1       3.290  -7.677 -14.903  1.00  0.00     0.053 C 
BRANCH   9  10
ATOM     10  C   UNL     1       3.701  -7.999 -13.501  1.00  0.00     0.041 C 
ATOM     11  O   UNL     1       4.291  -7.136 -12.801  1.00  0.00    -0.550 OA
ATOM     12  O   UNL     1       3.477  -9.269 -12.985  1.00  0.00    -0.550 OA
ENDBRANCH   9  10
ENDBRANCH   8   9
ENDBRANCH   7   8
ENDBRANCH   6   7
ENDBRANCH   5   6
ENDBRANCH   4   5
ENDBRANCH   3   4
ENDBRANCH   1   3
BRANCH   2  13
ATOM     13  C   UNL     1       1.773 -14.856 -17.947  1.00  0.00     0.027 C 
BRANCH  13  14
ATOM     14  C   UNL     1       0.874 -16.055 -18.273  1.00  0.00     0.004 C 
BRANCH  14  15
ATOM     15  C   UNL     1      -0.583 -15.614 -18.460  1.00  0.00     0.000 C 
BRANCH  15  16
ATOM     16  C   UNL     1      -1.386 -16.677 -19.219  1.00  0.00     0.000 C 
BRANCH  16  17
ATOM     17  C   UNL     1      -0.622 -18.006 -19.278  1.00  0.00    -0.000 C 
BRANCH  17  18
ATOM     18  C   UNL     1      -1.245 -19.040 -18.327  1.00  0.00    -0.000 C 
BRANCH  18  19
ATOM     19  C   UNL     1      -0.218 -20.058 -17.809  1.00  0.00    -0.003 C 
ATOM     20  C   UNL     1       1.064 -19.400 -17.303  1.00  0.00     0.004 C 
ENDBRANCH  18  19
ENDBRANCH  17  18
ENDBRANCH  16  17
ENDBRANCH  15  16
ENDBRANCH  14  15
ENDBRANCH  13  14
ENDBRANCH   2  13
TORSDOF 15
ENDMDL
MODEL 5
REMARK VINA RESULT:    -1.411      4.120     10.166
REMARK INTER + INTRA:          -3.534
REMARK INTER:                  -2.962
REMARK INTRA:                  -0.573
REMARK UNBOUND:                -0.886
REMARK SMILES CCCCCCCCC=CCCCCCCCC(=O)[O-]
REMARK SMILES IDX 10 1 9 2 11 3 12 4 13 5 14 6 15 7 16 8 17 9 18 10 19 11
REMARK SMILES IDX 20 12 8 13 7 14 6 15 5 16 4 17 3 18 2 19 1 20
REMARK H PARENT
REMARK Flexibility Score: inf
ROOT
ATOM      1  C   UNL     1       3.465 -12.783 -19.156  1.00  0.00    -0.031 C 
ATOM      2  C   UNL     1       3.995 -11.545 -19.161  1.00  0.00    -0.031 C 
ENDROOT
BRANCH   1   3
ATOM      3  C   UNL     1       2.048 -13.130 -18.758  1.00  0.00     0.027 C 
BRANCH   3   4
ATOM      4  C   UNL     1       1.940 -14.561 -18.203  1.00  0.00     0.004 C 
BRANCH   4   5
ATOM      5  C   UNL     1       0.504 -15.114 -18.141  1.00  0.00     0.000 C 
BRANCH   5   6
ATOM      6  C   UNL     1       0.439 -16.636 -18.363  1.00  0.00     0.000 C 
BRANCH   6   7
ATOM      7  C   UNL     1      -0.831 -17.056 -19.132  1.00  0.00     0.000 C 
BRANCH   7   8
ATOM      8  C   UNL     1      -0.921 -18.570 -19.397  1.00  0.00     0.006 C 
BRANCH   8   9
ATOM      9  C   UNL     1       0.324 -19.332 -18.929  1.00  0.00     0.053 C 
BRANCH   9  10
ATOM     10  C   UNL     1       0.159 -19.785 -17.513  1.00  0.00     0.041 C 
ATOM     11  O   UNL     1      -0.975 -20.125 -17.085  1.00  0.00    -0.550 OA
ATOM     12  O   UNL     1       1.248 -19.785 -16.650  1.00  0.00    -0.550 OA
ENDBRANCH   9  10
ENDBRANCH   8   9
ENDBRANCH   7   8
ENDBRANCH   6   7
ENDBRANCH   5   6
ENDBRANCH   4   5
ENDBRANCH   3   4
ENDBRANCH   1   3
BRANCH   2  13
ATOM     13  C   UNL     1       3.258 -10.279 -18.798  1.00  0.00     0.027 C 
BRANCH  13  14
ATOM     14  C   UNL     1       3.493  -9.890 -17.334  1.00  0.00     0.004 C 
BRANCH  14  15
ATOM     15  C   UNL     1       2.426  -8.898 -16.852  1.00  0.00     0.000 C 
BRANCH  15  16
ATOM     16  C   UNL     1       2.997  -7.948 -15.793  1.00  0.00     0.000 C 
BRANCH  16  17
ATOM     17  C   UNL     1       3.859  -8.709 -14.778  1.00  0.00    -0.000 C 
BRANCH  17  18
ATOM     18  C   UNL     1       3.456  -8.352 -13.339  1.00  0.00    -0.000 C 
BRANCH  18  19
ATOM     19  C   UNL     1       3.640  -6.858 -13.029  1.00  0.00    -0.003 C 
ATOM     20  C   UNL     1       2.358  -6.197 -12.523  1.00  0.00     0.004 C 
ENDBRANCH  18  19
ENDBRANCH  17  18
ENDBRANCH  16  17
ENDBRANCH  15  16
ENDBRANCH  14  15
ENDBRANCH  13  14
ENDBRANCH   2  13
TORSDOF 15
ENDMDL
MODEL 6
REMARK VINA RESULT:    -1.311      2.874      3.569
REMARK INTER + INTRA:          -3.347
REMARK INTER:                  -2.851
REMARK INTRA:                  -0.496
REMARK UNBOUND:                -0.886
REMARK SMILES CCCCCCCCC=CCCCCCCCC(=O)[O-]
REMARK SMILES IDX 10 1 9 2 11 3 12 4 13 5 14 6 15 7 16 8 17 9 18 10 19 11
REMARK SMILES IDX 20 12 8 13 7 14 6 15 5 16 4 17 3 18 2 19 1 20
REMARK H PARENT
REMARK Flexibility Score: inf
ROOT
ATOM      1  C   UNL     1       0.535 -15.422 -17.979  1.00  0.00    -0.031 C 
ATOM      2  C   UNL     1      -0.770 -15.722 -18.124  1.00  0.00    -0.031 C 
ENDROOT
BRANCH   1   3
ATOM      3  C   UNL     1       1.352 -14.576 -18.930  1.00  0.00     0.027 C 
BRANCH   3   4
ATOM      4  C   UNL     1       2.198 -13.528 -18.186  1.00  0.00     0.004 C 
BRANCH   4   5
ATOM      5  C   UNL     1       2.677 -12.355 -19.063  1.00  0.00     0.000 C 
BRANCH   5   6
ATOM      6  C   UNL     1       2.269 -10.983 -18.498  1.00  0.00     0.000 C 
BRANCH   6   7
ATOM      7  C   UNL     1       3.428  -9.965 -18.554  1.00  0.00     0.000 C 
BRANCH   7   8
ATOM      8  C   UNL     1       4.335 -10.129 -19.787  1.00  0.00     0.006 C 
BRANCH   8   9
ATOM      9  C   UNL     1       5.129 -11.439 -19.774  1.00  0.00     0.053 C 
BRANCH   9  10
ATOM     10  C   UNL     1       6.477 -11.229 -19.160  1.00  0.00     0.041 C 
ATOM     11  O   UNL     1       7.354 -10.563 -19.770  1.00  0.00    -0.550 OA
ATOM     12  O   UNL     1       6.783 -11.812 -17.937  1.00  0.00    -0.550 OA
ENDBRANCH   9  10
ENDBRANCH   8   9
ENDBRANCH   7   8
ENDBRANCH   6   7
ENDBRANCH   5   6
ENDBRANCH   4   5
ENDBRANCH   3   4
ENDBRANCH   1   3
BRANCH   2  13
ATOM     13  C   UNL     1      -1.657 -15.242 -19.247  1.00  0.00     0.027 C 
BRANCH  13  14
ATOM     14  C   UNL     1      -2.044 -16.388 -20.189  1.00  0.00     0.004 C 
BRANCH  14  15
ATOM     15  C   UNL     1      -2.124 -17.719 -19.431  1.00  0.00     0.000 C 
BRANCH  15  16
ATOM     16  C   UNL     1      -1.660 -18.883 -20.314  1.00  0.00     0.000 C 
BRANCH  16  17
ATOM     17  C   UNL     1      -0.610 -19.737 -19.592  1.00  0.00    -0.000 C 
BRANCH  17  18
ATOM     18  C   UNL     1      -1.038 -20.028 -18.146  1.00  0.00    -0.000 C 
BRANCH  18  19
ATOM     19  C   UNL     1       0.104 -19.819 -17.140  1.00  0.00    -0.003 C 
ATOM     20  C   UNL     1       1.307 -19.102 -17.751  1.00  0.00     0.004 C 
ENDBRANCH  18  19
ENDBRANCH  17  18
ENDBRANCH  16  17
ENDBRANCH  15  16
ENDBRANCH  14  15
ENDBRANCH  13  14
ENDBRANCH   2  13
TORSDOF 15
ENDMDL
MODEL 7
REMARK VINA RESULT:    -1.202      4.504      9.740
REMARK INTER + INTRA:          -3.142
REMARK INTER:                  -2.506
REMARK INTRA:                  -0.636
REMARK UNBOUND:                -0.886
REMARK SMILES CCCCCCCCC=CCCCCCCCC(=O)[O-]
REMARK SMILES IDX 10 1 9 2 11 3 12 4 13 5 14 6 15 7 16 8 17 9 18 10 19 11
REMARK SMILES IDX 20 12 8 13 7 14 6 15 5 16 4 17 3 18 2 19 1 20
REMARK H PARENT
REMARK Flexibility Score: inf
ROOT
ATOM      1  C   UNL     1       0.396 -15.331 -18.006  1.00  0.00    -0.031 C 
ATOM      2  C   UNL     1       1.624 -14.781 -17.956  1.00  0.00    -0.031 C 
ENDROOT
BRANCH   1   3
ATOM      3  C   UNL     1      -0.615 -15.123 -19.111  1.00  0.00     0.027 C 
BRANCH   3   4
ATOM      4  C   UNL     1      -1.986 -15.728 -18.759  1.00  0.00     0.004 C 
BRANCH   4   5
ATOM      5  C   UNL     1      -1.958 -17.237 -18.452  1.00  0.00     0.000 C 
BRANCH   5   6
ATOM      6  C   UNL     1      -1.848 -18.103 -19.719  1.00  0.00     0.000 C 
BRANCH   6   7
ATOM      7  C   UNL     1      -1.809 -19.610 -19.390  1.00  0.00     0.000 C 
BRANCH   7   8
ATOM      8  C   UNL     1      -1.247 -19.923 -17.992  1.00  0.00     0.006 C 
BRANCH   8   9
ATOM      9  C   UNL     1       0.231 -19.547 -17.845  1.00  0.00     0.053 C 
BRANCH   9  10
ATOM     10  C   UNL     1       0.711 -19.839 -16.458  1.00  0.00     0.041 C 
ATOM     11  O   UNL     1       1.944 -19.872 -16.209  1.00  0.00    -0.550 OA
ATOM     12  O   UNL     1      -0.203 -20.125 -15.452  1.00  0.00    -0.550 OA
ENDBRANCH   9  10
ENDBRANCH   8   9
ENDBRANCH   7   8
ENDBRANCH   6   7
ENDBRANCH   5   6
ENDBRANCH   4   5
ENDBRANCH   3   4
ENDBRANCH   1   3
BRANCH   2  13
ATOM     13  C   UNL     1       2.222 -13.883 -19.012  1.00  0.00     0.027 C 
BRANCH  13  14
ATOM     14  C   UNL     1       2.345 -12.437 -18.519  1.00  0.00     0.004 C 
BRANCH  14  15
ATOM     15  C   UNL     1       3.801 -11.959 -18.580  1.00  0.00     0.000 C 
BRANCH  15  16
ATOM     16  C   UNL     1       3.885 -10.519 -19.100  1.00  0.00     0.000 C 
BRANCH  16  17
ATOM     17  C   UNL     1       4.856 -10.417 -20.283  1.00  0.00    -0.000 C 
BRANCH  17  18
ATOM     18  C   UNL     1       6.286 -10.780 -19.854  1.00  0.00    -0.000 C 
BRANCH  18  19
ATOM     19  C   UNL     1       7.296 -10.655 -21.005  1.00  0.00    -0.003 C 
ATOM     20  C   UNL     1       8.625 -10.045 -20.562  1.00  0.00     0.004 C 
ENDBRANCH  18  19
ENDBRANCH  17  18
ENDBRANCH  16  17
ENDBRANCH  15  16
ENDBRANCH  14  15
ENDBRANCH  13  14
ENDBRANCH   2  13
TORSDOF 15
ENDMDL
MODEL 8
REMARK VINA RESULT:    -1.036      4.192      9.303
REMARK INTER + INTRA:          -2.830
REMARK INTER:                  -1.546
REMARK INTRA:                  -1.284
REMARK UNBOUND:                -0.886
REMARK SMILES CCCCCCCCC=CCCCCCCCC(=O)[O-]
REMARK SMILES IDX 10 1 9 2 11 3 12 4 13 5 14 6 15 7 16 8 17 9 18 10 19 11
REMARK SMILES IDX 20 12 8 13 7 14 6 15 5 16 4 17 3 18 2 19 1 20
REMARK H PARENT
REMARK Flexibility Score: inf
ROOT
ATOM      1  C   UNL     1      -0.699 -15.312 -18.052  1.00  0.00    -0.031 C 
ATOM      2  C   UNL     1       0.613 -15.084 -17.846  1.00  0.00    -0.031 C 
ENDROOT
BRANCH   1   3
ATOM      3  C   UNL     1      -1.465 -14.957 -19.305  1.00  0.00     0.027 C 
BRANCH   3   4
ATOM      4  C   UNL     1      -1.961 -16.208 -20.051  1.00  0.00     0.004 C 
BRANCH   4   5
ATOM      5  C   UNL     1      -2.122 -17.457 -19.165  1.00  0.00     0.000 C 
BRANCH   5   6
ATOM      6  C   UNL     1      -1.817 -18.766 -19.916  1.00  0.00     0.000 C 
BRANCH   6   7
ATOM      7  C   UNL     1      -0.302 -18.985 -20.108  1.00  0.00     0.000 C 
BRANCH   7   8
ATOM      8  C   UNL     1       0.342 -19.846 -19.007  1.00  0.00     0.006 C 
BRANCH   8   9
ATOM      9  C   UNL     1       0.966 -19.010 -17.884  1.00  0.00     0.053 C 
BRANCH   9  10
ATOM     10  C   UNL     1       0.994 -19.787 -16.606  1.00  0.00     0.041 C 
ATOM     11  O   UNL     1      -0.081 -20.098 -16.030  1.00  0.00    -0.550 OA
ATOM     12  O   UNL     1       2.209 -20.125 -16.023  1.00  0.00    -0.550 OA
ENDBRANCH   9  10
ENDBRANCH   8   9
ENDBRANCH   7   8
ENDBRANCH   6   7
ENDBRANCH   5   6
ENDBRANCH   4   5
ENDBRANCH   3   4
ENDBRANCH   1   3
BRANCH   2  13
ATOM     13  C   UNL     1       1.557 -14.459 -18.844  1.00  0.00     0.027 C 
BRANCH  13  14
ATOM     14  C   UNL     1       2.362 -13.314 -18.218  1.00  0.00     0.004 C 
BRANCH  14  15
ATOM     15  C   UNL     1       3.209 -12.596 -19.276  1.00  0.00     0.000 C 
BRANCH  15  16
ATOM     16  C   UNL     1       4.381 -11.850 -18.628  1.00  0.00     0.000 C 
BRANCH  16  17
ATOM     17  C   UNL     1       4.162 -10.332 -18.676  1.00  0.00    -0.000 C 
BRANCH  17  18
ATOM     18  C   UNL     1       2.673  -9.999 -18.858  1.00  0.00    -0.000 C 
BRANCH  18  19
ATOM     19  C   UNL     1       2.026  -9.465 -17.571  1.00  0.00    -0.003 C 
ATOM     20  C   UNL     1       3.052  -8.938 -16.568  1.00  0.00     0.004 C 
ENDBRANCH  18  19
ENDBRANCH  17  18
ENDBRANCH  16  17
ENDBRANCH  15  16
ENDBRANCH  14  15
ENDBRANCH  13  14
ENDBRANCH   2  13
TORSDOF 15
ENDMDL
MODEL 9
REMARK VINA RESULT:    -0.860      3.132      5.152
REMARK INTER + INTRA:          -2.499
REMARK INTER:                  -2.308
REMARK INTRA:                  -0.192
REMARK UNBOUND:                -0.886
REMARK SMILES CCCCCCCCC=CCCCCCCCC(=O)[O-]
REMARK SMILES IDX 10 1 9 2 11 3 12 4 13 5 14 6 15 7 16 8 17 9 18 10 19 11
REMARK SMILES IDX 20 12 8 13 7 14 6 15 5 16 4 17 3 18 2 19 1 20
REMARK H PARENT
REMARK Flexibility Score: inf
ROOT
ATOM      1  C   UNL     1       1.433 -17.472 -17.980  1.00  0.00    -0.031 C 
ATOM      2  C   UNL     1       1.302 -18.812 -17.995  1.00  0.00    -0.031 C 
ENDROOT
BRANCH   1   3
ATOM      3  C   UNL     1       0.380 -16.482 -18.427  1.00  0.00     0.027 C 
BRANCH   3   4
ATOM      4  C   UNL     1       0.748 -15.038 -18.044  1.00  0.00     0.004 C 
BRANCH   4   5
ATOM      5  C   UNL     1       2.178 -14.619 -18.432  1.00  0.00     0.000 C 
BRANCH   5   6
ATOM      6  C   UNL     1       2.502 -13.166 -18.043  1.00  0.00     0.000 C 
BRANCH   6   7
ATOM      7  C   UNL     1       2.334 -12.197 -19.232  1.00  0.00     0.000 C 
BRANCH   7   8
ATOM      8  C   UNL     1       2.339 -10.712 -18.825  1.00  0.00     0.006 C 
BRANCH   8   9
ATOM      9  C   UNL     1       3.752 -10.154 -18.623  1.00  0.00     0.053 C 
BRANCH   9  10
ATOM     10  C   UNL     1       4.666 -10.639 -19.704  1.00  0.00     0.041 C 
ATOM     11  O   UNL     1       5.550 -11.498 -19.447  1.00  0.00    -0.550 OA
ATOM     12  O   UNL     1       4.576 -10.106 -20.984  1.00  0.00    -0.550 OA
ENDBRANCH   9  10
ENDBRANCH   8   9
ENDBRANCH   7   8
ENDBRANCH   6   7
ENDBRANCH   5   6
ENDBRANCH   4   5
ENDBRANCH   3   4
ENDBRANCH   1   3
BRANCH   2  13
ATOM     13  C   UNL     1       0.069 -19.564 -18.431  1.00  0.00     0.027 C 
BRANCH  13  14
ATOM     14  C   UNL     1      -0.341 -19.193 -19.861  1.00  0.00     0.004 C 
BRANCH  14  15
ATOM     15  C   UNL     1      -1.836 -18.858 -19.934  1.00  0.00     0.000 C 
BRANCH  15  16
ATOM     16  C   UNL     1      -2.088 -17.387 -19.582  1.00  0.00     0.000 C 
BRANCH  16  17
ATOM     17  C   UNL     1      -2.125 -16.518 -20.845  1.00  0.00    -0.000 C 
BRANCH  17  18
ATOM     18  C   UNL     1      -2.116 -15.024 -20.485  1.00  0.00    -0.000 C 
BRANCH  18  19
ATOM     19  C   UNL     1      -2.095 -14.118 -21.725  1.00  0.00    -0.003 C 
ATOM     20  C   UNL     1      -1.753 -12.667 -21.392  1.00  0.00     0.004 C 
ENDBRANCH  18  19
ENDBRANCH  17  18
ENDBRANCH  16  17
ENDBRANCH  15  16
ENDBRANCH  14  15
ENDBRANCH  13  14
ENDBRANCH   2  13
TORSDOF 15
ENDMDL
