MODEL 1
REMARK VINA RESULT:    -6.701      0.000      0.000
REMARK INTER + INTRA:          -8.159
REMARK INTER:                  -7.877
REMARK INTRA:                  -0.282
REMARK UNBOUND:                -0.282
REMARK SMILES O=c1cc(-c2ccc(O)c(O)c2)oc2cc(O)cc(O)c12
REMARK SMILES IDX 4 1 3 2 2 3 1 4 21 5 19 6 18 7 16 8 15 9 14 10 13 11 5 12
REMARK SMILES IDX 6 13 7 14 8 15 12 16 10 17 9 18 11 20 20 22 17 24
REMARK H PARENT 9 19 11 21 20 23 17 25
REMARK Flexibility Score: inf
ROOT
ATOM      1  C   UNL     1      20.740  49.602  45.817  1.00  0.00     0.138 A 
ATOM      2  C   UNL     1      19.708  50.015  44.963  1.00  0.00     0.100 A 
ATOM      3  C   UNL     1      19.248  49.150  43.968  1.00  0.00     0.197 A 
ATOM      4  O   UNL     1      18.279  49.524  43.258  1.00  0.00    -0.289 OA
ATOM      5  C   UNL     1      19.848  47.879  43.809  1.00  0.00     0.107 A 
ATOM      6  C   UNL     1      19.490  46.931  42.805  1.00  0.00     0.134 A 
ATOM      7  C   UNL     1      20.073  45.658  42.817  1.00  0.00     0.093 A 
ATOM      8  C   UNL     1      21.045  45.319  43.758  1.00  0.00     0.123 A 
ATOM      9  C   UNL     1      21.442  46.257  44.713  1.00  0.00     0.094 A 
ATOM     10  C   UNL     1      20.854  47.524  44.748  1.00  0.00     0.146 A 
ATOM     11  O   UNL     1      21.249  48.383  45.681  1.00  0.00    -0.456 OA
ENDROOT
BRANCH   1  12
ATOM     12  C   UNL     1      21.268  50.482  46.890  1.00  0.00     0.021 A 
ATOM     13  C   UNL     1      22.644  50.473  47.178  1.00  0.00     0.016 A 
ATOM     14  C   UNL     1      23.167  51.297  48.177  1.00  0.00     0.051 A 
ATOM     15  C   UNL     1      22.325  52.151  48.900  1.00  0.00     0.157 A 
ATOM     16  C   UNL     1      20.429  51.353  47.613  1.00  0.00     0.062 A 
ATOM     17  C   UNL     1      20.954  52.181  48.617  1.00  0.00     0.158 A 
BRANCH  15  18
ATOM     18  O   UNL     1      22.842  52.972  49.900  1.00  0.00    -0.504 OA
ATOM     19  H   UNL     1      23.315  52.589  50.710  1.00  0.00     0.293 HD
ENDBRANCH  15  18
BRANCH  17  20
ATOM     20  O   UNL     1      20.120  53.040  49.331  1.00  0.00    -0.504 OA
ATOM     21  H   UNL     1      19.357  53.533  48.882  1.00  0.00     0.293 HD
ENDBRANCH  17  20
ENDBRANCH   1  12
BRANCH   6  22
ATOM     22  O   UNL     1      18.592  47.196  41.765  1.00  0.00    -0.507 OA
ATOM     23  H   UNL     1      18.785  47.051  40.786  1.00  0.00     0.293 HD
ENDBRANCH   6  22
BRANCH   8  24
ATOM     24  O   UNL     1      21.614  44.048  43.732  1.00  0.00    -0.508 OA
ATOM     25  H   UNL     1      22.579  43.905  43.457  1.00  0.00     0.293 HD
ENDBRANCH   8  24
TORSDOF 5
ENDMDL
MODEL 2
REMARK VINA RESULT:    -6.587      2.419      4.156
REMARK INTER + INTRA:          -8.024
REMARK INTER:                  -7.744
REMARK INTRA:                  -0.280
REMARK UNBOUND:                -0.282
REMARK SMILES O=c1cc(-c2ccc(O)c(O)c2)oc2cc(O)cc(O)c12
REMARK SMILES IDX 4 1 3 2 2 3 1 4 21 5 19 6 18 7 16 8 15 9 14 10 13 11 5 12
REMARK SMILES IDX 6 13 7 14 8 15 12 16 10 17 9 18 11 20 20 22 17 24
REMARK H PARENT 9 19 11 21 20 23 17 25
REMARK Flexibility Score: inf
ROOT
ATOM      1  C   UNL     1      19.802  48.351  43.875  1.00  0.00     0.138 A 
ATOM      2  C   UNL     1      20.018  47.067  43.356  1.00  0.00     0.100 A 
ATOM      3  C   UNL     1      19.074  46.503  42.496  1.00  0.00     0.197 A 
ATOM      4  O   UNL     1      19.324  45.376  41.997  1.00  0.00    -0.289 OA
ATOM      5  C   UNL     1      17.894  47.217  42.182  1.00  0.00     0.107 A 
ATOM      6  C   UNL     1      16.843  46.726  41.350  1.00  0.00     0.134 A 
ATOM      7  C   UNL     1      15.777  47.568  41.015  1.00  0.00     0.093 A 
ATOM      8  C   UNL     1      15.690  48.861  41.529  1.00  0.00     0.123 A 
ATOM      9  C   UNL     1      16.685  49.335  42.387  1.00  0.00     0.094 A 
ATOM     10  C   UNL     1      17.779  48.530  42.713  1.00  0.00     0.146 A 
ATOM     11  O   UNL     1      18.712  49.022  43.521  1.00  0.00    -0.456 OA
ENDROOT
BRANCH   1  12
ATOM     12  C   UNL     1      20.773  48.998  44.795  1.00  0.00     0.021 A 
ATOM     13  C   UNL     1      22.106  49.167  44.384  1.00  0.00     0.016 A 
ATOM     14  C   UNL     1      23.038  49.779  45.227  1.00  0.00     0.051 A 
ATOM     15  C   UNL     1      22.649  50.241  46.490  1.00  0.00     0.157 A 
ATOM     16  C   UNL     1      20.387  49.476  46.062  1.00  0.00     0.062 A 
ATOM     17  C   UNL     1      21.321  50.093  46.908  1.00  0.00     0.158 A 
BRANCH  15  18
ATOM     18  O   UNL     1      23.575  50.850  47.335  1.00  0.00    -0.504 OA
ATOM     19  H   UNL     1      24.558  50.906  47.093  1.00  0.00     0.293 HD
ENDBRANCH  15  18
BRANCH  17  20
ATOM     20  O   UNL     1      20.935  50.563  48.162  1.00  0.00    -0.504 OA
ATOM     21  H   UNL     1      20.777  51.550  48.332  1.00  0.00     0.293 HD
ENDBRANCH  17  20
ENDBRANCH   1  12
BRANCH   6  22
ATOM     22  O   UNL     1      16.788  45.420  40.852  1.00  0.00    -0.507 OA
ATOM     23  H   UNL     1      16.880  45.169  39.879  1.00  0.00     0.293 HD
ENDBRANCH   6  22
BRANCH   8  24
ATOM     24  O   UNL     1      14.607  49.667  41.186  1.00  0.00    -0.508 OA
ATOM     25  H   UNL     1      13.809  49.774  41.801  1.00  0.00     0.293 HD
ENDBRANCH   8  24
TORSDOF 5
ENDMDL
MODEL 3
REMARK VINA RESULT:    -6.514      1.553      3.048
REMARK INTER + INTRA:          -7.939
REMARK INTER:                  -7.644
REMARK INTRA:                  -0.296
REMARK UNBOUND:                -0.282
REMARK SMILES O=c1cc(-c2ccc(O)c(O)c2)oc2cc(O)cc(O)c12
REMARK SMILES IDX 4 1 3 2 2 3 1 4 21 5 19 6 18 7 16 8 15 9 14 10 13 11 5 12
REMARK SMILES IDX 6 13 7 14 8 15 12 16 10 17 9 18 11 20 20 22 17 24
REMARK H PARENT 9 19 11 21 20 23 17 25
REMARK Flexibility Score: inf
ROOT
ATOM      1  C   UNL     1      20.683  48.490  44.977  1.00  0.00     0.138 A 
ATOM      2  C   UNL     1      21.327  47.292  44.635  1.00  0.00     0.100 A 
ATOM      3  C   UNL     1      20.758  46.454  43.673  1.00  0.00     0.197 A 
ATOM      4  O   UNL     1      21.390  45.418  43.342  1.00  0.00    -0.289 OA
ATOM      5  C   UNL     1      19.524  46.804  43.077  1.00  0.00     0.107 A 
ATOM      6  C   UNL     1      18.831  46.008  42.116  1.00  0.00     0.134 A 
ATOM      7  C   UNL     1      17.674  46.511  41.508  1.00  0.00     0.093 A 
ATOM      8  C   UNL     1      17.152  47.752  41.869  1.00  0.00     0.123 A 
ATOM      9  C   UNL     1      17.791  48.517  42.847  1.00  0.00     0.094 A 
ATOM     10  C   UNL     1      18.967  48.057  43.447  1.00  0.00     0.146 A 
ATOM     11  O   UNL     1      19.553  48.821  44.362  1.00  0.00    -0.456 OA
ENDROOT
BRANCH   1  12
ATOM     12  C   UNL     1      21.243  49.417  45.993  1.00  0.00     0.021 A 
ATOM     13  C   UNL     1      22.625  49.671  46.011  1.00  0.00     0.016 A 
ATOM     14  C   UNL     1      23.176  50.544  46.952  1.00  0.00     0.051 A 
ATOM     15  C   UNL     1      22.352  51.187  47.884  1.00  0.00     0.157 A 
ATOM     16  C   UNL     1      20.419  50.077  46.926  1.00  0.00     0.062 A 
ATOM     17  C   UNL     1      20.971  50.956  47.870  1.00  0.00     0.158 A 
BRANCH  15  18
ATOM     18  O   UNL     1      22.898  52.058  48.825  1.00  0.00    -0.504 OA
ATOM     19  H   UNL     1      22.322  52.720  49.333  1.00  0.00     0.293 HD
ENDBRANCH  15  18
BRANCH  17  20
ATOM     20  O   UNL     1      20.154  51.605  48.793  1.00  0.00    -0.504 OA
ATOM     21  H   UNL     1      20.523  52.299  49.434  1.00  0.00     0.293 HD
ENDBRANCH  17  20
ENDBRANCH   1  12
BRANCH   6  22
ATOM     22  O   UNL     1      19.220  44.717  41.746  1.00  0.00    -0.507 OA
ATOM     23  H   UNL     1      19.646  44.473  40.865  1.00  0.00     0.293 HD
ENDBRANCH   6  22
BRANCH   8  24
ATOM     24  O   UNL     1      15.991  48.215  41.253  1.00  0.00    -0.508 OA
ATOM     25  H   UNL     1      15.297  48.749  41.763  1.00  0.00     0.293 HD
ENDBRANCH   8  24
TORSDOF 5
ENDMDL
MODEL 4
REMARK VINA RESULT:    -6.460      2.869      6.851
REMARK INTER + INTRA:          -7.876
REMARK INTER:                  -7.590
REMARK INTRA:                  -0.286
REMARK UNBOUND:                -0.282
REMARK SMILES O=c1cc(-c2ccc(O)c(O)c2)oc2cc(O)cc(O)c12
REMARK SMILES IDX 4 1 3 2 2 3 1 4 21 5 19 6 18 7 16 8 15 9 14 10 13 11 5 12
REMARK SMILES IDX 6 13 7 14 8 15 12 16 10 17 9 18 11 20 20 22 17 24
REMARK H PARENT 9 19 11 21 20 23 17 25
REMARK Flexibility Score: inf
ROOT
ATOM      1  C   UNL     1      18.354  49.551  44.542  1.00  0.00     0.138 A 
ATOM      2  C   UNL     1      19.379  49.070  43.715  1.00  0.00     0.100 A 
ATOM      3  C   UNL     1      20.706  49.158  44.139  1.00  0.00     0.197 A 
ATOM      4  O   UNL     1      21.598  48.662  43.404  1.00  0.00    -0.289 OA
ATOM      5  C   UNL     1      21.008  49.761  45.383  1.00  0.00     0.107 A 
ATOM      6  C   UNL     1      22.326  49.943  45.899  1.00  0.00     0.134 A 
ATOM      7  C   UNL     1      22.497  50.447  47.194  1.00  0.00     0.093 A 
ATOM      8  C   UNL     1      21.403  50.832  47.968  1.00  0.00     0.123 A 
ATOM      9  C   UNL     1      20.111  50.709  47.453  1.00  0.00     0.094 A 
ATOM     10  C   UNL     1      19.907  50.177  46.177  1.00  0.00     0.146 A 
ATOM     11  O   UNL     1      18.661  50.063  45.729  1.00  0.00    -0.456 OA
ENDROOT
BRANCH   1  12
ATOM     12  C   UNL     1      16.926  49.483  44.140  1.00  0.00     0.021 A 
ATOM     13  C   UNL     1      15.939  49.300  45.124  1.00  0.00     0.016 A 
ATOM     14  C   UNL     1      14.588  49.240  44.773  1.00  0.00     0.051 A 
ATOM     15  C   UNL     1      14.200  49.372  43.434  1.00  0.00     0.157 A 
ATOM     16  C   UNL     1      16.527  49.628  42.797  1.00  0.00     0.062 A 
ATOM     17  C   UNL     1      15.170  49.570  42.444  1.00  0.00     0.158 A 
BRANCH  15  18
ATOM     18  O   UNL     1      12.854  49.311  43.080  1.00  0.00    -0.504 OA
ATOM     19  H   UNL     1      12.314  50.150  42.898  1.00  0.00     0.293 HD
ENDBRANCH  15  18
BRANCH  17  20
ATOM     20  O   UNL     1      14.780  49.712  41.114  1.00  0.00    -0.504 OA
ATOM     21  H   UNL     1      14.929  48.975  40.436  1.00  0.00     0.293 HD
ENDBRANCH  17  20
ENDBRANCH   1  12
BRANCH   6  22
ATOM     22  O   UNL     1      23.493  49.670  45.177  1.00  0.00    -0.507 OA
ATOM     23  H   UNL     1      23.973  48.784  45.170  1.00  0.00     0.293 HD
ENDBRANCH   6  22
BRANCH   8  24
ATOM     24  O   UNL     1      21.612  51.343  49.247  1.00  0.00    -0.508 OA
ATOM     25  H   UNL     1      22.075  50.800  49.966  1.00  0.00     0.293 HD
ENDBRANCH   8  24
TORSDOF 5
ENDMDL
MODEL 5
REMARK VINA RESULT:    -6.426      3.559      6.930
REMARK INTER + INTRA:          -7.836
REMARK INTER:                  -7.531
REMARK INTRA:                  -0.305
REMARK UNBOUND:                -0.282
REMARK SMILES O=c1cc(-c2ccc(O)c(O)c2)oc2cc(O)cc(O)c12
REMARK SMILES IDX 4 1 3 2 2 3 1 4 21 5 19 6 18 7 16 8 15 9 14 10 13 11 5 12
REMARK SMILES IDX 6 13 7 14 8 15 12 16 10 17 9 18 11 20 20 22 17 24
REMARK H PARENT 9 19 11 21 20 23 17 25
REMARK Flexibility Score: inf
ROOT
ATOM      1  C   UNL     1      17.256  49.399  45.419  1.00  0.00     0.138 A 
ATOM      2  C   UNL     1      17.489  49.638  46.781  1.00  0.00     0.100 A 
ATOM      3  C   UNL     1      18.794  49.842  47.232  1.00  0.00     0.197 A 
ATOM      4  O   UNL     1      18.965  50.116  48.448  1.00  0.00    -0.289 OA
ATOM      5  C   UNL     1      19.873  49.773  46.320  1.00  0.00     0.107 A 
ATOM      6  C   UNL     1      21.247  49.923  46.673  1.00  0.00     0.134 A 
ATOM      7  C   UNL     1      22.220  49.951  45.667  1.00  0.00     0.093 A 
ATOM      8  C   UNL     1      21.876  49.775  44.327  1.00  0.00     0.123 A 
ATOM      9  C   UNL     1      20.540  49.573  43.974  1.00  0.00     0.094 A 
ATOM     10  C   UNL     1      19.543  49.574  44.952  1.00  0.00     0.146 A 
ATOM     11  O   UNL     1      18.282  49.394  44.574  1.00  0.00    -0.456 OA
ENDROOT
BRANCH   1  12
ATOM     12  C   UNL     1      15.889  49.175  44.884  1.00  0.00     0.021 A 
ATOM     13  C   UNL     1      14.917  48.574  45.703  1.00  0.00     0.016 A 
ATOM     14  C   UNL     1      13.621  48.359  45.228  1.00  0.00     0.051 A 
ATOM     15  C   UNL     1      13.272  48.750  43.929  1.00  0.00     0.157 A 
ATOM     16  C   UNL     1      15.527  49.577  43.584  1.00  0.00     0.062 A 
ATOM     17  C   UNL     1      14.225  49.363  43.106  1.00  0.00     0.158 A 
BRANCH  15  18
ATOM     18  O   UNL     1      11.981  48.536  43.450  1.00  0.00    -0.504 OA
ATOM     19  H   UNL     1      11.482  49.250  42.932  1.00  0.00     0.293 HD
ENDBRANCH  15  18
BRANCH  17  20
ATOM     20  O   UNL     1      13.872  49.760  41.818  1.00  0.00    -0.504 OA
ATOM     21  H   UNL     1      13.254  50.547  41.656  1.00  0.00     0.293 HD
ENDBRANCH  17  20
ENDBRANCH   1  12
BRANCH   6  22
ATOM     22  O   UNL     1      21.708  50.021  47.990  1.00  0.00    -0.507 OA
ATOM     23  H   UNL     1      22.426  50.656  48.303  1.00  0.00     0.293 HD
ENDBRANCH   6  22
BRANCH   8  24
ATOM     24  O   UNL     1      22.872  49.794  43.353  1.00  0.00    -0.508 OA
ATOM     25  H   UNL     1      23.719  50.337  43.472  1.00  0.00     0.293 HD
ENDBRANCH   8  24
TORSDOF 5
ENDMDL
MODEL 6
REMARK VINA RESULT:    -6.390      2.228      3.068
REMARK INTER + INTRA:          -7.793
REMARK INTER:                  -7.515
REMARK INTRA:                  -0.278
REMARK UNBOUND:                -0.282
REMARK SMILES O=c1cc(-c2ccc(O)c(O)c2)oc2cc(O)cc(O)c12
REMARK SMILES IDX 4 1 3 2 2 3 1 4 21 5 19 6 18 7 16 8 15 9 14 10 13 11 5 12
REMARK SMILES IDX 6 13 7 14 8 15 12 16 10 17 9 18 11 20 20 22 17 24
REMARK H PARENT 9 19 11 21 20 23 17 25
REMARK Flexibility Score: inf
ROOT
ATOM      1  C   UNL     1      19.520  48.510  43.973  1.00  0.00     0.138 A 
ATOM      2  C   UNL     1      18.245  49.085  43.870  1.00  0.00     0.100 A 
ATOM      3  C   UNL     1      17.291  48.502  43.033  1.00  0.00     0.197 A 
ATOM      4  O   UNL     1      16.138  49.004  43.009  1.00  0.00    -0.289 OA
ATOM      5  C   UNL     1      17.628  47.359  42.272  1.00  0.00     0.107 A 
ATOM      6  C   UNL     1      16.752  46.705  41.356  1.00  0.00     0.134 A 
ATOM      7  C   UNL     1      17.156  45.511  40.745  1.00  0.00     0.093 A 
ATOM      8  C   UNL     1      18.425  44.980  40.970  1.00  0.00     0.123 A 
ATOM      9  C   UNL     1      19.312  45.640  41.824  1.00  0.00     0.094 A 
ATOM     10  C   UNL     1      18.925  46.814  42.474  1.00  0.00     0.146 A 
ATOM     11  O   UNL     1      19.792  47.404  43.290  1.00  0.00    -0.456 OA
ENDROOT
BRANCH   1  12
ATOM     12  C   UNL     1      20.572  49.088  44.848  1.00  0.00     0.021 A 
ATOM     13  C   UNL     1      21.886  49.205  44.363  1.00  0.00     0.016 A 
ATOM     14  C   UNL     1      22.892  49.752  45.162  1.00  0.00     0.051 A 
ATOM     15  C   UNL     1      22.600  50.202  46.456  1.00  0.00     0.157 A 
ATOM     16  C   UNL     1      20.283  49.554  46.145  1.00  0.00     0.062 A 
ATOM     17  C   UNL     1      21.293  50.105  46.948  1.00  0.00     0.158 A 
BRANCH  15  18
ATOM     18  O   UNL     1      23.601  50.746  47.257  1.00  0.00    -0.504 OA
ATOM     19  H   UNL     1      24.562  50.807  46.939  1.00  0.00     0.293 HD
ENDBRANCH  15  18
BRANCH  17  20
ATOM     20  O   UNL     1      21.003  50.563  48.232  1.00  0.00    -0.504 OA
ATOM     21  H   UNL     1      20.550  49.970  48.917  1.00  0.00     0.293 HD
ENDBRANCH  17  20
ENDBRANCH   1  12
BRANCH   6  22
ATOM     22  O   UNL     1      15.493  47.196  40.993  1.00  0.00    -0.507 OA
ATOM     23  H   UNL     1      15.120  47.192  40.056  1.00  0.00     0.293 HD
ENDBRANCH   6  22
BRANCH   8  24
ATOM     24  O   UNL     1      18.799  43.798  40.335  1.00  0.00    -0.508 OA
ATOM     25  H   UNL     1      18.194  43.345  39.660  1.00  0.00     0.293 HD
ENDBRANCH   8  24
TORSDOF 5
ENDMDL
MODEL 7
REMARK VINA RESULT:    -6.373      1.997      3.062
REMARK INTER + INTRA:          -7.773
REMARK INTER:                  -7.490
REMARK INTRA:                  -0.283
REMARK UNBOUND:                -0.282
REMARK SMILES O=c1cc(-c2ccc(O)c(O)c2)oc2cc(O)cc(O)c12
REMARK SMILES IDX 4 1 3 2 2 3 1 4 21 5 19 6 18 7 16 8 15 9 14 10 13 11 5 12
REMARK SMILES IDX 6 13 7 14 8 15 12 16 10 17 9 18 11 20 20 22 17 24
REMARK H PARENT 9 19 11 21 20 23 17 25
REMARK Flexibility Score: inf
ROOT
ATOM      1  C   UNL     1      21.079  50.088  47.542  1.00  0.00     0.138 A 
ATOM      2  C   UNL     1      20.161  49.369  48.320  1.00  0.00     0.100 A 
ATOM      3  C   UNL     1      19.466  48.299  47.753  1.00  0.00     0.197 A 
ATOM      4  O   UNL     1      18.695  47.634  48.492  1.00  0.00    -0.289 OA
ATOM      5  C   UNL     1      19.669  47.970  46.392  1.00  0.00     0.107 A 
ATOM      6  C   UNL     1      18.987  46.927  45.698  1.00  0.00     0.134 A 
ATOM      7  C   UNL     1      19.355  46.617  44.383  1.00  0.00     0.093 A 
ATOM      8  C   UNL     1      20.337  47.350  43.717  1.00  0.00     0.123 A 
ATOM      9  C   UNL     1      20.974  48.408  44.369  1.00  0.00     0.094 A 
ATOM     10  C   UNL     1      20.653  48.719  45.693  1.00  0.00     0.146 A 
ATOM     11  O   UNL     1      21.292  49.724  46.282  1.00  0.00    -0.456 OA
ENDROOT
BRANCH   1  12
ATOM     12  C   UNL     1      21.845  51.235  48.093  1.00  0.00     0.021 A 
ATOM     13  C   UNL     1      21.154  52.301  48.697  1.00  0.00     0.016 A 
ATOM     14  C   UNL     1      21.850  53.388  49.230  1.00  0.00     0.051 A 
ATOM     15  C   UNL     1      23.249  53.424  49.178  1.00  0.00     0.157 A 
ATOM     16  C   UNL     1      23.252  51.273  48.056  1.00  0.00     0.062 A 
ATOM     17  C   UNL     1      23.952  52.364  48.593  1.00  0.00     0.158 A 
BRANCH  15  18
ATOM     18  O   UNL     1      23.948  54.508  49.707  1.00  0.00    -0.504 OA
ATOM     19  H   UNL     1      24.176  55.318  49.143  1.00  0.00     0.293 HD
ENDBRANCH  15  18
BRANCH  17  20
ATOM     20  O   UNL     1      25.345  52.398  48.552  1.00  0.00    -0.504 OA
ATOM     21  H   UNL     1      25.906  52.080  49.334  1.00  0.00     0.293 HD
ENDBRANCH  17  20
ENDBRANCH   1  12
BRANCH   6  22
ATOM     22  O   UNL     1      17.931  46.188  46.241  1.00  0.00    -0.507 OA
ATOM     23  H   UNL     1      17.553  46.316  47.166  1.00  0.00     0.293 HD
ENDBRANCH   6  22
BRANCH   8  24
ATOM     24  O   UNL     1      20.668  47.023  42.404  1.00  0.00    -0.508 OA
ATOM     25  H   UNL     1      20.000  47.119  41.649  1.00  0.00     0.293 HD
ENDBRANCH   8  24
TORSDOF 5
ENDMDL
MODEL 8
REMARK VINA RESULT:    -6.343      2.774      7.158
REMARK INTER + INTRA:          -7.738
REMARK INTER:                  -7.473
REMARK INTRA:                  -0.266
REMARK UNBOUND:                -0.282
REMARK SMILES O=c1cc(-c2ccc(O)c(O)c2)oc2cc(O)cc(O)c12
REMARK SMILES IDX 4 1 3 2 2 3 1 4 21 5 19 6 18 7 16 8 15 9 14 10 13 11 5 12
REMARK SMILES IDX 6 13 7 14 8 15 12 16 10 17 9 18 11 20 20 22 17 24
REMARK H PARENT 9 19 11 21 20 23 17 25
REMARK Flexibility Score: inf
ROOT
ATOM      1  C   UNL     1      18.686  48.742  44.065  1.00  0.00     0.138 A 
ATOM      2  C   UNL     1      19.962  49.218  43.730  1.00  0.00     0.100 A 
ATOM      3  C   UNL     1      20.845  49.597  44.743  1.00  0.00     0.197 A 
ATOM      4  O   UNL     1      22.004  49.961  44.416  1.00  0.00    -0.289 OA
ATOM      5  C   UNL     1      20.434  49.529  46.095  1.00  0.00     0.107 A 
ATOM      6  C   UNL     1      21.234  49.926  47.209  1.00  0.00     0.134 A 
ATOM      7  C   UNL     1      20.766  49.704  48.509  1.00  0.00     0.093 A 
ATOM      8  C   UNL     1      19.504  49.155  48.738  1.00  0.00     0.123 A 
ATOM      9  C   UNL     1      18.691  48.811  47.656  1.00  0.00     0.094 A 
ATOM     10  C   UNL     1      19.144  48.989  46.346  1.00  0.00     0.146 A 
ATOM     11  O   UNL     1      18.346  48.636  45.344  1.00  0.00    -0.456 OA
ENDROOT
BRANCH   1  12
ATOM     12  C   UNL     1      17.708  48.327  43.028  1.00  0.00     0.021 A 
ATOM     13  C   UNL     1      17.795  47.039  42.472  1.00  0.00     0.016 A 
ATOM     14  C   UNL     1      16.883  46.621  41.500  1.00  0.00     0.051 A 
ATOM     15  C   UNL     1      15.862  47.480  41.075  1.00  0.00     0.157 A 
ATOM     16  C   UNL     1      16.671  49.181  42.604  1.00  0.00     0.062 A 
ATOM     17  C   UNL     1      15.753  48.761  41.629  1.00  0.00     0.158 A 
BRANCH  15  18
ATOM     18  O   UNL     1      14.951  47.068  40.104  1.00  0.00    -0.504 OA
ATOM     19  H   UNL     1      15.149  47.165  39.115  1.00  0.00     0.293 HD
ENDBRANCH  15  18
BRANCH  17  20
ATOM     20  O   UNL     1      14.729  49.609  41.211  1.00  0.00    -0.504 OA
ATOM     21  H   UNL     1      14.215  49.438  40.356  1.00  0.00     0.293 HD
ENDBRANCH  17  20
ENDBRANCH   1  12
BRANCH   6  22
ATOM     22  O   UNL     1      22.474  50.562  47.092  1.00  0.00    -0.507 OA
ATOM     23  H   UNL     1      23.232  50.473  47.751  1.00  0.00     0.293 HD
ENDBRANCH   6  22
BRANCH   8  24
ATOM     24  O   UNL     1      19.065  48.961  50.045  1.00  0.00    -0.508 OA
ATOM     25  H   UNL     1      19.189  49.671  50.757  1.00  0.00     0.293 HD
ENDBRANCH   8  24
TORSDOF 5
ENDMDL
MODEL 9
REMARK VINA RESULT:    -6.331      3.199      4.660
REMARK INTER + INTRA:          -7.724
REMARK INTER:                  -7.424
REMARK INTRA:                  -0.300
REMARK UNBOUND:                -0.282
REMARK SMILES O=c1cc(-c2ccc(O)c(O)c2)oc2cc(O)cc(O)c12
REMARK SMILES IDX 4 1 3 2 2 3 1 4 21 5 19 6 18 7 16 8 15 9 14 10 13 11 5 12
REMARK SMILES IDX 6 13 7 14 8 15 12 16 10 17 9 18 11 20 20 22 17 24
REMARK H PARENT 9 19 11 21 20 23 17 25
REMARK Flexibility Score: inf
ROOT
ATOM      1  C   UNL     1      18.646  49.951  44.400  1.00  0.00     0.138 A 
ATOM      2  C   UNL     1      18.536  50.292  43.044  1.00  0.00     0.100 A 
ATOM      3  C   UNL     1      17.301  50.181  42.403  1.00  0.00     0.197 A 
ATOM      4  O   UNL     1      17.220  50.553  41.204  1.00  0.00    -0.289 OA
ATOM      5  C   UNL     1      16.180  49.697  43.116  1.00  0.00     0.107 A 
ATOM      6  C   UNL     1      14.881  49.504  42.556  1.00  0.00     0.134 A 
ATOM      7  C   UNL     1      13.819  49.129  43.387  1.00  0.00     0.093 A 
ATOM      8  C   UNL     1      14.019  48.882  44.745  1.00  0.00     0.123 A 
ATOM      9  C   UNL     1      15.295  49.016  45.294  1.00  0.00     0.094 A 
ATOM     10  C   UNL     1      16.369  49.421  44.497  1.00  0.00     0.146 A 
ATOM     11  O   UNL     1      17.565  49.551  45.060  1.00  0.00    -0.456 OA
ENDROOT
BRANCH   1  12
ATOM     12  C   UNL     1      19.935  50.048  45.131  1.00  0.00     0.021 A 
ATOM     13  C   UNL     1      21.132  49.731  44.466  1.00  0.00     0.016 A 
ATOM     14  C   UNL     1      22.359  49.822  45.128  1.00  0.00     0.051 A 
ATOM     15  C   UNL     1      22.411  50.241  46.463  1.00  0.00     0.157 A 
ATOM     16  C   UNL     1      19.997  50.481  46.470  1.00  0.00     0.062 A 
ATOM     17  C   UNL     1      21.228  50.574  47.135  1.00  0.00     0.158 A 
BRANCH  15  18
ATOM     18  O   UNL     1      23.632  50.331  47.128  1.00  0.00    -0.504 OA
ATOM     19  H   UNL     1      23.747  49.992  48.076  1.00  0.00     0.293 HD
ENDBRANCH  15  18
BRANCH  17  20
ATOM     20  O   UNL     1      21.285  51.001  48.460  1.00  0.00    -0.504 OA
ATOM     21  H   UNL     1      20.855  51.869  48.757  1.00  0.00     0.293 HD
ENDBRANCH  17  20
ENDBRANCH   1  12
BRANCH   6  22
ATOM     22  O   UNL     1      14.590  49.641  41.194  1.00  0.00    -0.507 OA
ATOM     23  H   UNL     1      14.503  48.876  40.543  1.00  0.00     0.293 HD
ENDBRANCH   6  22
BRANCH   8  24
ATOM     24  O   UNL     1      12.941  48.497  45.539  1.00  0.00    -0.508 OA
ATOM     25  H   UNL     1      12.204  49.147  45.784  1.00  0.00     0.293 HD
ENDBRANCH   8  24
TORSDOF 5
ENDMDL
