MODEL 1
REMARK VINA RESULT:    -2.217      0.000      0.000
REMARK INTER + INTRA:          -5.268
REMARK INTER:                  -4.290
REMARK INTRA:                  -0.978
REMARK UNBOUND:                -0.978
REMARK SMILES CCCCCCCCCCCCCCCCCC(=O)[O-]
REMARK SMILES IDX 10 1 11 2 12 3 13 4 14 5 15 6 16 7 17 8 18 9 19 10 20 11
REMARK SMILES IDX 9 12 8 13 7 14 6 15 5 16 4 17 3 18 2 19 1 20
REMARK H PARENT
REMARK Flexibility Score: inf
ROOT
ATOM      1  C   UNL     1      -5.560  35.636  21.694  1.00  0.00     0.000 C 
ENDROOT
BRANCH   1   2
ATOM      2  C   UNL     1      -5.011  34.577  22.666  1.00  0.00     0.000 C 
BRANCH   2   3
ATOM      3  C   UNL     1      -5.783  34.529  23.993  1.00  0.00     0.000 C 
BRANCH   3   4
ATOM      4  C   UNL     1      -6.125  35.931  24.527  1.00  0.00     0.000 C 
BRANCH   4   5
ATOM      5  C   UNL     1      -5.001  36.521  25.396  1.00  0.00     0.000 C 
BRANCH   5   6
ATOM      6  C   UNL     1      -5.142  38.040  25.590  1.00  0.00     0.000 C 
BRANCH   6   7
ATOM      7  C   UNL     1      -4.638  38.841  24.378  1.00  0.00     0.006 C 
BRANCH   7   8
ATOM      8  C   UNL     1      -5.550  40.024  24.027  1.00  0.00     0.053 C 
BRANCH   8   9
ATOM      9  C   UNL     1      -5.789  40.077  22.551  1.00  0.00     0.041 C 
ATOM     10  O   UNL     1      -5.925  41.186  21.971  1.00  0.00    -0.550 OA
ATOM     11  O   UNL     1      -5.802  38.906  21.805  1.00  0.00    -0.550 OA
ENDBRANCH   8   9
ENDBRANCH   7   8
ENDBRANCH   6   7
ENDBRANCH   5   6
ENDBRANCH   4   5
ENDBRANCH   3   4
ENDBRANCH   2   3
ENDBRANCH   1   2
BRANCH   1  12
ATOM     12  C   UNL     1      -6.021  35.036  20.358  1.00  0.00     0.000 C 
BRANCH  12  13
ATOM     13  C   UNL     1      -5.177  35.524  19.168  1.00  0.00    -0.000 C 
BRANCH  13  14
ATOM     14  C   UNL     1      -4.514  36.884  19.438  1.00  0.00    -0.000 C 
BRANCH  14  15
ATOM     15  C   UNL     1      -3.296  37.136  18.535  1.00  0.00    -0.000 C 
BRANCH  15  16
ATOM     16  C   UNL     1      -3.411  36.347  17.225  1.00  0.00    -0.000 C 
BRANCH  16  17
ATOM     17  C   UNL     1      -2.311  36.759  16.235  1.00  0.00    -0.000 C 
BRANCH  17  18
ATOM     18  C   UNL     1      -2.584  36.243  14.807  1.00  0.00    -0.000 C 
BRANCH  18  19
ATOM     19  C   UNL     1      -3.925  36.723  14.225  1.00  0.00    -0.003 C 
ATOM     20  C   UNL     1      -4.152  38.221  14.401  1.00  0.00     0.004 C 
ENDBRANCH  18  19
ENDBRANCH  17  18
ENDBRANCH  16  17
ENDBRANCH  15  16
ENDBRANCH  14  15
ENDBRANCH  13  14
ENDBRANCH  12  13
ENDBRANCH   1  12
TORSDOF 16
ENDMDL
MODEL 2
REMARK VINA RESULT:    -2.079      1.969      4.082
REMARK INTER + INTRA:          -5.002
REMARK INTER:                  -4.511
REMARK INTRA:                  -0.491
REMARK UNBOUND:                -0.978
REMARK SMILES CCCCCCCCCCCCCCCCCC(=O)[O-]
REMARK SMILES IDX 10 1 11 2 12 3 13 4 14 5 15 6 16 7 17 8 18 9 19 10 20 11
REMARK SMILES IDX 9 12 8 13 7 14 6 15 5 16 4 17 3 18 2 19 1 20
REMARK H PARENT
REMARK Flexibility Score: inf
ROOT
ATOM      1  C   UNL     1      -2.518  37.774  19.622  1.00  0.00     0.000 C 
ENDROOT
BRANCH   1   2
ATOM      2  C   UNL     1      -3.110  36.363  19.781  1.00  0.00     0.000 C 
BRANCH   2   3
ATOM      3  C   UNL     1      -4.552  36.261  19.259  1.00  0.00     0.000 C 
BRANCH   3   4
ATOM      4  C   UNL     1      -5.596  36.575  20.345  1.00  0.00     0.000 C 
BRANCH   4   5
ATOM      5  C   UNL     1      -6.123  35.308  21.040  1.00  0.00     0.000 C 
BRANCH   5   6
ATOM      6  C   UNL     1      -5.264  34.901  22.250  1.00  0.00     0.000 C 
BRANCH   6   7
ATOM      7  C   UNL     1      -6.110  34.526  23.477  1.00  0.00     0.006 C 
BRANCH   7   8
ATOM      8  C   UNL     1      -5.505  35.034  24.793  1.00  0.00     0.053 C 
BRANCH   8   9
ATOM      9  C   UNL     1      -5.607  36.525  24.872  1.00  0.00     0.041 C 
ATOM     10  O   UNL     1      -5.249  37.129  25.916  1.00  0.00    -0.550 OA
ATOM     11  O   UNL     1      -6.040  37.252  23.771  1.00  0.00    -0.550 OA
ENDBRANCH   8   9
ENDBRANCH   7   8
ENDBRANCH   6   7
ENDBRANCH   5   6
ENDBRANCH   4   5
ENDBRANCH   3   4
ENDBRANCH   2   3
ENDBRANCH   1   2
BRANCH   1  12
ATOM     12  C   UNL     1      -1.045  37.756  19.185  1.00  0.00     0.000 C 
BRANCH  12  13
ATOM     13  C   UNL     1      -0.828  36.986  17.871  1.00  0.00    -0.000 C 
BRANCH  13  14
ATOM     14  C   UNL     1      -1.951  37.237  16.852  1.00  0.00    -0.000 C 
BRANCH  14  15
ATOM     15  C   UNL     1      -1.922  36.238  15.685  1.00  0.00    -0.000 C 
BRANCH  15  16
ATOM     16  C   UNL     1      -3.342  35.828  15.277  1.00  0.00    -0.000 C 
BRANCH  16  17
ATOM     17  C   UNL     1      -3.694  36.369  13.883  1.00  0.00    -0.000 C 
BRANCH  17  18
ATOM     18  C   UNL     1      -4.790  37.454  13.935  1.00  0.00    -0.000 C 
BRANCH  18  19
ATOM     19  C   UNL     1      -4.312  38.783  14.544  1.00  0.00    -0.003 C 
ATOM     20  C   UNL     1      -5.051  39.997  13.988  1.00  0.00     0.004 C 
ENDBRANCH  18  19
ENDBRANCH  17  18
ENDBRANCH  16  17
ENDBRANCH  15  16
ENDBRANCH  14  15
ENDBRANCH  13  14
ENDBRANCH  12  13
ENDBRANCH   1  12
TORSDOF 16
ENDMDL
MODEL 3
REMARK VINA RESULT:    -1.866      1.172      2.288
REMARK INTER + INTRA:          -4.589
REMARK INTER:                  -4.459
REMARK INTRA:                  -0.130
REMARK UNBOUND:                -0.978
REMARK SMILES CCCCCCCCCCCCCCCCCC(=O)[O-]
REMARK SMILES IDX 10 1 11 2 12 3 13 4 14 5 15 6 16 7 17 8 18 9 19 10 20 11
REMARK SMILES IDX 9 12 8 13 7 14 6 15 5 16 4 17 3 18 2 19 1 20
REMARK H PARENT
REMARK Flexibility Score: inf
ROOT
ATOM      1  C   UNL     1      -4.123  36.736  20.056  1.00  0.00     0.000 C 
ENDROOT
BRANCH   1   2
ATOM      2  C   UNL     1      -4.957  35.446  20.139  1.00  0.00     0.000 C 
BRANCH   2   3
ATOM      3  C   UNL     1      -5.891  35.419  21.358  1.00  0.00     0.000 C 
BRANCH   3   4
ATOM      4  C   UNL     1      -5.210  34.840  22.611  1.00  0.00     0.000 C 
BRANCH   4   5
ATOM      5  C   UNL     1      -6.031  35.078  23.890  1.00  0.00     0.000 C 
BRANCH   5   6
ATOM      6  C   UNL     1      -5.991  36.546  24.350  1.00  0.00     0.000 C 
BRANCH   6   7
ATOM      7  C   UNL     1      -6.004  37.535  23.173  1.00  0.00     0.006 C 
BRANCH   7   8
ATOM      8  C   UNL     1      -5.536  38.940  23.574  1.00  0.00     0.053 C 
BRANCH   8   9
ATOM      9  C   UNL     1      -5.721  39.895  22.437  1.00  0.00     0.041 C 
ATOM     10  O   UNL     1      -5.899  39.462  21.269  1.00  0.00    -0.550 OA
ATOM     11  O   UNL     1      -5.756  41.262  22.675  1.00  0.00    -0.550 OA
ENDBRANCH   8   9
ENDBRANCH   7   8
ENDBRANCH   6   7
ENDBRANCH   5   6
ENDBRANCH   4   5
ENDBRANCH   3   4
ENDBRANCH   2   3
ENDBRANCH   1   2
BRANCH   1  12
ATOM     12  C   UNL     1      -2.645  36.513  20.411  1.00  0.00     0.000 C 
BRANCH  12  13
ATOM     13  C   UNL     1      -1.733  37.630  19.876  1.00  0.00    -0.000 C 
BRANCH  13  14
ATOM     14  C   UNL     1      -1.324  37.402  18.411  1.00  0.00    -0.000 C 
BRANCH  14  15
ATOM     15  C   UNL     1      -2.533  37.174  17.490  1.00  0.00    -0.000 C 
BRANCH  15  16
ATOM     16  C   UNL     1      -2.091  36.614  16.133  1.00  0.00    -0.000 C 
BRANCH  16  17
ATOM     17  C   UNL     1      -3.159  35.676  15.550  1.00  0.00    -0.000 C 
BRANCH  17  18
ATOM     18  C   UNL     1      -3.593  36.092  14.129  1.00  0.00    -0.000 C 
BRANCH  18  19
ATOM     19  C   UNL     1      -3.496  37.607  13.875  1.00  0.00    -0.003 C 
ATOM     20  C   UNL     1      -4.814  38.338  14.110  1.00  0.00     0.004 C 
ENDBRANCH  18  19
ENDBRANCH  17  18
ENDBRANCH  16  17
ENDBRANCH  15  16
ENDBRANCH  14  15
ENDBRANCH  13  14
ENDBRANCH  12  13
ENDBRANCH   1  12
TORSDOF 16
ENDMDL
MODEL 4
REMARK VINA RESULT:    -1.400      2.427      3.660
REMARK INTER + INTRA:          -3.688
REMARK INTER:                  -2.494
REMARK INTRA:                  -1.194
REMARK UNBOUND:                -0.978
REMARK SMILES CCCCCCCCCCCCCCCCCC(=O)[O-]
REMARK SMILES IDX 10 1 11 2 12 3 13 4 14 5 15 6 16 7 17 8 18 9 19 10 20 11
REMARK SMILES IDX 9 12 8 13 7 14 6 15 5 16 4 17 3 18 2 19 1 20
REMARK H PARENT
REMARK Flexibility Score: inf
ROOT
ATOM      1  C   UNL     1      -4.773  34.839  22.086  1.00  0.00     0.000 C 
ENDROOT
BRANCH   1   2
ATOM      2  C   UNL     1      -6.125  35.572  22.126  1.00  0.00     0.000 C 
BRANCH   2   3
ATOM      3  C   UNL     1      -6.125  36.768  23.091  1.00  0.00     0.000 C 
BRANCH   3   4
ATOM      4  C   UNL     1      -5.277  37.944  22.572  1.00  0.00     0.000 C 
BRANCH   4   5
ATOM      5  C   UNL     1      -5.845  38.553  21.279  1.00  0.00     0.000 C 
BRANCH   5   6
ATOM      6  C   UNL     1      -5.105  38.061  20.023  1.00  0.00     0.000 C 
BRANCH   6   7
ATOM      7  C   UNL     1      -3.644  37.676  20.309  1.00  0.00     0.006 C 
BRANCH   7   8
ATOM      8  C   UNL     1      -2.787  37.615  19.038  1.00  0.00     0.053 C 
BRANCH   8   9
ATOM      9  C   UNL     1      -1.343  37.441  19.391  1.00  0.00     0.041 C 
ATOM     10  O   UNL     1      -0.448  37.726  18.555  1.00  0.00    -0.550 OA
ATOM     11  O   UNL     1      -0.985  37.021  20.665  1.00  0.00    -0.550 OA
ENDBRANCH   8   9
ENDBRANCH   7   8
ENDBRANCH   6   7
ENDBRANCH   5   6
ENDBRANCH   4   5
ENDBRANCH   3   4
ENDBRANCH   2   3
ENDBRANCH   1   2
BRANCH   1  12
ATOM     12  C   UNL     1      -4.292  34.556  20.655  1.00  0.00     0.000 C 
BRANCH  12  13
ATOM     13  C   UNL     1      -5.443  34.552  19.634  1.00  0.00    -0.000 C 
BRANCH  13  14
ATOM     14  C   UNL     1      -4.961  34.251  18.206  1.00  0.00    -0.000 C 
BRANCH  14  15
ATOM     15  C   UNL     1      -4.272  35.458  17.550  1.00  0.00    -0.000 C 
BRANCH  15  16
ATOM     16  C   UNL     1      -3.310  35.007  16.444  1.00  0.00    -0.000 C 
BRANCH  16  17
ATOM     17  C   UNL     1      -2.413  36.167  15.987  1.00  0.00    -0.000 C 
BRANCH  17  18
ATOM     18  C   UNL     1      -2.572  36.474  14.483  1.00  0.00    -0.000 C 
BRANCH  18  19
ATOM     19  C   UNL     1      -4.000  36.890  14.088  1.00  0.00    -0.003 C 
ATOM     20  C   UNL     1      -4.271  38.376  14.303  1.00  0.00     0.004 C 
ENDBRANCH  18  19
ENDBRANCH  17  18
ENDBRANCH  16  17
ENDBRANCH  15  16
ENDBRANCH  14  15
ENDBRANCH  13  14
ENDBRANCH  12  13
ENDBRANCH   1  12
TORSDOF 16
ENDMDL
MODEL 5
REMARK VINA RESULT:    -1.341      2.882      6.623
REMARK INTER + INTRA:          -3.574
REMARK INTER:                  -1.734
REMARK INTRA:                  -1.840
REMARK UNBOUND:                -0.978
REMARK SMILES CCCCCCCCCCCCCCCCCC(=O)[O-]
REMARK SMILES IDX 10 1 11 2 12 3 13 4 14 5 15 6 16 7 17 8 18 9 19 10 20 11
REMARK SMILES IDX 9 12 8 13 7 14 6 15 5 16 4 17 3 18 2 19 1 20
REMARK H PARENT
REMARK Flexibility Score: inf
ROOT
ATOM      1  C   UNL     1      -4.703  34.655  22.700  1.00  0.00     0.000 C 
ENDROOT
BRANCH   1   2
ATOM      2  C   UNL     1      -4.706  34.527  21.166  1.00  0.00     0.000 C 
BRANCH   2   3
ATOM      3  C   UNL     1      -6.063  34.884  20.541  1.00  0.00     0.000 C 
BRANCH   3   4
ATOM      4  C   UNL     1      -5.983  35.048  19.013  1.00  0.00     0.000 C 
BRANCH   4   5
ATOM      5  C   UNL     1      -4.753  34.349  18.409  1.00  0.00     0.000 C 
BRANCH   5   6
ATOM      6  C   UNL     1      -4.186  35.103  17.193  1.00  0.00     0.000 C 
BRANCH   6   7
ATOM      7  C   UNL     1      -3.329  36.315  17.594  1.00  0.00     0.006 C 
BRANCH   7   8
ATOM      8  C   UNL     1      -3.295  37.401  16.511  1.00  0.00     0.053 C 
BRANCH   8   9
ATOM      9  C   UNL     1      -3.164  36.782  15.156  1.00  0.00     0.041 C 
ATOM     10  O   UNL     1      -4.028  37.009  14.270  1.00  0.00    -0.550 OA
ATOM     11  O   UNL     1      -2.057  36.001  14.851  1.00  0.00    -0.550 OA
ENDBRANCH   8   9
ENDBRANCH   7   8
ENDBRANCH   6   7
ENDBRANCH   5   6
ENDBRANCH   4   5
ENDBRANCH   3   4
ENDBRANCH   2   3
ENDBRANCH   1   2
BRANCH   1  12
ATOM     12  C   UNL     1      -6.116  34.803  23.286  1.00  0.00     0.000 C 
BRANCH  12  13
ATOM     13  C   UNL     1      -6.101  35.255  24.756  1.00  0.00    -0.000 C 
BRANCH  13  14
ATOM     14  C   UNL     1      -5.775  36.750  24.908  1.00  0.00    -0.000 C 
BRANCH  14  15
ATOM     15  C   UNL     1      -6.039  37.545  23.620  1.00  0.00    -0.000 C 
BRANCH  15  16
ATOM     16  C   UNL     1      -5.360  38.919  23.673  1.00  0.00    -0.000 C 
BRANCH  16  17
ATOM     17  C   UNL     1      -5.392  39.603  22.298  1.00  0.00    -0.000 C 
BRANCH  17  18
ATOM     18  C   UNL     1      -6.121  38.753  21.237  1.00  0.00    -0.000 C 
BRANCH  18  19
ATOM     19  C   UNL     1      -5.207  38.284  20.091  1.00  0.00    -0.003 C 
ATOM     20  C   UNL     1      -3.838  37.811  20.572  1.00  0.00     0.004 C 
ENDBRANCH  18  19
ENDBRANCH  17  18
ENDBRANCH  16  17
ENDBRANCH  15  16
ENDBRANCH  14  15
ENDBRANCH  13  14
ENDBRANCH  12  13
ENDBRANCH   1  12
TORSDOF 16
ENDMDL
MODEL 6
REMARK VINA RESULT:    -1.079      2.575      7.192
REMARK INTER + INTRA:          -3.067
REMARK INTER:                  -1.831
REMARK INTRA:                  -1.236
REMARK UNBOUND:                -0.978
REMARK SMILES CCCCCCCCCCCCCCCCCC(=O)[O-]
REMARK SMILES IDX 10 1 11 2 12 3 13 4 14 5 15 6 16 7 17 8 18 9 19 10 20 11
REMARK SMILES IDX 9 12 8 13 7 14 6 15 5 16 4 17 3 18 2 19 1 20
REMARK H PARENT
REMARK Flexibility Score: inf
ROOT
ATOM      1  C   UNL     1      -6.120  34.639  21.637  1.00  0.00     0.000 C 
ENDROOT
BRANCH   1   2
ATOM      2  C   UNL     1      -5.768  35.156  20.231  1.00  0.00     0.000 C 
BRANCH   2   3
ATOM      3  C   UNL     1      -4.321  35.661  20.127  1.00  0.00     0.000 C 
BRANCH   3   4
ATOM      4  C   UNL     1      -4.227  37.053  19.478  1.00  0.00     0.000 C 
BRANCH   4   5
ATOM      5  C   UNL     1      -3.163  37.115  18.369  1.00  0.00     0.000 C 
BRANCH   5   6
ATOM      6  C   UNL     1      -3.599  36.374  17.094  1.00  0.00     0.000 C 
BRANCH   6   7
ATOM      7  C   UNL     1      -2.425  36.088  16.144  1.00  0.00     0.006 C 
BRANCH   7   8
ATOM      8  C   UNL     1      -2.460  36.955  14.879  1.00  0.00     0.053 C 
BRANCH   8   9
ATOM      9  C   UNL     1      -3.860  37.397  14.589  1.00  0.00     0.041 C 
ATOM     10  O   UNL     1      -4.153  38.621  14.601  1.00  0.00    -0.550 OA
ATOM     11  O   UNL     1      -4.828  36.462  14.248  1.00  0.00    -0.550 OA
ENDBRANCH   8   9
ENDBRANCH   7   8
ENDBRANCH   6   7
ENDBRANCH   5   6
ENDBRANCH   4   5
ENDBRANCH   3   4
ENDBRANCH   2   3
ENDBRANCH   1   2
BRANCH   1  12
ATOM     12  C   UNL     1      -5.207  35.216  22.729  1.00  0.00     0.000 C 
BRANCH  12  13
ATOM     13  C   UNL     1      -5.819  35.099  24.135  1.00  0.00    -0.000 C 
BRANCH  13  14
ATOM     14  C   UNL     1      -6.118  36.471  24.761  1.00  0.00    -0.000 C 
BRANCH  14  15
ATOM     15  C   UNL     1      -4.925  37.032  25.550  1.00  0.00    -0.000 C 
BRANCH  15  16
ATOM     16  C   UNL     1      -4.718  38.521  25.249  1.00  0.00    -0.000 C 
BRANCH  16  17
ATOM     17  C   UNL     1      -5.709  39.011  24.182  1.00  0.00    -0.000 C 
BRANCH  17  18
ATOM     18  C   UNL     1      -5.059  39.129  22.788  1.00  0.00    -0.000 C 
BRANCH  18  19
ATOM     19  C   UNL     1      -6.079  39.218  21.639  1.00  0.00    -0.003 C 
ATOM     20  C   UNL     1      -6.125  40.595  20.985  1.00  0.00     0.004 C 
ENDBRANCH  18  19
ENDBRANCH  17  18
ENDBRANCH  16  17
ENDBRANCH  15  16
ENDBRANCH  14  15
ENDBRANCH  13  14
ENDBRANCH  12  13
ENDBRANCH   1  12
TORSDOF 16
ENDMDL
MODEL 7
REMARK VINA RESULT:    -1.005      1.886      3.393
REMARK INTER + INTRA:          -2.923
REMARK INTER:                  -2.112
REMARK INTRA:                  -0.811
REMARK UNBOUND:                -0.978
REMARK SMILES CCCCCCCCCCCCCCCCCC(=O)[O-]
REMARK SMILES IDX 10 1 11 2 12 3 13 4 14 5 15 6 16 7 17 8 18 9 19 10 20 11
REMARK SMILES IDX 9 12 8 13 7 14 6 15 5 16 4 17 3 18 2 19 1 20
REMARK H PARENT
REMARK Flexibility Score: inf
ROOT
ATOM      1  C   UNL     1      -6.115  38.765  21.899  1.00  0.00     0.000 C 
ENDROOT
BRANCH   1   2
ATOM      2  C   UNL     1      -5.635  40.026  22.638  1.00  0.00     0.000 C 
BRANCH   2   3
ATOM      3  C   UNL     1      -5.174  39.734  24.075  1.00  0.00     0.000 C 
BRANCH   3   4
ATOM      4  C   UNL     1      -4.664  38.292  24.249  1.00  0.00     0.000 C 
BRANCH   4   5
ATOM      5  C   UNL     1      -4.738  37.814  25.709  1.00  0.00     0.000 C 
BRANCH   5   6
ATOM      6  C   UNL     1      -5.602  36.552  25.872  1.00  0.00     0.000 C 
BRANCH   6   7
ATOM      7  C   UNL     1      -6.125  36.015  24.530  1.00  0.00     0.006 C 
BRANCH   7   8
ATOM      8  C   UNL     1      -5.484  34.678  24.135  1.00  0.00     0.053 C 
BRANCH   8   9
ATOM      9  C   UNL     1      -5.053  34.710  22.702  1.00  0.00     0.041 C 
ATOM     10  O   UNL     1      -5.904  34.867  21.789  1.00  0.00    -0.550 OA
ATOM     11  O   UNL     1      -3.706  34.625  22.379  1.00  0.00    -0.550 OA
ENDBRANCH   8   9
ENDBRANCH   7   8
ENDBRANCH   6   7
ENDBRANCH   5   6
ENDBRANCH   4   5
ENDBRANCH   3   4
ENDBRANCH   2   3
ENDBRANCH   1   2
BRANCH   1  12
ATOM     12  C   UNL     1      -5.521  38.642  20.487  1.00  0.00     0.000 C 
BRANCH  12  13
ATOM     13  C   UNL     1      -5.247  37.182  20.087  1.00  0.00    -0.000 C 
BRANCH  13  14
ATOM     14  C   UNL     1      -3.748  36.898  19.896  1.00  0.00    -0.000 C 
BRANCH  14  15
ATOM     15  C   UNL     1      -3.199  37.478  18.584  1.00  0.00    -0.000 C 
BRANCH  15  16
ATOM     16  C   UNL     1      -3.365  36.482  17.430  1.00  0.00    -0.000 C 
BRANCH  16  17
ATOM     17  C   UNL     1      -2.223  36.621  16.413  1.00  0.00    -0.000 C 
BRANCH  17  18
ATOM     18  C   UNL     1      -2.568  35.980  15.053  1.00  0.00    -0.000 C 
BRANCH  18  19
ATOM     19  C   UNL     1      -3.121  36.981  14.023  1.00  0.00    -0.003 C 
ATOM     20  C   UNL     1      -4.413  37.653  14.477  1.00  0.00     0.004 C 
ENDBRANCH  18  19
ENDBRANCH  17  18
ENDBRANCH  16  17
ENDBRANCH  15  16
ENDBRANCH  14  15
ENDBRANCH  13  14
ENDBRANCH  12  13
ENDBRANCH   1  12
TORSDOF 16
ENDMDL
MODEL 8
REMARK VINA RESULT:    -0.801      2.945      7.822
REMARK INTER + INTRA:          -2.529
REMARK INTER:                  -1.298
REMARK INTRA:                  -1.232
REMARK UNBOUND:                -0.978
REMARK SMILES CCCCCCCCCCCCCCCCCC(=O)[O-]
REMARK SMILES IDX 10 1 11 2 12 3 13 4 14 5 15 6 16 7 17 8 18 9 19 10 20 11
REMARK SMILES IDX 9 12 8 13 7 14 6 15 5 16 4 17 3 18 2 19 1 20
REMARK H PARENT
REMARK Flexibility Score: inf
ROOT
ATOM      1  C   UNL     1      -4.451  37.064  19.115  1.00  0.00     0.000 C 
ENDROOT
BRANCH   1   2
ATOM      2  C   UNL     1      -3.420  37.911  19.880  1.00  0.00     0.000 C 
BRANCH   2   3
ATOM      3  C   UNL     1      -2.408  37.056  20.659  1.00  0.00     0.000 C 
BRANCH   3   4
ATOM      4  C   UNL     1      -1.089  36.858  19.891  1.00  0.00     0.000 C 
BRANCH   4   5
ATOM      5  C   UNL     1      -0.935  37.845  18.721  1.00  0.00     0.000 C 
BRANCH   5   6
ATOM      6  C   UNL     1      -0.912  37.138  17.355  1.00  0.00     0.000 C 
BRANCH   6   7
ATOM      7  C   UNL     1      -2.304  37.055  16.708  1.00  0.00     0.006 C 
BRANCH   7   8
ATOM      8  C   UNL     1      -2.257  36.536  15.265  1.00  0.00     0.053 C 
BRANCH   8   9
ATOM      9  C   UNL     1      -3.531  36.863  14.552  1.00  0.00     0.041 C 
ATOM     10  O   UNL     1      -4.282  35.941  14.142  1.00  0.00    -0.550 OA
ATOM     11  O   UNL     1      -3.918  38.187  14.392  1.00  0.00    -0.550 OA
ENDBRANCH   8   9
ENDBRANCH   7   8
ENDBRANCH   6   7
ENDBRANCH   5   6
ENDBRANCH   4   5
ENDBRANCH   3   4
ENDBRANCH   2   3
ENDBRANCH   1   2
BRANCH   1  12
ATOM     12  C   UNL     1      -4.432  35.585  19.530  1.00  0.00     0.000 C 
BRANCH  12  13
ATOM     13  C   UNL     1      -5.844  34.991  19.669  1.00  0.00    -0.000 C 
BRANCH  13  14
ATOM     14  C   UNL     1      -6.124  34.470  21.088  1.00  0.00    -0.000 C 
BRANCH  14  15
ATOM     15  C   UNL     1      -5.174  35.069  22.135  1.00  0.00    -0.000 C 
BRANCH  15  16
ATOM     16  C   UNL     1      -5.953  35.836  23.211  1.00  0.00    -0.000 C 
BRANCH  16  17
ATOM     17  C   UNL     1      -6.081  35.005  24.496  1.00  0.00    -0.000 C 
BRANCH  17  18
ATOM     18  C   UNL     1      -6.123  35.886  25.762  1.00  0.00    -0.000 C 
BRANCH  18  19
ATOM     19  C   UNL     1      -5.498  37.278  25.564  1.00  0.00    -0.003 C 
ATOM     20  C   UNL     1      -4.135  37.422  26.234  1.00  0.00     0.004 C 
ENDBRANCH  18  19
ENDBRANCH  17  18
ENDBRANCH  16  17
ENDBRANCH  15  16
ENDBRANCH  14  15
ENDBRANCH  13  14
ENDBRANCH  12  13
ENDBRANCH   1  12
TORSDOF 16
ENDMDL
MODEL 9
REMARK VINA RESULT:     0.773      2.778      7.760
REMARK INTER + INTRA:           0.517
REMARK INTER:                   1.906
REMARK INTRA:                  -1.389
REMARK UNBOUND:                -0.978
REMARK SMILES CCCCCCCCCCCCCCCCCC(=O)[O-]
REMARK SMILES IDX 10 1 11 2 12 3 13 4 14 5 15 6 16 7 17 8 18 9 19 10 20 11
REMARK SMILES IDX 9 12 8 13 7 14 6 15 5 16 4 17 3 18 2 19 1 20
REMARK H PARENT
REMARK Flexibility Score: inf
ROOT
ATOM      1  C   UNL     1      -5.072  38.044  20.686  1.00  0.00     0.000 C 
ENDROOT
BRANCH   1   2
ATOM      2  C   UNL     1      -5.545  36.803  19.909  1.00  0.00     0.000 C 
BRANCH   2   3
ATOM      3  C   UNL     1      -4.394  35.848  19.557  1.00  0.00     0.000 C 
BRANCH   3   4
ATOM      4  C   UNL     1      -3.905  36.022  18.108  1.00  0.00     0.000 C 
BRANCH   4   5
ATOM      5  C   UNL     1      -2.883  37.163  17.966  1.00  0.00     0.000 C 
BRANCH   5   6
ATOM      6  C   UNL     1      -2.265  37.226  16.558  1.00  0.00     0.000 C 
BRANCH   6   7
ATOM      7  C   UNL     1      -2.796  36.123  15.628  1.00  0.00     0.006 C 
BRANCH   7   8
ATOM      8  C   UNL     1      -2.964  36.599  14.179  1.00  0.00     0.053 C 
BRANCH   8   9
ATOM      9  C   UNL     1      -4.217  37.403  14.036  1.00  0.00     0.041 C 
ATOM     10  O   UNL     1      -5.334  36.829  13.966  1.00  0.00    -0.550 OA
ATOM     11  O   UNL     1      -4.157  38.790  14.041  1.00  0.00    -0.550 OA
ENDBRANCH   8   9
ENDBRANCH   7   8
ENDBRANCH   6   7
ENDBRANCH   5   6
ENDBRANCH   4   5
ENDBRANCH   3   4
ENDBRANCH   2   3
ENDBRANCH   1   2
BRANCH   1  12
ATOM     12  C   UNL     1      -6.125  39.162  20.718  1.00  0.00     0.000 C 
BRANCH  12  13
ATOM     13  C   UNL     1      -5.988  40.068  21.954  1.00  0.00    -0.000 C 
BRANCH  13  14
ATOM     14  C   UNL     1      -4.878  39.596  22.907  1.00  0.00    -0.000 C 
BRANCH  14  15
ATOM     15  C   UNL     1      -5.434  39.000  24.210  1.00  0.00    -0.000 C 
BRANCH  15  16
ATOM     16  C   UNL     1      -6.125  37.656  23.948  1.00  0.00    -0.000 C 
BRANCH  16  17
ATOM     17  C   UNL     1      -5.784  36.638  25.046  1.00  0.00    -0.000 C 
BRANCH  17  18
ATOM     18  C   UNL     1      -6.099  35.189  24.621  1.00  0.00    -0.000 C 
BRANCH  18  19
ATOM     19  C   UNL     1      -5.880  34.927  23.120  1.00  0.00    -0.003 C 
ATOM     20  C   UNL     1      -4.561  34.221  22.822  1.00  0.00     0.004 C 
ENDBRANCH  18  19
ENDBRANCH  17  18
ENDBRANCH  16  17
ENDBRANCH  15  16
ENDBRANCH  14  15
ENDBRANCH  13  14
ENDBRANCH  12  13
ENDBRANCH   1  12
TORSDOF 16
ENDMDL
