MODEL 1
REMARK VINA RESULT:    -6.346      0.000      0.000
REMARK INTER + INTRA:          -8.102
REMARK INTER:                  -7.644
REMARK INTRA:                  -0.458
REMARK UNBOUND:                -0.458
REMARK SMILES O=c1c(O)c(-c2ccc(O)cc2O)oc2cc(O)cc(O)c12
REMARK SMILES IDX 5 1 3 2 2 3 1 4 22 5 20 6 19 7 17 8 16 9 15 10 14 11 6 12
REMARK SMILES IDX 8 13 7 14 9 15 11 16 12 17 10 18 13 20 4 22 21 24 18 26
REMARK H PARENT 10 19 13 21 4 23 21 25 18 27
REMARK Flexibility Score: inf
ROOT
ATOM      1  C   UNL     1      17.487  13.347  17.120  1.00  0.00     0.184 A 
ATOM      2  C   UNL     1      18.099  12.874  15.948  1.00  0.00     0.208 A 
ATOM      3  C   UNL     1      17.886  13.562  14.742  1.00  0.00     0.238 A 
ATOM      4  O   UNL     1      18.379  13.092  13.684  1.00  0.00    -0.285 OA
ATOM      5  C   UNL     1      17.104  14.743  14.734  1.00  0.00     0.111 A 
ATOM      6  C   UNL     1      16.858  15.545  13.579  1.00  0.00     0.134 A 
ATOM      7  C   UNL     1      15.980  16.632  13.667  1.00  0.00     0.093 A 
ATOM      8  C   UNL     1      15.390  16.985  14.880  1.00  0.00     0.123 A 
ATOM      9  C   UNL     1      15.667  16.242  16.028  1.00  0.00     0.094 A 
ATOM     10  C   UNL     1      16.509  15.128  15.963  1.00  0.00     0.146 A 
ATOM     11  O   UNL     1      16.729  14.436  17.074  1.00  0.00    -0.451 OA
ENDROOT
BRANCH   1  12
ATOM     12  C   UNL     1      17.659  12.664  18.423  1.00  0.00     0.063 A 
ATOM     13  C   UNL     1      17.193  10.784  19.897  1.00  0.00     0.047 A 
ATOM     14  C   UNL     1      17.055  11.415  18.658  1.00  0.00     0.020 A 
ATOM     15  C   UNL     1      17.927  11.394  20.920  1.00  0.00     0.119 A 
ATOM     16  C   UNL     1      18.518  12.641  20.701  1.00  0.00     0.093 A 
ATOM     17  C   UNL     1      18.386  13.282  19.460  1.00  0.00     0.130 A 
BRANCH  15  18
ATOM     18  O   UNL     1      18.071  10.772  22.159  1.00  0.00    -0.508 OA
ATOM     19  H   UNL     1      18.901  10.905  22.724  1.00  0.00     0.293 HD
ENDBRANCH  15  18
BRANCH  17  20
ATOM     20  O   UNL     1      18.987  14.524  19.252  1.00  0.00    -0.507 OA
ATOM     21  H   UNL     1      18.988  14.968  18.342  1.00  0.00     0.293 HD
ENDBRANCH  17  20
ENDBRANCH   1  12
BRANCH   2  22
ATOM     22  O   UNL     1      18.923  11.746  15.993  1.00  0.00    -0.502 OA
ATOM     23  H   UNL     1      19.423  11.471  16.830  1.00  0.00     0.293 HD
ENDBRANCH   2  22
BRANCH   6  24
ATOM     24  O   UNL     1      17.465  15.337  12.336  1.00  0.00    -0.507 OA
ATOM     25  H   UNL     1      17.116  15.687  11.457  1.00  0.00     0.293 HD
ENDBRANCH   6  24
BRANCH   8  26
ATOM     26  O   UNL     1      14.535  18.084  14.935  1.00  0.00    -0.508 OA
ATOM     27  H   UNL     1      13.612  18.059  14.518  1.00  0.00     0.293 HD
ENDBRANCH   8  26
TORSDOF 6
ENDMDL
MODEL 2
REMARK VINA RESULT:    -6.343      1.587      6.932
REMARK INTER + INTRA:          -8.099
REMARK INTER:                  -7.639
REMARK INTRA:                  -0.459
REMARK UNBOUND:                -0.458
REMARK SMILES O=c1c(O)c(-c2ccc(O)cc2O)oc2cc(O)cc(O)c12
REMARK SMILES IDX 5 1 3 2 2 3 1 4 22 5 20 6 19 7 17 8 16 9 15 10 14 11 6 12
REMARK SMILES IDX 8 13 7 14 9 15 11 16 12 17 10 18 13 20 4 22 21 24 18 26
REMARK H PARENT 10 19 13 21 4 23 21 25 18 27
REMARK Flexibility Score: inf
ROOT
ATOM      1  C   UNL     1      17.168  13.475  17.702  1.00  0.00     0.184 A 
ATOM      2  C   UNL     1      18.042  13.824  18.745  1.00  0.00     0.208 A 
ATOM      3  C   UNL     1      18.252  12.913  19.792  1.00  0.00     0.238 A 
ATOM      4  O   UNL     1      18.979  13.261  20.758  1.00  0.00    -0.285 OA
ATOM      5  C   UNL     1      17.625  11.643  19.757  1.00  0.00     0.111 A 
ATOM      6  C   UNL     1      17.801  10.624  20.741  1.00  0.00     0.134 A 
ATOM      7  C   UNL     1      17.045   9.448  20.660  1.00  0.00     0.093 A 
ATOM      8  C   UNL     1      16.170   9.226  19.598  1.00  0.00     0.123 A 
ATOM      9  C   UNL     1      16.031  10.191  18.600  1.00  0.00     0.094 A 
ATOM     10  C   UNL     1      16.743  11.392  18.674  1.00  0.00     0.146 A 
ATOM     11  O   UNL     1      16.565  12.292  17.715  1.00  0.00    -0.451 OA
ENDROOT
BRANCH   1  12
ATOM     12  C   UNL     1      16.891  14.393  16.573  1.00  0.00     0.063 A 
ATOM     13  C   UNL     1      15.638  16.252  15.623  1.00  0.00     0.047 A 
ATOM     14  C   UNL     1      15.919  15.404  16.698  1.00  0.00     0.020 A 
ATOM     15  C   UNL     1      16.313  16.096  14.408  1.00  0.00     0.119 A 
ATOM     16  C   UNL     1      17.268  15.086  14.270  1.00  0.00     0.093 A 
ATOM     17  C   UNL     1      17.560  14.231  15.343  1.00  0.00     0.130 A 
BRANCH  15  18
ATOM     18  O   UNL     1      16.040  16.937  13.331  1.00  0.00    -0.508 OA
ATOM     19  H   UNL     1      15.570  17.825  13.458  1.00  0.00     0.293 HD
ENDBRANCH  15  18
BRANCH  17  20
ATOM     20  O   UNL     1      18.521  13.231  15.194  1.00  0.00    -0.507 OA
ATOM     21  H   UNL     1      19.319  13.348  14.581  1.00  0.00     0.293 HD
ENDBRANCH  17  20
ENDBRANCH   1  12
BRANCH   2  22
ATOM     22  O   UNL     1      18.703  15.056  18.723  1.00  0.00    -0.502 OA
ATOM     23  H   UNL     1      19.536  15.235  19.271  1.00  0.00     0.293 HD
ENDBRANCH   2  22
BRANCH   6  24
ATOM     24  O   UNL     1      18.715  10.703  21.796  1.00  0.00    -0.507 OA
ATOM     25  H   UNL     1      19.128  11.556  22.140  1.00  0.00     0.293 HD
ENDBRANCH   6  24
BRANCH   8  26
ATOM     26  O   UNL     1      15.447   8.036  19.539  1.00  0.00    -0.508 OA
ATOM     27  H   UNL     1      14.528   7.994  19.113  1.00  0.00     0.293 HD
ENDBRANCH   8  26
TORSDOF 6
ENDMDL
MODEL 3
REMARK VINA RESULT:    -6.341      3.082      5.212
REMARK INTER + INTRA:          -8.096
REMARK INTER:                  -7.738
REMARK INTRA:                  -0.358
REMARK UNBOUND:                -0.458
REMARK SMILES O=c1c(O)c(-c2ccc(O)cc2O)oc2cc(O)cc(O)c12
REMARK SMILES IDX 5 1 3 2 2 3 1 4 22 5 20 6 19 7 17 8 16 9 15 10 14 11 6 12
REMARK SMILES IDX 8 13 7 14 9 15 11 16 12 17 10 18 13 20 4 22 21 24 18 26
REMARK H PARENT 10 19 13 21 4 23 21 25 18 27
REMARK Flexibility Score: inf
ROOT
ATOM      1  C   UNL     1      15.794  15.775  13.275  1.00  0.00     0.184 A 
ATOM      2  C   UNL     1      16.604  16.242  12.227  1.00  0.00     0.208 A 
ATOM      3  C   UNL     1      15.996  16.685  11.041  1.00  0.00     0.238 A 
ATOM      4  O   UNL     1      16.730  17.034  10.081  1.00  0.00    -0.285 OA
ATOM      5  C   UNL     1      14.583  16.703  10.938  1.00  0.00     0.111 A 
ATOM      6  C   UNL     1      13.859  17.173   9.801  1.00  0.00     0.134 A 
ATOM      7  C   UNL     1      12.465  17.042   9.769  1.00  0.00     0.093 A 
ATOM      8  C   UNL     1      11.764  16.519  10.855  1.00  0.00     0.123 A 
ATOM      9  C   UNL     1      12.458  16.109  11.994  1.00  0.00     0.094 A 
ATOM     10  C   UNL     1      13.852  16.191  12.041  1.00  0.00     0.146 A 
ATOM     11  O   UNL     1      14.473  15.769  13.135  1.00  0.00    -0.451 OA
ENDROOT
BRANCH   1  12
ATOM     12  C   UNL     1      16.369  15.281  14.548  1.00  0.00     0.063 A 
ATOM     13  C   UNL     1      17.791  13.717  15.754  1.00  0.00     0.047 A 
ATOM     14  C   UNL     1      17.271  14.201  14.551  1.00  0.00     0.020 A 
ATOM     15  C   UNL     1      17.411  14.296  16.969  1.00  0.00     0.119 A 
ATOM     16  C   UNL     1      16.505  15.360  16.977  1.00  0.00     0.093 A 
ATOM     17  C   UNL     1      15.978  15.855  15.775  1.00  0.00     0.130 A 
BRANCH  15  18
ATOM     18  O   UNL     1      17.924  13.821  18.175  1.00  0.00    -0.508 OA
ATOM     19  H   UNL     1      18.037  12.829  18.348  1.00  0.00     0.293 HD
ENDBRANCH  15  18
BRANCH  17  20
ATOM     20  O   UNL     1      15.079  16.921  15.796  1.00  0.00    -0.507 OA
ATOM     21  H   UNL     1      14.467  17.116  15.013  1.00  0.00     0.293 HD
ENDBRANCH  17  20
ENDBRANCH   1  12
BRANCH   2  22
ATOM     22  O   UNL     1      17.993  16.279  12.377  1.00  0.00    -0.502 OA
ATOM     23  H   UNL     1      18.571  15.452  12.292  1.00  0.00     0.293 HD
ENDBRANCH   2  22
BRANCH   6  24
ATOM     24  O   UNL     1      14.450  17.795   8.697  1.00  0.00    -0.507 OA
ATOM     25  H   UNL     1      14.963  18.662   8.729  1.00  0.00     0.293 HD
ENDBRANCH   6  24
BRANCH   8  26
ATOM     26  O   UNL     1      10.376  16.421  10.795  1.00  0.00    -0.508 OA
ATOM     27  H   UNL     1       9.793  17.232  10.625  1.00  0.00     0.293 HD
ENDBRANCH   8  26
TORSDOF 6
ENDMDL
MODEL 4
REMARK VINA RESULT:    -6.334      3.648      6.362
REMARK INTER + INTRA:          -8.088
REMARK INTER:                  -7.726
REMARK INTRA:                  -0.362
REMARK UNBOUND:                -0.458
REMARK SMILES O=c1c(O)c(-c2ccc(O)cc2O)oc2cc(O)cc(O)c12
REMARK SMILES IDX 5 1 3 2 2 3 1 4 22 5 20 6 19 7 17 8 16 9 15 10 14 11 6 12
REMARK SMILES IDX 8 13 7 14 9 15 11 16 12 17 10 18 13 20 4 22 21 24 18 26
REMARK H PARENT 10 19 13 21 4 23 21 25 18 27
REMARK Flexibility Score: inf
ROOT
ATOM      1  C   UNL     1      16.416  16.443  12.147  1.00  0.00     0.184 A 
ATOM      2  C   UNL     1      17.638  16.721  11.513  1.00  0.00     0.208 A 
ATOM      3  C   UNL     1      17.644  16.995  10.136  1.00  0.00     0.238 A 
ATOM      4  O   UNL     1      18.750  17.172   9.561  1.00  0.00    -0.285 OA
ATOM      5  C   UNL     1      16.423  17.037   9.421  1.00  0.00     0.111 A 
ATOM      6  C   UNL     1      16.306  17.348   8.032  1.00  0.00     0.134 A 
ATOM      7  C   UNL     1      15.056  17.254   7.406  1.00  0.00     0.093 A 
ATOM      8  C   UNL     1      13.911  16.924   8.130  1.00  0.00     0.123 A 
ATOM      9  C   UNL     1      14.005  16.672   9.499  1.00  0.00     0.094 A 
ATOM     10  C   UNL     1      15.244  16.721  10.144  1.00  0.00     0.146 A 
ATOM     11  O   UNL     1      15.291  16.454  11.443  1.00  0.00    -0.451 OA
ENDROOT
BRANCH   1  12
ATOM     12  C   UNL     1      16.338  16.134  13.594  1.00  0.00     0.063 A 
ATOM     13  C   UNL     1      16.945  14.729  15.487  1.00  0.00     0.047 A 
ATOM     14  C   UNL     1      17.041  15.037  14.127  1.00  0.00     0.020 A 
ATOM     15  C   UNL     1      16.139  15.502  16.329  1.00  0.00     0.119 A 
ATOM     16  C   UNL     1      15.426  16.583  15.805  1.00  0.00     0.093 A 
ATOM     17  C   UNL     1      15.517  16.903  14.442  1.00  0.00     0.130 A 
BRANCH  15  18
ATOM     18  O   UNL     1      16.036  15.202  17.686  1.00  0.00    -0.508 OA
ATOM     19  H   UNL     1      15.265  14.656  18.051  1.00  0.00     0.293 HD
ENDBRANCH  15  18
BRANCH  17  20
ATOM     20  O   UNL     1      14.805  17.989  13.934  1.00  0.00    -0.507 OA
ATOM     21  H   UNL     1      15.273  18.772  13.494  1.00  0.00     0.293 HD
ENDBRANCH  17  20
ENDBRANCH   1  12
BRANCH   2  22
ATOM     22  O   UNL     1      18.824  16.741  12.253  1.00  0.00    -0.502 OA
ATOM     23  H   UNL     1      19.295  17.603  12.501  1.00  0.00     0.293 HD
ENDBRANCH   2  22
BRANCH   6  24
ATOM     24  O   UNL     1      17.370  17.777   7.232  1.00  0.00    -0.507 OA
ATOM     25  H   UNL     1      17.437  18.685   6.799  1.00  0.00     0.293 HD
ENDBRANCH   6  24
BRANCH   8  26
ATOM     26  O   UNL     1      12.682  16.856   7.478  1.00  0.00    -0.508 OA
ATOM     27  H   UNL     1      11.888  16.380   7.890  1.00  0.00     0.293 HD
ENDBRANCH   8  26
TORSDOF 6
ENDMDL
MODEL 5
REMARK VINA RESULT:    -6.245      3.792      6.293
REMARK INTER + INTRA:          -7.981
REMARK INTER:                  -7.631
REMARK INTRA:                  -0.350
REMARK UNBOUND:                -0.458
REMARK SMILES O=c1c(O)c(-c2ccc(O)cc2O)oc2cc(O)cc(O)c12
REMARK SMILES IDX 5 1 3 2 2 3 1 4 22 5 20 6 19 7 17 8 16 9 15 10 14 11 6 12
REMARK SMILES IDX 8 13 7 14 9 15 11 16 12 17 10 18 13 20 4 22 21 24 18 26
REMARK H PARENT 10 19 13 21 4 23 21 25 18 27
REMARK Flexibility Score: inf
ROOT
ATOM      1  C   UNL     1      15.452  15.196  11.823  1.00  0.00     0.184 A 
ATOM      2  C   UNL     1      15.820  15.660  10.550  1.00  0.00     0.208 A 
ATOM      3  C   UNL     1      14.847  16.268   9.740  1.00  0.00     0.238 A 
ATOM      4  O   UNL     1      15.166  16.617   8.573  1.00  0.00    -0.285 OA
ATOM      5  C   UNL     1      13.532  16.449  10.233  1.00  0.00     0.111 A 
ATOM      6  C   UNL     1      12.478  17.092   9.516  1.00  0.00     0.134 A 
ATOM      7  C   UNL     1      11.188  17.117  10.061  1.00  0.00     0.093 A 
ATOM      8  C   UNL     1      10.927  16.582  11.322  1.00  0.00     0.123 A 
ATOM      9  C   UNL     1      11.962  16.001  12.056  1.00  0.00     0.094 A 
ATOM     10  C   UNL     1      13.252  15.926  11.522  1.00  0.00     0.146 A 
ATOM     11  O   UNL     1      14.202  15.346  12.244  1.00  0.00    -0.451 OA
ENDROOT
BRANCH   1  12
ATOM     12  C   UNL     1      16.424  14.534  12.725  1.00  0.00     0.063 A 
ATOM     13  C   UNL     1      17.998  12.732  13.173  1.00  0.00     0.047 A 
ATOM     14  C   UNL     1      17.103  13.372  12.312  1.00  0.00     0.020 A 
ATOM     15  C   UNL     1      18.219  13.235  14.460  1.00  0.00     0.119 A 
ATOM     16  C   UNL     1      17.538  14.379  14.884  1.00  0.00     0.093 A 
ATOM     17  C   UNL     1      16.639  15.031  14.026  1.00  0.00     0.130 A 
BRANCH  15  18
ATOM     18  O   UNL     1      19.110  12.604  15.326  1.00  0.00    -0.508 OA
ATOM     19  H   UNL     1      19.836  11.988  14.981  1.00  0.00     0.293 HD
ENDBRANCH  15  18
BRANCH  17  20
ATOM     20  O   UNL     1      15.971  16.176  14.460  1.00  0.00    -0.507 OA
ATOM     21  H   UNL     1      15.542  16.226  15.376  1.00  0.00     0.293 HD
ENDBRANCH  17  20
ENDBRANCH   1  12
BRANCH   2  22
ATOM     22  O   UNL     1      17.140  15.533  10.111  1.00  0.00    -0.502 OA
ATOM     23  H   UNL     1      17.462  15.925   9.234  1.00  0.00     0.293 HD
ENDBRANCH   2  22
BRANCH   6  24
ATOM     24  O   UNL     1      12.645  17.738   8.288  1.00  0.00    -0.507 OA
ATOM     25  H   UNL     1      13.336  18.449   8.099  1.00  0.00     0.293 HD
ENDBRANCH   6  24
BRANCH   8  26
ATOM     26  O   UNL     1       9.635  16.640  11.841  1.00  0.00    -0.508 OA
ATOM     27  H   UNL     1       8.997  15.856  11.765  1.00  0.00     0.293 HD
ENDBRANCH   8  26
TORSDOF 6
ENDMDL
MODEL 6
REMARK VINA RESULT:    -6.098      3.213      8.024
REMARK INTER + INTRA:          -7.804
REMARK INTER:                  -7.344
REMARK INTRA:                  -0.460
REMARK UNBOUND:                -0.458
REMARK SMILES O=c1c(O)c(-c2ccc(O)cc2O)oc2cc(O)cc(O)c12
REMARK SMILES IDX 5 1 3 2 2 3 1 4 22 5 20 6 19 7 17 8 16 9 15 10 14 11 6 12
REMARK SMILES IDX 8 13 7 14 9 15 11 16 12 17 10 18 13 20 4 22 21 24 18 26
REMARK H PARENT 10 19 13 21 4 23 21 25 18 27
REMARK Flexibility Score: inf
ROOT
ATOM      1  C   UNL     1      15.925  15.449  11.803  1.00  0.00     0.184 A 
ATOM      2  C   UNL     1      16.973  14.536  11.603  1.00  0.00     0.208 A 
ATOM      3  C   UNL     1      17.665  14.039  12.719  1.00  0.00     0.238 A 
ATOM      4  O   UNL     1      18.649  13.277  12.529  1.00  0.00    -0.285 OA
ATOM      5  C   UNL     1      17.267  14.423  14.023  1.00  0.00     0.111 A 
ATOM      6  C   UNL     1      17.869  13.948  15.228  1.00  0.00     0.134 A 
ATOM      7  C   UNL     1      17.464  14.481  16.458  1.00  0.00     0.093 A 
ATOM      8  C   UNL     1      16.438  15.422  16.533  1.00  0.00     0.123 A 
ATOM      9  C   UNL     1      15.805  15.853  15.367  1.00  0.00     0.094 A 
ATOM     10  C   UNL     1      16.213  15.368  14.121  1.00  0.00     0.146 A 
ATOM     11  O   UNL     1      15.599  15.820  13.035  1.00  0.00    -0.451 OA
ENDROOT
BRANCH   1  12
ATOM     12  C   UNL     1      15.161  16.022  10.670  1.00  0.00     0.063 A 
ATOM     13  C   UNL     1      15.031  17.519   8.754  1.00  0.00     0.047 A 
ATOM     14  C   UNL     1      15.760  16.957   9.805  1.00  0.00     0.020 A 
ATOM     15  C   UNL     1      13.692  17.164   8.559  1.00  0.00     0.119 A 
ATOM     16  C   UNL     1      13.083  16.249   9.421  1.00  0.00     0.093 A 
ATOM     17  C   UNL     1      13.807  15.677  10.478  1.00  0.00     0.130 A 
BRANCH  15  18
ATOM     18  O   UNL     1      12.956  17.719   7.513  1.00  0.00    -0.508 OA
ATOM     19  H   UNL     1      12.437  18.581   7.630  1.00  0.00     0.293 HD
ENDBRANCH  15  18
BRANCH  17  20
ATOM     20  O   UNL     1      13.190  14.760  11.327  1.00  0.00    -0.507 OA
ATOM     21  H   UNL     1      13.160  14.901  12.330  1.00  0.00     0.293 HD
ENDBRANCH  17  20
ENDBRANCH   1  12
BRANCH   2  22
ATOM     22  O   UNL     1      17.303  14.118  10.311  1.00  0.00    -0.502 OA
ATOM     23  H   UNL     1      17.941  13.351  10.134  1.00  0.00     0.293 HD
ENDBRANCH   2  22
BRANCH   6  24
ATOM     24  O   UNL     1      18.841  12.944  15.276  1.00  0.00    -0.507 OA
ATOM     25  H   UNL     1      19.826  13.086  15.115  1.00  0.00     0.293 HD
ENDBRANCH   6  24
BRANCH   8  26
ATOM     26  O   UNL     1      16.049  15.918  17.776  1.00  0.00    -0.508 OA
ATOM     27  H   UNL     1      15.235  15.556  18.260  1.00  0.00     0.293 HD
ENDBRANCH   8  26
TORSDOF 6
ENDMDL
MODEL 7
REMARK VINA RESULT:    -5.994      3.354      6.651
REMARK INTER + INTRA:          -7.678
REMARK INTER:                  -7.241
REMARK INTRA:                  -0.437
REMARK UNBOUND:                -0.458
REMARK SMILES O=c1c(O)c(-c2ccc(O)cc2O)oc2cc(O)cc(O)c12
REMARK SMILES IDX 5 1 3 2 2 3 1 4 22 5 20 6 19 7 17 8 16 9 15 10 14 11 6 12
REMARK SMILES IDX 8 13 7 14 9 15 11 16 12 17 10 18 13 20 4 22 21 24 18 26
REMARK H PARENT 10 19 13 21 4 23 21 25 18 27
REMARK Flexibility Score: inf
ROOT
ATOM      1  C   UNL     1      15.774  11.742  16.438  1.00  0.00     0.184 A 
ATOM      2  C   UNL     1      16.278  13.043  16.279  1.00  0.00     0.208 A 
ATOM      3  C   UNL     1      17.104  13.580  17.279  1.00  0.00     0.238 A 
ATOM      4  O   UNL     1      17.493  14.772  17.164  1.00  0.00    -0.285 OA
ATOM      5  C   UNL     1      17.457  12.791  18.401  1.00  0.00     0.111 A 
ATOM      6  C   UNL     1      18.322  13.218  19.453  1.00  0.00     0.134 A 
ATOM      7  C   UNL     1      18.513  12.391  20.568  1.00  0.00     0.093 A 
ATOM      8  C   UNL     1      17.923  11.130  20.640  1.00  0.00     0.123 A 
ATOM      9  C   UNL     1      17.119  10.680  19.591  1.00  0.00     0.094 A 
ATOM     10  C   UNL     1      16.879  11.497  18.484  1.00  0.00     0.146 A 
ATOM     11  O   UNL     1      16.091  11.039  17.519  1.00  0.00    -0.451 OA
ENDROOT
BRANCH   1  12
ATOM     12  C   UNL     1      14.887  11.118  15.429  1.00  0.00     0.063 A 
ATOM     13  C   UNL     1      14.564  10.121  13.232  1.00  0.00     0.047 A 
ATOM     14  C   UNL     1      15.406  10.683  14.195  1.00  0.00     0.020 A 
ATOM     15  C   UNL     1      13.193   9.994  13.482  1.00  0.00     0.119 A 
ATOM     16  C   UNL     1      12.667  10.437  14.698  1.00  0.00     0.093 A 
ATOM     17  C   UNL     1      13.503  11.001  15.672  1.00  0.00     0.130 A 
BRANCH  15  18
ATOM     18  O   UNL     1      12.346   9.435  12.528  1.00  0.00    -0.508 OA
ATOM     19  H   UNL     1      12.562   9.475  11.539  1.00  0.00     0.293 HD
ENDBRANCH  15  18
BRANCH  17  20
ATOM     20  O   UNL     1      12.965  11.433  16.885  1.00  0.00    -0.507 OA
ATOM     21  H   UNL     1      13.355  12.220  17.389  1.00  0.00     0.293 HD
ENDBRANCH  17  20
ENDBRANCH   1  12
BRANCH   2  22
ATOM     22  O   UNL     1      15.973  13.778  15.130  1.00  0.00    -0.502 OA
ATOM     23  H   UNL     1      16.026  14.789  15.102  1.00  0.00     0.293 HD
ENDBRANCH   2  22
BRANCH   6  24
ATOM     24  O   UNL     1      19.035  14.421  19.443  1.00  0.00    -0.507 OA
ATOM     25  H   UNL     1      19.418  14.871  20.260  1.00  0.00     0.293 HD
ENDBRANCH   6  24
BRANCH   8  26
ATOM     26  O   UNL     1      18.149  10.327  21.756  1.00  0.00    -0.508 OA
ATOM     27  H   UNL     1      18.619   9.433  21.679  1.00  0.00     0.293 HD
ENDBRANCH   8  26
TORSDOF 6
ENDMDL
MODEL 8
REMARK VINA RESULT:    -5.942      3.480      5.703
REMARK INTER + INTRA:          -7.616
REMARK INTER:                  -7.223
REMARK INTRA:                  -0.393
REMARK UNBOUND:                -0.458
REMARK SMILES O=c1c(O)c(-c2ccc(O)cc2O)oc2cc(O)cc(O)c12
REMARK SMILES IDX 5 1 3 2 2 3 1 4 22 5 20 6 19 7 17 8 16 9 15 10 14 11 6 12
REMARK SMILES IDX 8 13 7 14 9 15 11 16 12 17 10 18 13 20 4 22 21 24 18 26
REMARK H PARENT 10 19 13 21 4 23 21 25 18 27
REMARK Flexibility Score: inf
ROOT
ATOM      1  C   UNL     1      15.225  15.525  13.529  1.00  0.00     0.184 A 
ATOM      2  C   UNL     1      15.306  16.787  12.917  1.00  0.00     0.208 A 
ATOM      3  C   UNL     1      14.586  17.017  11.734  1.00  0.00     0.238 A 
ATOM      4  O   UNL     1      14.720  18.125  11.153  1.00  0.00    -0.285 OA
ATOM      5  C   UNL     1      13.755  15.999  11.206  1.00  0.00     0.111 A 
ATOM      6  C   UNL     1      12.947  16.137  10.037  1.00  0.00     0.134 A 
ATOM      7  C   UNL     1      12.248  15.026   9.546  1.00  0.00     0.093 A 
ATOM      8  C   UNL     1      12.277  13.804  10.214  1.00  0.00     0.123 A 
ATOM      9  C   UNL     1      13.019  13.673  11.389  1.00  0.00     0.094 A 
ATOM     10  C   UNL     1      13.758  14.752  11.882  1.00  0.00     0.146 A 
ATOM     11  O   UNL     1      14.467  14.578  12.990  1.00  0.00    -0.451 OA
ENDROOT
BRANCH   1  12
ATOM     12  C   UNL     1      15.968  15.210  14.772  1.00  0.00     0.063 A 
ATOM     13  C   UNL     1      16.393  15.609  17.135  1.00  0.00     0.047 A 
ATOM     14  C   UNL     1      15.673  15.886  15.970  1.00  0.00     0.020 A 
ATOM     15  C   UNL     1      17.422  14.662  17.118  1.00  0.00     0.119 A 
ATOM     16  C   UNL     1      17.733  13.996  15.930  1.00  0.00     0.093 A 
ATOM     17  C   UNL     1      17.015  14.266  14.755  1.00  0.00     0.130 A 
BRANCH  15  18
ATOM     18  O   UNL     1      18.146  14.378  18.275  1.00  0.00    -0.508 OA
ATOM     19  H   UNL     1      18.858  13.657  18.291  1.00  0.00     0.293 HD
ENDBRANCH  15  18
BRANCH  17  20
ATOM     20  O   UNL     1      17.331  13.589  13.577  1.00  0.00    -0.507 OA
ATOM     21  H   UNL     1      18.258  13.217  13.410  1.00  0.00     0.293 HD
ENDBRANCH  17  20
ENDBRANCH   1  12
BRANCH   2  22
ATOM     22  O   UNL     1      16.078  17.798  13.495  1.00  0.00    -0.502 OA
ATOM     23  H   UNL     1      16.066  17.992  14.489  1.00  0.00     0.293 HD
ENDBRANCH   2  22
BRANCH   6  24
ATOM     24  O   UNL     1      12.774  17.337   9.340  1.00  0.00    -0.507 OA
ATOM     25  H   UNL     1      12.664  18.242   9.769  1.00  0.00     0.293 HD
ENDBRANCH   6  24
BRANCH   8  26
ATOM     26  O   UNL     1      11.556  12.725   9.707  1.00  0.00    -0.508 OA
ATOM     27  H   UNL     1      11.712  12.378   8.767  1.00  0.00     0.293 HD
ENDBRANCH   8  26
TORSDOF 6
ENDMDL
MODEL 9
REMARK VINA RESULT:    -5.896      5.198      7.544
REMARK INTER + INTRA:          -7.561
REMARK INTER:                  -7.242
REMARK INTRA:                  -0.319
REMARK UNBOUND:                -0.458
REMARK SMILES O=c1c(O)c(-c2ccc(O)cc2O)oc2cc(O)cc(O)c12
REMARK SMILES IDX 5 1 3 2 2 3 1 4 22 5 20 6 19 7 17 8 16 9 15 10 14 11 6 12
REMARK SMILES IDX 8 13 7 14 9 15 11 16 12 17 10 18 13 20 4 22 21 24 18 26
REMARK H PARENT 10 19 13 21 4 23 21 25 18 27
REMARK Flexibility Score: inf
ROOT
ATOM      1  C   UNL     1      13.927  14.044  11.284  1.00  0.00     0.184 A 
ATOM      2  C   UNL     1      12.692  14.673  11.057  1.00  0.00     0.208 A 
ATOM      3  C   UNL     1      12.624  15.722  10.127  1.00  0.00     0.238 A 
ATOM      4  O   UNL     1      11.530  16.329   9.981  1.00  0.00    -0.285 OA
ATOM      5  C   UNL     1      13.780  16.094   9.398  1.00  0.00     0.111 A 
ATOM      6  C   UNL     1      13.816  17.113   8.399  1.00  0.00     0.134 A 
ATOM      7  C   UNL     1      15.041  17.470   7.821  1.00  0.00     0.093 A 
ATOM      8  C   UNL     1      16.218  16.803   8.157  1.00  0.00     0.123 A 
ATOM      9  C   UNL     1      16.185  15.768   9.092  1.00  0.00     0.094 A 
ATOM     10  C   UNL     1      14.985  15.415   9.715  1.00  0.00     0.146 A 
ATOM     11  O   UNL     1      15.002  14.439  10.614  1.00  0.00    -0.451 OA
ENDROOT
BRANCH   1  12
ATOM     12  C   UNL     1      14.073  12.939  12.261  1.00  0.00     0.063 A 
ATOM     13  C   UNL     1      14.954  12.083  14.362  1.00  0.00     0.047 A 
ATOM     14  C   UNL     1      14.792  13.133  13.455  1.00  0.00     0.020 A 
ATOM     15  C   UNL     1      14.411  10.824  14.086  1.00  0.00     0.119 A 
ATOM     16  C   UNL     1      13.709  10.617  12.896  1.00  0.00     0.093 A 
ATOM     17  C   UNL     1      13.538  11.665  11.979  1.00  0.00     0.130 A 
BRANCH  15  18
ATOM     18  O   UNL     1      14.568   9.770  14.985  1.00  0.00    -0.508 OA
ATOM     19  H   UNL     1      15.412   9.211  15.003  1.00  0.00     0.293 HD
ENDBRANCH  15  18
BRANCH  17  20
ATOM     20  O   UNL     1      12.829  11.447  10.799  1.00  0.00    -0.507 OA
ATOM     21  H   UNL     1      12.189  10.668  10.699  1.00  0.00     0.293 HD
ENDBRANCH  17  20
ENDBRANCH   1  12
BRANCH   2  22
ATOM     22  O   UNL     1      11.549  14.243  11.737  1.00  0.00    -0.502 OA
ATOM     23  H   UNL     1      10.631  14.631  11.557  1.00  0.00     0.293 HD
ENDBRANCH   2  22
BRANCH   6  24
ATOM     24  O   UNL     1      12.686  17.784   7.921  1.00  0.00    -0.507 OA
ATOM     25  H   UNL     1      12.134  17.494   7.129  1.00  0.00     0.293 HD
ENDBRANCH   6  24
BRANCH   8  26
ATOM     26  O   UNL     1      17.416  17.173   7.549  1.00  0.00    -0.508 OA
ATOM     27  H   UNL     1      18.265  17.303   8.086  1.00  0.00     0.293 HD
ENDBRANCH   8  26
TORSDOF 6
ENDMDL
