MODEL 1
REMARK VINA RESULT:    -4.609      0.000      0.000
REMARK INTER + INTRA:         -16.026
REMARK INTER:                 -11.615
REMARK INTRA:                  -4.411
REMARK UNBOUND:                -4.411
REMARK SMILES CCCCCCCCCCCCCCCCCCCCCCCCCCCC(=O)[O-]
REMARK SMILES IDX 15 1 16 2 17 3 18 4 19 5 20 6 21 7 22 8 23 9 24 10 25 11
REMARK SMILES IDX 26 12 27 13 28 14 29 15 30 16 14 17 13 18 12 19 11 20 10 21
REMARK SMILES IDX 9 22 8 23 7 24 6 25 5 26 4 27 3 28 2 29 1 30
REMARK H PARENT
REMARK Flexibility Score: inf
ROOT
ATOM      1  C   UNL     1     183.644 180.405 183.042  1.00  0.00     0.000 C 
ENDROOT
BRANCH   1   2
ATOM      2  C   UNL     1     182.667 181.098 184.004  1.00  0.00     0.000 C 
BRANCH   2   3
ATOM      3  C   UNL     1     181.472 181.683 183.238  1.00  0.00     0.000 C 
BRANCH   3   4
ATOM      4  C   UNL     1     181.085 183.093 183.719  1.00  0.00     0.000 C 
BRANCH   4   5
ATOM      5  C   UNL     1     179.906 183.744 182.966  1.00  0.00     0.000 C 
BRANCH   5   6
ATOM      6  C   UNL     1     179.569 183.116 181.601  1.00  0.00     0.000 C 
BRANCH   6   7
ATOM      7  C   UNL     1     178.059 182.991 181.355  1.00  0.00     0.000 C 
BRANCH   7   8
ATOM      8  C   UNL     1     177.451 181.887 182.232  1.00  0.00     0.000 C 
BRANCH   8   9
ATOM      9  C   UNL     1     178.180 180.541 182.090  1.00  0.00     0.000 C 
BRANCH   9  10
ATOM     10  C   UNL     1     177.305 179.342 182.491  1.00  0.00     0.000 C 
BRANCH  10  11
ATOM     11  C   UNL     1     176.018 179.295 181.654  1.00  0.00     0.000 C 
BRANCH  11  12
ATOM     12  C   UNL     1     175.065 178.170 182.090  1.00  0.00     0.006 C 
BRANCH  12  13
ATOM     13  C   UNL     1     175.783 176.828 182.295  1.00  0.00     0.053 C 
BRANCH  13  14
ATOM     14  C   UNL     1     175.012 175.960 183.241  1.00  0.00     0.041 C 
ATOM     15  O   UNL     1     174.339 174.988 182.804  1.00  0.00    -0.550 OA
ATOM     16  O   UNL     1     175.020 176.235 184.604  1.00  0.00    -0.550 OA
ENDBRANCH  13  14
ENDBRANCH  12  13
ENDBRANCH  11  12
ENDBRANCH  10  11
ENDBRANCH   9  10
ENDBRANCH   8   9
ENDBRANCH   7   8
ENDBRANCH   6   7
ENDBRANCH   5   6
ENDBRANCH   4   5
ENDBRANCH   3   4
ENDBRANCH   2   3
ENDBRANCH   1   2
BRANCH   1  17
ATOM     17  C   UNL     1     185.061 180.270 183.626  1.00  0.00     0.000 C 
BRANCH  17  18
ATOM     18  C   UNL     1     186.207 180.510 182.620  1.00  0.00     0.000 C 
BRANCH  18  19
ATOM     19  C   UNL     1     185.870 181.457 181.454  1.00  0.00     0.000 C 
BRANCH  19  20
ATOM     20  C   UNL     1     186.627 182.792 181.528  1.00  0.00     0.000 C 
BRANCH  20  21
ATOM     21  C   UNL     1     185.720 183.906 182.070  1.00  0.00     0.000 C 
BRANCH  21  22
ATOM     22  C   UNL     1     184.222 183.584 181.921  1.00  0.00    -0.000 C 
BRANCH  22  23
ATOM     23  C   UNL     1     183.422 184.585 181.062  1.00  0.00    -0.000 C 
BRANCH  23  24
ATOM     24  C   UNL     1     182.678 183.968 179.860  1.00  0.00    -0.000 C 
BRANCH  24  25
ATOM     25  C   UNL     1     182.794 182.438 179.741  1.00  0.00    -0.000 C 
BRANCH  25  26
ATOM     26  C   UNL     1     181.760 181.833 178.779  1.00  0.00    -0.000 C 
BRANCH  26  27
ATOM     27  C   UNL     1     180.871 180.812 179.501  1.00  0.00    -0.000 C 
BRANCH  27  28
ATOM     28  C   UNL     1     181.718 179.830 180.326  1.00  0.00    -0.000 C 
BRANCH  28  29
ATOM     29  C   UNL     1     180.868 178.741 181.000  1.00  0.00    -0.003 C 
ATOM     30  C   UNL     1     181.712 177.596 181.561  1.00  0.00     0.004 C 
ENDBRANCH  28  29
ENDBRANCH  27  28
ENDBRANCH  26  27
ENDBRANCH  25  26
ENDBRANCH  24  25
ENDBRANCH  23  24
ENDBRANCH  22  23
ENDBRANCH  21  22
ENDBRANCH  20  21
ENDBRANCH  19  20
ENDBRANCH  18  19
ENDBRANCH  17  18
ENDBRANCH   1  17
TORSDOF 26
ENDMDL
MODEL 2
REMARK VINA RESULT:    -4.510      5.187      9.683
REMARK INTER + INTRA:         -15.776
REMARK INTER:                 -11.678
REMARK INTRA:                  -4.098
REMARK UNBOUND:                -4.411
REMARK SMILES CCCCCCCCCCCCCCCCCCCCCCCCCCCC(=O)[O-]
REMARK SMILES IDX 15 1 16 2 17 3 18 4 19 5 20 6 21 7 22 8 23 9 24 10 25 11
REMARK SMILES IDX 26 12 27 13 28 14 29 15 30 16 14 17 13 18 12 19 11 20 10 21
REMARK SMILES IDX 9 22 8 23 7 24 6 25 5 26 4 27 3 28 2 29 1 30
REMARK H PARENT
REMARK Flexibility Score: inf
ROOT
ATOM      1  C   UNL     1     180.048 183.463 183.210  1.00  0.00     0.000 C 
ENDROOT
BRANCH   1   2
ATOM      2  C   UNL     1     180.988 183.515 184.424  1.00  0.00     0.000 C 
BRANCH   2   3
ATOM      3  C   UNL     1     181.808 182.221 184.532  1.00  0.00     0.000 C 
BRANCH   3   4
ATOM      4  C   UNL     1     182.497 181.837 183.211  1.00  0.00     0.000 C 
BRANCH   4   5
ATOM      5  C   UNL     1     183.105 180.418 183.174  1.00  0.00     0.000 C 
BRANCH   5   6
ATOM      6  C   UNL     1     184.611 180.355 182.862  1.00  0.00     0.000 C 
BRANCH   6   7
ATOM      7  C   UNL     1     184.975 181.012 181.523  1.00  0.00     0.000 C 
BRANCH   7   8
ATOM      8  C   UNL     1     186.219 181.900 181.671  1.00  0.00     0.000 C 
BRANCH   8   9
ATOM      9  C   UNL     1     185.874 183.384 181.869  1.00  0.00     0.000 C 
BRANCH   9  10
ATOM     10  C   UNL     1     187.063 184.210 182.386  1.00  0.00     0.000 C 
BRANCH  10  11
ATOM     11  C   UNL     1     187.542 185.211 181.323  1.00  0.00     0.000 C 
BRANCH  11  12
ATOM     12  C   UNL     1     188.772 186.015 181.775  1.00  0.00     0.006 C 
BRANCH  12  13
ATOM     13  C   UNL     1     188.419 187.438 182.231  1.00  0.00     0.053 C 
BRANCH  13  14
ATOM     14  C   UNL     1     189.288 187.852 183.379  1.00  0.00     0.041 C 
ATOM     15  O   UNL     1     188.797 187.982 184.531  1.00  0.00    -0.550 OA
ATOM     16  O   UNL     1     190.638 188.113 183.171  1.00  0.00    -0.550 OA
ENDBRANCH  13  14
ENDBRANCH  12  13
ENDBRANCH  11  12
ENDBRANCH  10  11
ENDBRANCH   9  10
ENDBRANCH   8   9
ENDBRANCH   7   8
ENDBRANCH   6   7
ENDBRANCH   5   6
ENDBRANCH   4   5
ENDBRANCH   3   4
ENDBRANCH   2   3
ENDBRANCH   1   2
BRANCH   1  17
ATOM     17  C   UNL     1     178.606 183.876 183.553  1.00  0.00     0.000 C 
BRANCH  17  18
ATOM     18  C   UNL     1     177.536 183.415 182.542  1.00  0.00     0.000 C 
BRANCH  18  19
ATOM     19  C   UNL     1     178.010 182.367 181.518  1.00  0.00     0.000 C 
BRANCH  19  20
ATOM     20  C   UNL     1     177.243 181.040 181.620  1.00  0.00     0.000 C 
BRANCH  20  21
ATOM     21  C   UNL     1     178.142 179.930 182.183  1.00  0.00     0.000 C 
BRANCH  21  22
ATOM     22  C   UNL     1     179.643 180.228 182.007  1.00  0.00    -0.000 C 
BRANCH  22  23
ATOM     23  C   UNL     1     180.421 179.191 181.170  1.00  0.00    -0.000 C 
BRANCH  23  24
ATOM     24  C   UNL     1     181.269 179.777 180.024  1.00  0.00    -0.000 C 
BRANCH  24  25
ATOM     25  C   UNL     1     180.893 181.210 179.606  1.00  0.00    -0.000 C 
BRANCH  25  26
ATOM     26  C   UNL     1     181.968 181.880 178.737  1.00  0.00    -0.000 C 
BRANCH  26  27
ATOM     27  C   UNL     1     182.855 182.806 179.579  1.00  0.00    -0.000 C 
BRANCH  27  28
ATOM     28  C   UNL     1     182.030 183.943 180.201  1.00  0.00    -0.000 C 
BRANCH  28  29
ATOM     29  C   UNL     1     182.907 184.992 180.904  1.00  0.00    -0.003 C 
ATOM     30  C   UNL     1     182.092 186.142 181.497  1.00  0.00     0.004 C 
ENDBRANCH  28  29
ENDBRANCH  27  28
ENDBRANCH  26  27
ENDBRANCH  25  26
ENDBRANCH  24  25
ENDBRANCH  23  24
ENDBRANCH  22  23
ENDBRANCH  21  22
ENDBRANCH  20  21
ENDBRANCH  19  20
ENDBRANCH  18  19
ENDBRANCH  17  18
ENDBRANCH   1  17
TORSDOF 26
ENDMDL
MODEL 3
REMARK VINA RESULT:    -4.389      1.017      3.222
REMARK INTER + INTRA:         -15.473
REMARK INTER:                 -11.230
REMARK INTRA:                  -4.242
REMARK UNBOUND:                -4.411
REMARK SMILES CCCCCCCCCCCCCCCCCCCCCCCCCCCC(=O)[O-]
REMARK SMILES IDX 15 1 16 2 17 3 18 4 19 5 20 6 21 7 22 8 23 9 24 10 25 11
REMARK SMILES IDX 26 12 27 13 28 14 29 15 30 16 14 17 13 18 12 19 11 20 10 21
REMARK SMILES IDX 9 22 8 23 7 24 6 25 5 26 4 27 3 28 2 29 1 30
REMARK H PARENT
REMARK Flexibility Score: inf
ROOT
ATOM      1  C   UNL     1     181.604 180.887 182.866  1.00  0.00     0.000 C 
ENDROOT
BRANCH   1   2
ATOM      2  C   UNL     1     182.270 181.393 184.154  1.00  0.00     0.000 C 
BRANCH   2   3
ATOM      3  C   UNL     1     181.568 182.657 184.670  1.00  0.00     0.000 C 
BRANCH   3   4
ATOM      4  C   UNL     1     180.832 183.428 183.561  1.00  0.00     0.000 C 
BRANCH   4   5
ATOM      5  C   UNL     1     179.400 183.883 183.915  1.00  0.00     0.000 C 
BRANCH   5   6
ATOM      6  C   UNL     1     178.316 183.503 182.890  1.00  0.00     0.000 C 
BRANCH   6   7
ATOM      7  C   UNL     1     178.887 183.186 181.501  1.00  0.00     0.000 C 
BRANCH   7   8
ATOM      8  C   UNL     1     178.177 181.974 180.881  1.00  0.00     0.000 C 
BRANCH   8   9
ATOM      9  C   UNL     1     177.949 180.836 181.889  1.00  0.00     0.000 C 
BRANCH   9  10
ATOM     10  C   UNL     1     176.610 180.111 181.678  1.00  0.00     0.000 C 
BRANCH  10  11
ATOM     11  C   UNL     1     176.552 178.811 182.496  1.00  0.00     0.000 C 
BRANCH  11  12
ATOM     12  C   UNL     1     175.470 177.841 181.994  1.00  0.00     0.006 C 
BRANCH  12  13
ATOM     13  C   UNL     1     175.811 176.371 182.277  1.00  0.00     0.053 C 
BRANCH  13  14
ATOM     14  C   UNL     1     174.852 175.793 183.273  1.00  0.00     0.041 C 
ATOM     15  O   UNL     1     174.986 176.043 184.500  1.00  0.00    -0.550 OA
ATOM     16  O   UNL     1     173.822 174.962 182.847  1.00  0.00    -0.550 OA
ENDBRANCH  13  14
ENDBRANCH  12  13
ENDBRANCH  11  12
ENDBRANCH  10  11
ENDBRANCH   9  10
ENDBRANCH   8   9
ENDBRANCH   7   8
ENDBRANCH   6   7
ENDBRANCH   5   6
ENDBRANCH   4   5
ENDBRANCH   3   4
ENDBRANCH   2   3
ENDBRANCH   1   2
BRANCH   1  17
ATOM     17  C   UNL     1     182.436 179.813 182.145  1.00  0.00     0.000 C 
BRANCH  17  18
ATOM     18  C   UNL     1     182.243 179.754 180.616  1.00  0.00     0.000 C 
BRANCH  18  19
ATOM     19  C   UNL     1     181.438 180.918 180.010  1.00  0.00     0.000 C 
BRANCH  19  20
ATOM     20  C   UNL     1     182.090 181.509 178.751  1.00  0.00     0.000 C 
BRANCH  20  21
ATOM     21  C   UNL     1     182.574 182.943 179.007  1.00  0.00     0.000 C 
BRANCH  21  22
ATOM     22  C   UNL     1     182.082 183.510 180.351  1.00  0.00    -0.000 C 
BRANCH  22  23
ATOM     23  C   UNL     1     183.007 184.566 180.992  1.00  0.00    -0.000 C 
BRANCH  23  24
ATOM     24  C   UNL     1     184.451 184.097 181.260  1.00  0.00    -0.000 C 
BRANCH  24  25
ATOM     25  C   UNL     1     184.578 182.652 181.773  1.00  0.00    -0.000 C 
BRANCH  25  26
ATOM     26  C   UNL     1     185.399 181.755 180.835  1.00  0.00    -0.000 C 
BRANCH  26  27
ATOM     27  C   UNL     1     186.409 180.912 181.625  1.00  0.00    -0.000 C 
BRANCH  27  28
ATOM     28  C   UNL     1     186.004 180.810 183.104  1.00  0.00    -0.000 C 
BRANCH  28  29
ATOM     29  C   UNL     1     186.876 179.817 183.887  1.00  0.00    -0.003 C 
ATOM     30  C   UNL     1     186.151 179.215 185.091  1.00  0.00     0.004 C 
ENDBRANCH  28  29
ENDBRANCH  27  28
ENDBRANCH  26  27
ENDBRANCH  25  26
ENDBRANCH  24  25
ENDBRANCH  23  24
ENDBRANCH  22  23
ENDBRANCH  21  22
ENDBRANCH  20  21
ENDBRANCH  19  20
ENDBRANCH  18  19
ENDBRANCH  17  18
ENDBRANCH   1  17
TORSDOF 26
ENDMDL
MODEL 4
REMARK VINA RESULT:    -4.322      4.054      7.581
REMARK INTER + INTRA:         -15.301
REMARK INTER:                 -11.343
REMARK INTRA:                  -3.958
REMARK UNBOUND:                -4.411
REMARK SMILES CCCCCCCCCCCCCCCCCCCCCCCCCCCC(=O)[O-]
REMARK SMILES IDX 15 1 16 2 17 3 18 4 19 5 20 6 21 7 22 8 23 9 24 10 25 11
REMARK SMILES IDX 26 12 27 13 28 14 29 15 30 16 14 17 13 18 12 19 11 20 10 21
REMARK SMILES IDX 9 22 8 23 7 24 6 25 5 26 4 27 3 28 2 29 1 30
REMARK H PARENT
REMARK Flexibility Score: inf
ROOT
ATOM      1  C   UNL     1     179.963 183.426 183.300  1.00  0.00     0.000 C 
ENDROOT
BRANCH   1   2
ATOM      2  C   UNL     1     178.643 184.108 183.688  1.00  0.00     0.000 C 
BRANCH   2   3
ATOM      3  C   UNL     1     177.464 183.481 182.932  1.00  0.00     0.000 C 
BRANCH   3   4
ATOM      4  C   UNL     1     177.901 182.714 181.671  1.00  0.00     0.000 C 
BRANCH   4   5
ATOM      5  C   UNL     1     177.453 181.238 181.611  1.00  0.00     0.000 C 
BRANCH   5   6
ATOM      6  C   UNL     1     178.484 180.216 182.123  1.00  0.00     0.000 C 
BRANCH   6   7
ATOM      7  C   UNL     1     179.933 180.627 181.829  1.00  0.00     0.000 C 
BRANCH   7   8
ATOM      8  C   UNL     1     180.639 179.566 180.972  1.00  0.00     0.000 C 
BRANCH   8   9
ATOM      9  C   UNL     1     181.543 180.177 179.889  1.00  0.00     0.000 C 
BRANCH   9  10
ATOM     10  C   UNL     1     181.065 181.562 179.423  1.00  0.00     0.000 C 
BRANCH  10  11
ATOM     11  C   UNL     1     182.195 182.598 179.526  1.00  0.00     0.000 C 
BRANCH  11  12
ATOM     12  C   UNL     1     181.754 183.890 180.233  1.00  0.00     0.006 C 
BRANCH  12  13
ATOM     13  C   UNL     1     182.824 184.444 181.184  1.00  0.00     0.053 C 
BRANCH  13  14
ATOM     14  C   UNL     1     182.933 185.931 181.043  1.00  0.00     0.041 C 
ATOM     15  O   UNL     1     182.134 186.686 181.658  1.00  0.00    -0.550 OA
ATOM     16  O   UNL     1     183.905 186.482 180.215  1.00  0.00    -0.550 OA
ENDBRANCH  13  14
ENDBRANCH  12  13
ENDBRANCH  11  12
ENDBRANCH  10  11
ENDBRANCH   9  10
ENDBRANCH   8   9
ENDBRANCH   7   8
ENDBRANCH   6   7
ENDBRANCH   5   6
ENDBRANCH   4   5
ENDBRANCH   3   4
ENDBRANCH   2   3
ENDBRANCH   1   2
BRANCH   1  17
ATOM     17  C   UNL     1     181.011 183.470 184.426  1.00  0.00     0.000 C 
BRANCH  17  18
ATOM     18  C   UNL     1     181.878 182.201 184.562  1.00  0.00     0.000 C 
BRANCH  18  19
ATOM     19  C   UNL     1     182.682 181.819 183.306  1.00  0.00     0.000 C 
BRANCH  19  20
ATOM     20  C   UNL     1     183.331 180.430 183.409  1.00  0.00     0.000 C 
BRANCH  20  21
ATOM     21  C   UNL     1     184.728 180.430 182.770  1.00  0.00     0.000 C 
BRANCH  21  22
ATOM     22  C   UNL     1     184.696 180.739 181.262  1.00  0.00    -0.000 C 
BRANCH  22  23
ATOM     23  C   UNL     1     185.599 181.908 180.816  1.00  0.00    -0.000 C 
BRANCH  23  24
ATOM     24  C   UNL     1     186.534 182.467 181.908  1.00  0.00    -0.000 C 
BRANCH  24  25
ATOM     25  C   UNL     1     186.320 183.952 182.248  1.00  0.00    -0.000 C 
BRANCH  25  26
ATOM     26  C   UNL     1     187.172 184.892 181.383  1.00  0.00    -0.000 C 
BRANCH  26  27
ATOM     27  C   UNL     1     188.253 185.582 182.224  1.00  0.00    -0.000 C 
BRANCH  27  28
ATOM     28  C   UNL     1     188.321 187.085 181.908  1.00  0.00    -0.000 C 
BRANCH  28  29
ATOM     29  C   UNL     1     188.906 187.906 183.068  1.00  0.00    -0.003 C 
ATOM     30  C   UNL     1     190.394 188.210 182.886  1.00  0.00     0.004 C 
ENDBRANCH  28  29
ENDBRANCH  27  28
ENDBRANCH  26  27
ENDBRANCH  25  26
ENDBRANCH  24  25
ENDBRANCH  23  24
ENDBRANCH  22  23
ENDBRANCH  21  22
ENDBRANCH  20  21
ENDBRANCH  19  20
ENDBRANCH  18  19
ENDBRANCH  17  18
ENDBRANCH   1  17
TORSDOF 26
ENDMDL
MODEL 5
REMARK VINA RESULT:    -4.289      5.281      9.459
REMARK INTER + INTRA:         -15.220
REMARK INTER:                 -10.909
REMARK INTRA:                  -4.311
REMARK UNBOUND:                -4.411
REMARK SMILES CCCCCCCCCCCCCCCCCCCCCCCCCCCC(=O)[O-]
REMARK SMILES IDX 15 1 16 2 17 3 18 4 19 5 20 6 21 7 22 8 23 9 24 10 25 11
REMARK SMILES IDX 26 12 27 13 28 14 29 15 30 16 14 17 13 18 12 19 11 20 10 21
REMARK SMILES IDX 9 22 8 23 7 24 6 25 5 26 4 27 3 28 2 29 1 30
REMARK H PARENT
REMARK Flexibility Score: inf
ROOT
ATOM      1  C   UNL     1     182.547 182.899 182.756  1.00  0.00     0.000 C 
ENDROOT
BRANCH   1   2
ATOM      2  C   UNL     1     181.939 182.304 184.034  1.00  0.00     0.000 C 
BRANCH   2   3
ATOM      3  C   UNL     1     182.561 180.936 184.347  1.00  0.00     0.000 C 
BRANCH   3   4
ATOM      4  C   UNL     1     183.501 180.437 183.235  1.00  0.00     0.000 C 
BRANCH   4   5
ATOM      5  C   UNL     1     184.925 180.060 183.697  1.00  0.00     0.000 C 
BRANCH   5   6
ATOM      6  C   UNL     1     186.059 180.483 182.746  1.00  0.00     0.000 C 
BRANCH   6   7
ATOM      7  C   UNL     1     185.551 181.187 181.480  1.00  0.00     0.000 C 
BRANCH   7   8
ATOM      8  C   UNL     1     186.305 182.504 181.248  1.00  0.00     0.000 C 
BRANCH   8   9
ATOM      9  C   UNL     1     185.806 183.646 182.147  1.00  0.00     0.000 C 
BRANCH   9  10
ATOM     10  C   UNL     1     186.523 184.978 181.875  1.00  0.00     0.000 C 
BRANCH  10  11
ATOM     11  C   UNL     1     187.969 184.741 181.411  1.00  0.00     0.000 C 
BRANCH  11  12
ATOM     12  C   UNL     1     188.918 185.880 181.816  1.00  0.00     0.006 C 
BRANCH  12  13
ATOM     13  C   UNL     1     188.192 187.218 182.015  1.00  0.00     0.053 C 
BRANCH  13  14
ATOM     14  C   UNL     1     189.006 188.135 182.875  1.00  0.00     0.041 C 
ATOM     15  O   UNL     1     189.005 187.996 184.128  1.00  0.00    -0.550 OA
ATOM     16  O   UNL     1     189.752 189.155 182.295  1.00  0.00    -0.550 OA
ENDBRANCH  13  14
ENDBRANCH  12  13
ENDBRANCH  11  12
ENDBRANCH  10  11
ENDBRANCH   9  10
ENDBRANCH   8   9
ENDBRANCH   7   8
ENDBRANCH   6   7
ENDBRANCH   5   6
ENDBRANCH   4   5
ENDBRANCH   3   4
ENDBRANCH   2   3
ENDBRANCH   1   2
BRANCH   1  17
ATOM     17  C   UNL     1     181.649 183.969 182.111  1.00  0.00     0.000 C 
BRANCH  17  18
ATOM     18  C   UNL     1     181.563 183.909 180.571  1.00  0.00     0.000 C 
BRANCH  18  19
ATOM     19  C   UNL     1     182.879 183.553 179.854  1.00  0.00     0.000 C 
BRANCH  19  20
ATOM     20  C   UNL     1     182.810 182.214 179.104  1.00  0.00     0.000 C 
BRANCH  20  21
ATOM     21  C   UNL     1     181.531 181.447 179.469  1.00  0.00     0.000 C 
BRANCH  21  22
ATOM     22  C   UNL     1     181.803 180.219 180.357  1.00  0.00    -0.000 C 
BRANCH  22  23
ATOM     23  C   UNL     1     180.544 179.536 180.930  1.00  0.00    -0.000 C 
BRANCH  23  24
ATOM     24  C   UNL     1     179.863 180.287 182.092  1.00  0.00    -0.000 C 
BRANCH  24  25
ATOM     25  C   UNL     1     178.444 180.801 181.790  1.00  0.00    -0.000 C 
BRANCH  25  26
ATOM     26  C   UNL     1     178.441 182.084 180.946  1.00  0.00    -0.000 C 
BRANCH  26  27
ATOM     27  C   UNL     1     177.648 183.197 181.642  1.00  0.00    -0.000 C 
BRANCH  27  28
ATOM     28  C   UNL     1     178.275 183.555 182.998  1.00  0.00    -0.000 C 
BRANCH  28  29
ATOM     29  C   UNL     1     177.234 184.034 184.022  1.00  0.00    -0.003 C 
ATOM     30  C   UNL     1     177.824 184.982 185.067  1.00  0.00     0.004 C 
ENDBRANCH  28  29
ENDBRANCH  27  28
ENDBRANCH  26  27
ENDBRANCH  25  26
ENDBRANCH  24  25
ENDBRANCH  23  24
ENDBRANCH  22  23
ENDBRANCH  21  22
ENDBRANCH  20  21
ENDBRANCH  19  20
ENDBRANCH  18  19
ENDBRANCH  17  18
ENDBRANCH   1  17
TORSDOF 26
ENDMDL
MODEL 6
REMARK VINA RESULT:    -4.227      5.280      9.516
REMARK INTER + INTRA:         -15.062
REMARK INTER:                 -10.646
REMARK INTRA:                  -4.416
REMARK UNBOUND:                -4.411
REMARK SMILES CCCCCCCCCCCCCCCCCCCCCCCCCCCC(=O)[O-]
REMARK SMILES IDX 15 1 16 2 17 3 18 4 19 5 20 6 21 7 22 8 23 9 24 10 25 11
REMARK SMILES IDX 26 12 27 13 28 14 29 15 30 16 14 17 13 18 12 19 11 20 10 21
REMARK SMILES IDX 9 22 8 23 7 24 6 25 5 26 4 27 3 28 2 29 1 30
REMARK H PARENT
REMARK Flexibility Score: inf
ROOT
ATOM      1  C   UNL     1     179.877 179.810 181.302  1.00  0.00     0.000 C 
ENDROOT
BRANCH   1   2
ATOM      2  C   UNL     1     180.486 178.424 181.044  1.00  0.00     0.000 C 
BRANCH   2   3
ATOM      3  C   UNL     1     182.013 178.462 181.204  1.00  0.00     0.000 C 
BRANCH   3   4
ATOM      4  C   UNL     1     182.562 179.890 181.375  1.00  0.00     0.000 C 
BRANCH   4   5
ATOM      5  C   UNL     1     183.231 180.179 182.735  1.00  0.00     0.000 C 
BRANCH   5   6
ATOM      6  C   UNL     1     184.585 180.907 182.662  1.00  0.00     0.000 C 
BRANCH   6   7
ATOM      7  C   UNL     1     185.257 180.787 181.287  1.00  0.00     0.000 C 
BRANCH   7   8
ATOM      8  C   UNL     1     185.980 182.090 180.917  1.00  0.00     0.000 C 
BRANCH   8   9
ATOM      9  C   UNL     1     185.928 183.141 182.037  1.00  0.00     0.000 C 
BRANCH   9  10
ATOM     10  C   UNL     1     187.268 183.868 182.236  1.00  0.00     0.000 C 
BRANCH  10  11
ATOM     11  C   UNL     1     187.222 185.282 181.636  1.00  0.00     0.000 C 
BRANCH  11  12
ATOM     12  C   UNL     1     188.494 186.094 181.930  1.00  0.00     0.006 C 
BRANCH  12  13
ATOM     13  C   UNL     1     188.269 187.610 181.834  1.00  0.00     0.053 C 
BRANCH  13  14
ATOM     14  C   UNL     1     189.151 188.333 182.806  1.00  0.00     0.041 C 
ATOM     15  O   UNL     1     189.135 188.025 184.027  1.00  0.00    -0.550 OA
ATOM     16  O   UNL     1     189.975 189.363 182.365  1.00  0.00    -0.550 OA
ENDBRANCH  13  14
ENDBRANCH  12  13
ENDBRANCH  11  12
ENDBRANCH  10  11
ENDBRANCH   9  10
ENDBRANCH   8   9
ENDBRANCH   7   8
ENDBRANCH   6   7
ENDBRANCH   5   6
ENDBRANCH   4   5
ENDBRANCH   3   4
ENDBRANCH   2   3
ENDBRANCH   1   2
BRANCH   1  17
ATOM     17  C   UNL     1     178.708 179.771 182.301  1.00  0.00     0.000 C 
BRANCH  17  18
ATOM     18  C   UNL     1     177.583 180.792 182.030  1.00  0.00     0.000 C 
BRANCH  18  19
ATOM     19  C   UNL     1     177.817 181.722 180.825  1.00  0.00     0.000 C 
BRANCH  19  20
ATOM     20  C   UNL     1     178.380 183.094 181.227  1.00  0.00     0.000 C 
BRANCH  20  21
ATOM     21  C   UNL     1     178.058 183.409 182.695  1.00  0.00     0.000 C 
BRANCH  21  22
ATOM     22  C   UNL     1     179.286 183.892 183.487  1.00  0.00    -0.000 C 
BRANCH  22  23
ATOM     23  C   UNL     1     180.488 182.925 183.484  1.00  0.00    -0.000 C 
BRANCH  23  24
ATOM     24  C   UNL     1     181.698 183.386 182.646  1.00  0.00    -0.000 C 
BRANCH  24  25
ATOM     25  C   UNL     1     181.508 184.726 181.914  1.00  0.00    -0.000 C 
BRANCH  25  26
ATOM     26  C   UNL     1     181.857 184.646 180.421  1.00  0.00    -0.000 C 
BRANCH  26  27
ATOM     27  C   UNL     1     183.077 183.745 180.190  1.00  0.00    -0.000 C 
BRANCH  27  28
ATOM     28  C   UNL     1     182.801 182.720 179.078  1.00  0.00    -0.000 C 
BRANCH  28  29
ATOM     29  C   UNL     1     181.335 182.258 179.052  1.00  0.00    -0.003 C 
ATOM     30  C   UNL     1     181.105 181.073 178.112  1.00  0.00     0.004 C 
ENDBRANCH  28  29
ENDBRANCH  27  28
ENDBRANCH  26  27
ENDBRANCH  25  26
ENDBRANCH  24  25
ENDBRANCH  23  24
ENDBRANCH  22  23
ENDBRANCH  21  22
ENDBRANCH  20  21
ENDBRANCH  19  20
ENDBRANCH  18  19
ENDBRANCH  17  18
ENDBRANCH   1  17
TORSDOF 26
ENDMDL
MODEL 7
REMARK VINA RESULT:    -4.212      1.995      5.665
REMARK INTER + INTRA:         -15.025
REMARK INTER:                 -11.368
REMARK INTRA:                  -3.657
REMARK UNBOUND:                -4.411
REMARK SMILES CCCCCCCCCCCCCCCCCCCCCCCCCCCC(=O)[O-]
REMARK SMILES IDX 15 1 16 2 17 3 18 4 19 5 20 6 21 7 22 8 23 9 24 10 25 11
REMARK SMILES IDX 26 12 27 13 28 14 29 15 30 16 14 17 13 18 12 19 11 20 10 21
REMARK SMILES IDX 9 22 8 23 7 24 6 25 5 26 4 27 3 28 2 29 1 30
REMARK H PARENT
REMARK Flexibility Score: inf
ROOT
ATOM      1  C   UNL     1     185.518 180.579 182.900  1.00  0.00     0.000 C 
ENDROOT
BRANCH   1   2
ATOM      2  C   UNL     1     185.310 180.825 181.398  1.00  0.00     0.000 C 
BRANCH   2   3
ATOM      3  C   UNL     1     186.120 182.042 180.929  1.00  0.00     0.000 C 
BRANCH   3   4
ATOM      4  C   UNL     1     186.319 183.092 182.036  1.00  0.00     0.000 C 
BRANCH   4   5
ATOM      5  C   UNL     1     185.254 184.209 182.081  1.00  0.00     0.000 C 
BRANCH   5   6
ATOM      6  C   UNL     1     183.944 183.900 181.334  1.00  0.00     0.000 C 
BRANCH   6   7
ATOM      7  C   UNL     1     183.171 185.163 180.931  1.00  0.00     0.000 C 
BRANCH   7   8
ATOM      8  C   UNL     1     181.792 184.801 180.360  1.00  0.00     0.000 C 
BRANCH   8   9
ATOM      9  C   UNL     1     181.520 183.289 180.370  1.00  0.00     0.000 C 
BRANCH   9  10
ATOM     10  C   UNL     1     181.607 182.657 178.971  1.00  0.00     0.000 C 
BRANCH  10  11
ATOM     11  C   UNL     1     181.737 181.129 179.063  1.00  0.00     0.000 C 
BRANCH  11  12
ATOM     12  C   UNL     1     181.852 180.629 180.513  1.00  0.00     0.006 C 
BRANCH  12  13
ATOM     13  C   UNL     1     182.386 179.192 180.607  1.00  0.00     0.053 C 
BRANCH  13  14
ATOM     14  C   UNL     1     181.341 178.279 181.169  1.00  0.00     0.041 C 
ATOM     15  O   UNL     1     180.119 178.523 180.982  1.00  0.00    -0.550 OA
ATOM     16  O   UNL     1     181.715 177.168 181.918  1.00  0.00    -0.550 OA
ENDBRANCH  13  14
ENDBRANCH  12  13
ENDBRANCH  11  12
ENDBRANCH  10  11
ENDBRANCH   9  10
ENDBRANCH   8   9
ENDBRANCH   7   8
ENDBRANCH   6   7
ENDBRANCH   5   6
ENDBRANCH   4   5
ENDBRANCH   3   4
ENDBRANCH   2   3
ENDBRANCH   1   2
BRANCH   1  17
ATOM     17  C   UNL     1     184.218 180.191 183.626  1.00  0.00     0.000 C 
BRANCH  17  18
ATOM     18  C   UNL     1     183.104 181.258 183.586  1.00  0.00     0.000 C 
BRANCH  18  19
ATOM     19  C   UNL     1     182.315 181.432 184.897  1.00  0.00     0.000 C 
BRANCH  19  20
ATOM     20  C   UNL     1     181.518 182.745 184.947  1.00  0.00     0.000 C 
BRANCH  20  21
ATOM     21  C   UNL     1     181.007 183.129 183.552  1.00  0.00     0.000 C 
BRANCH  21  22
ATOM     22  C   UNL     1     179.618 183.793 183.584  1.00  0.00    -0.000 C 
BRANCH  22  23
ATOM     23  C   UNL     1     178.616 183.264 182.537  1.00  0.00    -0.000 C 
BRANCH  23  24
ATOM     24  C   UNL     1     178.778 181.775 182.171  1.00  0.00    -0.000 C 
BRANCH  24  25
ATOM     25  C   UNL     1     177.492 181.083 181.686  1.00  0.00    -0.000 C 
BRANCH  25  26
ATOM     26  C   UNL     1     177.259 179.719 182.353  1.00  0.00    -0.000 C 
BRANCH  26  27
ATOM     27  C   UNL     1     175.949 179.087 181.867  1.00  0.00    -0.000 C 
BRANCH  27  28
ATOM     28  C   UNL     1     176.012 177.553 181.955  1.00  0.00    -0.000 C 
BRANCH  28  29
ATOM     29  C   UNL     1     175.192 176.995 183.129  1.00  0.00    -0.003 C 
ATOM     30  C   UNL     1     174.964 175.487 183.026  1.00  0.00     0.004 C 
ENDBRANCH  28  29
ENDBRANCH  27  28
ENDBRANCH  26  27
ENDBRANCH  25  26
ENDBRANCH  24  25
ENDBRANCH  23  24
ENDBRANCH  22  23
ENDBRANCH  21  22
ENDBRANCH  20  21
ENDBRANCH  19  20
ENDBRANCH  18  19
ENDBRANCH  17  18
ENDBRANCH   1  17
TORSDOF 26
ENDMDL
MODEL 8
REMARK VINA RESULT:    -4.126      3.410      7.468
REMARK INTER + INTRA:         -14.809
REMARK INTER:                 -10.742
REMARK INTRA:                  -4.067
REMARK UNBOUND:                -4.411
REMARK SMILES CCCCCCCCCCCCCCCCCCCCCCCCCCCC(=O)[O-]
REMARK SMILES IDX 15 1 16 2 17 3 18 4 19 5 20 6 21 7 22 8 23 9 24 10 25 11
REMARK SMILES IDX 26 12 27 13 28 14 29 15 30 16 14 17 13 18 12 19 11 20 10 21
REMARK SMILES IDX 9 22 8 23 7 24 6 25 5 26 4 27 3 28 2 29 1 30
REMARK H PARENT
REMARK Flexibility Score: inf
ROOT
ATOM      1  C   UNL     1     183.367 180.306 183.511  1.00  0.00     0.000 C 
ENDROOT
BRANCH   1   2
ATOM      2  C   UNL     1     182.962 180.228 182.032  1.00  0.00     0.000 C 
BRANCH   2   3
ATOM      3  C   UNL     1     182.332 178.866 181.710  1.00  0.00     0.000 C 
BRANCH   3   4
ATOM      4  C   UNL     1     181.142 178.970 180.740  1.00  0.00     0.000 C 
BRANCH   4   5
ATOM      5  C   UNL     1     180.543 180.384 180.582  1.00  0.00     0.000 C 
BRANCH   5   6
ATOM      6  C   UNL     1     180.247 180.816 179.135  1.00  0.00     0.000 C 
BRANCH   6   7
ATOM      7  C   UNL     1     181.021 182.073 178.713  1.00  0.00     0.000 C 
BRANCH   7   8
ATOM      8  C   UNL     1     182.489 181.735 178.413  1.00  0.00     0.000 C 
BRANCH   8   9
ATOM      9  C   UNL     1     183.476 182.629 179.180  1.00  0.00     0.000 C 
BRANCH   9  10
ATOM     10  C   UNL     1     182.839 183.312 180.401  1.00  0.00     0.000 C 
BRANCH  10  11
ATOM     11  C   UNL     1     183.850 184.226 181.111  1.00  0.00     0.000 C 
BRANCH  11  12
ATOM     12  C   UNL     1     184.652 183.494 182.199  1.00  0.00     0.006 C 
BRANCH  12  13
ATOM     13  C   UNL     1     186.061 183.097 181.735  1.00  0.00     0.053 C 
BRANCH  13  14
ATOM     14  C   UNL     1     186.200 181.607 181.694  1.00  0.00     0.041 C 
ATOM     15  O   UNL     1     185.902 180.970 180.648  1.00  0.00    -0.550 OA
ATOM     16  O   UNL     1     186.639 180.917 182.819  1.00  0.00    -0.550 OA
ENDBRANCH  13  14
ENDBRANCH  12  13
ENDBRANCH  11  12
ENDBRANCH  10  11
ENDBRANCH   9  10
ENDBRANCH   8   9
ENDBRANCH   7   8
ENDBRANCH   6   7
ENDBRANCH   5   6
ENDBRANCH   4   5
ENDBRANCH   3   4
ENDBRANCH   2   3
ENDBRANCH   1   2
BRANCH   1  17
ATOM     17  C   UNL     1     182.515 181.306 184.311  1.00  0.00     0.000 C 
BRANCH  17  18
ATOM     18  C   UNL     1     181.320 181.908 183.542  1.00  0.00     0.000 C 
BRANCH  18  19
ATOM     19  C   UNL     1     180.980 183.368 183.897  1.00  0.00     0.000 C 
BRANCH  19  20
ATOM     20  C   UNL     1     179.688 183.862 183.229  1.00  0.00     0.000 C 
BRANCH  20  21
ATOM     21  C   UNL     1     179.638 183.439 181.754  1.00  0.00     0.000 C 
BRANCH  21  22
ATOM     22  C   UNL     1     178.215 183.099 181.277  1.00  0.00    -0.000 C 
BRANCH  22  23
ATOM     23  C   UNL     1     177.378 182.258 182.263  1.00  0.00    -0.000 C 
BRANCH  23  24
ATOM     24  C   UNL     1     177.626 180.737 182.201  1.00  0.00    -0.000 C 
BRANCH  24  25
ATOM     25  C   UNL     1     176.397 179.894 181.819  1.00  0.00    -0.000 C 
BRANCH  25  26
ATOM     26  C   UNL     1     176.668 178.384 181.873  1.00  0.00    -0.000 C 
BRANCH  26  27
ATOM     27  C   UNL     1     175.411 177.615 182.298  1.00  0.00    -0.000 C 
BRANCH  27  28
ATOM     28  C   UNL     1     175.680 176.102 182.345  1.00  0.00    -0.000 C 
BRANCH  28  29
ATOM     29  C   UNL     1     174.869 175.392 183.441  1.00  0.00    -0.003 C 
ATOM     30  C   UNL     1     173.464 175.973 183.608  1.00  0.00     0.004 C 
ENDBRANCH  28  29
ENDBRANCH  27  28
ENDBRANCH  26  27
ENDBRANCH  25  26
ENDBRANCH  24  25
ENDBRANCH  23  24
ENDBRANCH  22  23
ENDBRANCH  21  22
ENDBRANCH  20  21
ENDBRANCH  19  20
ENDBRANCH  18  19
ENDBRANCH  17  18
ENDBRANCH   1  17
TORSDOF 26
ENDMDL
MODEL 9
REMARK VINA RESULT:    -4.048      0.954      3.194
REMARK INTER + INTRA:         -14.612
REMARK INTER:                 -10.497
REMARK INTRA:                  -4.115
REMARK UNBOUND:                -4.411
REMARK SMILES CCCCCCCCCCCCCCCCCCCCCCCCCCCC(=O)[O-]
REMARK SMILES IDX 15 1 16 2 17 3 18 4 19 5 20 6 21 7 22 8 23 9 24 10 25 11
REMARK SMILES IDX 26 12 27 13 28 14 29 15 30 16 14 17 13 18 12 19 11 20 10 21
REMARK SMILES IDX 9 22 8 23 7 24 6 25 5 26 4 27 3 28 2 29 1 30
REMARK H PARENT
REMARK Flexibility Score: inf
ROOT
ATOM      1  C   UNL     1     181.757 181.097 183.856  1.00  0.00     0.000 C 
ENDROOT
BRANCH   1   2
ATOM      2  C   UNL     1     181.858 182.163 184.957  1.00  0.00     0.000 C 
BRANCH   2   3
ATOM      3  C   UNL     1     181.270 183.498 184.478  1.00  0.00     0.000 C 
BRANCH   3   4
ATOM      4  C   UNL     1     180.214 183.324 183.371  1.00  0.00     0.000 C 
BRANCH   4   5
ATOM      5  C   UNL     1     178.842 183.966 183.665  1.00  0.00     0.000 C 
BRANCH   5   6
ATOM      6  C   UNL     1     177.676 183.450 182.803  1.00  0.00     0.000 C 
BRANCH   6   7
ATOM      7  C   UNL     1     178.112 183.032 181.392  1.00  0.00     0.000 C 
BRANCH   7   8
ATOM      8  C   UNL     1     177.677 181.590 181.091  1.00  0.00     0.000 C 
BRANCH   8   9
ATOM      9  C   UNL     1     178.173 180.585 182.142  1.00  0.00     0.000 C 
BRANCH   9  10
ATOM     10  C   UNL     1     177.041 179.722 182.725  1.00  0.00     0.000 C 
BRANCH  10  11
ATOM     11  C   UNL     1     176.403 178.843 181.637  1.00  0.00     0.000 C 
BRANCH  11  12
ATOM     12  C   UNL     1     175.220 178.014 182.162  1.00  0.00     0.006 C 
BRANCH  12  13
ATOM     13  C   UNL     1     175.596 176.553 182.449  1.00  0.00     0.053 C 
BRANCH  13  14
ATOM     14  C   UNL     1     174.703 175.980 183.506  1.00  0.00     0.041 C 
ATOM     15  O   UNL     1     175.057 176.002 184.715  1.00  0.00    -0.550 OA
ATOM     16  O   UNL     1     173.489 175.401 183.153  1.00  0.00    -0.550 OA
ENDBRANCH  13  14
ENDBRANCH  12  13
ENDBRANCH  11  12
ENDBRANCH  10  11
ENDBRANCH   9  10
ENDBRANCH   8   9
ENDBRANCH   7   8
ENDBRANCH   6   7
ENDBRANCH   5   6
ENDBRANCH   4   5
ENDBRANCH   3   4
ENDBRANCH   2   3
ENDBRANCH   1   2
BRANCH   1  17
ATOM     17  C   UNL     1     183.131 180.566 183.412  1.00  0.00     0.000 C 
BRANCH  17  18
ATOM     18  C   UNL     1     183.085 179.407 182.394  1.00  0.00     0.000 C 
BRANCH  18  19
ATOM     19  C   UNL     1     182.878 179.830 180.927  1.00  0.00     0.000 C 
BRANCH  19  20
ATOM     20  C   UNL     1     181.434 179.630 180.443  1.00  0.00     0.000 C 
BRANCH  20  21
ATOM     21  C   UNL     1     180.898 180.905 179.777  1.00  0.00     0.000 C 
BRANCH  21  22
ATOM     22  C   UNL     1     181.948 181.606 178.895  1.00  0.00    -0.000 C 
BRANCH  22  23
ATOM     23  C   UNL     1     181.966 183.145 179.000  1.00  0.00    -0.000 C 
BRANCH  23  24
ATOM     24  C   UNL     1     181.384 183.719 180.307  1.00  0.00    -0.000 C 
BRANCH  24  25
ATOM     25  C   UNL     1     182.065 185.003 180.812  1.00  0.00    -0.000 C 
BRANCH  25  26
ATOM     26  C   UNL     1     183.573 184.829 181.043  1.00  0.00    -0.000 C 
BRANCH  26  27
ATOM     27  C   UNL     1     183.872 183.495 181.738  1.00  0.00    -0.000 C 
BRANCH  27  28
ATOM     28  C   UNL     1     185.384 183.220 181.777  1.00  0.00    -0.000 C 
BRANCH  28  29
ATOM     29  C   UNL     1     185.761 181.895 181.097  1.00  0.00    -0.003 C 
ATOM     30  C   UNL     1     186.505 180.940 182.031  1.00  0.00     0.004 C 
ENDBRANCH  28  29
ENDBRANCH  27  28
ENDBRANCH  26  27
ENDBRANCH  25  26
ENDBRANCH  24  25
ENDBRANCH  23  24
ENDBRANCH  22  23
ENDBRANCH  21  22
ENDBRANCH  20  21
ENDBRANCH  19  20
ENDBRANCH  18  19
ENDBRANCH  17  18
ENDBRANCH   1  17
TORSDOF 26
ENDMDL
