MODEL 1
REMARK VINA RESULT:    56.952      0.000      0.000
REMARK INTER + INTRA:          80.960
REMARK INTER:                  81.923
REMARK INTRA:                  -0.963
REMARK UNBOUND:                -0.963
REMARK SMILES O=c1c(O[C@@H]2O[C@@H](CO)[C@H](O)[C@@H](O)[C@H]2O)c(-c2ccc(O)cc2)oc2cc(O)cc(O)c12
REMARK SMILES IDX 4 1 3 2 16 3 24 4 2 5 25 6 1 7 32 8 26 9 30 10 27 11 29 12
REMARK SMILES IDX 17 13 18 14 19 15 20 16 23 17 22 18 21 19 31 21 28 23 5 25
REMARK SMILES IDX 14 26 6 27 12 28 7 29 10 30 15 31 13 33 8 35 9 36 11 38
REMARK H PARENT 21 20 31 22 28 24 15 32 13 34 9 37 11 39
REMARK Flexibility Score: inf
ROOT
ATOM      1  O   UNL     1      -2.714  24.618  38.932  1.00  0.00    -0.454 OA
ENDROOT
BRANCH   1   2
ATOM      2  C   UNL     1      -2.318  23.264  39.167  1.00  0.00     0.214 A 
ATOM      3  C   UNL     1      -2.363  22.593  40.416  1.00  0.00     0.180 A 
ATOM      4  O   UNL     1      -1.789  21.405  40.566  1.00  0.00    -0.452 OA
ATOM      5  C   UNL     1      -1.757  22.574  38.082  1.00  0.00     0.239 A 
ATOM      6  C   UNL     1      -1.134  20.810  39.577  1.00  0.00     0.146 A 
ATOM      7  O   UNL     1      -1.985  22.981  36.914  1.00  0.00    -0.285 OA
ATOM      8  C   UNL     1      -0.992  21.390  38.300  1.00  0.00     0.111 A 
ATOM      9  C   UNL     1      -0.567  19.516  39.801  1.00  0.00     0.094 A 
ATOM     10  C   UNL     1      -0.143  20.803  37.350  1.00  0.00     0.134 A 
ATOM     11  C   UNL     1       0.141  18.867  38.792  1.00  0.00     0.123 A 
ATOM     12  C   UNL     1       0.435  19.546  37.607  1.00  0.00     0.093 A 
BRANCH   3  13
ATOM     13  C   UNL     1      -3.184  23.024  41.545  1.00  0.00     0.021 A 
ATOM     14  C   UNL     1      -2.753  22.805  42.860  1.00  0.00     0.016 A 
ATOM     15  C   UNL     1      -3.611  23.101  43.915  1.00  0.00     0.047 A 
ATOM     16  C   UNL     1      -4.880  23.661  43.676  1.00  0.00     0.115 A 
ATOM     17  C   UNL     1      -4.381  23.740  41.313  1.00  0.00     0.016 A 
ATOM     18  C   UNL     1      -5.206  24.092  42.394  1.00  0.00     0.047 A 
BRANCH  16  19
ATOM     19  O   UNL     1      -5.798  23.812  44.716  1.00  0.00    -0.508 OA
ATOM     20  H   UNL     1      -6.792  24.003  44.498  1.00  0.00     0.293 HD
ENDBRANCH  16  19
ENDBRANCH   3  13
BRANCH  10  21
ATOM     21  O   UNL     1       0.288  21.432  36.171  1.00  0.00    -0.507 OA
ATOM     22  H   UNL     1       0.917  20.986  35.514  1.00  0.00     0.293 HD
ENDBRANCH  10  21
BRANCH  11  23
ATOM     23  O   UNL     1       0.620  17.576  38.928  1.00  0.00    -0.508 OA
ATOM     24  H   UNL     1       1.619  17.395  38.869  1.00  0.00     0.293 HD
ENDBRANCH  11  23
ENDBRANCH   1   2
BRANCH   1  25
ATOM     25  C   UNL     1      -2.158  25.810  39.549  1.00  0.00     0.339 C 
ATOM     26  C   UNL     1      -0.673  26.060  39.104  1.00  0.00     0.214 C 
ATOM     27  O   UNL     1      -3.008  26.943  39.338  1.00  0.00    -0.332 OA
ATOM     28  C   UNL     1      -0.612  26.934  37.783  1.00  0.00     0.180 C 
ATOM     29  C   UNL     1      -3.058  27.287  37.962  1.00  0.00     0.179 C 
ATOM     30  C   UNL     1      -1.719  27.979  37.592  1.00  0.00     0.177 C 
BRANCH  26  31
ATOM     31  O   UNL     1      -0.006  26.671  40.158  1.00  0.00    -0.384 OA
ATOM     32  H   UNL     1       1.001  26.525  40.139  1.00  0.00     0.211 HD
ENDBRANCH  26  31
BRANCH  28  33
ATOM     33  O   UNL     1       0.629  27.543  37.528  1.00  0.00    -0.387 OA
ATOM     34  H   UNL     1       0.541  28.492  37.217  1.00  0.00     0.211 HD
ENDBRANCH  28  33
BRANCH  29  35
ATOM     35  C   UNL     1      -4.339  28.117  37.716  1.00  0.00     0.191 C 
BRANCH  35  36
ATOM     36  O   UNL     1      -4.186  29.242  36.885  1.00  0.00    -0.394 OA
ATOM     37  H   UNL     1      -4.506  28.960  35.980  1.00  0.00     0.210 HD
ENDBRANCH  35  36
ENDBRANCH  29  35
BRANCH  30  38
ATOM     38  O   UNL     1      -1.647  28.381  36.236  1.00  0.00    -0.387 OA
ATOM     39  H   UNL     1      -0.885  29.047  36.160  1.00  0.00     0.211 HD
ENDBRANCH  30  38
ENDBRANCH   1  25
TORSDOF 11
ENDMDL
MODEL 2
REMARK VINA RESULT:    57.185      1.626      5.521
REMARK INTER + INTRA:          81.294
REMARK INTER:                  76.378
REMARK INTRA:                   4.916
REMARK UNBOUND:                -0.963
REMARK SMILES O=c1c(O[C@@H]2O[C@@H](CO)[C@H](O)[C@@H](O)[C@H]2O)c(-c2ccc(O)cc2)oc2cc(O)cc(O)c12
REMARK SMILES IDX 4 1 3 2 16 3 24 4 2 5 25 6 1 7 32 8 26 9 30 10 27 11 29 12
REMARK SMILES IDX 17 13 18 14 19 15 20 16 23 17 22 18 21 19 31 21 28 23 5 25
REMARK SMILES IDX 14 26 6 27 12 28 7 29 10 30 15 31 13 33 8 35 9 36 11 38
REMARK H PARENT 21 20 31 22 28 24 15 32 13 34 9 37 11 39
REMARK Flexibility Score: inf
ROOT
ATOM      1  O   UNL     1      -2.489  24.598  37.960  1.00  0.00    -0.454 OA
ENDROOT
BRANCH   1   2
ATOM      2  C   UNL     1      -2.485  23.813  39.155  1.00  0.00     0.214 A 
ATOM      3  C   UNL     1      -2.117  22.446  39.246  1.00  0.00     0.180 A 
ATOM      4  O   UNL     1      -2.337  21.760  40.362  1.00  0.00    -0.452 OA
ATOM      5  C   UNL     1      -2.971  24.431  40.317  1.00  0.00     0.239 A 
ATOM      6  C   UNL     1      -2.927  22.305  41.420  1.00  0.00     0.146 A 
ATOM      7  O   UNL     1      -2.999  25.687  40.376  1.00  0.00    -0.285 OA
ATOM      8  C   UNL     1      -3.367  23.644  41.439  1.00  0.00     0.111 A 
ATOM      9  C   UNL     1      -3.103  21.514  42.598  1.00  0.00     0.094 A 
ATOM     10  C   UNL     1      -4.140  24.115  42.511  1.00  0.00     0.134 A 
ATOM     11  C   UNL     1      -3.732  22.048  43.722  1.00  0.00     0.123 A 
ATOM     12  C   UNL     1      -4.333  23.307  43.647  1.00  0.00     0.093 A 
BRANCH   3  13
ATOM     13  C   UNL     1      -1.310  21.750  38.248  1.00  0.00     0.021 A 
ATOM     14  C   UNL     1      -0.614  20.581  38.587  1.00  0.00     0.016 A 
ATOM     15  C   UNL     1       0.253  20.013  37.659  1.00  0.00     0.047 A 
ATOM     16  C   UNL     1       0.400  20.569  36.375  1.00  0.00     0.115 A 
ATOM     17  C   UNL     1      -1.295  22.208  36.911  1.00  0.00     0.016 A 
ATOM     18  C   UNL     1      -0.463  21.582  35.967  1.00  0.00     0.047 A 
BRANCH  16  19
ATOM     19  O   UNL     1       1.380  20.096  35.502  1.00  0.00    -0.508 OA
ATOM     20  H   UNL     1       1.203  20.102  34.481  1.00  0.00     0.293 HD
ENDBRANCH  16  19
ENDBRANCH   3  13
BRANCH  10  21
ATOM     21  O   UNL     1      -4.858  25.322  42.505  1.00  0.00    -0.507 OA
ATOM     22  H   UNL     1      -4.636  26.084  41.876  1.00  0.00     0.293 HD
ENDBRANCH  10  21
BRANCH  11  23
ATOM     23  O   UNL     1      -3.835  21.357  44.916  1.00  0.00    -0.508 OA
ATOM     24  H   UNL     1      -2.994  21.072  45.414  1.00  0.00     0.293 HD
ENDBRANCH  11  23
ENDBRANCH   1   2
BRANCH   1  25
ATOM     25  C   UNL     1      -2.975  25.960  37.812  1.00  0.00     0.339 C 
ATOM     26  C   UNL     1      -2.815  26.785  39.138  1.00  0.00     0.214 C 
ATOM     27  O   UNL     1      -2.380  26.598  36.676  1.00  0.00    -0.332 OA
ATOM     28  C   UNL     1      -1.396  27.490  39.205  1.00  0.00     0.180 C 
ATOM     29  C   UNL     1      -0.985  26.772  36.869  1.00  0.00     0.179 C 
ATOM     30  C   UNL     1      -0.782  27.940  37.872  1.00  0.00     0.177 C 
BRANCH  26  31
ATOM     31  O   UNL     1      -3.851  27.707  39.199  1.00  0.00    -0.384 OA
ATOM     32  H   UNL     1      -3.597  28.626  38.843  1.00  0.00     0.211 HD
ENDBRANCH  26  31
BRANCH  28  33
ATOM     33  O   UNL     1      -1.299  28.549  40.124  1.00  0.00    -0.387 OA
ATOM     34  H   UNL     1      -2.191  28.853  40.465  1.00  0.00     0.211 HD
ENDBRANCH  28  33
BRANCH  29  35
ATOM     35  C   UNL     1      -0.323  26.950  35.483  1.00  0.00     0.191 C 
BRANCH  35  36
ATOM     36  O   UNL     1       0.948  27.553  35.487  1.00  0.00    -0.394 OA
ATOM     37  H   UNL     1       0.992  28.107  34.655  1.00  0.00     0.210 HD
ENDBRANCH  35  36
ENDBRANCH  29  35
BRANCH  30  38
ATOM     38  O   UNL     1       0.578  28.221  38.144  1.00  0.00    -0.387 OA
ATOM     39  H   UNL     1       0.660  28.378  39.143  1.00  0.00     0.211 HD
ENDBRANCH  30  38
ENDBRANCH   1  25
TORSDOF 11
ENDMDL
MODEL 3
REMARK VINA RESULT:    57.664      2.434      3.777
REMARK INTER + INTRA:          81.983
REMARK INTER:                  80.770
REMARK INTRA:                   1.213
REMARK UNBOUND:                -0.963
REMARK SMILES O=c1c(O[C@@H]2O[C@@H](CO)[C@H](O)[C@@H](O)[C@H]2O)c(-c2ccc(O)cc2)oc2cc(O)cc(O)c12
REMARK SMILES IDX 4 1 3 2 16 3 24 4 2 5 25 6 1 7 32 8 26 9 30 10 27 11 29 12
REMARK SMILES IDX 17 13 18 14 19 15 20 16 23 17 22 18 21 19 31 21 28 23 5 25
REMARK SMILES IDX 14 26 6 27 12 28 7 29 10 30 15 31 13 33 8 35 9 36 11 38
REMARK H PARENT 21 20 31 22 28 24 15 32 13 34 9 37 11 39
REMARK Flexibility Score: inf
ROOT
ATOM      1  O   UNL     1      -1.687  23.641  39.704  1.00  0.00    -0.454 OA
ENDROOT
BRANCH   1   2
ATOM      2  C   UNL     1      -1.463  22.231  39.781  1.00  0.00     0.214 A 
ATOM      3  C   UNL     1      -1.551  21.441  40.955  1.00  0.00     0.180 A 
ATOM      4  O   UNL     1      -1.132  20.181  40.956  1.00  0.00    -0.452 OA
ATOM      5  C   UNL     1      -1.036  21.595  38.605  1.00  0.00     0.239 A 
ATOM      6  C   UNL     1      -0.596  19.616  39.880  1.00  0.00     0.146 A 
ATOM      7  O   UNL     1      -1.250  22.151  37.497  1.00  0.00    -0.285 OA
ATOM      8  C   UNL     1      -0.426  20.308  38.663  1.00  0.00     0.111 A 
ATOM      9  C   UNL     1      -0.196  18.245  39.944  1.00  0.00     0.094 A 
ATOM     10  C   UNL     1       0.305  19.723  37.619  1.00  0.00     0.134 A 
ATOM     11  C   UNL     1       0.385  17.623  38.840  1.00  0.00     0.123 A 
ATOM     12  C   UNL     1       0.723  18.383  37.717  1.00  0.00     0.093 A 
BRANCH   3  13
ATOM     13  C   UNL     1      -2.267  21.848  42.162  1.00  0.00     0.021 A 
ATOM     14  C   UNL     1      -3.424  21.168  42.565  1.00  0.00     0.016 A 
ATOM     15  C   UNL     1      -4.162  21.657  43.638  1.00  0.00     0.047 A 
ATOM     16  C   UNL     1      -3.733  22.794  44.348  1.00  0.00     0.115 A 
ATOM     17  C   UNL     1      -1.747  22.882  42.974  1.00  0.00     0.016 A 
ATOM     18  C   UNL     1      -2.471  23.323  44.095  1.00  0.00     0.047 A 
BRANCH  16  19
ATOM     19  O   UNL     1      -4.549  23.376  45.320  1.00  0.00    -0.508 OA
ATOM     20  H   UNL     1      -4.888  24.346  45.191  1.00  0.00     0.293 HD
ENDBRANCH  16  19
ENDBRANCH   3  13
BRANCH  10  21
ATOM     21  O   UNL     1       0.772  20.415  36.490  1.00  0.00    -0.507 OA
ATOM     22  H   UNL     1       1.298  19.962  35.752  1.00  0.00     0.293 HD
ENDBRANCH  10  21
BRANCH  11  23
ATOM     23  O   UNL     1       0.695  16.276  38.821  1.00  0.00    -0.508 OA
ATOM     24  H   UNL     1       1.510  15.948  38.308  1.00  0.00     0.293 HD
ENDBRANCH  11  23
ENDBRANCH   1   2
BRANCH   1  25
ATOM     25  C   UNL     1      -2.806  24.314  39.068  1.00  0.00     0.339 C 
ATOM     26  C   UNL     1      -3.558  23.373  38.060  1.00  0.00     0.214 C 
ATOM     27  O   UNL     1      -3.674  24.904  40.043  1.00  0.00    -0.332 OA
ATOM     28  C   UNL     1      -4.700  22.551  38.789  1.00  0.00     0.180 C 
ATOM     29  C   UNL     1      -4.304  23.903  40.828  1.00  0.00     0.179 C 
ATOM     30  C   UNL     1      -5.410  23.241  39.962  1.00  0.00     0.177 C 
BRANCH  26  31
ATOM     31  O   UNL     1      -4.064  24.160  37.034  1.00  0.00    -0.384 OA
ATOM     32  H   UNL     1      -4.798  23.702  36.497  1.00  0.00     0.211 HD
ENDBRANCH  26  31
BRANCH  28  33
ATOM     33  O   UNL     1      -5.674  21.998  37.938  1.00  0.00    -0.387 OA
ATOM     34  H   UNL     1      -6.257  21.325  38.398  1.00  0.00     0.211 HD
ENDBRANCH  28  33
BRANCH  29  35
ATOM     35  C   UNL     1      -4.778  24.551  42.149  1.00  0.00     0.191 C 
BRANCH  35  36
ATOM     36  O   UNL     1      -6.123  24.324  42.491  1.00  0.00    -0.394 OA
ATOM     37  H   UNL     1      -6.639  24.389  41.636  1.00  0.00     0.210 HD
ENDBRANCH  35  36
ENDBRANCH  29  35
BRANCH  30  38
ATOM     38  O   UNL     1      -6.123  22.222  40.640  1.00  0.00    -0.387 OA
ATOM     39  H   UNL     1      -5.646  22.054  41.519  1.00  0.00     0.211 HD
ENDBRANCH  30  38
ENDBRANCH   1  25
TORSDOF 11
ENDMDL
MODEL 4
REMARK VINA RESULT:    57.807      2.044      3.821
REMARK INTER + INTRA:          82.189
REMARK INTER:                  78.663
REMARK INTRA:                   3.526
REMARK UNBOUND:                -0.963
REMARK SMILES O=c1c(O[C@@H]2O[C@@H](CO)[C@H](O)[C@@H](O)[C@H]2O)c(-c2ccc(O)cc2)oc2cc(O)cc(O)c12
REMARK SMILES IDX 4 1 3 2 16 3 24 4 2 5 25 6 1 7 32 8 26 9 30 10 27 11 29 12
REMARK SMILES IDX 17 13 18 14 19 15 20 16 23 17 22 18 21 19 31 21 28 23 5 25
REMARK SMILES IDX 14 26 6 27 12 28 7 29 10 30 15 31 13 33 8 35 9 36 11 38
REMARK H PARENT 21 20 31 22 28 24 15 32 13 34 9 37 11 39
REMARK Flexibility Score: inf
ROOT
ATOM      1  O   UNL     1      -1.622  22.365  39.477  1.00  0.00    -0.454 OA
ENDROOT
BRANCH   1   2
ATOM      2  C   UNL     1      -1.585  21.163  40.250  1.00  0.00     0.214 A 
ATOM      3  C   UNL     1      -1.853  21.063  41.639  1.00  0.00     0.180 A 
ATOM      4  O   UNL     1      -1.598  19.938  42.297  1.00  0.00    -0.452 OA
ATOM      5  C   UNL     1      -1.162  20.000  39.588  1.00  0.00     0.239 A 
ATOM      6  C   UNL     1      -1.065  18.878  41.701  1.00  0.00     0.146 A 
ATOM      7  O   UNL     1      -1.228  19.953  38.332  1.00  0.00    -0.285 OA
ATOM      8  C   UNL     1      -0.726  18.865  40.333  1.00  0.00     0.111 A 
ATOM      9  C   UNL     1      -0.848  17.689  42.466  1.00  0.00     0.094 A 
ATOM     10  C   UNL     1      -0.005  17.788  39.797  1.00  0.00     0.134 A 
ATOM     11  C   UNL     1      -0.276  16.562  41.878  1.00  0.00     0.123 A 
ATOM     12  C   UNL     1       0.231  16.642  40.579  1.00  0.00     0.093 A 
BRANCH   3  13
ATOM     13  C   UNL     1      -2.593  22.064  42.402  1.00  0.00     0.021 A 
ATOM     14  C   UNL     1      -1.928  22.897  43.312  1.00  0.00     0.016 A 
ATOM     15  C   UNL     1      -2.673  23.749  44.123  1.00  0.00     0.047 A 
ATOM     16  C   UNL     1      -4.073  23.816  44.004  1.00  0.00     0.115 A 
ATOM     17  C   UNL     1      -3.973  22.253  42.162  1.00  0.00     0.016 A 
ATOM     18  C   UNL     1      -4.701  23.166  42.945  1.00  0.00     0.047 A 
BRANCH  16  19
ATOM     19  O   UNL     1      -4.831  24.549  44.918  1.00  0.00    -0.508 OA
ATOM     20  H   UNL     1      -4.510  25.488  45.213  1.00  0.00     0.293 HD
ENDBRANCH  16  19
ENDBRANCH   3  13
BRANCH  10  21
ATOM     21  O   UNL     1       0.622  17.797  38.541  1.00  0.00    -0.507 OA
ATOM     22  H   UNL     1       0.470  17.070  37.851  1.00  0.00     0.293 HD
ENDBRANCH  10  21
BRANCH  11  23
ATOM     23  O   UNL     1      -0.139  15.360  42.548  1.00  0.00    -0.508 OA
ATOM     24  H   UNL     1      -0.395  15.294  43.531  1.00  0.00     0.293 HD
ENDBRANCH  11  23
ENDBRANCH   1   2
BRANCH   1  25
ATOM     25  C   UNL     1      -2.711  22.826  38.631  1.00  0.00     0.339 C 
ATOM     26  C   UNL     1      -4.103  22.302  39.133  1.00  0.00     0.214 C 
ATOM     27  O   UNL     1      -2.669  24.249  38.469  1.00  0.00    -0.332 OA
ATOM     28  C   UNL     1      -4.741  23.297  40.189  1.00  0.00     0.180 C 
ATOM     29  C   UNL     1      -2.919  24.904  39.703  1.00  0.00     0.179 C 
ATOM     30  C   UNL     1      -4.437  24.790  40.006  1.00  0.00     0.177 C 
BRANCH  26  31
ATOM     31  O   UNL     1      -4.922  22.131  38.025  1.00  0.00    -0.384 OA
ATOM     32  H   UNL     1      -5.052  21.157  37.763  1.00  0.00     0.211 HD
ENDBRANCH  26  31
BRANCH  28  33
ATOM     33  O   UNL     1      -6.124  23.142  40.394  1.00  0.00    -0.387 OA
ATOM     34  H   UNL     1      -6.668  23.848  39.935  1.00  0.00     0.211 HD
ENDBRANCH  28  33
BRANCH  29  35
ATOM     35  C   UNL     1      -2.354  26.341  39.611  1.00  0.00     0.191 C 
BRANCH  35  36
ATOM     36  O   UNL     1      -2.586  27.010  38.396  1.00  0.00    -0.394 OA
ATOM     37  H   UNL     1      -3.475  26.687  38.069  1.00  0.00     0.210 HD
ENDBRANCH  35  36
ENDBRANCH  29  35
BRANCH  30  38
ATOM     38  O   UNL     1      -4.820  25.417  41.217  1.00  0.00    -0.387 OA
ATOM     39  H   UNL     1      -4.027  25.965  41.537  1.00  0.00     0.211 HD
ENDBRANCH  30  38
ENDBRANCH   1  25
TORSDOF 11
ENDMDL
MODEL 5
REMARK VINA RESULT:    57.914      3.581      7.711
REMARK INTER + INTRA:          82.342
REMARK INTER:                  83.330
REMARK INTRA:                  -0.987
REMARK UNBOUND:                -0.963
REMARK SMILES O=c1c(O[C@@H]2O[C@@H](CO)[C@H](O)[C@@H](O)[C@H]2O)c(-c2ccc(O)cc2)oc2cc(O)cc(O)c12
REMARK SMILES IDX 4 1 3 2 16 3 24 4 2 5 25 6 1 7 32 8 26 9 30 10 27 11 29 12
REMARK SMILES IDX 17 13 18 14 19 15 20 16 23 17 22 18 21 19 31 21 28 23 5 25
REMARK SMILES IDX 14 26 6 27 12 28 7 29 10 30 15 31 13 33 8 35 9 36 11 38
REMARK H PARENT 21 20 31 22 28 24 15 32 13 34 9 37 11 39
REMARK Flexibility Score: inf
ROOT
ATOM      1  O   UNL     1       0.387  20.481  39.013  1.00  0.00    -0.454 OA
ENDROOT
BRANCH   1   2
ATOM      2  C   UNL     1      -0.601  21.367  39.545  1.00  0.00     0.214 A 
ATOM      3  C   UNL     1      -0.522  22.045  40.787  1.00  0.00     0.180 A 
ATOM      4  O   UNL     1      -1.577  22.687  41.276  1.00  0.00    -0.452 OA
ATOM      5  C   UNL     1      -1.787  21.504  38.808  1.00  0.00     0.239 A 
ATOM      6  C   UNL     1      -2.746  22.701  40.647  1.00  0.00     0.146 A 
ATOM      7  O   UNL     1      -1.787  21.204  37.586  1.00  0.00    -0.285 OA
ATOM      8  C   UNL     1      -2.959  22.037  39.422  1.00  0.00     0.111 A 
ATOM      9  C   UNL     1      -3.831  23.439  41.217  1.00  0.00     0.094 A 
ATOM     10  C   UNL     1      -4.254  21.935  38.892  1.00  0.00     0.134 A 
ATOM     11  C   UNL     1      -5.077  23.464  40.593  1.00  0.00     0.123 A 
ATOM     12  C   UNL     1      -5.315  22.639  39.491  1.00  0.00     0.093 A 
BRANCH   3  13
ATOM     13  C   UNL     1       0.724  22.273  41.515  1.00  0.00     0.021 A 
ATOM     14  C   UNL     1       0.999  21.564  42.692  1.00  0.00     0.016 A 
ATOM     15  C   UNL     1       2.126  21.894  43.438  1.00  0.00     0.047 A 
ATOM     16  C   UNL     1       3.013  22.895  42.998  1.00  0.00     0.115 A 
ATOM     17  C   UNL     1       1.696  23.153  40.987  1.00  0.00     0.016 A 
ATOM     18  C   UNL     1       2.863  23.428  41.721  1.00  0.00     0.047 A 
BRANCH  16  19
ATOM     19  O   UNL     1       4.054  23.334  43.818  1.00  0.00    -0.508 OA
ATOM     20  H   UNL     1       4.186  24.348  43.979  1.00  0.00     0.293 HD
ENDBRANCH  16  19
ENDBRANCH   3  13
BRANCH  10  21
ATOM     21  O   UNL     1      -4.621  21.072  37.847  1.00  0.00    -0.507 OA
ATOM     22  H   UNL     1      -4.072  20.978  37.000  1.00  0.00     0.293 HD
ENDBRANCH  10  21
BRANCH  11  23
ATOM     23  O   UNL     1      -6.124  24.242  41.052  1.00  0.00    -0.508 OA
ATOM     24  H   UNL     1      -6.374  25.098  40.562  1.00  0.00     0.293 HD
ENDBRANCH  11  23
ENDBRANCH   1   2
BRANCH   1  25
ATOM     25  C   UNL     1       0.172  19.134  38.511  1.00  0.00     0.339 C 
ATOM     26  C   UNL     1       1.527  18.381  38.259  1.00  0.00     0.214 C 
ATOM     27  O   UNL     1      -0.729  18.408  39.355  1.00  0.00    -0.332 OA
ATOM     28  C   UNL     1       2.010  17.623  39.565  1.00  0.00     0.180 C 
ATOM     29  C   UNL     1      -0.154  18.187  40.634  1.00  0.00     0.179 C 
ATOM     30  C   UNL     1       0.917  17.072  40.491  1.00  0.00     0.177 C 
BRANCH  26  31
ATOM     31  O   UNL     1       1.342  17.508  37.195  1.00  0.00    -0.384 OA
ATOM     32  H   UNL     1       2.154  16.927  37.003  1.00  0.00     0.211 HD
ENDBRANCH  26  31
BRANCH  28  33
ATOM     33  O   UNL     1       2.966  16.615  39.350  1.00  0.00    -0.387 OA
ATOM     34  H   UNL     1       3.265  16.173  40.199  1.00  0.00     0.211 HD
ENDBRANCH  28  33
BRANCH  29  35
ATOM     35  C   UNL     1      -1.296  17.903  41.635  1.00  0.00     0.191 C 
BRANCH  35  36
ATOM     36  O   UNL     1      -1.173  16.715  42.379  1.00  0.00    -0.394 OA
ATOM     37  H   UNL     1      -0.528  16.140  41.875  1.00  0.00     0.210 HD
ENDBRANCH  35  36
ENDBRANCH  29  35
BRANCH  30  38
ATOM     38  O   UNL     1       1.563  16.751  41.709  1.00  0.00    -0.387 OA
ATOM     39  H   UNL     1       1.039  17.196  42.455  1.00  0.00     0.211 HD
ENDBRANCH  30  38
ENDBRANCH   1  25
TORSDOF 11
ENDMDL
MODEL 6
REMARK VINA RESULT:    59.081      1.702      5.322
REMARK INTER + INTRA:          84.022
REMARK INTER:                  85.118
REMARK INTRA:                  -1.096
REMARK UNBOUND:                -0.963
REMARK SMILES O=c1c(O[C@@H]2O[C@@H](CO)[C@H](O)[C@@H](O)[C@H]2O)c(-c2ccc(O)cc2)oc2cc(O)cc(O)c12
REMARK SMILES IDX 4 1 3 2 16 3 24 4 2 5 25 6 1 7 32 8 26 9 30 10 27 11 29 12
REMARK SMILES IDX 17 13 18 14 19 15 20 16 23 17 22 18 21 19 31 21 28 23 5 25
REMARK SMILES IDX 14 26 6 27 12 28 7 29 10 30 15 31 13 33 8 35 9 36 11 38
REMARK H PARENT 21 20 31 22 28 24 15 32 13 34 9 37 11 39
REMARK Flexibility Score: inf
ROOT
ATOM      1  O   UNL     1      -2.132  22.586  41.455  1.00  0.00    -0.454 OA
ENDROOT
BRANCH   1   2
ATOM      2  C   UNL     1      -1.503  22.093  40.270  1.00  0.00     0.214 A 
ATOM      3  C   UNL     1      -1.649  22.636  38.967  1.00  0.00     0.180 A 
ATOM      4  O   UNL     1      -1.180  21.987  37.908  1.00  0.00    -0.452 OA
ATOM      5  C   UNL     1      -0.745  20.919  40.399  1.00  0.00     0.239 A 
ATOM      6  C   UNL     1      -0.585  20.804  38.013  1.00  0.00     0.146 A 
ATOM      7  O   UNL     1      -0.320  20.588  41.536  1.00  0.00    -0.285 OA
ATOM      8  C   UNL     1      -0.410  20.148  39.248  1.00  0.00     0.111 A 
ATOM      9  C   UNL     1      -0.077  20.177  36.831  1.00  0.00     0.094 A 
ATOM     10  C   UNL     1       0.063  18.827  39.281  1.00  0.00     0.134 A 
ATOM     11  C   UNL     1       0.540  18.929  36.900  1.00  0.00     0.123 A 
ATOM     12  C   UNL     1       0.523  18.215  38.101  1.00  0.00     0.093 A 
BRANCH   3  13
ATOM     13  C   UNL     1      -2.118  23.992  38.696  1.00  0.00     0.021 A 
ATOM     14  C   UNL     1      -2.831  24.276  37.524  1.00  0.00     0.016 A 
ATOM     15  C   UNL     1      -3.149  25.597  37.224  1.00  0.00     0.047 A 
ATOM     16  C   UNL     1      -2.805  26.639  38.106  1.00  0.00     0.115 A 
ATOM     17  C   UNL     1      -1.924  25.009  39.659  1.00  0.00     0.016 A 
ATOM     18  C   UNL     1      -2.310  26.329  39.369  1.00  0.00     0.047 A 
BRANCH  16  19
ATOM     19  O   UNL     1      -2.983  27.973  37.736  1.00  0.00    -0.508 OA
ATOM     20  H   UNL     1      -3.016  28.707  38.465  1.00  0.00     0.293 HD
ENDBRANCH  16  19
ENDBRANCH   3  13
BRANCH  10  21
ATOM     21  O   UNL     1       0.010  17.992  40.409  1.00  0.00    -0.507 OA
ATOM     22  H   UNL     1       0.566  17.149  40.489  1.00  0.00     0.293 HD
ENDBRANCH  10  21
BRANCH  11  23
ATOM     23  O   UNL     1       1.134  18.331  35.805  1.00  0.00    -0.508 OA
ATOM     24  H   UNL     1       1.422  18.897  35.009  1.00  0.00     0.293 HD
ENDBRANCH  11  23
ENDBRANCH   1   2
BRANCH   1  25
ATOM     25  C   UNL     1      -3.260  21.994  42.154  1.00  0.00     0.339 C 
ATOM     26  C   UNL     1      -3.545  22.716  43.520  1.00  0.00     0.214 C 
ATOM     27  O   UNL     1      -4.411  21.920  41.305  1.00  0.00    -0.332 OA
ATOM     28  C   UNL     1      -4.537  23.936  43.325  1.00  0.00     0.180 C 
ATOM     29  C   UNL     1      -4.881  23.219  40.977  1.00  0.00     0.179 C 
ATOM     30  C   UNL     1      -5.600  23.797  42.226  1.00  0.00     0.177 C 
BRANCH  26  31
ATOM     31  O   UNL     1      -4.053  21.775  44.405  1.00  0.00    -0.384 OA
ATOM     32  H   UNL     1      -4.077  22.097  45.370  1.00  0.00     0.211 HD
ENDBRANCH  26  31
BRANCH  28  33
ATOM     33  O   UNL     1      -5.163  24.390  44.499  1.00  0.00    -0.387 OA
ATOM     34  H   UNL     1      -4.910  25.330  44.738  1.00  0.00     0.211 HD
ENDBRANCH  28  33
BRANCH  29  35
ATOM     35  C   UNL     1      -5.734  23.116  39.693  1.00  0.00     0.191 C 
BRANCH  35  36
ATOM     36  O   UNL     1      -5.285  22.188  38.735  1.00  0.00    -0.394 OA
ATOM     37  H   UNL     1      -4.841  21.454  39.251  1.00  0.00     0.210 HD
ENDBRANCH  35  36
ENDBRANCH  29  35
BRANCH  30  38
ATOM     38  O   UNL     1      -6.125  25.097  42.024  1.00  0.00    -0.387 OA
ATOM     39  H   UNL     1      -5.737  25.694  42.747  1.00  0.00     0.211 HD
ENDBRANCH  30  38
ENDBRANCH   1  25
TORSDOF 11
ENDMDL
