MODEL 1
REMARK VINA RESULT:    -4.626      0.000      0.000
REMARK INTER + INTRA:          -9.394
REMARK INTER:                  -7.871
REMARK INTRA:                  -1.523
REMARK UNBOUND:                -1.523
REMARK SMILES CCCCCCCCCCCCCC(=O)[O-]
REMARK SMILES IDX 8 1 9 2 10 3 11 4 12 5 13 6 14 7 15 8 16 9 7 10 6 11 5 12
REMARK SMILES IDX 4 13 3 14 2 15 1 16
REMARK H PARENT
REMARK Flexibility Score: inf
ROOT
ATOM      1  C   UNL     1      15.950 -31.010  23.286  1.00  0.00     0.000 C 
ENDROOT
BRANCH   1   2
ATOM      2  C   UNL     1      16.274 -32.434  23.768  1.00  0.00     0.000 C 
BRANCH   2   3
ATOM      3  C   UNL     1      15.291 -33.482  23.216  1.00  0.00     0.000 C 
BRANCH   3   4
ATOM      4  C   UNL     1      15.945 -34.421  22.191  1.00  0.00     0.000 C 
BRANCH   4   5
ATOM      5  C   UNL     1      15.152 -34.510  20.875  1.00  0.00     0.006 C 
BRANCH   5   6
ATOM      6  C   UNL     1      16.037 -34.261  19.647  1.00  0.00     0.053 C 
BRANCH   6   7
ATOM      7  C   UNL     1      17.012 -35.378  19.432  1.00  0.00     0.041 C 
ATOM      8  O   UNL     1      18.230 -35.129  19.239  1.00  0.00    -0.550 OA
ATOM      9  O   UNL     1      16.578 -36.697  19.479  1.00  0.00    -0.550 OA
ENDBRANCH   6   7
ENDBRANCH   5   6
ENDBRANCH   4   5
ENDBRANCH   3   4
ENDBRANCH   2   3
ENDBRANCH   1   2
BRANCH   1  10
ATOM     10  C   UNL     1      15.902 -30.904  21.751  1.00  0.00     0.000 C 
BRANCH  10  11
ATOM     11  C   UNL     1      14.633 -30.199  21.247  1.00  0.00    -0.000 C 
BRANCH  11  12
ATOM     12  C   UNL     1      13.419 -31.144  21.164  1.00  0.00    -0.000 C 
BRANCH  12  13
ATOM     13  C   UNL     1      12.384 -30.862  22.275  1.00  0.00    -0.000 C 
BRANCH  13  14
ATOM     14  C   UNL     1      12.405 -29.408  22.784  1.00  0.00    -0.000 C 
BRANCH  14  15
ATOM     15  C   UNL     1      12.784 -29.253  24.266  1.00  0.00    -0.003 C 
ATOM     16  C   UNL     1      12.661 -27.812  24.761  1.00  0.00     0.004 C 
ENDBRANCH  14  15
ENDBRANCH  13  14
ENDBRANCH  12  13
ENDBRANCH  11  12
ENDBRANCH  10  11
ENDBRANCH   1  10
TORSDOF 12
ENDMDL
MODEL 2
REMARK VINA RESULT:    -4.448      3.921      6.118
REMARK INTER + INTRA:          -9.092
REMARK INTER:                  -7.313
REMARK INTRA:                  -1.779
REMARK UNBOUND:                -1.523
REMARK SMILES CCCCCCCCCCCCCC(=O)[O-]
REMARK SMILES IDX 8 1 9 2 10 3 11 4 12 5 13 6 14 7 15 8 16 9 7 10 6 11 5 12
REMARK SMILES IDX 4 13 3 14 2 15 1 16
REMARK H PARENT
REMARK Flexibility Score: inf
ROOT
ATOM      1  C   UNL     1      15.122 -34.392  21.259  1.00  0.00     0.000 C 
ENDROOT
BRANCH   1   2
ATOM      2  C   UNL     1      14.579 -33.090  21.870  1.00  0.00     0.000 C 
BRANCH   2   3
ATOM      3  C   UNL     1      13.886 -32.193  20.830  1.00  0.00     0.000 C 
BRANCH   3   4
ATOM      4  C   UNL     1      13.422 -30.853  21.422  1.00  0.00     0.000 C 
BRANCH   4   5
ATOM      5  C   UNL     1      12.908 -30.988  22.866  1.00  0.00     0.006 C 
BRANCH   5   6
ATOM      6  C   UNL     1      13.124 -29.704  23.679  1.00  0.00     0.053 C 
BRANCH   6   7
ATOM      7  C   UNL     1      11.986 -28.744  23.511  1.00  0.00     0.041 C 
ATOM      8  O   UNL     1      12.041 -27.598  24.028  1.00  0.00    -0.550 OA
ATOM      9  O   UNL     1      10.879 -29.105  22.753  1.00  0.00    -0.550 OA
ENDBRANCH   6   7
ENDBRANCH   5   6
ENDBRANCH   4   5
ENDBRANCH   3   4
ENDBRANCH   2   3
ENDBRANCH   1   2
BRANCH   1  10
ATOM     10  C   UNL     1      15.956 -34.145  19.989  1.00  0.00     0.000 C 
BRANCH  10  11
ATOM     11  C   UNL     1      17.467 -34.134  20.267  1.00  0.00    -0.000 C 
BRANCH  11  12
ATOM     12  C   UNL     1      18.088 -32.731  20.132  1.00  0.00    -0.000 C 
BRANCH  12  13
ATOM     13  C   UNL     1      18.097 -31.966  21.473  1.00  0.00    -0.000 C 
BRANCH  13  14
ATOM     14  C   UNL     1      17.322 -30.635  21.429  1.00  0.00    -0.000 C 
BRANCH  14  15
ATOM     15  C   UNL     1      16.796 -30.155  22.792  1.00  0.00    -0.003 C 
ATOM     16  C   UNL     1      16.907 -31.224  23.879  1.00  0.00     0.004 C 
ENDBRANCH  14  15
ENDBRANCH  13  14
ENDBRANCH  12  13
ENDBRANCH  11  12
ENDBRANCH  10  11
ENDBRANCH   1  10
TORSDOF 12
ENDMDL
MODEL 3
REMARK VINA RESULT:    -4.422      1.630      3.993
REMARK INTER + INTRA:          -9.047
REMARK INTER:                  -7.314
REMARK INTRA:                  -1.733
REMARK UNBOUND:                -1.523
REMARK SMILES CCCCCCCCCCCCCC(=O)[O-]
REMARK SMILES IDX 8 1 9 2 10 3 11 4 12 5 13 6 14 7 15 8 16 9 7 10 6 11 5 12
REMARK SMILES IDX 4 13 3 14 2 15 1 16
REMARK H PARENT
REMARK Flexibility Score: inf
ROOT
ATOM      1  C   UNL     1      13.460 -30.541  22.819  1.00  0.00     0.000 C 
ENDROOT
BRANCH   1   2
ATOM      2  C   UNL     1      12.876 -31.086  21.506  1.00  0.00     0.000 C 
BRANCH   2   3
ATOM      3  C   UNL     1      13.804 -32.110  20.827  1.00  0.00     0.000 C 
BRANCH   3   4
ATOM      4  C   UNL     1      14.608 -32.939  21.841  1.00  0.00     0.000 C 
BRANCH   4   5
ATOM      5  C   UNL     1      15.099 -34.277  21.260  1.00  0.00     0.006 C 
BRANCH   5   6
ATOM      6  C   UNL     1      15.534 -34.146  19.794  1.00  0.00     0.053 C 
BRANCH   6   7
ATOM      7  C   UNL     1      16.599 -35.139  19.442  1.00  0.00     0.041 C 
ATOM      8  O   UNL     1      17.647 -34.764  18.855  1.00  0.00    -0.550 OA
ATOM      9  O   UNL     1      16.448 -36.475  19.794  1.00  0.00    -0.550 OA
ENDBRANCH   6   7
ENDBRANCH   5   6
ENDBRANCH   4   5
ENDBRANCH   3   4
ENDBRANCH   2   3
ENDBRANCH   1   2
BRANCH   1  10
ATOM     10  C   UNL     1      14.020 -29.115  22.669  1.00  0.00     0.000 C 
BRANCH  10  11
ATOM     11  C   UNL     1      15.349 -29.080  21.900  1.00  0.00    -0.000 C 
BRANCH  11  12
ATOM     12  C   UNL     1      16.479 -29.833  22.626  1.00  0.00    -0.000 C 
BRANCH  12  13
ATOM     13  C   UNL     1      17.751 -29.951  21.759  1.00  0.00    -0.000 C 
BRANCH  13  14
ATOM     14  C   UNL     1      17.701 -31.109  20.744  1.00  0.00    -0.000 C 
BRANCH  14  15
ATOM     15  C   UNL     1      18.828 -32.145  20.897  1.00  0.00    -0.003 C 
ATOM     16  C   UNL     1      18.609 -33.087  22.081  1.00  0.00     0.004 C 
ENDBRANCH  14  15
ENDBRANCH  13  14
ENDBRANCH  12  13
ENDBRANCH  11  12
ENDBRANCH  10  11
ENDBRANCH   1  10
TORSDOF 12
ENDMDL
MODEL 4
REMARK VINA RESULT:    -4.395      4.089      6.765
REMARK INTER + INTRA:          -9.001
REMARK INTER:                  -7.643
REMARK INTRA:                  -1.358
REMARK UNBOUND:                -1.523
REMARK SMILES CCCCCCCCCCCCCC(=O)[O-]
REMARK SMILES IDX 8 1 9 2 10 3 11 4 12 5 13 6 14 7 15 8 16 9 7 10 6 11 5 12
REMARK SMILES IDX 4 13 3 14 2 15 1 16
REMARK H PARENT
REMARK Flexibility Score: inf
ROOT
ATOM      1  C   UNL     1      14.554 -32.934  20.917  1.00  0.00     0.000 C 
ENDROOT
BRANCH   1   2
ATOM      2  C   UNL     1      14.997 -33.422  22.306  1.00  0.00     0.000 C 
BRANCH   2   3
ATOM      3  C   UNL     1      15.097 -32.277  23.330  1.00  0.00     0.000 C 
BRANCH   3   4
ATOM      4  C   UNL     1      13.734 -31.905  23.934  1.00  0.00     0.000 C 
BRANCH   4   5
ATOM      5  C   UNL     1      13.040 -30.759  23.177  1.00  0.00     0.006 C 
BRANCH   5   6
ATOM      6  C   UNL     1      12.945 -29.482  24.022  1.00  0.00     0.053 C 
BRANCH   6   7
ATOM      7  C   UNL     1      11.852 -28.579  23.540  1.00  0.00     0.041 C 
ATOM      8  O   UNL     1      10.967 -29.016  22.759  1.00  0.00    -0.550 OA
ATOM      9  O   UNL     1      11.792 -27.262  23.980  1.00  0.00    -0.550 OA
ENDBRANCH   6   7
ENDBRANCH   5   6
ENDBRANCH   4   5
ENDBRANCH   3   4
ENDBRANCH   2   3
ENDBRANCH   1   2
BRANCH   1  10
ATOM     10  C   UNL     1      14.689 -34.024  19.839  1.00  0.00     0.000 C 
BRANCH  10  11
ATOM     11  C   UNL     1      15.584 -35.191  20.286  1.00  0.00    -0.000 C 
BRANCH  11  12
ATOM     12  C   UNL     1      16.995 -35.130  19.672  1.00  0.00    -0.000 C 
BRANCH  12  13
ATOM     13  C   UNL     1      18.101 -35.220  20.745  1.00  0.00    -0.000 C 
BRANCH  13  14
ATOM     14  C   UNL     1      18.588 -33.847  21.247  1.00  0.00    -0.000 C 
BRANCH  14  15
ATOM     15  C   UNL     1      18.369 -32.689  20.260  1.00  0.00    -0.003 C 
ATOM     16  C   UNL     1      17.890 -31.409  20.945  1.00  0.00     0.004 C 
ENDBRANCH  14  15
ENDBRANCH  13  14
ENDBRANCH  12  13
ENDBRANCH  11  12
ENDBRANCH  10  11
ENDBRANCH   1  10
TORSDOF 12
ENDMDL
MODEL 5
REMARK VINA RESULT:    -4.364      3.674      6.328
REMARK INTER + INTRA:          -8.948
REMARK INTER:                  -7.629
REMARK INTRA:                  -1.319
REMARK UNBOUND:                -1.523
REMARK SMILES CCCCCCCCCCCCCC(=O)[O-]
REMARK SMILES IDX 8 1 9 2 10 3 11 4 12 5 13 6 14 7 15 8 16 9 7 10 6 11 5 12
REMARK SMILES IDX 4 13 3 14 2 15 1 16
REMARK H PARENT
REMARK Flexibility Score: inf
ROOT
ATOM      1  C   UNL     1      17.632 -31.684  21.867  1.00  0.00     0.000 C 
ENDROOT
BRANCH   1   2
ATOM      2  C   UNL     1      16.581 -30.564  21.787  1.00  0.00     0.000 C 
BRANCH   2   3
ATOM      3  C   UNL     1      15.982 -30.217  23.161  1.00  0.00     0.000 C 
BRANCH   3   4
ATOM      4  C   UNL     1      15.152 -31.369  23.750  1.00  0.00     0.000 C 
BRANCH   4   5
ATOM      5  C   UNL     1      13.644 -31.214  23.481  1.00  0.00     0.006 C 
BRANCH   5   6
ATOM      6  C   UNL     1      13.125 -29.826  23.882  1.00  0.00     0.053 C 
BRANCH   6   7
ATOM      7  C   UNL     1      12.054 -29.347  22.951  1.00  0.00     0.041 C 
ATOM      8  O   UNL     1      11.640 -30.090  22.023  1.00  0.00    -0.550 OA
ATOM      9  O   UNL     1      11.488 -28.091  23.131  1.00  0.00    -0.550 OA
ENDBRANCH   6   7
ENDBRANCH   5   6
ENDBRANCH   4   5
ENDBRANCH   3   4
ENDBRANCH   2   3
ENDBRANCH   1   2
BRANCH   1  10
ATOM     10  C   UNL     1      18.292 -31.972  20.507  1.00  0.00     0.000 C 
BRANCH  10  11
ATOM     11  C   UNL     1      18.654 -33.454  20.327  1.00  0.00    -0.000 C 
BRANCH  11  12
ATOM     12  C   UNL     1      17.860 -34.129  19.193  1.00  0.00    -0.000 C 
BRANCH  12  13
ATOM     13  C   UNL     1      17.298 -35.504  19.614  1.00  0.00    -0.000 C 
BRANCH  13  14
ATOM     14  C   UNL     1      15.784 -35.490  19.903  1.00  0.00    -0.000 C 
BRANCH  14  15
ATOM     15  C   UNL     1      15.360 -34.562  21.053  1.00  0.00    -0.003 C 
ATOM     16  C   UNL     1      14.482 -33.402  20.584  1.00  0.00     0.004 C 
ENDBRANCH  14  15
ENDBRANCH  13  14
ENDBRANCH  12  13
ENDBRANCH  11  12
ENDBRANCH  10  11
ENDBRANCH   1  10
TORSDOF 12
ENDMDL
MODEL 6
REMARK VINA RESULT:    -4.331      3.344      5.612
REMARK INTER + INTRA:          -8.892
REMARK INTER:                  -7.019
REMARK INTRA:                  -1.873
REMARK UNBOUND:                -1.523
REMARK SMILES CCCCCCCCCCCCCC(=O)[O-]
REMARK SMILES IDX 8 1 9 2 10 3 11 4 12 5 13 6 14 7 15 8 16 9 7 10 6 11 5 12
REMARK SMILES IDX 4 13 3 14 2 15 1 16
REMARK H PARENT
REMARK Flexibility Score: inf
ROOT
ATOM      1  C   UNL     1      17.166 -34.324  19.332  1.00  0.00     0.000 C 
ENDROOT
BRANCH   1   2
ATOM      2  C   UNL     1      15.918 -34.902  20.021  1.00  0.00     0.000 C 
BRANCH   2   3
ATOM      3  C   UNL     1      14.677 -34.010  19.840  1.00  0.00     0.000 C 
BRANCH   3   4
ATOM      4  C   UNL     1      14.443 -33.076  21.038  1.00  0.00     0.000 C 
BRANCH   4   5
ATOM      5  C   UNL     1      13.483 -31.919  20.712  1.00  0.00     0.006 C 
BRANCH   5   6
ATOM      6  C   UNL     1      13.859 -30.629  21.453  1.00  0.00     0.053 C 
BRANCH   6   7
ATOM      7  C   UNL     1      12.946 -30.372  22.614  1.00  0.00     0.041 C 
ATOM      8  O   UNL     1      11.778 -29.946  22.420  1.00  0.00    -0.550 OA
ATOM      9  O   UNL     1      13.377 -30.637  23.908  1.00  0.00    -0.550 OA
ENDBRANCH   6   7
ENDBRANCH   5   6
ENDBRANCH   4   5
ENDBRANCH   3   4
ENDBRANCH   2   3
ENDBRANCH   1   2
BRANCH   1  10
ATOM     10  C   UNL     1      18.206 -33.800  20.339  1.00  0.00     0.000 C 
BRANCH  10  11
ATOM     11  C   UNL     1      18.143 -32.274  20.512  1.00  0.00    -0.000 C 
BRANCH  11  12
ATOM     12  C   UNL     1      18.484 -31.822  21.944  1.00  0.00    -0.000 C 
BRANCH  12  13
ATOM     13  C   UNL     1      17.281 -31.159  22.649  1.00  0.00    -0.000 C 
BRANCH  13  14
ATOM     14  C   UNL     1      16.656 -32.031  23.755  1.00  0.00    -0.000 C 
BRANCH  14  15
ATOM     15  C   UNL     1      17.423 -33.328  24.059  1.00  0.00    -0.003 C 
ATOM     16  C   UNL     1      16.624 -34.584  23.710  1.00  0.00     0.004 C 
ENDBRANCH  14  15
ENDBRANCH  13  14
ENDBRANCH  12  13
ENDBRANCH  11  12
ENDBRANCH  10  11
ENDBRANCH   1  10
TORSDOF 12
ENDMDL
MODEL 7
REMARK VINA RESULT:    -4.331      1.942      3.786
REMARK INTER + INTRA:          -8.892
REMARK INTER:                  -7.076
REMARK INTRA:                  -1.815
REMARK UNBOUND:                -1.523
REMARK SMILES CCCCCCCCCCCCCC(=O)[O-]
REMARK SMILES IDX 8 1 9 2 10 3 11 4 12 5 13 6 14 7 15 8 16 9 7 10 6 11 5 12
REMARK SMILES IDX 4 13 3 14 2 15 1 16
REMARK H PARENT
REMARK Flexibility Score: inf
ROOT
ATOM      1  C   UNL     1      16.568 -29.904  22.327  1.00  0.00     0.000 C 
ENDROOT
BRANCH   1   2
ATOM      2  C   UNL     1      16.931 -30.965  21.276  1.00  0.00     0.000 C 
BRANCH   2   3
ATOM      3  C   UNL     1      18.448 -31.204  21.178  1.00  0.00     0.000 C 
BRANCH   3   4
ATOM      4  C   UNL     1      18.791 -32.591  20.611  1.00  0.00     0.000 C 
BRANCH   4   5
ATOM      5  C   UNL     1      17.583 -33.280  19.952  1.00  0.00     0.006 C 
BRANCH   5   6
ATOM      6  C   UNL     1      17.962 -34.619  19.306  1.00  0.00     0.053 C 
BRANCH   6   7
ATOM      7  C   UNL     1      16.861 -35.628  19.437  1.00  0.00     0.041 C 
ATOM      8  O   UNL     1      17.098 -36.851  19.262  1.00  0.00    -0.550 OA
ATOM      9  O   UNL     1      15.581 -35.217  19.786  1.00  0.00    -0.550 OA
ENDBRANCH   6   7
ENDBRANCH   5   6
ENDBRANCH   4   5
ENDBRANCH   3   4
ENDBRANCH   2   3
ENDBRANCH   1   2
BRANCH   1  10
ATOM     10  C   UNL     1      15.721 -30.478  23.477  1.00  0.00     0.000 C 
BRANCH  10  11
ATOM     11  C   UNL     1      14.354 -30.995  23.003  1.00  0.00    -0.000 C 
BRANCH  11  12
ATOM     12  C   UNL     1      13.781 -32.092  23.920  1.00  0.00    -0.000 C 
BRANCH  12  13
ATOM     13  C   UNL     1      14.825 -33.180  24.249  1.00  0.00    -0.000 C 
BRANCH  13  14
ATOM     14  C   UNL     1      15.299 -33.975  23.017  1.00  0.00    -0.000 C 
BRANCH  14  15
ATOM     15  C   UNL     1      16.720 -34.549  23.134  1.00  0.00    -0.003 C 
ATOM     16  C   UNL     1      17.625 -33.713  24.038  1.00  0.00     0.004 C 
ENDBRANCH  14  15
ENDBRANCH  13  14
ENDBRANCH  12  13
ENDBRANCH  11  12
ENDBRANCH  10  11
ENDBRANCH   1  10
TORSDOF 12
ENDMDL
MODEL 8
REMARK VINA RESULT:    -4.324      3.189      6.439
REMARK INTER + INTRA:          -8.880
REMARK INTER:                  -7.056
REMARK INTRA:                  -1.824
REMARK UNBOUND:                -1.523
REMARK SMILES CCCCCCCCCCCCCC(=O)[O-]
REMARK SMILES IDX 8 1 9 2 10 3 11 4 12 5 13 6 14 7 15 8 16 9 7 10 6 11 5 12
REMARK SMILES IDX 4 13 3 14 2 15 1 16
REMARK H PARENT
REMARK Flexibility Score: inf
ROOT
ATOM      1  C   UNL     1      15.334 -33.836  21.139  1.00  0.00     0.000 C 
ENDROOT
BRANCH   1   2
ATOM      2  C   UNL     1      16.507 -32.900  20.804  1.00  0.00     0.000 C 
BRANCH   2   3
ATOM      3  C   UNL     1      16.658 -31.755  21.821  1.00  0.00     0.000 C 
BRANCH   3   4
ATOM      4  C   UNL     1      15.947 -32.050  23.151  1.00  0.00     0.000 C 
BRANCH   4   5
ATOM      5  C   UNL     1      14.925 -30.964  23.532  1.00  0.00     0.006 C 
BRANCH   5   6
ATOM      6  C   UNL     1      13.479 -31.465  23.418  1.00  0.00     0.053 C 
BRANCH   6   7
ATOM      7  C   UNL     1      12.777 -30.865  22.238  1.00  0.00     0.041 C 
ATOM      8  O   UNL     1      13.065 -31.238  21.071  1.00  0.00    -0.550 OA
ATOM      9  O   UNL     1      11.780 -29.917  22.431  1.00  0.00    -0.550 OA
ENDBRANCH   6   7
ENDBRANCH   5   6
ENDBRANCH   4   5
ENDBRANCH   3   4
ENDBRANCH   2   3
ENDBRANCH   1   2
BRANCH   1  10
ATOM     10  C   UNL     1      15.334 -35.112  20.280  1.00  0.00     0.000 C 
BRANCH  10  11
ATOM     11  C   UNL     1      16.622 -35.272  19.457  1.00  0.00    -0.000 C 
BRANCH  11  12
ATOM     12  C   UNL     1      17.267 -36.660  19.622  1.00  0.00    -0.000 C 
BRANCH  12  13
ATOM     13  C   UNL     1      17.983 -36.812  20.981  1.00  0.00    -0.000 C 
BRANCH  13  14
ATOM     14  C   UNL     1      18.882 -35.614  21.344  1.00  0.00    -0.000 C 
BRANCH  14  15
ATOM     15  C   UNL     1      18.885 -35.245  22.836  1.00  0.00    -0.003 C 
ATOM     16  C   UNL     1      17.526 -35.459  23.503  1.00  0.00     0.004 C 
ENDBRANCH  14  15
ENDBRANCH  13  14
ENDBRANCH  12  13
ENDBRANCH  11  12
ENDBRANCH  10  11
ENDBRANCH   1  10
TORSDOF 12
ENDMDL
MODEL 9
REMARK VINA RESULT:    -4.315      4.391      6.830
REMARK INTER + INTRA:          -8.864
REMARK INTER:                  -7.561
REMARK INTRA:                  -1.303
REMARK UNBOUND:                -1.523
REMARK SMILES CCCCCCCCCCCCCC(=O)[O-]
REMARK SMILES IDX 8 1 9 2 10 3 11 4 12 5 13 6 14 7 15 8 16 9 7 10 6 11 5 12
REMARK SMILES IDX 4 13 3 14 2 15 1 16
REMARK H PARENT
REMARK Flexibility Score: inf
ROOT
ATOM      1  C   UNL     1      14.616 -32.893  21.546  1.00  0.00     0.000 C 
ENDROOT
BRANCH   1   2
ATOM      2  C   UNL     1      13.599 -32.127  20.684  1.00  0.00     0.000 C 
BRANCH   2   3
ATOM      3  C   UNL     1      13.180 -30.787  21.316  1.00  0.00     0.000 C 
BRANCH   3   4
ATOM      4  C   UNL     1      11.655 -30.649  21.447  1.00  0.00     0.000 C 
BRANCH   4   5
ATOM      5  C   UNL     1      11.241 -29.570  22.463  1.00  0.00     0.006 C 
BRANCH   5   6
ATOM      6  C   UNL     1      12.451 -28.946  23.171  1.00  0.00     0.053 C 
BRANCH   6   7
ATOM      7  C   UNL     1      12.052 -27.783  24.027  1.00  0.00     0.041 C 
ATOM      8  O   UNL     1      12.577 -27.620  25.160  1.00  0.00    -0.550 OA
ATOM      9  O   UNL     1      11.126 -26.860  23.558  1.00  0.00    -0.550 OA
ENDBRANCH   6   7
ENDBRANCH   5   6
ENDBRANCH   4   5
ENDBRANCH   3   4
ENDBRANCH   2   3
ENDBRANCH   1   2
BRANCH   1  10
ATOM     10  C   UNL     1      14.795 -32.271  22.941  1.00  0.00     0.000 C 
BRANCH  10  11
ATOM     11  C   UNL     1      16.258 -31.906  23.243  1.00  0.00    -0.000 C 
BRANCH  11  12
ATOM     12  C   UNL     1      16.528 -30.394  23.146  1.00  0.00    -0.000 C 
BRANCH  12  13
ATOM     13  C   UNL     1      16.891 -29.957  21.710  1.00  0.00    -0.000 C 
BRANCH  13  14
ATOM     14  C   UNL     1      17.787 -30.966  20.966  1.00  0.00    -0.000 C 
BRANCH  14  15
ATOM     15  C   UNL     1      19.235 -31.037  21.478  1.00  0.00    -0.003 C 
ATOM     16  C   UNL     1      20.011 -29.742  21.239  1.00  0.00     0.004 C 
ENDBRANCH  14  15
ENDBRANCH  13  14
ENDBRANCH  12  13
ENDBRANCH  11  12
ENDBRANCH  10  11
ENDBRANCH   1  10
TORSDOF 12
ENDMDL
