MODEL 1
REMARK VINA RESULT:    -4.749      0.000      0.000
REMARK INTER + INTRA:          -5.717
REMARK INTER:                  -5.582
REMARK INTRA:                  -0.135
REMARK UNBOUND:                -0.135
REMARK SMILES O=C([O-])C=Cc1ccc(O)c(O)c1
REMARK SMILES IDX 6 1 13 2 7 3 11 4 8 5 9 6 5 7 4 8 2 9 1 10 3 11 12 12 10 14
REMARK H PARENT 12 13 10 15
REMARK Flexibility Score: inf
ROOT
ATOM      1  C   UNL     1      17.419  -7.208   8.841  1.00  0.00    -0.022 A 
ATOM      2  C   UNL     1      17.836  -7.929   9.978  1.00  0.00     0.058 A 
ATOM      3  C   UNL     1      16.989  -7.918   7.710  1.00  0.00     0.012 A 
ATOM      4  C   UNL     1      17.800  -9.329   9.989  1.00  0.00     0.157 A 
ATOM      5  C   UNL     1      16.949  -9.314   7.718  1.00  0.00     0.051 A 
ATOM      6  C   UNL     1      17.351 -10.026   8.856  1.00  0.00     0.157 A 
ENDROOT
BRANCH   1   7
ATOM      7  C   UNL     1      17.451  -5.725   8.779  1.00  0.00     0.010 C 
ATOM      8  C   UNL     1      16.375  -4.967   8.528  1.00  0.00     0.025 C 
BRANCH   8   9
ATOM      9  C   UNL     1      16.456  -3.500   8.465  1.00  0.00     0.064 C 
ATOM     10  O   UNL     1      16.574  -2.838   9.530  1.00  0.00    -0.545 OA
ATOM     11  O   UNL     1      16.405  -2.829   7.248  1.00  0.00    -0.545 OA
ENDBRANCH   8   9
ENDBRANCH   1   7
BRANCH   4  12
ATOM     12  O   UNL     1      18.218 -10.008  11.134  1.00  0.00    -0.504 OA
ATOM     13  H   UNL     1      17.609 -10.139  11.933  1.00  0.00     0.293 HD
ENDBRANCH   4  12
BRANCH   6  14
ATOM     14  O   UNL     1      17.308 -11.420   8.863  1.00  0.00    -0.504 OA
ATOM     15  H   UNL     1      18.080 -11.972   9.219  1.00  0.00     0.293 HD
ENDBRANCH   6  14
TORSDOF 4
ENDMDL
MODEL 2
REMARK VINA RESULT:    -4.564     13.366     15.644
REMARK INTER + INTRA:          -5.499
REMARK INTER:                  -5.360
REMARK INTRA:                  -0.140
REMARK UNBOUND:                -0.135
REMARK SMILES O=C([O-])C=Cc1ccc(O)c(O)c1
REMARK SMILES IDX 6 1 13 2 7 3 11 4 8 5 9 6 5 7 4 8 2 9 1 10 3 11 12 12 10 14
REMARK H PARENT 12 13 10 15
REMARK Flexibility Score: inf
ROOT
ATOM      1  C   UNL     1      13.304 -15.763  20.997  1.00  0.00    -0.022 A 
ATOM      2  C   UNL     1      13.321 -16.924  21.796  1.00  0.00     0.058 A 
ATOM      3  C   UNL     1      13.756 -14.555  21.548  1.00  0.00     0.012 A 
ATOM      4  C   UNL     1      13.804 -16.879  23.110  1.00  0.00     0.157 A 
ATOM      5  C   UNL     1      14.241 -14.507  22.858  1.00  0.00     0.051 A 
ATOM      6  C   UNL     1      14.270 -15.666  23.643  1.00  0.00     0.157 A 
ENDROOT
BRANCH   1   7
ATOM      7  C   UNL     1      12.790 -15.760  19.604  1.00  0.00     0.010 C 
ATOM      8  C   UNL     1      13.487 -15.299  18.555  1.00  0.00     0.025 C 
BRANCH   8   9
ATOM      9  C   UNL     1      12.933 -15.305  17.193  1.00  0.00     0.064 C 
ATOM     10  O   UNL     1      12.107 -16.197  16.861  1.00  0.00    -0.545 OA
ATOM     11  O   UNL     1      13.305 -14.342  16.261  1.00  0.00    -0.545 OA
ENDBRANCH   8   9
ENDBRANCH   1   7
BRANCH   4  12
ATOM     12  O   UNL     1      13.808 -18.049  23.869  1.00  0.00    -0.504 OA
ATOM     13  H   UNL     1      14.382 -18.150  24.698  1.00  0.00     0.293 HD
ENDBRANCH   4  12
BRANCH   6  14
ATOM     14  O   UNL     1      14.755 -15.617  24.949  1.00  0.00    -0.504 OA
ATOM     15  H   UNL     1      14.160 -15.358  25.727  1.00  0.00     0.293 HD
ENDBRANCH   6  14
TORSDOF 4
ENDMDL
MODEL 3
REMARK VINA RESULT:    -4.464      0.860      1.937
REMARK INTER + INTRA:          -5.382
REMARK INTER:                  -5.257
REMARK INTRA:                  -0.125
REMARK UNBOUND:                -0.135
REMARK SMILES O=C([O-])C=Cc1ccc(O)c(O)c1
REMARK SMILES IDX 6 1 13 2 7 3 11 4 8 5 9 6 5 7 4 8 2 9 1 10 3 11 12 12 10 14
REMARK H PARENT 12 13 10 15
REMARK Flexibility Score: inf
ROOT
ATOM      1  C   UNL     1      17.441  -7.346   8.826  1.00  0.00    -0.022 A 
ATOM      2  C   UNL     1      16.989  -8.016   7.671  1.00  0.00     0.058 A 
ATOM      3  C   UNL     1      17.825  -8.104   9.942  1.00  0.00     0.012 A 
ATOM      4  C   UNL     1      16.945  -9.415   7.630  1.00  0.00     0.157 A 
ATOM      5  C   UNL     1      17.785  -9.499   9.903  1.00  0.00     0.051 A 
ATOM      6  C   UNL     1      17.348 -10.161   8.748  1.00  0.00     0.157 A 
ENDROOT
BRANCH   1   7
ATOM      7  C   UNL     1      17.494  -5.865   8.921  1.00  0.00     0.010 C 
ATOM      8  C   UNL     1      16.501  -5.057   8.521  1.00  0.00     0.025 C 
BRANCH   8   9
ATOM      9  C   UNL     1      16.602  -3.594   8.624  1.00  0.00     0.064 C 
ATOM     10  O   UNL     1      16.816  -3.063   9.746  1.00  0.00    -0.545 OA
ATOM     11  O   UNL     1      16.465  -2.783   7.503  1.00  0.00    -0.545 OA
ENDBRANCH   8   9
ENDBRANCH   1   7
BRANCH   4  12
ATOM     12  O   UNL     1      16.494 -10.043   6.469  1.00  0.00    -0.504 OA
ATOM     13  H   UNL     1      16.087 -10.971   6.483  1.00  0.00     0.293 HD
ENDBRANCH   4  12
BRANCH   6  14
ATOM     14  O   UNL     1      17.311 -11.555   8.711  1.00  0.00    -0.504 OA
ATOM     15  H   UNL     1      16.539 -12.076   9.110  1.00  0.00     0.293 HD
ENDBRANCH   6  14
TORSDOF 4
ENDMDL
MODEL 4
REMARK VINA RESULT:    -4.394      2.959      5.453
REMARK INTER + INTRA:          -5.300
REMARK INTER:                  -5.159
REMARK INTRA:                  -0.141
REMARK UNBOUND:                -0.135
REMARK SMILES O=C([O-])C=Cc1ccc(O)c(O)c1
REMARK SMILES IDX 6 1 13 2 7 3 11 4 8 5 9 6 5 7 4 8 2 9 1 10 3 11 12 12 10 14
REMARK H PARENT 12 13 10 15
REMARK Flexibility Score: inf
ROOT
ATOM      1  C   UNL     1      15.821  -7.926   8.881  1.00  0.00    -0.022 A 
ATOM      2  C   UNL     1      16.139  -6.618   8.462  1.00  0.00     0.058 A 
ATOM      3  C   UNL     1      16.772  -8.652   9.615  1.00  0.00     0.012 A 
ATOM      4  C   UNL     1      17.373  -6.044   8.792  1.00  0.00     0.157 A 
ATOM      5  C   UNL     1      18.002  -8.080   9.947  1.00  0.00     0.051 A 
ATOM      6  C   UNL     1      18.308  -6.775   9.541  1.00  0.00     0.157 A 
ENDROOT
BRANCH   1   7
ATOM      7  C   UNL     1      14.532  -8.581   8.546  1.00  0.00     0.010 C 
ATOM      8  C   UNL     1      14.430  -9.842   8.102  1.00  0.00     0.025 C 
BRANCH   8   9
ATOM      9  C   UNL     1      13.131 -10.447   7.772  1.00  0.00     0.064 C 
ATOM     10  O   UNL     1      12.767 -10.518   6.568  1.00  0.00    -0.545 OA
ATOM     11  O   UNL     1      12.296 -10.944   8.766  1.00  0.00    -0.545 OA
ENDBRANCH   8   9
ENDBRANCH   1   7
BRANCH   4  12
ATOM     12  O   UNL     1      17.651  -4.746   8.361  1.00  0.00    -0.504 OA
ATOM     13  H   UNL     1      16.922  -4.052   8.241  1.00  0.00     0.293 HD
ENDBRANCH   4  12
BRANCH   6  14
ATOM     14  O   UNL     1      19.536  -6.206   9.876  1.00  0.00    -0.504 OA
ATOM     15  H   UNL     1      19.745  -5.915  10.824  1.00  0.00     0.293 HD
ENDBRANCH   6  14
TORSDOF 4
ENDMDL
MODEL 5
REMARK VINA RESULT:    -4.366      2.302      3.290
REMARK INTER + INTRA:          -5.267
REMARK INTER:                  -5.138
REMARK INTRA:                  -0.130
REMARK UNBOUND:                -0.135
REMARK SMILES O=C([O-])C=Cc1ccc(O)c(O)c1
REMARK SMILES IDX 6 1 13 2 7 3 11 4 8 5 9 6 5 7 4 8 2 9 1 10 3 11 12 12 10 14
REMARK H PARENT 12 13 10 15
REMARK Flexibility Score: inf
ROOT
ATOM      1  C   UNL     1      16.593  -9.286   8.712  1.00  0.00    -0.022 A 
ATOM      2  C   UNL     1      17.216 -10.489   8.326  1.00  0.00     0.058 A 
ATOM      3  C   UNL     1      15.226  -9.114   8.444  1.00  0.00     0.012 A 
ATOM      4  C   UNL     1      16.480 -11.507   7.707  1.00  0.00     0.157 A 
ATOM      5  C   UNL     1      14.489 -10.128   7.828  1.00  0.00     0.051 A 
ATOM      6  C   UNL     1      15.110 -11.329   7.460  1.00  0.00     0.157 A 
ENDROOT
BRANCH   1   7
ATOM      7  C   UNL     1      17.334  -8.175   9.361  1.00  0.00     0.010 C 
ATOM      8  C   UNL     1      17.685  -7.045   8.730  1.00  0.00     0.025 C 
BRANCH   8   9
ATOM      9  C   UNL     1      18.429  -5.975   9.410  1.00  0.00     0.064 C 
ATOM     10  O   UNL     1      17.837  -4.908   9.723  1.00  0.00    -0.545 OA
ATOM     11  O   UNL     1      19.778  -6.119   9.715  1.00  0.00    -0.545 OA
ENDBRANCH   8   9
ENDBRANCH   1   7
BRANCH   4  12
ATOM     12  O   UNL     1      17.131 -12.686   7.341  1.00  0.00    -0.504 OA
ATOM     13  H   UNL     1      17.801 -12.716   6.582  1.00  0.00     0.293 HD
ENDBRANCH   4  12
BRANCH   6  14
ATOM     14  O   UNL     1      14.371 -12.340   6.847  1.00  0.00    -0.504 OA
ATOM     15  H   UNL     1      14.679 -13.306   6.863  1.00  0.00     0.293 HD
ENDBRANCH   6  14
TORSDOF 4
ENDMDL
MODEL 6
REMARK VINA RESULT:    -4.291     13.317     15.686
REMARK INTER + INTRA:          -5.179
REMARK INTER:                  -5.050
REMARK INTRA:                  -0.128
REMARK UNBOUND:                -0.135
REMARK SMILES O=C([O-])C=Cc1ccc(O)c(O)c1
REMARK SMILES IDX 6 1 13 2 7 3 11 4 8 5 9 6 5 7 4 8 2 9 1 10 3 11 12 12 10 14
REMARK H PARENT 12 13 10 15
REMARK Flexibility Score: inf
ROOT
ATOM      1  C   UNL     1      13.344 -15.972  21.091  1.00  0.00    -0.022 A 
ATOM      2  C   UNL     1      13.881 -14.749  21.541  1.00  0.00     0.058 A 
ATOM      3  C   UNL     1      13.279 -17.053  21.983  1.00  0.00     0.012 A 
ATOM      4  C   UNL     1      14.320 -14.607  22.863  1.00  0.00     0.157 A 
ATOM      5  C   UNL     1      13.714 -16.913  23.303  1.00  0.00     0.051 A 
ATOM      6  C   UNL     1      14.234 -15.691  23.750  1.00  0.00     0.157 A 
ENDROOT
BRANCH   1   7
ATOM      7  C   UNL     1      12.876 -16.173  19.696  1.00  0.00     0.010 C 
ATOM      8  C   UNL     1      13.434 -15.581  18.631  1.00  0.00     0.025 C 
BRANCH   8   9
ATOM      9  C   UNL     1      12.930 -15.802  17.267  1.00  0.00     0.064 C 
ATOM     10  O   UNL     1      12.145 -16.762  17.042  1.00  0.00    -0.545 OA
ATOM     11  O   UNL     1      13.303 -14.969  16.218  1.00  0.00    -0.545 OA
ENDBRANCH   8   9
ENDBRANCH   1   7
BRANCH   4  12
ATOM     12  O   UNL     1      14.844 -13.380  23.273  1.00  0.00    -0.504 OA
ATOM     13  H   UNL     1      15.703 -13.314  23.806  1.00  0.00     0.293 HD
ENDBRANCH   4  12
BRANCH   6  14
ATOM     14  O   UNL     1      14.666 -15.554  25.069  1.00  0.00    -0.504 OA
ATOM     15  H   UNL     1      15.227 -16.266  25.520  1.00  0.00     0.293 HD
ENDBRANCH   6  14
TORSDOF 4
ENDMDL
MODEL 7
REMARK VINA RESULT:    -4.264      2.313      6.193
REMARK INTER + INTRA:          -5.147
REMARK INTER:                  -5.004
REMARK INTRA:                  -0.143
REMARK UNBOUND:                -0.135
REMARK SMILES O=C([O-])C=Cc1ccc(O)c(O)c1
REMARK SMILES IDX 6 1 13 2 7 3 11 4 8 5 9 6 5 7 4 8 2 9 1 10 3 11 12 12 10 14
REMARK H PARENT 12 13 10 15
REMARK Flexibility Score: inf
ROOT
ATOM      1  C   UNL     1      16.658  -9.220   8.372  1.00  0.00    -0.022 A 
ATOM      2  C   UNL     1      16.601  -7.946   7.771  1.00  0.00     0.058 A 
ATOM      3  C   UNL     1      17.429  -9.387   9.533  1.00  0.00     0.012 A 
ATOM      4  C   UNL     1      17.281  -6.860   8.336  1.00  0.00     0.157 A 
ATOM      5  C   UNL     1      18.107  -8.305  10.099  1.00  0.00     0.051 A 
ATOM      6  C   UNL     1      18.035  -7.038   9.507  1.00  0.00     0.157 A 
ENDROOT
BRANCH   1   7
ATOM      7  C   UNL     1      15.964 -10.403   7.804  1.00  0.00     0.010 C 
ATOM      8  C   UNL     1      16.510 -11.625   7.737  1.00  0.00     0.025 C 
BRANCH   8   9
ATOM      9  C   UNL     1      15.788 -12.767   7.156  1.00  0.00     0.064 C 
ATOM     10  O   UNL     1      16.419 -13.622   6.480  1.00  0.00    -0.545 OA
ATOM     11  O   UNL     1      14.418 -12.921   7.340  1.00  0.00    -0.545 OA
ENDBRANCH   8   9
ENDBRANCH   1   7
BRANCH   4  12
ATOM     12  O   UNL     1      17.199  -5.614   7.715  1.00  0.00    -0.504 OA
ATOM     13  H   UNL     1      17.933  -4.921   7.801  1.00  0.00     0.293 HD
ENDBRANCH   4  12
BRANCH   6  14
ATOM     14  O   UNL     1      18.710  -5.959  10.076  1.00  0.00    -0.504 OA
ATOM     15  H   UNL     1      19.411  -5.440   9.559  1.00  0.00     0.293 HD
ENDBRANCH   6  14
TORSDOF 4
ENDMDL
MODEL 8
REMARK VINA RESULT:    -4.149      1.190      5.890
REMARK INTER + INTRA:          -5.011
REMARK INTER:                  -4.877
REMARK INTRA:                  -0.134
REMARK UNBOUND:                -0.135
REMARK SMILES O=C([O-])C=Cc1ccc(O)c(O)c1
REMARK SMILES IDX 6 1 13 2 7 3 11 4 8 5 9 6 5 7 4 8 2 9 1 10 3 11 12 12 10 14
REMARK H PARENT 12 13 10 15
REMARK Flexibility Score: inf
ROOT
ATOM      1  C   UNL     1      16.748  -5.820   8.854  1.00  0.00    -0.022 A 
ATOM      2  C   UNL     1      17.118  -4.637   9.525  1.00  0.00     0.058 A 
ATOM      3  C   UNL     1      15.640  -5.792   7.992  1.00  0.00     0.012 A 
ATOM      4  C   UNL     1      16.408  -3.448   9.318  1.00  0.00     0.157 A 
ATOM      5  C   UNL     1      14.932  -4.607   7.783  1.00  0.00     0.051 A 
ATOM      6  C   UNL     1      15.312  -3.430   8.441  1.00  0.00     0.157 A 
ENDROOT
BRANCH   1   7
ATOM      7  C   UNL     1      17.463  -7.107   9.049  1.00  0.00     0.010 C 
ATOM      8  C   UNL     1      16.889  -8.208   9.553  1.00  0.00     0.025 C 
BRANCH   8   9
ATOM      9  C   UNL     1      17.639  -9.459   9.739  1.00  0.00     0.064 C 
ATOM     10  O   UNL     1      18.275  -9.649  10.810  1.00  0.00    -0.545 OA
ATOM     11  O   UNL     1      17.658 -10.440   8.753  1.00  0.00    -0.545 OA
ENDBRANCH   8   9
ENDBRANCH   1   7
BRANCH   4  12
ATOM     12  O   UNL     1      16.805  -2.297   9.999  1.00  0.00    -0.504 OA
ATOM     13  H   UNL     1      16.907  -1.404   9.530  1.00  0.00     0.293 HD
ENDBRANCH   4  12
BRANCH   6  14
ATOM     14  O   UNL     1      14.604  -2.248   8.229  1.00  0.00    -0.504 OA
ATOM     15  H   UNL     1      15.071  -1.393   7.951  1.00  0.00     0.293 HD
ENDBRANCH   6  14
TORSDOF 4
ENDMDL
MODEL 9
REMARK VINA RESULT:    -4.003      2.072      5.722
REMARK INTER + INTRA:          -4.840
REMARK INTER:                  -4.689
REMARK INTRA:                  -0.152
REMARK UNBOUND:                -0.135
REMARK SMILES O=C([O-])C=Cc1ccc(O)c(O)c1
REMARK SMILES IDX 6 1 13 2 7 3 11 4 8 5 9 6 5 7 4 8 2 9 1 10 3 11 12 12 10 14
REMARK H PARENT 12 13 10 15
REMARK Flexibility Score: inf
ROOT
ATOM      1  C   UNL     1      16.500  -8.185   8.606  1.00  0.00    -0.022 A 
ATOM      2  C   UNL     1      17.629  -7.680   9.281  1.00  0.00     0.058 A 
ATOM      3  C   UNL     1      15.566  -7.281   8.076  1.00  0.00     0.012 A 
ATOM      4  C   UNL     1      17.829  -6.299   9.401  1.00  0.00     0.157 A 
ATOM      5  C   UNL     1      15.765  -5.903   8.193  1.00  0.00     0.051 A 
ATOM      6  C   UNL     1      16.896  -5.406   8.852  1.00  0.00     0.157 A 
ENDROOT
BRANCH   1   7
ATOM      7  C   UNL     1      16.238  -9.639   8.463  1.00  0.00     0.010 C 
ATOM      8  C   UNL     1      15.352 -10.156   7.600  1.00  0.00     0.025 C 
BRANCH   8   9
ATOM      9  C   UNL     1      15.118 -11.605   7.501  1.00  0.00     0.064 C 
ATOM     10  O   UNL     1      16.097 -12.397   7.545  1.00  0.00    -0.545 OA
ATOM     11  O   UNL     1      13.833 -12.117   7.360  1.00  0.00    -0.545 OA
ENDBRANCH   8   9
ENDBRANCH   1   7
BRANCH   4  12
ATOM     12  O   UNL     1      18.961  -5.836  10.074  1.00  0.00    -0.504 OA
ATOM     13  H   UNL     1      19.764  -6.429  10.245  1.00  0.00     0.293 HD
ENDBRANCH   4  12
BRANCH   6  14
ATOM     14  O   UNL     1      17.093  -4.030   8.965  1.00  0.00    -0.504 OA
ATOM     15  H   UNL     1      17.343  -3.601   9.849  1.00  0.00     0.293 HD
ENDBRANCH   6  14
TORSDOF 4
ENDMDL
