MODEL 1
REMARK VINA RESULT:    -5.240      0.000      0.000
REMARK INTER + INTRA:          -5.394
REMARK INTER:                  -5.394
REMARK INTRA:                   0.000
REMARK UNBOUND:                 0.000
REMARK SMILES O=c1ccc2ccc(O)cc2o1
REMARK SMILES IDX 6 1 7 2 8 3 10 4 11 5 5 6 4 7 3 8 2 9 1 10 12 11 9 12
REMARK H PARENT 9 13
REMARK Flexibility Score: inf
ROOT
ATOM      1  C   UNL     1      48.846  13.327  18.029  1.00  0.00     0.016 A 
ATOM      2  C   UNL     1      48.636  14.028  19.221  1.00  0.00     0.047 A 
ATOM      3  C   UNL     1      48.951  15.390  19.307  1.00  0.00     0.119 A 
ATOM      4  C   UNL     1      49.484  16.055  18.191  1.00  0.00     0.094 A 
ATOM      5  C   UNL     1      49.697  15.362  16.996  1.00  0.00     0.142 A 
ATOM      6  C   UNL     1      49.377  13.988  16.913  1.00  0.00     0.018 A 
ATOM      7  C   UNL     1      49.601  13.322  15.705  1.00  0.00     0.019 A 
ATOM      8  C   UNL     1      50.132  14.027  14.624  1.00  0.00     0.094 A 
ATOM      9  C   UNL     1      50.425  15.386  14.778  1.00  0.00     0.336 A 
ATOM     10  O   UNL     1      50.905  16.038  13.814  1.00  0.00    -0.246 OA
ATOM     11  O   UNL     1      50.202  15.996  15.940  1.00  0.00    -0.423 OA
ENDROOT
BRANCH   3  12
ATOM     12  O   UNL     1      48.735  16.071  20.502  1.00  0.00    -0.508 OA
ATOM     13  H   UNL     1      48.421  17.035  20.513  1.00  0.00     0.293 HD
ENDBRANCH   3  12
TORSDOF 1
ENDMDL
MODEL 2
REMARK VINA RESULT:    -5.025     17.836     18.602
REMARK INTER + INTRA:          -5.172
REMARK INTER:                  -5.172
REMARK INTRA:                   0.000
REMARK UNBOUND:                 0.000
REMARK SMILES O=c1ccc2ccc(O)cc2o1
REMARK SMILES IDX 6 1 7 2 8 3 10 4 11 5 5 6 4 7 3 8 2 9 1 10 12 11 9 12
REMARK H PARENT 9 13
REMARK Flexibility Score: inf
ROOT
ATOM      1  C   UNL     1      58.290  -3.480  17.332  1.00  0.00     0.016 A 
ATOM      2  C   UNL     1      57.665  -3.453  18.582  1.00  0.00     0.047 A 
ATOM      3  C   UNL     1      57.303  -2.233  19.166  1.00  0.00     0.119 A 
ATOM      4  C   UNL     1      57.571  -1.030  18.495  1.00  0.00     0.094 A 
ATOM      5  C   UNL     1      58.196  -1.048  17.243  1.00  0.00     0.142 A 
ATOM      6  C   UNL     1      58.559  -2.281  16.657  1.00  0.00     0.018 A 
ATOM      7  C   UNL     1      59.183  -2.267  15.407  1.00  0.00     0.019 A 
ATOM      8  C   UNL     1      59.428  -1.046  14.778  1.00  0.00     0.094 A 
ATOM      9  C   UNL     1      59.040   0.137  15.418  1.00  0.00     0.336 A 
ATOM     10  O   UNL     1      59.254   1.247  14.867  1.00  0.00    -0.246 OA
ATOM     11  O   UNL     1      58.449   0.095  16.609  1.00  0.00    -0.423 OA
ENDROOT
BRANCH   3  12
ATOM     12  O   UNL     1      56.681  -2.225  20.412  1.00  0.00    -0.508 OA
ATOM     13  H   UNL     1      57.201  -2.394  21.265  1.00  0.00     0.293 HD
ENDBRANCH   3  12
TORSDOF 1
ENDMDL
MODEL 3
REMARK VINA RESULT:    -4.986      2.954      4.130
REMARK INTER + INTRA:          -5.132
REMARK INTER:                  -5.132
REMARK INTRA:                   0.000
REMARK UNBOUND:                 0.000
REMARK SMILES O=c1ccc2ccc(O)cc2o1
REMARK SMILES IDX 6 1 7 2 8 3 10 4 11 5 5 6 4 7 3 8 2 9 1 10 12 11 9 12
REMARK H PARENT 9 13
REMARK Flexibility Score: inf
ROOT
ATOM      1  C   UNL     1      50.151  16.114  14.756  1.00  0.00     0.016 A 
ATOM      2  C   UNL     1      48.998  15.573  15.332  1.00  0.00     0.047 A 
ATOM      3  C   UNL     1      48.810  14.186  15.369  1.00  0.00     0.119 A 
ATOM      4  C   UNL     1      49.783  13.333  14.825  1.00  0.00     0.094 A 
ATOM      5  C   UNL     1      50.940  13.867  14.248  1.00  0.00     0.142 A 
ATOM      6  C   UNL     1      51.126  15.266  14.212  1.00  0.00     0.018 A 
ATOM      7  C   UNL     1      52.292  15.770  13.628  1.00  0.00     0.019 A 
ATOM      8  C   UNL     1      53.231  14.882  13.100  1.00  0.00     0.094 A 
ATOM      9  C   UNL     1      52.980  13.508  13.171  1.00  0.00     0.336 A 
ATOM     10  O   UNL     1      53.815  12.692  12.701  1.00  0.00    -0.246 OA
ATOM     11  O   UNL     1      51.861  13.055  13.733  1.00  0.00    -0.423 OA
ENDROOT
BRANCH   3  12
ATOM     12  O   UNL     1      47.655  13.665  15.947  1.00  0.00    -0.508 OA
ATOM     13  H   UNL     1      46.749  14.098  15.805  1.00  0.00     0.293 HD
ENDBRANCH   3  12
TORSDOF 1
ENDMDL
MODEL 4
REMARK VINA RESULT:    -4.802     12.743     13.766
REMARK INTER + INTRA:          -4.942
REMARK INTER:                  -4.942
REMARK INTRA:                   0.000
REMARK UNBOUND:                 0.000
REMARK SMILES O=c1ccc2ccc(O)cc2o1
REMARK SMILES IDX 6 1 7 2 8 3 10 4 11 5 5 6 4 7 3 8 2 9 1 10 12 11 9 12
REMARK H PARENT 9 13
REMARK Flexibility Score: inf
ROOT
ATOM      1  C   UNL     1      49.233   2.447  20.726  1.00  0.00     0.016 A 
ATOM      2  C   UNL     1      48.763   1.700  21.810  1.00  0.00     0.047 A 
ATOM      3  C   UNL     1      49.661   1.033  22.652  1.00  0.00     0.119 A 
ATOM      4  C   UNL     1      51.041   1.112  22.406  1.00  0.00     0.094 A 
ATOM      5  C   UNL     1      51.519   1.858  21.324  1.00  0.00     0.142 A 
ATOM      6  C   UNL     1      50.610   2.530  20.477  1.00  0.00     0.018 A 
ATOM      7  C   UNL     1      51.118   3.266  19.403  1.00  0.00     0.019 A 
ATOM      8  C   UNL     1      52.497   3.316  19.200  1.00  0.00     0.094 A 
ATOM      9  C   UNL     1      53.339   2.625  20.079  1.00  0.00     0.336 A 
ATOM     10  O   UNL     1      54.585   2.658  19.911  1.00  0.00    -0.246 OA
ATOM     11  O   UNL     1      52.828   1.931  21.094  1.00  0.00    -0.423 OA
ENDROOT
BRANCH   3  12
ATOM     12  O   UNL     1      49.174   0.293  23.728  1.00  0.00    -0.508 OA
ATOM     13  H   UNL     1      49.569  -0.607  23.974  1.00  0.00     0.293 HD
ENDBRANCH   3  12
TORSDOF 1
ENDMDL
MODEL 5
REMARK VINA RESULT:    -4.788     12.649     14.153
REMARK INTER + INTRA:          -4.928
REMARK INTER:                  -4.928
REMARK INTRA:                   0.000
REMARK UNBOUND:                 0.000
REMARK SMILES O=c1ccc2ccc(O)cc2o1
REMARK SMILES IDX 6 1 7 2 8 3 10 4 11 5 5 6 4 7 3 8 2 9 1 10 12 11 9 12
REMARK H PARENT 9 13
REMARK Flexibility Score: inf
ROOT
ATOM      1  C   UNL     1      51.060   3.388  19.354  1.00  0.00     0.016 A 
ATOM      2  C   UNL     1      52.446   3.369  19.171  1.00  0.00     0.047 A 
ATOM      3  C   UNL     1      53.260   2.590  20.003  1.00  0.00     0.119 A 
ATOM      4  C   UNL     1      52.682   1.825  21.028  1.00  0.00     0.094 A 
ATOM      5  C   UNL     1      51.296   1.837  21.218  1.00  0.00     0.142 A 
ATOM      6  C   UNL     1      50.479   2.624  20.376  1.00  0.00     0.018 A 
ATOM      7  C   UNL     1      49.098   2.616  20.591  1.00  0.00     0.019 A 
ATOM      8  C   UNL     1      48.570   1.838  21.622  1.00  0.00     0.094 A 
ATOM      9  C   UNL     1      49.440   1.083  22.416  1.00  0.00     0.336 A 
ATOM     10  O   UNL     1      48.983   0.376  23.351  1.00  0.00    -0.246 OA
ATOM     11  O   UNL     1      50.752   1.109  22.190  1.00  0.00    -0.423 OA
ENDROOT
BRANCH   3  12
ATOM     12  O   UNL     1      54.638   2.585  19.806  1.00  0.00    -0.508 OA
ATOM     13  H   UNL     1      55.099   3.306  19.262  1.00  0.00     0.293 HD
ENDBRANCH   3  12
TORSDOF 1
ENDMDL
MODEL 6
REMARK VINA RESULT:    -4.787      6.474      8.464
REMARK INTER + INTRA:          -4.927
REMARK INTER:                  -4.927
REMARK INTRA:                   0.000
REMARK UNBOUND:                 0.000
REMARK SMILES O=c1ccc2ccc(O)cc2o1
REMARK SMILES IDX 6 1 7 2 8 3 10 4 11 5 5 6 4 7 3 8 2 9 1 10 12 11 9 12
REMARK H PARENT 9 13
REMARK Flexibility Score: inf
ROOT
ATOM      1  C   UNL     1      50.752   7.546  19.852  1.00  0.00     0.016 A 
ATOM      2  C   UNL     1      50.750   7.808  18.479  1.00  0.00     0.047 A 
ATOM      3  C   UNL     1      49.693   8.516  17.895  1.00  0.00     0.119 A 
ATOM      4  C   UNL     1      48.628   8.965  18.691  1.00  0.00     0.094 A 
ATOM      5  C   UNL     1      48.622   8.707  20.065  1.00  0.00     0.142 A 
ATOM      6  C   UNL     1      49.690   7.993  20.651  1.00  0.00     0.018 A 
ATOM      7  C   UNL     1      49.655   7.750  22.027  1.00  0.00     0.019 A 
ATOM      8  C   UNL     1      48.575   8.217  22.777  1.00  0.00     0.094 A 
ATOM      9  C   UNL     1      47.552   8.918  22.129  1.00  0.00     0.336 A 
ATOM     10  O   UNL     1      46.569   9.346  22.789  1.00  0.00    -0.246 OA
ATOM     11  O   UNL     1      47.610   9.135  20.817  1.00  0.00    -0.423 OA
ENDROOT
BRANCH   3  12
ATOM     12  O   UNL     1      49.710   8.768  16.525  1.00  0.00    -0.508 OA
ATOM     13  H   UNL     1      48.884   8.636  15.952  1.00  0.00     0.293 HD
ENDBRANCH   3  12
TORSDOF 1
ENDMDL
MODEL 7
REMARK VINA RESULT:    -4.754      6.607      7.457
REMARK INTER + INTRA:          -4.892
REMARK INTER:                  -4.892
REMARK INTRA:                   0.000
REMARK UNBOUND:                 0.000
REMARK SMILES O=c1ccc2ccc(O)cc2o1
REMARK SMILES IDX 6 1 7 2 8 3 10 4 11 5 5 6 4 7 3 8 2 9 1 10 12 11 9 12
REMARK H PARENT 9 13
REMARK Flexibility Score: inf
ROOT
ATOM      1  C   UNL     1      49.612   7.667  22.019  1.00  0.00     0.016 A 
ATOM      2  C   UNL     1      48.501   8.004  22.798  1.00  0.00     0.047 A 
ATOM      3  C   UNL     1      47.397   8.641  22.217  1.00  0.00     0.119 A 
ATOM      4  C   UNL     1      47.406   8.946  20.847  1.00  0.00     0.094 A 
ATOM      5  C   UNL     1      48.514   8.612  20.061  1.00  0.00     0.142 A 
ATOM      6  C   UNL     1      49.625   7.968  20.650  1.00  0.00     0.018 A 
ATOM      7  C   UNL     1      50.717   7.647  19.839  1.00  0.00     0.019 A 
ATOM      8  C   UNL     1      50.680   7.969  18.482  1.00  0.00     0.094 A 
ATOM      9  C   UNL     1      49.546   8.607  17.967  1.00  0.00     0.336 A 
ATOM     10  O   UNL     1      49.494   8.905  16.746  1.00  0.00    -0.246 OA
ATOM     11  O   UNL     1      48.519   8.901  18.762  1.00  0.00    -0.423 OA
ENDROOT
BRANCH   3  12
ATOM     12  O   UNL     1      46.299   8.969  23.009  1.00  0.00    -0.508 OA
ATOM     13  H   UNL     1      46.391   9.120  24.007  1.00  0.00     0.293 HD
ENDBRANCH   3  12
TORSDOF 1
ENDMDL
MODEL 8
REMARK VINA RESULT:    -4.701     17.853     18.691
REMARK INTER + INTRA:          -4.839
REMARK INTER:                  -4.839
REMARK INTRA:                   0.000
REMARK UNBOUND:                 0.000
REMARK SMILES O=c1ccc2ccc(O)cc2o1
REMARK SMILES IDX 6 1 7 2 8 3 10 4 11 5 5 6 4 7 3 8 2 9 1 10 12 11 9 12
REMARK H PARENT 9 13
REMARK Flexibility Score: inf
ROOT
ATOM      1  C   UNL     1      57.504  -0.489  18.453  1.00  0.00     0.016 A 
ATOM      2  C   UNL     1      57.096  -1.712  18.996  1.00  0.00     0.047 A 
ATOM      3  C   UNL     1      57.483  -2.917  18.396  1.00  0.00     0.119 A 
ATOM      4  C   UNL     1      58.282  -2.898  17.243  1.00  0.00     0.094 A 
ATOM      5  C   UNL     1      58.695  -1.680  16.694  1.00  0.00     0.142 A 
ATOM      6  C   UNL     1      58.303  -0.467  17.302  1.00  0.00     0.018 A 
ATOM      7  C   UNL     1      58.731   0.735  16.730  1.00  0.00     0.019 A 
ATOM      8  C   UNL     1      59.526   0.702  15.584  1.00  0.00     0.094 A 
ATOM      9  C   UNL     1      59.876  -0.537  15.036  1.00  0.00     0.336 A 
ATOM     10  O   UNL     1      60.591  -0.587  14.002  1.00  0.00    -0.246 OA
ATOM     11  O   UNL     1      59.454  -1.666  15.601  1.00  0.00    -0.423 OA
ENDROOT
BRANCH   3  12
ATOM     12  O   UNL     1      57.067  -4.124  18.951  1.00  0.00    -0.508 OA
ATOM     13  H   UNL     1      56.426  -4.739  18.463  1.00  0.00     0.293 HD
ENDBRANCH   3  12
TORSDOF 1
ENDMDL
