MODEL 1
REMARK VINA RESULT:    -4.095      0.000      0.000
REMARK INTER + INTRA:         -10.422
REMARK INTER:                  -7.925
REMARK INTRA:                  -2.497
REMARK UNBOUND:                -2.497
REMARK SMILES CCCCCCCCCCCCCCCCCC(=O)[O-]
REMARK SMILES IDX 10 1 11 2 12 3 13 4 14 5 15 6 16 7 17 8 18 9 19 10 20 11
REMARK SMILES IDX 9 12 8 13 7 14 6 15 5 16 4 17 3 18 2 19 1 20
REMARK H PARENT
REMARK Flexibility Score: inf
ROOT
ATOM      1  C   UNL     1       0.610   5.449   5.656  1.00  0.00     0.000 C 
ENDROOT
BRANCH   1   2
ATOM      2  C   UNL     1       1.540   4.422   6.329  1.00  0.00     0.000 C 
BRANCH   2   3
ATOM      3  C   UNL     1       1.234   4.128   7.812  1.00  0.00     0.000 C 
BRANCH   3   4
ATOM      4  C   UNL     1       0.830   2.677   8.123  1.00  0.00     0.000 C 
BRANCH   4   5
ATOM      5  C   UNL     1       1.039   1.730   6.932  1.00  0.00     0.000 C 
BRANCH   5   6
ATOM      6  C   UNL     1       1.941   0.549   7.320  1.00  0.00     0.000 C 
BRANCH   6   7
ATOM      7  C   UNL     1       3.214   0.470   6.464  1.00  0.00     0.006 C 
BRANCH   7   8
ATOM      8  C   UNL     1       4.448   1.024   7.187  1.00  0.00     0.053 C 
BRANCH   8   9
ATOM      9  C   UNL     1       4.616   2.481   6.889  1.00  0.00     0.041 C 
ATOM     10  O   UNL     1       4.812   3.300   7.825  1.00  0.00    -0.550 OA
ATOM     11  O   UNL     1       4.605   2.928   5.575  1.00  0.00    -0.550 OA
ENDBRANCH   8   9
ENDBRANCH   7   8
ENDBRANCH   6   7
ENDBRANCH   5   6
ENDBRANCH   4   5
ENDBRANCH   3   4
ENDBRANCH   2   3
ENDBRANCH   1   2
BRANCH   1  12
ATOM     12  C   UNL     1      -0.858   4.990   5.617  1.00  0.00     0.000 C 
BRANCH  12  13
ATOM     13  C   UNL     1      -1.095   3.829   4.634  1.00  0.00    -0.000 C 
BRANCH  13  14
ATOM     14  C   UNL     1      -1.855   2.622   5.216  1.00  0.00    -0.000 C 
BRANCH  14  15
ATOM     15  C   UNL     1      -2.613   2.896   6.528  1.00  0.00    -0.000 C 
BRANCH  15  16
ATOM     16  C   UNL     1      -4.149   2.884   6.373  1.00  0.00    -0.000 C 
BRANCH  16  17
ATOM     17  C   UNL     1      -4.798   4.196   6.840  1.00  0.00    -0.000 C 
BRANCH  17  18
ATOM     18  C   UNL     1      -5.215   5.060   5.644  1.00  0.00    -0.000 C 
BRANCH  18  19
ATOM     19  C   UNL     1      -4.371   6.337   5.568  1.00  0.00    -0.003 C 
ATOM     20  C   UNL     1      -3.829   6.723   6.941  1.00  0.00     0.004 C 
ENDBRANCH  18  19
ENDBRANCH  17  18
ENDBRANCH  16  17
ENDBRANCH  15  16
ENDBRANCH  14  15
ENDBRANCH  13  14
ENDBRANCH  12  13
ENDBRANCH   1  12
TORSDOF 16
ENDMDL
MODEL 2
REMARK VINA RESULT:    -3.910      1.470      2.404
REMARK INTER + INTRA:         -10.064
REMARK INTER:                  -7.859
REMARK INTRA:                  -2.205
REMARK UNBOUND:                -2.497
REMARK SMILES CCCCCCCCCCCCCCCCCC(=O)[O-]
REMARK SMILES IDX 10 1 11 2 12 3 13 4 14 5 15 6 16 7 17 8 18 9 19 10 20 11
REMARK SMILES IDX 9 12 8 13 7 14 6 15 5 16 4 17 3 18 2 19 1 20
REMARK H PARENT
REMARK Flexibility Score: inf
ROOT
ATOM      1  C   UNL     1       2.128   3.459   6.705  1.00  0.00     0.000 C 
ENDROOT
BRANCH   1   2
ATOM      2  C   UNL     1       1.670   2.713   7.972  1.00  0.00     0.000 C 
BRANCH   2   3
ATOM      3  C   UNL     1       1.186   1.266   7.747  1.00  0.00     0.000 C 
BRANCH   3   4
ATOM      4  C   UNL     1       1.466   0.692   6.347  1.00  0.00     0.000 C 
BRANCH   4   5
ATOM      5  C   UNL     1       2.112  -0.700   6.391  1.00  0.00     0.000 C 
BRANCH   5   6
ATOM      6  C   UNL     1       2.337  -1.156   7.840  1.00  0.00     0.000 C 
BRANCH   6   7
ATOM      7  C   UNL     1       3.825  -1.306   8.189  1.00  0.00     0.006 C 
BRANCH   7   8
ATOM      8  C   UNL     1       4.450   0.003   8.688  1.00  0.00     0.053 C 
BRANCH   8   9
ATOM      9  C   UNL     1       5.426   0.531   7.683  1.00  0.00     0.041 C 
ATOM     10  O   UNL     1       6.640   0.204   7.748  1.00  0.00    -0.550 OA
ATOM     11  O   UNL     1       4.987   1.343   6.647  1.00  0.00    -0.550 OA
ENDBRANCH   8   9
ENDBRANCH   7   8
ENDBRANCH   6   7
ENDBRANCH   5   6
ENDBRANCH   4   5
ENDBRANCH   3   4
ENDBRANCH   2   3
ENDBRANCH   1   2
BRANCH   1  12
ATOM     12  C   UNL     1       1.507   4.861   6.579  1.00  0.00     0.000 C 
BRANCH  12  13
ATOM     13  C   UNL     1      -0.033   4.836   6.607  1.00  0.00    -0.000 C 
BRANCH  13  14
ATOM     14  C   UNL     1      -0.712   4.713   5.230  1.00  0.00    -0.000 C 
BRANCH  14  15
ATOM     15  C   UNL     1      -1.326   3.335   4.924  1.00  0.00    -0.000 C 
BRANCH  15  16
ATOM     16  C   UNL     1      -1.773   2.559   6.181  1.00  0.00    -0.000 C 
BRANCH  16  17
ATOM     17  C   UNL     1      -3.008   3.183   6.849  1.00  0.00    -0.000 C 
BRANCH  17  18
ATOM     18  C   UNL     1      -4.179   3.274   5.864  1.00  0.00    -0.000 C 
BRANCH  18  19
ATOM     19  C   UNL     1      -5.045   4.506   6.153  1.00  0.00    -0.003 C 
ATOM     20  C   UNL     1      -4.469   5.753   5.491  1.00  0.00     0.004 C 
ENDBRANCH  18  19
ENDBRANCH  17  18
ENDBRANCH  16  17
ENDBRANCH  15  16
ENDBRANCH  14  15
ENDBRANCH  13  14
ENDBRANCH  12  13
ENDBRANCH   1  12
TORSDOF 16
ENDMDL
MODEL 3
REMARK VINA RESULT:    -3.905      1.524      2.920
REMARK INTER + INTRA:         -10.055
REMARK INTER:                  -7.577
REMARK INTRA:                  -2.479
REMARK UNBOUND:                -2.497
REMARK SMILES CCCCCCCCCCCCCCCCCC(=O)[O-]
REMARK SMILES IDX 10 1 11 2 12 3 13 4 14 5 15 6 16 7 17 8 18 9 19 10 20 11
REMARK SMILES IDX 9 12 8 13 7 14 6 15 5 16 4 17 3 18 2 19 1 20
REMARK H PARENT
REMARK Flexibility Score: inf
ROOT
ATOM      1  C   UNL     1      -1.252   2.687   5.185  1.00  0.00     0.000 C 
ENDROOT
BRANCH   1   2
ATOM      2  C   UNL     1      -1.109   4.082   4.547  1.00  0.00     0.000 C 
BRANCH   2   3
ATOM      3  C   UNL     1      -0.587   5.187   5.488  1.00  0.00     0.000 C 
BRANCH   3   4
ATOM      4  C   UNL     1       0.868   5.015   5.957  1.00  0.00     0.000 C 
BRANCH   4   5
ATOM      5  C   UNL     1       0.999   4.956   7.486  1.00  0.00     0.000 C 
BRANCH   5   6
ATOM      6  C   UNL     1       1.166   3.507   7.967  1.00  0.00     0.000 C 
BRANCH   6   7
ATOM      7  C   UNL     1       1.990   2.651   6.994  1.00  0.00     0.006 C 
BRANCH   7   8
ATOM      8  C   UNL     1       1.620   1.163   7.058  1.00  0.00     0.053 C 
BRANCH   8   9
ATOM      9  C   UNL     1       2.675   0.335   6.393  1.00  0.00     0.041 C 
ATOM     10  O   UNL     1       3.878   0.706   6.414  1.00  0.00    -0.550 OA
ATOM     11  O   UNL     1       2.337  -0.871   5.794  1.00  0.00    -0.550 OA
ENDBRANCH   8   9
ENDBRANCH   7   8
ENDBRANCH   6   7
ENDBRANCH   5   6
ENDBRANCH   4   5
ENDBRANCH   3   4
ENDBRANCH   2   3
ENDBRANCH   1   2
BRANCH   1  12
ATOM     12  C   UNL     1      -2.555   2.528   5.988  1.00  0.00     0.000 C 
BRANCH  12  13
ATOM     13  C   UNL     1      -2.332   2.604   7.510  1.00  0.00    -0.000 C 
BRANCH  13  14
ATOM     14  C   UNL     1      -3.340   3.480   8.277  1.00  0.00    -0.000 C 
BRANCH  14  15
ATOM     15  C   UNL     1      -3.658   4.838   7.623  1.00  0.00    -0.000 C 
BRANCH  15  16
ATOM     16  C   UNL     1      -5.113   4.962   7.121  1.00  0.00    -0.000 C 
BRANCH  16  17
ATOM     17  C   UNL     1      -5.207   4.971   5.587  1.00  0.00    -0.000 C 
BRANCH  17  18
ATOM     18  C   UNL     1      -4.697   6.298   5.013  1.00  0.00    -0.000 C 
BRANCH  18  19
ATOM     19  C   UNL     1      -5.462   7.485   5.609  1.00  0.00    -0.003 C 
ATOM     20  C   UNL     1      -4.505   8.540   6.155  1.00  0.00     0.004 C 
ENDBRANCH  18  19
ENDBRANCH  17  18
ENDBRANCH  16  17
ENDBRANCH  15  16
ENDBRANCH  14  15
ENDBRANCH  13  14
ENDBRANCH  12  13
ENDBRANCH   1  12
TORSDOF 16
ENDMDL
MODEL 4
REMARK VINA RESULT:    -3.881      1.118      1.550
REMARK INTER + INTRA:         -10.008
REMARK INTER:                  -7.009
REMARK INTRA:                  -3.000
REMARK UNBOUND:                -2.497
REMARK SMILES CCCCCCCCCCCCCCCCCC(=O)[O-]
REMARK SMILES IDX 10 1 11 2 12 3 13 4 14 5 15 6 16 7 17 8 18 9 19 10 20 11
REMARK SMILES IDX 9 12 8 13 7 14 6 15 5 16 4 17 3 18 2 19 1 20
REMARK H PARENT
REMARK Flexibility Score: inf
ROOT
ATOM      1  C   UNL     1      -0.243   6.160   6.033  1.00  0.00     0.000 C 
ENDROOT
BRANCH   1   2
ATOM      2  C   UNL     1      -0.476   5.980   7.544  1.00  0.00     0.000 C 
BRANCH   2   3
ATOM      3  C   UNL     1       0.581   5.129   8.278  1.00  0.00     0.000 C 
BRANCH   3   4
ATOM      4  C   UNL     1       0.022   3.949   9.091  1.00  0.00     0.000 C 
BRANCH   4   5
ATOM      5  C   UNL     1       0.968   2.739   9.115  1.00  0.00     0.000 C 
BRANCH   5   6
ATOM      6  C   UNL     1       0.469   1.631   8.177  1.00  0.00     0.000 C 
BRANCH   6   7
ATOM      7  C   UNL     1       1.362   1.455   6.940  1.00  0.00     0.006 C 
BRANCH   7   8
ATOM      8  C   UNL     1       2.826   1.174   7.303  1.00  0.00     0.053 C 
BRANCH   8   9
ATOM      9  C   UNL     1       3.724   2.196   6.678  1.00  0.00     0.041 C 
ATOM     10  O   UNL     1       4.899   1.887   6.347  1.00  0.00    -0.550 OA
ATOM     11  O   UNL     1       3.248   3.473   6.417  1.00  0.00    -0.550 OA
ENDBRANCH   8   9
ENDBRANCH   7   8
ENDBRANCH   6   7
ENDBRANCH   5   6
ENDBRANCH   4   5
ENDBRANCH   3   4
ENDBRANCH   2   3
ENDBRANCH   1   2
BRANCH   1  12
ATOM     12  C   UNL     1       0.057   4.834   5.312  1.00  0.00     0.000 C 
BRANCH  12  13
ATOM     13  C   UNL     1      -1.208   4.157   4.755  1.00  0.00    -0.000 C 
BRANCH  13  14
ATOM     14  C   UNL     1      -1.436   2.707   5.221  1.00  0.00    -0.000 C 
BRANCH  14  15
ATOM     15  C   UNL     1      -2.818   2.428   5.841  1.00  0.00    -0.000 C 
BRANCH  15  16
ATOM     16  C   UNL     1      -2.968   2.945   7.287  1.00  0.00    -0.000 C 
BRANCH  16  17
ATOM     17  C   UNL     1      -3.763   4.258   7.363  1.00  0.00    -0.000 C 
BRANCH  17  18
ATOM     18  C   UNL     1      -4.938   4.247   6.379  1.00  0.00    -0.000 C 
BRANCH  18  19
ATOM     19  C   UNL     1      -4.972   5.535   5.548  1.00  0.00    -0.003 C 
ATOM     20  C   UNL     1      -3.940   6.542   6.049  1.00  0.00     0.004 C 
ENDBRANCH  18  19
ENDBRANCH  17  18
ENDBRANCH  16  17
ENDBRANCH  15  16
ENDBRANCH  14  15
ENDBRANCH  13  14
ENDBRANCH  12  13
ENDBRANCH   1  12
TORSDOF 16
ENDMDL
MODEL 5
REMARK VINA RESULT:    -3.880      3.782      7.797
REMARK INTER + INTRA:         -10.007
REMARK INTER:                  -7.714
REMARK INTRA:                  -2.293
REMARK UNBOUND:                -2.497
REMARK SMILES CCCCCCCCCCCCCCCCCC(=O)[O-]
REMARK SMILES IDX 10 1 11 2 12 3 13 4 14 5 15 6 16 7 17 8 18 9 19 10 20 11
REMARK SMILES IDX 9 12 8 13 7 14 6 15 5 16 4 17 3 18 2 19 1 20
REMARK H PARENT
REMARK Flexibility Score: inf
ROOT
ATOM      1  C   UNL     1      -1.017   3.901   4.647  1.00  0.00     0.000 C 
ENDROOT
BRANCH   1   2
ATOM      2  C   UNL     1      -1.694   2.643   5.221  1.00  0.00     0.000 C 
BRANCH   2   3
ATOM      3  C   UNL     1      -2.592   2.881   6.452  1.00  0.00     0.000 C 
BRANCH   3   4
ATOM      4  C   UNL     1      -4.103   2.740   6.198  1.00  0.00     0.000 C 
BRANCH   4   5
ATOM      5  C   UNL     1      -4.866   4.060   6.387  1.00  0.00     0.000 C 
BRANCH   5   6
ATOM      6  C   UNL     1      -3.954   5.142   6.981  1.00  0.00     0.000 C 
BRANCH   6   7
ATOM      7  C   UNL     1      -3.762   6.339   6.038  1.00  0.00     0.006 C 
BRANCH   7   8
ATOM      8  C   UNL     1      -4.797   6.371   4.906  1.00  0.00     0.053 C 
BRANCH   8   9
ATOM      9  C   UNL     1      -5.407   7.733   4.795  1.00  0.00     0.041 C 
ATOM     10  O   UNL     1      -5.231   8.422   3.756  1.00  0.00    -0.550 OA
ATOM     11  O   UNL     1      -6.209   8.222   5.817  1.00  0.00    -0.550 OA
ENDBRANCH   8   9
ENDBRANCH   7   8
ENDBRANCH   6   7
ENDBRANCH   5   6
ENDBRANCH   4   5
ENDBRANCH   3   4
ENDBRANCH   2   3
ENDBRANCH   1   2
BRANCH   1  12
ATOM     12  C   UNL     1      -0.386   4.788   5.734  1.00  0.00     0.000 C 
BRANCH  12  13
ATOM     13  C   UNL     1       0.952   4.233   6.257  1.00  0.00    -0.000 C 
BRANCH  13  14
ATOM     14  C   UNL     1       0.992   3.931   7.766  1.00  0.00    -0.000 C 
BRANCH  14  15
ATOM     15  C   UNL     1       1.367   2.483   8.134  1.00  0.00    -0.000 C 
BRANCH  15  16
ATOM     16  C   UNL     1       1.293   1.499   6.946  1.00  0.00    -0.000 C 
BRANCH  16  17
ATOM     17  C   UNL     1       2.667   0.925   6.572  1.00  0.00    -0.000 C 
BRANCH  17  18
ATOM     18  C   UNL     1       3.729   1.322   7.603  1.00  0.00    -0.000 C 
BRANCH  18  19
ATOM     19  C   UNL     1       4.941   1.971   6.924  1.00  0.00    -0.003 C 
ATOM     20  C   UNL     1       4.553   3.278   6.237  1.00  0.00     0.004 C 
ENDBRANCH  18  19
ENDBRANCH  17  18
ENDBRANCH  16  17
ENDBRANCH  15  16
ENDBRANCH  14  15
ENDBRANCH  13  14
ENDBRANCH  12  13
ENDBRANCH   1  12
TORSDOF 16
ENDMDL
MODEL 6
REMARK VINA RESULT:    -3.854     13.529     15.730
REMARK INTER + INTRA:          -9.955
REMARK INTER:                  -7.307
REMARK INTRA:                  -2.648
REMARK UNBOUND:                -2.497
REMARK SMILES CCCCCCCCCCCCCCCCCC(=O)[O-]
REMARK SMILES IDX 10 1 11 2 12 3 13 4 14 5 15 6 16 7 17 8 18 9 19 10 20 11
REMARK SMILES IDX 9 12 8 13 7 14 6 15 5 16 4 17 3 18 2 19 1 20
REMARK H PARENT
REMARK Flexibility Score: inf
ROOT
ATOM      1  C   UNL     1      -3.133  -0.574  -5.633  1.00  0.00     0.000 C 
ENDROOT
BRANCH   1   2
ATOM      2  C   UNL     1      -3.418  -0.121  -7.077  1.00  0.00     0.000 C 
BRANCH   2   3
ATOM      3  C   UNL     1      -4.908  -0.066  -7.469  1.00  0.00     0.000 C 
BRANCH   3   4
ATOM      4  C   UNL     1      -5.648  -1.414  -7.427  1.00  0.00     0.000 C 
BRANCH   4   5
ATOM      5  C   UNL     1      -4.920  -2.519  -8.209  1.00  0.00     0.000 C 
BRANCH   5   6
ATOM      6  C   UNL     1      -4.494  -3.662  -7.276  1.00  0.00     0.000 C 
BRANCH   6   7
ATOM      7  C   UNL     1      -5.481  -3.883  -6.120  1.00  0.00     0.006 C 
BRANCH   7   8
ATOM      8  C   UNL     1      -4.799  -3.850  -4.747  1.00  0.00     0.053 C 
BRANCH   8   9
ATOM      9  C   UNL     1      -4.933  -5.176  -4.065  1.00  0.00     0.041 C 
ATOM     10  O   UNL     1      -4.544  -5.318  -2.876  1.00  0.00    -0.550 OA
ATOM     11  O   UNL     1      -5.531  -6.240  -4.726  1.00  0.00    -0.550 OA
ENDBRANCH   8   9
ENDBRANCH   7   8
ENDBRANCH   6   7
ENDBRANCH   5   6
ENDBRANCH   4   5
ENDBRANCH   3   4
ENDBRANCH   2   3
ENDBRANCH   1   2
BRANCH   1  12
ATOM     12  C   UNL     1      -1.986  -1.595  -5.542  1.00  0.00     0.000 C 
BRANCH  12  13
ATOM     13  C   UNL     1      -1.093  -1.605  -6.796  1.00  0.00    -0.000 C 
BRANCH  13  14
ATOM     14  C   UNL     1       0.396  -1.307  -6.544  1.00  0.00    -0.000 C 
BRANCH  14  15
ATOM     15  C   UNL     1       1.353  -2.486  -6.803  1.00  0.00    -0.000 C 
BRANCH  15  16
ATOM     16  C   UNL     1       0.716  -3.639  -7.608  1.00  0.00    -0.000 C 
BRANCH  16  17
ATOM     17  C   UNL     1       0.594  -4.932  -6.787  1.00  0.00    -0.000 C 
BRANCH  17  18
ATOM     18  C   UNL     1       0.977  -4.692  -5.322  1.00  0.00    -0.000 C 
BRANCH  18  19
ATOM     19  C   UNL     1      -0.268  -4.651  -4.427  1.00  0.00    -0.003 C 
ATOM     20  C   UNL     1      -1.440  -5.378  -5.081  1.00  0.00     0.004 C 
ENDBRANCH  18  19
ENDBRANCH  17  18
ENDBRANCH  16  17
ENDBRANCH  15  16
ENDBRANCH  14  15
ENDBRANCH  13  14
ENDBRANCH  12  13
ENDBRANCH   1  12
TORSDOF 16
ENDMDL
MODEL 7
REMARK VINA RESULT:    -3.832      2.086      3.881
REMARK INTER + INTRA:          -9.914
REMARK INTER:                  -7.714
REMARK INTRA:                  -2.200
REMARK UNBOUND:                -2.497
REMARK SMILES CCCCCCCCCCCCCCCCCC(=O)[O-]
REMARK SMILES IDX 10 1 11 2 12 3 13 4 14 5 15 6 16 7 17 8 18 9 19 10 20 11
REMARK SMILES IDX 9 12 8 13 7 14 6 15 5 16 4 17 3 18 2 19 1 20
REMARK H PARENT
REMARK Flexibility Score: inf
ROOT
ATOM      1  C   UNL     1       2.944   4.336   9.355  1.00  0.00     0.000 C 
ENDROOT
BRANCH   1   2
ATOM      2  C   UNL     1       3.951   5.293   8.690  1.00  0.00     0.000 C 
BRANCH   2   3
ATOM      3  C   UNL     1       5.271   4.643   8.228  1.00  0.00     0.000 C 
BRANCH   3   4
ATOM      4  C   UNL     1       5.125   3.558   7.147  1.00  0.00     0.000 C 
BRANCH   4   5
ATOM      5  C   UNL     1       5.641   2.186   7.603  1.00  0.00     0.000 C 
BRANCH   5   6
ATOM      6  C   UNL     1       4.661   1.071   7.211  1.00  0.00     0.000 C 
BRANCH   6   7
ATOM      7  C   UNL     1       3.400   1.608   6.518  1.00  0.00     0.006 C 
BRANCH   7   8
ATOM      8  C   UNL     1       2.113   0.968   7.054  1.00  0.00     0.053 C 
BRANCH   8   9
ATOM      9  C   UNL     1       2.132  -0.511   6.826  1.00  0.00     0.041 C 
ATOM     10  O   UNL     1       1.895  -1.300   7.778  1.00  0.00    -0.550 OA
ATOM     11  O   UNL     1       2.362  -1.016   5.554  1.00  0.00    -0.550 OA
ENDBRANCH   8   9
ENDBRANCH   7   8
ENDBRANCH   6   7
ENDBRANCH   5   6
ENDBRANCH   4   5
ENDBRANCH   3   4
ENDBRANCH   2   3
ENDBRANCH   1   2
BRANCH   1  12
ATOM     12  C   UNL     1       1.620   4.228   8.580  1.00  0.00     0.000 C 
BRANCH  12  13
ATOM     13  C   UNL     1       1.489   5.288   7.470  1.00  0.00    -0.000 C 
BRANCH  13  14
ATOM     14  C   UNL     1       1.360   4.730   6.041  1.00  0.00    -0.000 C 
BRANCH  14  15
ATOM     15  C   UNL     1       0.104   5.182   5.273  1.00  0.00    -0.000 C 
BRANCH  15  16
ATOM     16  C   UNL     1      -0.809   4.017   4.832  1.00  0.00    -0.000 C 
BRANCH  16  17
ATOM     17  C   UNL     1      -1.495   3.325   6.019  1.00  0.00    -0.000 C 
BRANCH  17  18
ATOM     18  C   UNL     1      -2.717   4.122   6.489  1.00  0.00    -0.000 C 
BRANCH  18  19
ATOM     19  C   UNL     1      -4.019   3.411   6.104  1.00  0.00    -0.003 C 
ATOM     20  C   UNL     1      -3.817   1.902   6.011  1.00  0.00     0.004 C 
ENDBRANCH  18  19
ENDBRANCH  17  18
ENDBRANCH  16  17
ENDBRANCH  15  16
ENDBRANCH  14  15
ENDBRANCH  13  14
ENDBRANCH  12  13
ENDBRANCH   1  12
TORSDOF 16
ENDMDL
MODEL 8
REMARK VINA RESULT:    -3.782     13.539     15.735
REMARK INTER + INTRA:          -9.816
REMARK INTER:                  -7.420
REMARK INTRA:                  -2.396
REMARK UNBOUND:                -2.497
REMARK SMILES CCCCCCCCCCCCCCCCCC(=O)[O-]
REMARK SMILES IDX 10 1 11 2 12 3 13 4 14 5 15 6 16 7 17 8 18 9 19 10 20 11
REMARK SMILES IDX 9 12 8 13 7 14 6 15 5 16 4 17 3 18 2 19 1 20
REMARK H PARENT
REMARK Flexibility Score: inf
ROOT
ATOM      1  C   UNL     1      -5.196  -0.585  -8.164  1.00  0.00     0.000 C 
ENDROOT
BRANCH   1   2
ATOM      2  C   UNL     1      -5.925  -1.469  -7.134  1.00  0.00     0.000 C 
BRANCH   2   3
ATOM      3  C   UNL     1      -6.344  -2.864  -7.641  1.00  0.00     0.000 C 
BRANCH   3   4
ATOM      4  C   UNL     1      -6.155  -4.011  -6.633  1.00  0.00     0.000 C 
BRANCH   4   5
ATOM      5  C   UNL     1      -4.688  -4.209  -6.222  1.00  0.00     0.000 C 
BRANCH   5   6
ATOM      6  C   UNL     1      -4.463  -3.780  -4.765  1.00  0.00     0.000 C 
BRANCH   6   7
ATOM      7  C   UNL     1      -4.669  -4.931  -3.769  1.00  0.00     0.006 C 
BRANCH   7   8
ATOM      8  C   UNL     1      -4.376  -6.305  -4.386  1.00  0.00     0.053 C 
BRANCH   8   9
ATOM      9  C   UNL     1      -5.558  -7.209  -4.231  1.00  0.00     0.041 C 
ATOM     10  O   UNL     1      -6.083  -7.376  -3.099  1.00  0.00    -0.550 OA
ATOM     11  O   UNL     1      -6.109  -7.830  -5.344  1.00  0.00    -0.550 OA
ENDBRANCH   8   9
ENDBRANCH   7   8
ENDBRANCH   6   7
ENDBRANCH   5   6
ENDBRANCH   4   5
ENDBRANCH   3   4
ENDBRANCH   2   3
ENDBRANCH   1   2
BRANCH   1  12
ATOM     12  C   UNL     1      -3.868  -0.019  -7.632  1.00  0.00     0.000 C 
BRANCH  12  13
ATOM     13  C   UNL     1      -3.751  -0.110  -6.099  1.00  0.00    -0.000 C 
BRANCH  13  14
ATOM     14  C   UNL     1      -2.671  -1.077  -5.580  1.00  0.00    -0.000 C 
BRANCH  14  15
ATOM     15  C   UNL     1      -1.840  -1.778  -6.672  1.00  0.00    -0.000 C 
BRANCH  15  16
ATOM     16  C   UNL     1      -0.315  -1.689  -6.447  1.00  0.00    -0.000 C 
BRANCH  16  17
ATOM     17  C   UNL     1       0.212  -2.814  -5.543  1.00  0.00    -0.000 C 
BRANCH  17  18
ATOM     18  C   UNL     1      -0.370  -4.171  -5.955  1.00  0.00    -0.000 C 
BRANCH  18  19
ATOM     19  C   UNL     1      -0.655  -5.044  -4.728  1.00  0.00    -0.003 C 
ATOM     20  C   UNL     1      -0.991  -4.189  -3.509  1.00  0.00     0.004 C 
ENDBRANCH  18  19
ENDBRANCH  17  18
ENDBRANCH  16  17
ENDBRANCH  15  16
ENDBRANCH  14  15
ENDBRANCH  13  14
ENDBRANCH  12  13
ENDBRANCH   1  12
TORSDOF 16
ENDMDL
MODEL 9
REMARK VINA RESULT:    -3.765      3.296      7.290
REMARK INTER + INTRA:          -9.783
REMARK INTER:                  -7.194
REMARK INTRA:                  -2.590
REMARK UNBOUND:                -2.497
REMARK SMILES CCCCCCCCCCCCCCCCCC(=O)[O-]
REMARK SMILES IDX 10 1 11 2 12 3 13 4 14 5 15 6 16 7 17 8 18 9 19 10 20 11
REMARK SMILES IDX 9 12 8 13 7 14 6 15 5 16 4 17 3 18 2 19 1 20
REMARK H PARENT
REMARK Flexibility Score: inf
ROOT
ATOM      1  C   UNL     1       1.549   4.140   7.238  1.00  0.00     0.000 C 
ENDROOT
BRANCH   1   2
ATOM      2  C   UNL     1       0.575   5.331   7.181  1.00  0.00     0.000 C 
BRANCH   2   3
ATOM      3  C   UNL     1      -0.621   5.161   6.222  1.00  0.00     0.000 C 
BRANCH   3   4
ATOM      4  C   UNL     1      -0.471   4.037   5.182  1.00  0.00     0.000 C 
BRANCH   4   5
ATOM      5  C   UNL     1      -1.631   3.030   5.219  1.00  0.00     0.000 C 
BRANCH   5   6
ATOM      6  C   UNL     1      -1.916   2.574   6.657  1.00  0.00     0.000 C 
BRANCH   6   7
ATOM      7  C   UNL     1      -3.404   2.281   6.902  1.00  0.00     0.006 C 
BRANCH   7   8
ATOM      8  C   UNL     1      -4.317   2.968   5.878  1.00  0.00     0.053 C 
BRANCH   8   9
ATOM      9  C   UNL     1      -4.900   4.220   6.455  1.00  0.00     0.041 C 
ATOM     10  O   UNL     1      -4.895   4.404   7.701  1.00  0.00    -0.550 OA
ATOM     11  O   UNL     1      -5.403   5.204   5.616  1.00  0.00    -0.550 OA
ENDBRANCH   8   9
ENDBRANCH   7   8
ENDBRANCH   6   7
ENDBRANCH   5   6
ENDBRANCH   4   5
ENDBRANCH   3   4
ENDBRANCH   2   3
ENDBRANCH   1   2
BRANCH   1  12
ATOM     12  C   UNL     1       1.388   3.296   8.514  1.00  0.00     0.000 C 
BRANCH  12  13
ATOM     13  C   UNL     1       1.390   1.782   8.234  1.00  0.00    -0.000 C 
BRANCH  13  14
ATOM     14  C   UNL     1       1.546   1.389   6.753  1.00  0.00    -0.000 C 
BRANCH  14  15
ATOM     15  C   UNL     1       2.498   0.208   6.486  1.00  0.00    -0.000 C 
BRANCH  15  16
ATOM     16  C   UNL     1       3.641   0.084   7.517  1.00  0.00    -0.000 C 
BRANCH  16  17
ATOM     17  C   UNL     1       4.882   0.897   7.119  1.00  0.00    -0.000 C 
BRANCH  17  18
ATOM     18  C   UNL     1       5.261   1.897   8.219  1.00  0.00    -0.000 C 
BRANCH  18  19
ATOM     19  C   UNL     1       5.197   3.337   7.699  1.00  0.00    -0.003 C 
ATOM     20  C   UNL     1       4.811   3.375   6.223  1.00  0.00     0.004 C 
ENDBRANCH  18  19
ENDBRANCH  17  18
ENDBRANCH  16  17
ENDBRANCH  15  16
ENDBRANCH  14  15
ENDBRANCH  13  14
ENDBRANCH  12  13
ENDBRANCH   1  12
TORSDOF 16
ENDMDL
