MODEL 1
REMARK VINA RESULT:    -3.590      0.000      0.000
REMARK INTER + INTRA:          -8.375
REMARK INTER:                  -6.528
REMARK INTRA:                  -1.847
REMARK UNBOUND:                -1.847
REMARK SMILES CCCCCCCCCCCCCCCC(=O)[O-]
REMARK SMILES IDX 9 1 10 2 11 3 12 4 13 5 14 6 15 7 16 8 17 9 18 10 8 11 7 12
REMARK SMILES IDX 6 13 5 14 4 15 3 16 2 17 1 18
REMARK H PARENT
REMARK Flexibility Score: inf
ROOT
ATOM      1  C   UNL     1     -98.728  71.586  23.002  1.00  0.00     0.000 C 
ENDROOT
BRANCH   1   2
ATOM      2  C   UNL     1     -98.734  70.120  22.539  1.00  0.00     0.000 C 
BRANCH   2   3
ATOM      3  C   UNL     1     -99.824  69.285  23.227  1.00  0.00     0.000 C 
BRANCH   3   4
ATOM      4  C   UNL     1     -99.223  68.389  24.320  1.00  0.00     0.000 C 
BRANCH   4   5
ATOM      5  C   UNL     1     -99.056  69.115  25.666  1.00  0.00     0.000 C 
BRANCH   5   6
ATOM      6  C   UNL     1    -100.359  69.753  26.191  1.00  0.00     0.006 C 
BRANCH   6   7
ATOM      7  C   UNL     1    -101.133  68.810  27.122  1.00  0.00     0.053 C 
BRANCH   7   8
ATOM      8  C   UNL     1    -100.618  68.919  28.523  1.00  0.00     0.041 C 
ATOM      9  O   UNL     1     -99.847  68.037  28.985  1.00  0.00    -0.550 OA
ATOM     10  O   UNL     1    -101.030  69.967  29.335  1.00  0.00    -0.550 OA
ENDBRANCH   7   8
ENDBRANCH   6   7
ENDBRANCH   5   6
ENDBRANCH   4   5
ENDBRANCH   3   4
ENDBRANCH   2   3
ENDBRANCH   1   2
BRANCH   1  11
ATOM     11  C   UNL     1     -97.529  71.914  23.909  1.00  0.00     0.000 C 
BRANCH  11  12
ATOM     12  C   UNL     1     -97.320  73.428  24.084  1.00  0.00    -0.000 C 
BRANCH  12  13
ATOM     13  C   UNL     1     -95.902  73.877  23.690  1.00  0.00    -0.000 C 
BRANCH  13  14
ATOM     14  C   UNL     1     -95.241  72.923  22.682  1.00  0.00    -0.000 C 
BRANCH  14  15
ATOM     15  C   UNL     1     -95.456  73.358  21.221  1.00  0.00    -0.000 C 
BRANCH  15  16
ATOM     16  C   UNL     1     -96.156  72.279  20.380  1.00  0.00    -0.000 C 
BRANCH  16  17
ATOM     17  C   UNL     1     -97.463  72.778  19.749  1.00  0.00    -0.003 C 
ATOM     18  C   UNL     1     -97.882  74.120  20.341  1.00  0.00     0.004 C 
ENDBRANCH  16  17
ENDBRANCH  15  16
ENDBRANCH  14  15
ENDBRANCH  13  14
ENDBRANCH  12  13
ENDBRANCH  11  12
ENDBRANCH   1  11
TORSDOF 14
ENDMDL
MODEL 2
REMARK VINA RESULT:    -3.554      1.165      2.092
REMARK INTER + INTRA:          -8.309
REMARK INTER:                  -6.638
REMARK INTRA:                  -1.671
REMARK UNBOUND:                -1.847
REMARK SMILES CCCCCCCCCCCCCCCC(=O)[O-]
REMARK SMILES IDX 9 1 10 2 11 3 12 4 13 5 14 6 15 7 16 8 17 9 18 10 8 11 7 12
REMARK SMILES IDX 6 13 5 14 4 15 3 16 2 17 1 18
REMARK H PARENT
REMARK Flexibility Score: inf
ROOT
ATOM      1  C   UNL     1     -99.628  69.778  22.893  1.00  0.00     0.000 C 
ENDROOT
BRANCH   1   2
ATOM      2  C   UNL     1     -99.213  68.552  23.721  1.00  0.00     0.000 C 
BRANCH   2   3
ATOM      3  C   UNL     1     -99.316  68.794  25.235  1.00  0.00     0.000 C 
BRANCH   3   4
ATOM      4  C   UNL     1    -100.061  70.103  25.532  1.00  0.00     0.000 C 
BRANCH   4   5
ATOM      5  C   UNL     1     -99.526  70.829  26.778  1.00  0.00     0.000 C 
BRANCH   5   6
ATOM      6  C   UNL     1     -98.521  69.993  27.597  1.00  0.00     0.006 C 
BRANCH   6   7
ATOM      7  C   UNL     1     -98.736  70.145  29.108  1.00  0.00     0.053 C 
BRANCH   7   8
ATOM      8  C   UNL     1     -99.290  68.883  29.689  1.00  0.00     0.041 C 
ATOM      9  O   UNL     1     -99.071  68.590  30.894  1.00  0.00    -0.550 OA
ATOM     10  O   UNL     1    -100.007  68.004  28.887  1.00  0.00    -0.550 OA
ENDBRANCH   7   8
ENDBRANCH   6   7
ENDBRANCH   5   6
ENDBRANCH   4   5
ENDBRANCH   3   4
ENDBRANCH   2   3
ENDBRANCH   1   2
BRANCH   1  11
ATOM     11  C   UNL     1     -98.420  70.569  22.362  1.00  0.00     0.000 C 
BRANCH  11  12
ATOM     12  C   UNL     1     -98.379  72.012  22.894  1.00  0.00    -0.000 C 
BRANCH  12  13
ATOM     13  C   UNL     1     -97.342  72.197  24.015  1.00  0.00    -0.000 C 
BRANCH  13  14
ATOM     14  C   UNL     1     -96.307  73.285  23.686  1.00  0.00    -0.000 C 
BRANCH  14  15
ATOM     15  C   UNL     1     -95.239  72.806  22.686  1.00  0.00    -0.000 C 
BRANCH  15  16
ATOM     16  C   UNL     1     -95.251  73.613  21.378  1.00  0.00    -0.000 C 
BRANCH  16  17
ATOM     17  C   UNL     1     -95.894  72.843  20.215  1.00  0.00    -0.003 C 
ATOM     18  C   UNL     1     -97.136  73.563  19.700  1.00  0.00     0.004 C 
ENDBRANCH  16  17
ENDBRANCH  15  16
ENDBRANCH  14  15
ENDBRANCH  13  14
ENDBRANCH  12  13
ENDBRANCH  11  12
ENDBRANCH   1  11
TORSDOF 14
ENDMDL
MODEL 3
REMARK VINA RESULT:    -3.457      3.982      7.731
REMARK INTER + INTRA:          -8.134
REMARK INTER:                  -6.429
REMARK INTRA:                  -1.705
REMARK UNBOUND:                -1.847
REMARK SMILES CCCCCCCCCCCCCCCC(=O)[O-]
REMARK SMILES IDX 9 1 10 2 11 3 12 4 13 5 14 6 15 7 16 8 17 9 18 10 8 11 7 12
REMARK SMILES IDX 6 13 5 14 4 15 3 16 2 17 1 18
REMARK H PARENT
REMARK Flexibility Score: inf
ROOT
ATOM      1  C   UNL     1     -98.432  70.507  22.494  1.00  0.00     0.000 C 
ENDROOT
BRANCH   1   2
ATOM      2  C   UNL     1     -98.497  71.966  22.975  1.00  0.00     0.000 C 
BRANCH   2   3
ATOM      3  C   UNL     1     -97.603  72.229  24.196  1.00  0.00     0.000 C 
BRANCH   3   4
ATOM      4  C   UNL     1     -96.548  73.300  23.884  1.00  0.00     0.000 C 
BRANCH   4   5
ATOM      5  C   UNL     1     -95.397  72.772  23.012  1.00  0.00     0.000 C 
BRANCH   5   6
ATOM      6  C   UNL     1     -95.141  73.617  21.746  1.00  0.00     0.006 C 
BRANCH   6   7
ATOM      7  C   UNL     1     -95.815  73.020  20.504  1.00  0.00     0.053 C 
BRANCH   7   8
ATOM      8  C   UNL     1     -96.757  74.009  19.892  1.00  0.00     0.041 C 
ATOM      9  O   UNL     1     -97.708  74.481  20.569  1.00  0.00    -0.550 OA
ATOM     10  O   UNL     1     -96.613  74.373  18.559  1.00  0.00    -0.550 OA
ENDBRANCH   7   8
ENDBRANCH   6   7
ENDBRANCH   5   6
ENDBRANCH   4   5
ENDBRANCH   3   4
ENDBRANCH   2   3
ENDBRANCH   1   2
BRANCH   1  11
ATOM     11  C   UNL     1     -99.649  69.681  22.947  1.00  0.00     0.000 C 
BRANCH  11  12
ATOM     12  C   UNL     1     -99.250  68.463  23.799  1.00  0.00    -0.000 C 
BRANCH  12  13
ATOM     13  C   UNL     1     -99.266  68.767  25.307  1.00  0.00    -0.000 C 
BRANCH  13  14
ATOM     14  C   UNL     1    -100.198  69.938  25.662  1.00  0.00    -0.000 C 
BRANCH  14  15
ATOM     15  C   UNL     1     -99.770  70.667  26.948  1.00  0.00    -0.000 C 
BRANCH  15  16
ATOM     16  C   UNL     1     -98.465  70.110  27.537  1.00  0.00    -0.000 C 
BRANCH  16  17
ATOM     17  C   UNL     1     -98.584  69.783  29.032  1.00  0.00    -0.003 C 
ATOM     18  C   UNL     1     -98.560  68.276  29.269  1.00  0.00     0.004 C 
ENDBRANCH  16  17
ENDBRANCH  15  16
ENDBRANCH  14  15
ENDBRANCH  13  14
ENDBRANCH  12  13
ENDBRANCH  11  12
ENDBRANCH   1  11
TORSDOF 14
ENDMDL
MODEL 4
REMARK VINA RESULT:    -3.441      1.712      3.210
REMARK INTER + INTRA:          -8.104
REMARK INTER:                  -5.737
REMARK INTRA:                  -2.367
REMARK UNBOUND:                -1.847
REMARK SMILES CCCCCCCCCCCCCCCC(=O)[O-]
REMARK SMILES IDX 9 1 10 2 11 3 12 4 13 5 14 6 15 7 16 8 17 9 18 10 8 11 7 12
REMARK SMILES IDX 6 13 5 14 4 15 3 16 2 17 1 18
REMARK H PARENT
REMARK Flexibility Score: inf
ROOT
ATOM      1  C   UNL     1     -99.989  70.745  22.306  1.00  0.00     0.000 C 
ENDROOT
BRANCH   1   2
ATOM      2  C   UNL     1     -98.919  69.771  22.825  1.00  0.00     0.000 C 
BRANCH   2   3
ATOM      3  C   UNL     1     -99.495  68.702  23.766  1.00  0.00     0.000 C 
BRANCH   3   4
ATOM      4  C   UNL     1     -98.998  68.911  25.204  1.00  0.00     0.000 C 
BRANCH   4   5
ATOM      5  C   UNL     1    -100.140  68.960  26.232  1.00  0.00     0.000 C 
BRANCH   5   6
ATOM      6  C   UNL     1     -99.862  69.903  27.422  1.00  0.00     0.006 C 
BRANCH   6   7
ATOM      7  C   UNL     1     -98.548  69.564  28.136  1.00  0.00     0.053 C 
BRANCH   7   8
ATOM      8  C   UNL     1     -98.821  68.887  29.442  1.00  0.00     0.041 C 
ATOM      9  O   UNL     1     -99.172  69.562  30.445  1.00  0.00    -0.550 OA
ATOM     10  O   UNL     1     -98.640  67.515  29.565  1.00  0.00    -0.550 OA
ENDBRANCH   7   8
ENDBRANCH   6   7
ENDBRANCH   5   6
ENDBRANCH   4   5
ENDBRANCH   3   4
ENDBRANCH   2   3
ENDBRANCH   1   2
BRANCH   1  11
ATOM     11  C   UNL     1    -101.327  70.605  23.053  1.00  0.00     0.000 C 
BRANCH  11  12
ATOM     12  C   UNL     1    -101.571  71.755  24.045  1.00  0.00    -0.000 C 
BRANCH  12  13
ATOM     13  C   UNL     1    -100.446  72.804  24.021  1.00  0.00    -0.000 C 
BRANCH  13  14
ATOM     14  C   UNL     1     -99.632  72.824  25.325  1.00  0.00    -0.000 C 
BRANCH  14  15
ATOM     15  C   UNL     1     -98.135  72.547  25.095  1.00  0.00    -0.000 C 
BRANCH  15  16
ATOM     16  C   UNL     1     -97.576  73.297  23.875  1.00  0.00    -0.000 C 
BRANCH  16  17
ATOM     17  C   UNL     1     -96.197  72.778  23.444  1.00  0.00    -0.003 C 
ATOM     18  C   UNL     1     -96.227  72.264  22.008  1.00  0.00     0.004 C 
ENDBRANCH  16  17
ENDBRANCH  15  16
ENDBRANCH  14  15
ENDBRANCH  13  14
ENDBRANCH  12  13
ENDBRANCH  11  12
ENDBRANCH   1  11
TORSDOF 14
ENDMDL
MODEL 5
REMARK VINA RESULT:    -3.414      2.138      3.831
REMARK INTER + INTRA:          -8.055
REMARK INTER:                  -5.947
REMARK INTRA:                  -2.108
REMARK UNBOUND:                -1.847
REMARK SMILES CCCCCCCCCCCCCCCC(=O)[O-]
REMARK SMILES IDX 9 1 10 2 11 3 12 4 13 5 14 6 15 7 16 8 17 9 18 10 8 11 7 12
REMARK SMILES IDX 6 13 5 14 4 15 3 16 2 17 1 18
REMARK H PARENT
REMARK Flexibility Score: inf
ROOT
ATOM      1  C   UNL     1    -101.150  71.874  25.531  1.00  0.00     0.000 C 
ENDROOT
BRANCH   1   2
ATOM      2  C   UNL     1    -102.047  70.652  25.784  1.00  0.00     0.000 C 
BRANCH   2   3
ATOM      3  C   UNL     1    -101.857  70.055  27.186  1.00  0.00     0.000 C 
BRANCH   3   4
ATOM      4  C   UNL     1    -101.011  68.775  27.129  1.00  0.00     0.000 C 
BRANCH   4   5
ATOM      5  C   UNL     1    -100.431  68.377  28.496  1.00  0.00     0.000 C 
BRANCH   5   6
ATOM      6  C   UNL     1     -98.939  68.733  28.664  1.00  0.00     0.006 C 
BRANCH   6   7
ATOM      7  C   UNL     1     -98.740  70.071  29.388  1.00  0.00     0.053 C 
BRANCH   7   8
ATOM      8  C   UNL     1     -99.639  70.161  30.581  1.00  0.00     0.041 C 
ATOM      9  O   UNL     1     -99.458  69.401  31.569  1.00  0.00    -0.550 OA
ATOM     10  O   UNL     1    -100.706  71.049  30.581  1.00  0.00    -0.550 OA
ENDBRANCH   7   8
ENDBRANCH   6   7
ENDBRANCH   5   6
ENDBRANCH   4   5
ENDBRANCH   3   4
ENDBRANCH   2   3
ENDBRANCH   1   2
BRANCH   1  11
ATOM     11  C   UNL     1    -100.033  72.014  26.581  1.00  0.00     0.000 C 
BRANCH  11  12
ATOM     12  C   UNL     1     -98.647  71.653  26.020  1.00  0.00    -0.000 C 
BRANCH  12  13
ATOM     13  C   UNL     1     -98.155  72.663  24.969  1.00  0.00    -0.000 C 
BRANCH  13  14
ATOM     14  C   UNL     1     -97.553  71.978  23.731  1.00  0.00    -0.000 C 
BRANCH  14  15
ATOM     15  C   UNL     1     -98.620  71.581  22.694  1.00  0.00    -0.000 C 
BRANCH  15  16
ATOM     16  C   UNL     1     -98.653  70.067  22.432  1.00  0.00    -0.000 C 
BRANCH  16  17
ATOM     17  C   UNL     1     -99.713  69.345  23.276  1.00  0.00    -0.003 C 
ATOM     18  C   UNL     1     -99.105  68.167  24.031  1.00  0.00     0.004 C 
ENDBRANCH  16  17
ENDBRANCH  15  16
ENDBRANCH  14  15
ENDBRANCH  13  14
ENDBRANCH  12  13
ENDBRANCH  11  12
ENDBRANCH   1  11
TORSDOF 14
ENDMDL
MODEL 6
REMARK VINA RESULT:    -3.413      1.877      3.493
REMARK INTER + INTRA:          -8.054
REMARK INTER:                  -5.341
REMARK INTRA:                  -2.713
REMARK UNBOUND:                -1.847
REMARK SMILES CCCCCCCCCCCCCCCC(=O)[O-]
REMARK SMILES IDX 9 1 10 2 11 3 12 4 13 5 14 6 15 7 16 8 17 9 18 10 8 11 7 12
REMARK SMILES IDX 6 13 5 14 4 15 3 16 2 17 1 18
REMARK H PARENT
REMARK Flexibility Score: inf
ROOT
ATOM      1  C   UNL     1     -99.116  72.943  25.533  1.00  0.00     0.000 C 
ENDROOT
BRANCH   1   2
ATOM      2  C   UNL     1     -99.555  71.635  26.211  1.00  0.00     0.000 C 
BRANCH   2   3
ATOM      3  C   UNL     1     -98.621  70.458  25.892  1.00  0.00     0.000 C 
BRANCH   3   4
ATOM      4  C   UNL     1     -99.399  69.134  25.854  1.00  0.00     0.000 C 
BRANCH   4   5
ATOM      5  C   UNL     1    -100.756  69.215  26.572  1.00  0.00     0.000 C 
BRANCH   5   6
ATOM      6  C   UNL     1    -100.800  68.439  27.904  1.00  0.00     0.006 C 
BRANCH   6   7
ATOM      7  C   UNL     1    -100.621  69.359  29.119  1.00  0.00     0.053 C 
BRANCH   7   8
ATOM      8  C   UNL     1     -99.171  69.503  29.459  1.00  0.00     0.041 C 
ATOM      9  O   UNL     1     -98.719  70.610  29.853  1.00  0.00    -0.550 OA
ATOM     10  O   UNL     1     -98.308  68.427  29.292  1.00  0.00    -0.550 OA
ENDBRANCH   7   8
ENDBRANCH   6   7
ENDBRANCH   5   6
ENDBRANCH   4   5
ENDBRANCH   3   4
ENDBRANCH   2   3
ENDBRANCH   1   2
BRANCH   1  11
ATOM     11  C   UNL     1     -97.807  72.785  24.738  1.00  0.00     0.000 C 
BRANCH  11  12
ATOM     12  C   UNL     1     -98.017  72.936  23.221  1.00  0.00    -0.000 C 
BRANCH  12  13
ATOM     13  C   UNL     1     -97.396  71.778  22.422  1.00  0.00    -0.000 C 
BRANCH  13  14
ATOM     14  C   UNL     1     -98.366  70.598  22.243  1.00  0.00    -0.000 C 
BRANCH  14  15
ATOM     15  C   UNL     1     -99.814  71.054  21.989  1.00  0.00    -0.000 C 
BRANCH  15  16
ATOM     16  C   UNL     1    -100.849  70.106  22.617  1.00  0.00    -0.000 C 
BRANCH  16  17
ATOM     17  C   UNL     1    -101.939  70.856  23.396  1.00  0.00    -0.003 C 
ATOM     18  C   UNL     1    -101.829  72.362  23.183  1.00  0.00     0.004 C 
ENDBRANCH  16  17
ENDBRANCH  15  16
ENDBRANCH  14  15
ENDBRANCH  13  14
ENDBRANCH  12  13
ENDBRANCH  11  12
ENDBRANCH   1  11
TORSDOF 14
ENDMDL
MODEL 7
REMARK VINA RESULT:    -3.365      1.954      3.816
REMARK INTER + INTRA:          -7.967
REMARK INTER:                  -5.583
REMARK INTRA:                  -2.384
REMARK UNBOUND:                -1.847
REMARK SMILES CCCCCCCCCCCCCCCC(=O)[O-]
REMARK SMILES IDX 9 1 10 2 11 3 12 4 13 5 14 6 15 7 16 8 17 9 18 10 8 11 7 12
REMARK SMILES IDX 6 13 5 14 4 15 3 16 2 17 1 18
REMARK H PARENT
REMARK Flexibility Score: inf
ROOT
ATOM      1  C   UNL     1     -98.645  71.824  26.130  1.00  0.00     0.000 C 
ENDROOT
BRANCH   1   2
ATOM      2  C   UNL     1     -98.621  72.117  27.639  1.00  0.00     0.000 C 
BRANCH   2   3
ATOM      3  C   UNL     1     -98.190  70.902  28.473  1.00  0.00     0.000 C 
BRANCH   3   4
ATOM      4  C   UNL     1     -98.379  69.598  27.684  1.00  0.00     0.000 C 
BRANCH   4   5
ATOM      5  C   UNL     1     -99.185  68.541  28.456  1.00  0.00     0.000 C 
BRANCH   5   6
ATOM      6  C   UNL     1    -100.710  68.776  28.418  1.00  0.00     0.006 C 
BRANCH   6   7
ATOM      7  C   UNL     1    -101.221  69.047  26.998  1.00  0.00     0.053 C 
BRANCH   7   8
ATOM      8  C   UNL     1    -101.936  70.359  26.939  1.00  0.00     0.041 C 
ATOM      9  O   UNL     1    -101.981  71.102  27.955  1.00  0.00    -0.550 OA
ATOM     10  O   UNL     1    -102.596  70.740  25.778  1.00  0.00    -0.550 OA
ENDBRANCH   7   8
ENDBRANCH   6   7
ENDBRANCH   5   6
ENDBRANCH   4   5
ENDBRANCH   3   4
ENDBRANCH   2   3
ENDBRANCH   1   2
BRANCH   1  11
ATOM     11  C   UNL     1     -99.311  72.950  25.320  1.00  0.00     0.000 C 
BRANCH  11  12
ATOM     12  C   UNL     1     -98.394  73.502  24.214  1.00  0.00    -0.000 C 
BRANCH  12  13
ATOM     13  C   UNL     1     -97.331  72.484  23.767  1.00  0.00    -0.000 C 
BRANCH  13  14
ATOM     14  C   UNL     1     -97.520  72.038  22.308  1.00  0.00    -0.000 C 
BRANCH  14  15
ATOM     15  C   UNL     1     -98.108  70.619  22.192  1.00  0.00    -0.000 C 
BRANCH  15  16
ATOM     16  C   UNL     1     -99.642  70.607  22.274  1.00  0.00    -0.000 C 
BRANCH  16  17
ATOM     17  C   UNL     1    -100.164  69.778  23.456  1.00  0.00    -0.003 C 
ATOM     18  C   UNL     1     -99.131  68.747  23.901  1.00  0.00     0.004 C 
ENDBRANCH  16  17
ENDBRANCH  15  16
ENDBRANCH  14  15
ENDBRANCH  13  14
ENDBRANCH  12  13
ENDBRANCH  11  12
ENDBRANCH   1  11
TORSDOF 14
ENDMDL
MODEL 8
REMARK VINA RESULT:    -3.352      1.661      3.328
REMARK INTER + INTRA:          -7.942
REMARK INTER:                  -5.853
REMARK INTRA:                  -2.089
REMARK UNBOUND:                -1.847
REMARK SMILES CCCCCCCCCCCCCCCC(=O)[O-]
REMARK SMILES IDX 9 1 10 2 11 3 12 4 13 5 14 6 15 7 16 8 17 9 18 10 8 11 7 12
REMARK SMILES IDX 6 13 5 14 4 15 3 16 2 17 1 18
REMARK H PARENT
REMARK Flexibility Score: inf
ROOT
ATOM      1  C   UNL     1     -97.078  73.169  24.596  1.00  0.00     0.000 C 
ENDROOT
BRANCH   1   2
ATOM      2  C   UNL     1     -98.509  73.724  24.530  1.00  0.00     0.000 C 
BRANCH   2   3
ATOM      3  C   UNL     1     -99.482  72.969  25.449  1.00  0.00     0.000 C 
BRANCH   3   4
ATOM      4  C   UNL     1     -98.821  71.714  26.035  1.00  0.00     0.000 C 
BRANCH   4   5
ATOM      5  C   UNL     1     -98.915  71.648  27.569  1.00  0.00     0.000 C 
BRANCH   5   6
ATOM      6  C   UNL     1     -98.238  70.402  28.178  1.00  0.00     0.006 C 
BRANCH   6   7
ATOM      7  C   UNL     1     -98.740  69.100  27.540  1.00  0.00     0.053 C 
BRANCH   7   8
ATOM      8  C   UNL     1    -100.144  68.812  27.969  1.00  0.00     0.041 C 
ATOM      9  O   UNL     1    -100.415  68.659  29.189  1.00  0.00    -0.550 OA
ATOM     10  O   UNL     1    -101.145  68.666  27.018  1.00  0.00    -0.550 OA
ENDBRANCH   7   8
ENDBRANCH   6   7
ENDBRANCH   5   6
ENDBRANCH   4   5
ENDBRANCH   3   4
ENDBRANCH   2   3
ENDBRANCH   1   2
BRANCH   1  11
ATOM     11  C   UNL     1     -96.136  73.839  23.580  1.00  0.00     0.000 C 
BRANCH  11  12
ATOM     12  C   UNL     1     -95.381  72.817  22.712  1.00  0.00    -0.000 C 
BRANCH  12  13
ATOM     13  C   UNL     1     -95.987  72.677  21.305  1.00  0.00    -0.000 C 
BRANCH  13  14
ATOM     14  C   UNL     1     -96.988  71.514  21.208  1.00  0.00    -0.000 C 
BRANCH  14  15
ATOM     15  C   UNL     1     -98.452  71.989  21.212  1.00  0.00    -0.000 C 
BRANCH  15  16
ATOM     16  C   UNL     1     -99.377  71.045  21.997  1.00  0.00    -0.000 C 
BRANCH  16  17
ATOM     17  C   UNL     1     -98.600  70.028  22.845  1.00  0.00    -0.003 C 
ATOM     18  C   UNL     1     -99.549  69.092  23.586  1.00  0.00     0.004 C 
ENDBRANCH  16  17
ENDBRANCH  15  16
ENDBRANCH  14  15
ENDBRANCH  13  14
ENDBRANCH  12  13
ENDBRANCH  11  12
ENDBRANCH   1  11
TORSDOF 14
ENDMDL
MODEL 9
REMARK VINA RESULT:    -3.328      2.417      4.044
REMARK INTER + INTRA:          -7.900
REMARK INTER:                  -5.126
REMARK INTRA:                  -2.774
REMARK UNBOUND:                -1.847
REMARK SMILES CCCCCCCCCCCCCCCC(=O)[O-]
REMARK SMILES IDX 9 1 10 2 11 3 12 4 13 5 14 6 15 7 16 8 17 9 18 10 8 11 7 12
REMARK SMILES IDX 6 13 5 14 4 15 3 16 2 17 1 18
REMARK H PARENT
REMARK Flexibility Score: inf
ROOT
ATOM      1  C   UNL     1     -98.372  71.007  24.279  1.00  0.00     0.000 C 
ENDROOT
BRANCH   1   2
ATOM      2  C   UNL     1     -98.971  69.811  23.523  1.00  0.00     0.000 C 
BRANCH   2   3
ATOM      3  C   UNL     1     -99.304  68.631  24.449  1.00  0.00     0.000 C 
BRANCH   3   4
ATOM      4  C   UNL     1     -99.352  69.080  25.917  1.00  0.00     0.000 C 
BRANCH   4   5
ATOM      5  C   UNL     1    -100.710  68.805  26.584  1.00  0.00     0.000 C 
BRANCH   5   6
ATOM      6  C   UNL     1    -100.779  69.261  28.056  1.00  0.00     0.006 C 
BRANCH   6   7
ATOM      7  C   UNL     1     -99.397  69.607  28.623  1.00  0.00     0.053 C 
BRANCH   7   8
ATOM      8  C   UNL     1     -99.062  68.709  29.773  1.00  0.00     0.041 C 
ATOM      9  O   UNL     1     -98.567  67.571  29.565  1.00  0.00    -0.550 OA
ATOM     10  O   UNL     1     -99.344  69.110  31.073  1.00  0.00    -0.550 OA
ENDBRANCH   7   8
ENDBRANCH   6   7
ENDBRANCH   5   6
ENDBRANCH   4   5
ENDBRANCH   3   4
ENDBRANCH   2   3
ENDBRANCH   1   2
BRANCH   1  11
ATOM     11  C   UNL     1     -98.648  72.348  23.576  1.00  0.00     0.000 C 
BRANCH  11  12
ATOM     12  C   UNL     1     -99.564  73.269  24.401  1.00  0.00    -0.000 C 
BRANCH  12  13
ATOM     13  C   UNL     1     -99.863  72.702  25.800  1.00  0.00    -0.000 C 
BRANCH  13  14
ATOM     14  C   UNL     1    -101.357  72.404  26.007  1.00  0.00    -0.000 C 
BRANCH  14  15
ATOM     15  C   UNL     1    -102.146  72.374  24.685  1.00  0.00    -0.000 C 
BRANCH  15  16
ATOM     16  C   UNL     1    -102.649  70.966  24.330  1.00  0.00    -0.000 C 
BRANCH  16  17
ATOM     17  C   UNL     1    -102.569  70.673  22.825  1.00  0.00    -0.003 C 
ATOM     18  C   UNL     1    -102.083  71.895  22.053  1.00  0.00     0.004 C 
ENDBRANCH  16  17
ENDBRANCH  15  16
ENDBRANCH  14  15
ENDBRANCH  13  14
ENDBRANCH  12  13
ENDBRANCH  11  12
ENDBRANCH   1  11
TORSDOF 14
ENDMDL
