MODEL 1
REMARK VINA RESULT:    -3.657      0.000      0.000
REMARK INTER + INTRA:          -3.764
REMARK INTER:                  -3.764
REMARK INTRA:                   0.000
REMARK UNBOUND:                 0.000
REMARK SMILES CC1(C)[C@H]2CC[C@](C)(C2)[C@@H]1O
REMARK SMILES IDX 1 1 2 2 4 3 5 4 6 5 7 6 9 7 10 8 8 9 3 10 11 11
REMARK H PARENT 11 12
REMARK Flexibility Score: inf
ROOT
ATOM      1  C   UNL     1      -2.732   2.636  -6.550  1.00  0.00     0.014 C 
ATOM      2  C   UNL     1      -1.832   3.502  -5.630  1.00  0.00    -0.006 C 
ATOM      3  C   UNL     1      -0.590   4.015  -6.437  1.00  0.00    -0.002 C 
ATOM      4  C   UNL     1       0.174   5.107  -5.657  1.00  0.00     0.005 C 
ATOM      5  C   UNL     1       0.768   4.327  -4.474  1.00  0.00     0.010 C 
ATOM      6  C   UNL     1       0.363   2.868  -4.789  1.00  0.00    -0.006 C 
ATOM      7  C   UNL     1       0.387   2.861  -6.302  1.00  0.00     0.013 C 
ATOM      8  C   UNL     1      -1.150   2.687  -4.478  1.00  0.00     0.126 C 
ATOM      9  C   UNL     1       1.291   1.831  -4.142  1.00  0.00     0.014 C 
ATOM     10  C   UNL     1      -2.715   4.642  -5.064  1.00  0.00     0.014 C 
ENDROOT
BRANCH   8  11
ATOM     11  O   UNL     1      -1.517   1.328  -4.519  1.00  0.00    -0.392 OA
ATOM     12  H   UNL     1      -2.014   1.136  -3.682  1.00  0.00     0.211 HD
ENDBRANCH   8  11
TORSDOF 1
ENDMDL
MODEL 2
REMARK VINA RESULT:    -3.426      1.808      3.462
REMARK INTER + INTRA:          -3.527
REMARK INTER:                  -3.527
REMARK INTRA:                   0.000
REMARK UNBOUND:                 0.000
REMARK SMILES CC1(C)[C@H]2CC[C@](C)(C2)[C@@H]1O
REMARK SMILES IDX 1 1 2 2 4 3 5 4 6 5 7 6 9 7 10 8 8 9 3 10 11 11
REMARK H PARENT 11 12
REMARK Flexibility Score: inf
ROOT
ATOM      1  C   UNL     1       1.696   2.951  -5.652  1.00  0.00     0.014 C 
ATOM      2  C   UNL     1       0.315   2.942  -4.945  1.00  0.00    -0.006 C 
ATOM      3  C   UNL     1      -0.828   3.019  -6.014  1.00  0.00    -0.002 C 
ATOM      4  C   UNL     1      -2.206   2.722  -5.385  1.00  0.00     0.005 C 
ATOM      5  C   UNL     1      -2.434   3.939  -4.475  1.00  0.00     0.010 C 
ATOM      6  C   UNL     1      -1.210   4.832  -4.787  1.00  0.00    -0.006 C 
ATOM      7  C   UNL     1      -0.960   4.514  -6.244  1.00  0.00     0.013 C 
ATOM      8  C   UNL     1       0.043   4.228  -4.092  1.00  0.00     0.126 C 
ATOM      9  C   UNL     1      -1.461   6.319  -4.504  1.00  0.00     0.014 C 
ATOM     10  C   UNL     1       0.257   1.666  -4.068  1.00  0.00     0.014 C 
ENDROOT
BRANCH   8  11
ATOM     11  O   UNL     1       1.130   5.122  -4.143  1.00  0.00    -0.392 OA
ATOM     12  H   UNL     1       0.903   5.818  -4.813  1.00  0.00     0.211 HD
ENDBRANCH   8  11
TORSDOF 1
ENDMDL
MODEL 3
REMARK VINA RESULT:    -3.356      1.822      2.514
REMARK INTER + INTRA:          -3.454
REMARK INTER:                  -3.454
REMARK INTRA:                   0.000
REMARK UNBOUND:                 0.000
REMARK SMILES CC1(C)[C@H]2CC[C@](C)(C2)[C@@H]1O
REMARK SMILES IDX 1 1 2 2 4 3 5 4 6 5 7 6 9 7 10 8 8 9 3 10 11 11
REMARK H PARENT 11 12
REMARK Flexibility Score: inf
ROOT
ATOM      1  C   UNL     1      -1.759   4.089  -4.197  1.00  0.00     0.014 C 
ATOM      2  C   UNL     1      -0.806   4.094  -5.421  1.00  0.00    -0.006 C 
ATOM      3  C   UNL     1      -0.497   2.621  -5.857  1.00  0.00    -0.002 C 
ATOM      4  C   UNL     1       0.203   2.578  -7.232  1.00  0.00     0.005 C 
ATOM      5  C   UNL     1       1.578   3.197  -6.933  1.00  0.00     0.010 C 
ATOM      6  C   UNL     1       1.530   3.411  -5.402  1.00  0.00    -0.006 C 
ATOM      7  C   UNL     1       0.667   2.251  -4.956  1.00  0.00     0.013 C 
ATOM      8  C   UNL     1       0.626   4.638  -5.093  1.00  0.00     0.126 C 
ATOM      9  C   UNL     1       2.921   3.444  -4.753  1.00  0.00     0.014 C 
ATOM     10  C   UNL     1      -1.485   4.937  -6.528  1.00  0.00     0.014 C 
ENDROOT
BRANCH   8  11
ATOM     11  O   UNL     1       0.737   5.021  -3.742  1.00  0.00    -0.392 OA
ATOM     12  H   UNL     1       1.046   5.965  -3.732  1.00  0.00     0.211 HD
ENDBRANCH   8  11
TORSDOF 1
ENDMDL
MODEL 4
REMARK VINA RESULT:    -3.351      1.255      1.391
REMARK INTER + INTRA:          -3.449
REMARK INTER:                  -3.449
REMARK INTRA:                   0.000
REMARK UNBOUND:                 0.000
REMARK SMILES CC1(C)[C@H]2CC[C@](C)(C2)[C@@H]1O
REMARK SMILES IDX 1 1 2 2 4 3 5 4 6 5 7 6 9 7 10 8 8 9 3 10 11 11
REMARK H PARENT 11 12
REMARK Flexibility Score: inf
ROOT
ATOM      1  C   UNL     1      -2.589   3.744  -5.251  1.00  0.00     0.014 C 
ATOM      2  C   UNL     1      -1.172   4.360  -5.390  1.00  0.00    -0.006 C 
ATOM      3  C   UNL     1      -0.496   3.845  -6.706  1.00  0.00    -0.002 C 
ATOM      4  C   UNL     1       0.781   4.647  -7.032  1.00  0.00     0.005 C 
ATOM      5  C   UNL     1       1.742   4.230  -5.908  1.00  0.00     0.010 C 
ATOM      6  C   UNL     1       0.930   3.155  -5.146  1.00  0.00    -0.006 C 
ATOM      7  C   UNL     1       0.122   2.531  -6.263  1.00  0.00     0.013 C 
ATOM      8  C   UNL     1      -0.166   3.861  -4.297  1.00  0.00     0.126 C 
ATOM      9  C   UNL     1       1.812   2.162  -4.379  1.00  0.00     0.014 C 
ATOM     10  C   UNL     1      -1.334   5.900  -5.340  1.00  0.00     0.014 C 
ENDROOT
BRANCH   8  11
ATOM     11  O   UNL     1      -0.776   2.958  -3.406  1.00  0.00    -0.392 OA
ATOM     12  H   UNL     1      -1.721   3.244  -3.303  1.00  0.00     0.211 HD
ENDBRANCH   8  11
TORSDOF 1
ENDMDL
MODEL 5
REMARK VINA RESULT:    -3.346      1.015      3.094
REMARK INTER + INTRA:          -3.444
REMARK INTER:                  -3.444
REMARK INTRA:                   0.000
REMARK UNBOUND:                 0.000
REMARK SMILES CC1(C)[C@H]2CC[C@](C)(C2)[C@@H]1O
REMARK SMILES IDX 1 1 2 2 4 3 5 4 6 5 7 6 9 7 10 8 8 9 3 10 11 11
REMARK H PARENT 11 12
REMARK Flexibility Score: inf
ROOT
ATOM      1  C   UNL     1       0.339   1.883  -4.107  1.00  0.00     0.014 C 
ATOM      2  C   UNL     1       0.067   2.915  -5.233  1.00  0.00    -0.006 C 
ATOM      3  C   UNL     1       0.072   4.364  -4.636  1.00  0.00    -0.002 C 
ATOM      4  C   UNL     1       0.096   5.431  -5.751  1.00  0.00     0.005 C 
ATOM      5  C   UNL     1      -1.289   5.277  -6.399  1.00  0.00     0.010 C 
ATOM      6  C   UNL     1      -1.971   4.220  -5.498  1.00  0.00    -0.006 C 
ATOM      7  C   UNL     1      -1.357   4.523  -4.149  1.00  0.00     0.013 C 
ATOM      8  C   UNL     1      -1.379   2.820  -5.829  1.00  0.00     0.126 C 
ATOM      9  C   UNL     1      -3.503   4.305  -5.524  1.00  0.00     0.014 C 
ATOM     10  C   UNL     1       1.139   2.694  -6.328  1.00  0.00     0.014 C 
ENDROOT
BRANCH   8  11
ATOM     11  O   UNL     1      -2.126   1.797  -5.214  1.00  0.00    -0.392 OA
ATOM     12  H   UNL     1      -2.274   2.071  -4.271  1.00  0.00     0.211 HD
ENDBRANCH   8  11
TORSDOF 1
ENDMDL
MODEL 6
REMARK VINA RESULT:    -3.341      1.265      3.295
REMARK INTER + INTRA:          -3.439
REMARK INTER:                  -3.439
REMARK INTRA:                   0.000
REMARK UNBOUND:                 0.000
REMARK SMILES CC1(C)[C@H]2CC[C@](C)(C2)[C@@H]1O
REMARK SMILES IDX 1 1 2 2 4 3 5 4 6 5 7 6 9 7 10 8 8 9 3 10 11 11
REMARK H PARENT 11 12
REMARK Flexibility Score: inf
ROOT
ATOM      1  C   UNL     1       0.505   2.204  -4.245  1.00  0.00     0.014 C 
ATOM      2  C   UNL     1      -0.231   3.459  -4.786  1.00  0.00    -0.006 C 
ATOM      3  C   UNL     1      -1.704   3.479  -4.253  1.00  0.00    -0.002 C 
ATOM      4  C   UNL     1      -2.380   4.840  -4.522  1.00  0.00     0.005 C 
ATOM      5  C   UNL     1      -2.514   4.857  -6.053  1.00  0.00     0.010 C 
ATOM      6  C   UNL     1      -2.002   3.454  -6.456  1.00  0.00    -0.006 C 
ATOM      7  C   UNL     1      -2.431   2.618  -5.270  1.00  0.00     0.013 C 
ATOM      8  C   UNL     1      -0.452   3.431  -6.337  1.00  0.00     0.126 C 
ATOM      9  C   UNL     1      -2.562   2.970  -7.800  1.00  0.00     0.014 C 
ATOM     10  C   UNL     1       0.598   4.696  -4.360  1.00  0.00     0.014 C 
ENDROOT
BRANCH   8  11
ATOM     11  O   UNL     1       0.083   2.263  -6.915  1.00  0.00    -0.392 OA
ATOM     12  H   UNL     1       0.889   2.021  -6.388  1.00  0.00     0.211 HD
ENDBRANCH   8  11
TORSDOF 1
ENDMDL
MODEL 7
REMARK VINA RESULT:    -3.267      1.968      3.578
REMARK INTER + INTRA:          -3.362
REMARK INTER:                  -3.362
REMARK INTRA:                   0.000
REMARK UNBOUND:                 0.000
REMARK SMILES CC1(C)[C@H]2CC[C@](C)(C2)[C@@H]1O
REMARK SMILES IDX 1 1 2 2 4 3 5 4 6 5 7 6 9 7 10 8 8 9 3 10 11 11
REMARK H PARENT 11 12
REMARK Flexibility Score: inf
ROOT
ATOM      1  C   UNL     1       2.470   2.528  -4.323  1.00  0.00     0.014 C 
ATOM      2  C   UNL     1       1.038   2.855  -4.819  1.00  0.00    -0.006 C 
ATOM      3  C   UNL     1       0.984   2.759  -6.383  1.00  0.00    -0.002 C 
ATOM      4  C   UNL     1      -0.471   2.789  -6.897  1.00  0.00     0.005 C 
ATOM      5  C   UNL     1      -0.916   4.225  -6.576  1.00  0.00     0.010 C 
ATOM      6  C   UNL     1       0.378   4.867  -6.022  1.00  0.00    -0.006 C 
ATOM      7  C   UNL     1       1.445   4.141  -6.811  1.00  0.00     0.013 C 
ATOM      8  C   UNL     1       0.619   4.346  -4.576  1.00  0.00     0.126 C 
ATOM      9  C   UNL     1       0.410   6.393  -6.180  1.00  0.00     0.014 C 
ATOM     10  C   UNL     1       0.070   1.878  -4.106  1.00  0.00     0.014 C 
ENDROOT
BRANCH   8  11
ATOM     11  O   UNL     1       1.643   5.073  -3.940  1.00  0.00    -0.392 OA
ATOM     12  H   UNL     1       1.248   5.935  -3.646  1.00  0.00     0.211 HD
ENDBRANCH   8  11
TORSDOF 1
ENDMDL
MODEL 8
REMARK VINA RESULT:    -3.209      1.771      2.745
REMARK INTER + INTRA:          -3.303
REMARK INTER:                  -3.303
REMARK INTRA:                   0.000
REMARK UNBOUND:                 0.000
REMARK SMILES CC1(C)[C@H]2CC[C@](C)(C2)[C@@H]1O
REMARK SMILES IDX 1 1 2 2 4 3 5 4 6 5 7 6 9 7 10 8 8 9 3 10 11 11
REMARK H PARENT 11 12
REMARK Flexibility Score: inf
ROOT
ATOM      1  C   UNL     1       0.151   5.001  -7.516  1.00  0.00     0.014 C 
ATOM      2  C   UNL     1      -0.325   3.721  -6.781  1.00  0.00    -0.006 C 
ATOM      3  C   UNL     1      -0.881   4.098  -5.365  1.00  0.00    -0.002 C 
ATOM      4  C   UNL     1      -1.625   2.911  -4.719  1.00  0.00     0.005 C 
ATOM      5  C   UNL     1      -0.493   1.909  -4.443  1.00  0.00     0.010 C 
ATOM      6  C   UNL     1       0.770   2.697  -4.862  1.00  0.00    -0.006 C 
ATOM      7  C   UNL     1       0.377   4.116  -4.514  1.00  0.00     0.013 C 
ATOM      8  C   UNL     1       0.843   2.742  -6.415  1.00  0.00     0.126 C 
ATOM      9  C   UNL     1       2.045   2.210  -4.162  1.00  0.00     0.014 C 
ATOM     10  C   UNL     1      -1.370   3.030  -7.691  1.00  0.00     0.014 C 
ENDROOT
BRANCH   8  11
ATOM     11  O   UNL     1       2.088   3.237  -6.849  1.00  0.00    -0.392 OA
ATOM     12  H   UNL     1       2.270   2.829  -7.736  1.00  0.00     0.211 HD
ENDBRANCH   8  11
TORSDOF 1
ENDMDL
MODEL 9
REMARK VINA RESULT:    -3.190     12.551     13.820
REMARK INTER + INTRA:          -3.283
REMARK INTER:                  -3.283
REMARK INTRA:                   0.000
REMARK UNBOUND:                 0.000
REMARK SMILES CC1(C)[C@H]2CC[C@](C)(C2)[C@@H]1O
REMARK SMILES IDX 1 1 2 2 4 3 5 4 6 5 7 6 9 7 10 8 8 9 3 10 11 11
REMARK H PARENT 11 12
REMARK Flexibility Score: inf
ROOT
ATOM      1  C   UNL     1      -0.887   0.319   6.102  1.00  0.00     0.014 C 
ATOM      2  C   UNL     1      -1.315   0.845   7.497  1.00  0.00    -0.006 C 
ATOM      3  C   UNL     1      -2.347  -0.143   8.141  1.00  0.00    -0.002 C 
ATOM      4  C   UNL     1      -2.578   0.181   9.632  1.00  0.00     0.005 C 
ATOM      5  C   UNL     1      -3.306   1.533   9.579  1.00  0.00     0.010 C 
ATOM      6  C   UNL     1      -3.501   1.756   8.060  1.00  0.00    -0.006 C 
ATOM      7  C   UNL     1      -3.665   0.338   7.559  1.00  0.00     0.013 C 
ATOM      8  C   UNL     1      -2.140   2.176   7.436  1.00  0.00     0.126 C 
ATOM      9  C   UNL     1      -4.682   2.678   7.732  1.00  0.00     0.014 C 
ATOM     10  C   UNL     1      -0.025   1.023   8.336  1.00  0.00     0.014 C 
ENDROOT
BRANCH   8  11
ATOM     11  O   UNL     1      -2.307   2.620   6.110  1.00  0.00    -0.392 OA
ATOM     12  H   UNL     1      -1.458   2.431   5.631  1.00  0.00     0.211 HD
ENDBRANCH   8  11
TORSDOF 1
ENDMDL
