MODEL 1
REMARK VINA RESULT:    -2.688      0.000      0.000
REMARK INTER + INTRA:         -10.614
REMARK INTER:                  -6.144
REMARK INTRA:                  -4.470
REMARK UNBOUND:                -4.470
REMARK SMILES CCCCCCCCCCCCCCCCCCCCCCCC(=O)[O-]
REMARK SMILES IDX 13 1 14 2 15 3 16 4 17 5 18 6 19 7 20 8 21 9 22 10 23 11
REMARK SMILES IDX 24 12 25 13 26 14 12 15 11 16 10 17 9 18 8 19 7 20 6 21 5 22
REMARK SMILES IDX 4 23 3 24 2 25 1 26
REMARK H PARENT
REMARK Flexibility Score: inf
ROOT
ATOM      1  C   UNL     1      62.336  29.938  58.305  1.00  0.00     0.000 C 
ENDROOT
BRANCH   1   2
ATOM      2  C   UNL     1      61.409  30.156  59.512  1.00  0.00     0.000 C 
BRANCH   2   3
ATOM      3  C   UNL     1      61.747  29.239  60.698  1.00  0.00     0.000 C 
BRANCH   3   4
ATOM      4  C   UNL     1      62.445  27.944  60.252  1.00  0.00     0.000 C 
BRANCH   4   5
ATOM      5  C   UNL     1      63.512  27.476  61.257  1.00  0.00     0.000 C 
BRANCH   5   6
ATOM      6  C   UNL     1      63.889  25.997  61.061  1.00  0.00     0.000 C 
BRANCH   6   7
ATOM      7  C   UNL     1      62.822  24.996  61.553  1.00  0.00     0.000 C 
BRANCH   7   8
ATOM      8  C   UNL     1      62.342  25.202  63.006  1.00  0.00     0.000 C 
BRANCH   8   9
ATOM      9  C   UNL     1      60.817  25.332  63.179  1.00  0.00     0.000 C 
BRANCH   9  10
ATOM     10  C   UNL     1      60.074  25.418  61.839  1.00  0.00     0.006 C 
BRANCH  10  11
ATOM     11  C   UNL     1      59.280  26.724  61.731  1.00  0.00     0.053 C 
BRANCH  11  12
ATOM     12  C   UNL     1      57.871  26.444  61.316  1.00  0.00     0.041 C 
ATOM     13  O   UNL     1      57.378  27.031  60.319  1.00  0.00    -0.550 OA
ATOM     14  O   UNL     1      57.083  25.581  62.068  1.00  0.00    -0.550 OA
ENDBRANCH  11  12
ENDBRANCH  10  11
ENDBRANCH   9  10
ENDBRANCH   8   9
ENDBRANCH   7   8
ENDBRANCH   6   7
ENDBRANCH   5   6
ENDBRANCH   4   5
ENDBRANCH   3   4
ENDBRANCH   2   3
ENDBRANCH   1   2
BRANCH   1  15
ATOM     15  C   UNL     1      62.978  31.241  57.804  1.00  0.00     0.000 C 
BRANCH  15  16
ATOM     16  C   UNL     1      62.287  32.472  58.407  1.00  0.00     0.000 C 
BRANCH  16  17
ATOM     17  C   UNL     1      63.262  33.409  59.135  1.00  0.00     0.000 C 
BRANCH  17  18
ATOM     18  C   UNL     1      64.676  32.818  59.259  1.00  0.00    -0.000 C 
BRANCH  18  19
ATOM     19  C   UNL     1      65.013  32.371  60.695  1.00  0.00    -0.000 C 
BRANCH  19  20
ATOM     20  C   UNL     1      65.033  30.844  60.916  1.00  0.00    -0.000 C 
BRANCH  20  21
ATOM     21  C   UNL     1      66.219  30.096  60.270  1.00  0.00    -0.000 C 
BRANCH  21  22
ATOM     22  C   UNL     1      65.849  29.192  59.079  1.00  0.00    -0.000 C 
BRANCH  22  23
ATOM     23  C   UNL     1      66.544  27.823  59.136  1.00  0.00    -0.000 C 
BRANCH  23  24
ATOM     24  C   UNL     1      65.980  26.828  58.109  1.00  0.00    -0.000 C 
BRANCH  24  25
ATOM     25  C   UNL     1      64.778  27.378  57.312  1.00  0.00    -0.003 C 
ATOM     26  C   UNL     1      63.655  26.351  57.179  1.00  0.00     0.004 C 
ENDBRANCH  24  25
ENDBRANCH  23  24
ENDBRANCH  22  23
ENDBRANCH  21  22
ENDBRANCH  20  21
ENDBRANCH  19  20
ENDBRANCH  18  19
ENDBRANCH  17  18
ENDBRANCH  16  17
ENDBRANCH  15  16
ENDBRANCH   1  15
TORSDOF 22
ENDMDL
MODEL 2
REMARK VINA RESULT:    -2.644      9.359     13.008
REMARK INTER + INTRA:         -10.514
REMARK INTER:                  -6.277
REMARK INTRA:                  -4.237
REMARK UNBOUND:                -4.470
REMARK SMILES CCCCCCCCCCCCCCCCCCCCCCCC(=O)[O-]
REMARK SMILES IDX 13 1 14 2 15 3 16 4 17 5 18 6 19 7 20 8 21 9 22 10 23 11
REMARK SMILES IDX 24 12 25 13 26 14 12 15 11 16 10 17 9 18 8 19 7 20 6 21 5 22
REMARK SMILES IDX 4 23 3 24 2 25 1 26
REMARK H PARENT
REMARK Flexibility Score: inf
ROOT
ATOM      1  C   UNL     1      60.478  22.183  53.832  1.00  0.00     0.000 C 
ENDROOT
BRANCH   1   2
ATOM      2  C   UNL     1      60.003  23.290  52.877  1.00  0.00     0.000 C 
BRANCH   2   3
ATOM      3  C   UNL     1      59.794  24.639  53.583  1.00  0.00     0.000 C 
BRANCH   3   4
ATOM      4  C   UNL     1      58.314  24.908  53.901  1.00  0.00     0.000 C 
BRANCH   4   5
ATOM      5  C   UNL     1      57.387  24.554  52.725  1.00  0.00     0.000 C 
BRANCH   5   6
ATOM      6  C   UNL     1      56.806  25.804  52.042  1.00  0.00     0.000 C 
BRANCH   6   7
ATOM      7  C   UNL     1      57.334  26.053  50.613  1.00  0.00     0.000 C 
BRANCH   7   8
ATOM      8  C   UNL     1      58.371  25.028  50.103  1.00  0.00     0.000 C 
BRANCH   8   9
ATOM      9  C   UNL     1      59.734  25.621  49.699  1.00  0.00     0.000 C 
BRANCH   9  10
ATOM     10  C   UNL     1      60.100  26.871  50.513  1.00  0.00     0.006 C 
BRANCH  10  11
ATOM     11  C   UNL     1      61.548  26.801  51.009  1.00  0.00     0.053 C 
BRANCH  11  12
ATOM     12  C   UNL     1      62.486  26.649  49.856  1.00  0.00     0.041 C 
ATOM     13  O   UNL     1      62.553  27.543  48.973  1.00  0.00    -0.550 OA
ATOM     14  O   UNL     1      63.243  25.491  49.723  1.00  0.00    -0.550 OA
ENDBRANCH  11  12
ENDBRANCH  10  11
ENDBRANCH   9  10
ENDBRANCH   8   9
ENDBRANCH   7   8
ENDBRANCH   6   7
ENDBRANCH   5   6
ENDBRANCH   4   5
ENDBRANCH   3   4
ENDBRANCH   2   3
ENDBRANCH   1   2
BRANCH   1  15
ATOM     15  C   UNL     1      59.516  20.986  53.883  1.00  0.00     0.000 C 
BRANCH  15  16
ATOM     16  C   UNL     1      58.472  21.061  52.760  1.00  0.00     0.000 C 
BRANCH  16  17
ATOM     17  C   UNL     1      57.074  20.612  53.211  1.00  0.00     0.000 C 
BRANCH  17  18
ATOM     18  C   UNL     1      56.603  19.329  52.504  1.00  0.00    -0.000 C 
BRANCH  18  19
ATOM     19  C   UNL     1      57.478  18.107  52.841  1.00  0.00    -0.000 C 
BRANCH  19  20
ATOM     20  C   UNL     1      58.047  17.354  51.621  1.00  0.00    -0.000 C 
BRANCH  20  21
ATOM     21  C   UNL     1      57.810  18.032  50.254  1.00  0.00    -0.000 C 
BRANCH  21  22
ATOM     22  C   UNL     1      59.054  18.691  49.628  1.00  0.00    -0.000 C 
BRANCH  22  23
ATOM     23  C   UNL     1      60.285  18.621  50.545  1.00  0.00    -0.000 C 
BRANCH  23  24
ATOM     24  C   UNL     1      61.090  19.930  50.558  1.00  0.00    -0.000 C 
BRANCH  24  25
ATOM     25  C   UNL     1      60.452  21.056  49.717  1.00  0.00    -0.003 C 
ATOM     26  C   UNL     1      61.414  22.219  49.485  1.00  0.00     0.004 C 
ENDBRANCH  24  25
ENDBRANCH  23  24
ENDBRANCH  22  23
ENDBRANCH  21  22
ENDBRANCH  20  21
ENDBRANCH  19  20
ENDBRANCH  18  19
ENDBRANCH  17  18
ENDBRANCH  16  17
ENDBRANCH  15  16
ENDBRANCH   1  15
TORSDOF 22
ENDMDL
MODEL 3
REMARK VINA RESULT:    -2.643     10.015     12.987
REMARK INTER + INTRA:         -10.513
REMARK INTER:                  -7.510
REMARK INTRA:                  -3.003
REMARK UNBOUND:                -4.470
REMARK SMILES CCCCCCCCCCCCCCCCCCCCCCCC(=O)[O-]
REMARK SMILES IDX 13 1 14 2 15 3 16 4 17 5 18 6 19 7 20 8 21 9 22 10 23 11
REMARK SMILES IDX 24 12 25 13 26 14 12 15 11 16 10 17 9 18 8 19 7 20 6 21 5 22
REMARK SMILES IDX 4 23 3 24 2 25 1 26
REMARK H PARENT
REMARK Flexibility Score: inf
ROOT
ATOM      1  C   UNL     1      65.193  26.519  50.334  1.00  0.00     0.000 C 
ENDROOT
BRANCH   1   2
ATOM      2  C   UNL     1      66.529  26.404  49.581  1.00  0.00     0.000 C 
BRANCH   2   3
ATOM      3  C   UNL     1      66.392  25.692  48.226  1.00  0.00     0.000 C 
BRANCH   3   4
ATOM      4  C   UNL     1      66.981  26.519  47.071  1.00  0.00     0.000 C 
BRANCH   4   5
ATOM      5  C   UNL     1      66.118  27.744  46.725  1.00  0.00     0.000 C 
BRANCH   5   6
ATOM      6  C   UNL     1      66.812  29.069  47.084  1.00  0.00     0.000 C 
BRANCH   6   7
ATOM      7  C   UNL     1      65.924  30.062  47.865  1.00  0.00     0.000 C 
BRANCH   7   8
ATOM      8  C   UNL     1      64.570  29.499  48.348  1.00  0.00     0.000 C 
BRANCH   8   9
ATOM      9  C   UNL     1      64.108  30.004  49.728  1.00  0.00     0.000 C 
BRANCH   9  10
ATOM     10  C   UNL     1      63.031  31.094  49.630  1.00  0.00     0.006 C 
BRANCH  10  11
ATOM     11  C   UNL     1      63.585  32.457  50.058  1.00  0.00     0.053 C 
BRANCH  11  12
ATOM     12  C   UNL     1      63.797  33.330  48.863  1.00  0.00     0.041 C 
ATOM     13  O   UNL     1      64.963  33.617  48.490  1.00  0.00    -0.550 OA
ATOM     14  O   UNL     1      62.706  33.878  48.199  1.00  0.00    -0.550 OA
ENDBRANCH  11  12
ENDBRANCH  10  11
ENDBRANCH   9  10
ENDBRANCH   8   9
ENDBRANCH   7   8
ENDBRANCH   6   7
ENDBRANCH   5   6
ENDBRANCH   4   5
ENDBRANCH   3   4
ENDBRANCH   2   3
ENDBRANCH   1   2
BRANCH   1  15
ATOM     15  C   UNL     1      63.981  26.185  49.451  1.00  0.00     0.000 C 
BRANCH  15  16
ATOM     16  C   UNL     1      63.003  25.251  50.177  1.00  0.00     0.000 C 
BRANCH  16  17
ATOM     17  C   UNL     1      61.717  25.963  50.626  1.00  0.00     0.000 C 
BRANCH  17  18
ATOM     18  C   UNL     1      61.032  26.731  49.484  1.00  0.00    -0.000 C 
BRANCH  18  19
ATOM     19  C   UNL     1      60.858  28.230  49.793  1.00  0.00    -0.000 C 
BRANCH  19  20
ATOM     20  C   UNL     1      60.648  28.570  51.283  1.00  0.00    -0.000 C 
BRANCH  20  21
ATOM     21  C   UNL     1      59.177  28.629  51.750  1.00  0.00    -0.000 C 
BRANCH  21  22
ATOM     22  C   UNL     1      58.615  27.304  52.301  1.00  0.00    -0.000 C 
BRANCH  22  23
ATOM     23  C   UNL     1      57.174  27.035  51.840  1.00  0.00    -0.000 C 
BRANCH  23  24
ATOM     24  C   UNL     1      57.045  25.742  51.019  1.00  0.00    -0.000 C 
BRANCH  24  25
ATOM     25  C   UNL     1      55.881  25.767  50.006  1.00  0.00    -0.003 C 
ATOM     26  C   UNL     1      54.908  26.914  50.273  1.00  0.00     0.004 C 
ENDBRANCH  24  25
ENDBRANCH  23  24
ENDBRANCH  22  23
ENDBRANCH  21  22
ENDBRANCH  20  21
ENDBRANCH  19  20
ENDBRANCH  18  19
ENDBRANCH  17  18
ENDBRANCH  16  17
ENDBRANCH  15  16
ENDBRANCH   1  15
TORSDOF 22
ENDMDL
MODEL 4
REMARK VINA RESULT:    -2.632      2.722      5.733
REMARK INTER + INTRA:         -10.487
REMARK INTER:                  -6.731
REMARK INTRA:                  -3.756
REMARK UNBOUND:                -4.470
REMARK SMILES CCCCCCCCCCCCCCCCCCCCCCCC(=O)[O-]
REMARK SMILES IDX 13 1 14 2 15 3 16 4 17 5 18 6 19 7 20 8 21 9 22 10 23 11
REMARK SMILES IDX 24 12 25 13 26 14 12 15 11 16 10 17 9 18 8 19 7 20 6 21 5 22
REMARK SMILES IDX 4 23 3 24 2 25 1 26
REMARK H PARENT
REMARK Flexibility Score: inf
ROOT
ATOM      1  C   UNL     1      64.759  33.328  60.057  1.00  0.00     0.000 C 
ENDROOT
BRANCH   1   2
ATOM      2  C   UNL     1      64.528  34.544  60.969  1.00  0.00     0.000 C 
BRANCH   2   3
ATOM      3  C   UNL     1      63.243  35.314  60.625  1.00  0.00     0.000 C 
BRANCH   3   4
ATOM      4  C   UNL     1      62.785  35.065  59.179  1.00  0.00     0.000 C 
BRANCH   4   5
ATOM      5  C   UNL     1      61.253  35.002  59.051  1.00  0.00     0.000 C 
BRANCH   5   6
ATOM      6  C   UNL     1      60.776  33.713  58.360  1.00  0.00     0.000 C 
BRANCH   6   7
ATOM      7  C   UNL     1      61.517  32.436  58.813  1.00  0.00     0.000 C 
BRANCH   7   8
ATOM      8  C   UNL     1      62.060  31.547  57.673  1.00  0.00     0.000 C 
BRANCH   8   9
ATOM      9  C   UNL     1      61.731  30.048  57.800  1.00  0.00     0.000 C 
BRANCH   9  10
ATOM     10  C   UNL     1      60.481  29.785  58.651  1.00  0.00     0.006 C 
BRANCH  10  11
ATOM     11  C   UNL     1      59.307  29.325  57.780  1.00  0.00     0.053 C 
BRANCH  11  12
ATOM     12  C   UNL     1      58.677  30.494  57.096  1.00  0.00     0.041 C 
ATOM     13  O   UNL     1      58.777  30.625  55.848  1.00  0.00    -0.550 OA
ATOM     14  O   UNL     1      58.032  31.473  57.842  1.00  0.00    -0.550 OA
ENDBRANCH  11  12
ENDBRANCH  10  11
ENDBRANCH   9  10
ENDBRANCH   8   9
ENDBRANCH   7   8
ENDBRANCH   6   7
ENDBRANCH   5   6
ENDBRANCH   4   5
ENDBRANCH   3   4
ENDBRANCH   2   3
ENDBRANCH   1   2
BRANCH   1  15
ATOM     15  C   UNL     1      65.163  32.067  60.836  1.00  0.00     0.000 C 
BRANCH  15  16
ATOM     16  C   UNL     1      64.358  30.844  60.374  1.00  0.00     0.000 C 
BRANCH  16  17
ATOM     17  C   UNL     1      64.257  29.753  61.451  1.00  0.00     0.000 C 
BRANCH  17  18
ATOM     18  C   UNL     1      62.874  29.081  61.491  1.00  0.00    -0.000 C 
BRANCH  18  19
ATOM     19  C   UNL     1      62.947  27.553  61.309  1.00  0.00    -0.000 C 
BRANCH  19  20
ATOM     20  C   UNL     1      62.776  27.058  59.858  1.00  0.00    -0.000 C 
BRANCH  20  21
ATOM     21  C   UNL     1      64.087  26.726  59.112  1.00  0.00    -0.000 C 
BRANCH  21  22
ATOM     22  C   UNL     1      65.281  26.374  60.019  1.00  0.00    -0.000 C 
BRANCH  22  23
ATOM     23  C   UNL     1      66.556  27.148  59.647  1.00  0.00    -0.000 C 
BRANCH  23  24
ATOM     24  C   UNL     1      67.165  27.896  60.844  1.00  0.00    -0.000 C 
BRANCH  24  25
ATOM     25  C   UNL     1      68.137  29.024  60.437  1.00  0.00    -0.003 C 
ATOM     26  C   UNL     1      67.693  29.737  59.161  1.00  0.00     0.004 C 
ENDBRANCH  24  25
ENDBRANCH  23  24
ENDBRANCH  22  23
ENDBRANCH  21  22
ENDBRANCH  20  21
ENDBRANCH  19  20
ENDBRANCH  18  19
ENDBRANCH  17  18
ENDBRANCH  16  17
ENDBRANCH  15  16
ENDBRANCH   1  15
TORSDOF 22
ENDMDL
MODEL 5
REMARK VINA RESULT:    -2.631      9.354     11.092
REMARK INTER + INTRA:         -10.484
REMARK INTER:                  -7.263
REMARK INTRA:                  -3.220
REMARK UNBOUND:                -4.470
REMARK SMILES CCCCCCCCCCCCCCCCCCCCCCCC(=O)[O-]
REMARK SMILES IDX 13 1 14 2 15 3 16 4 17 5 18 6 19 7 20 8 21 9 22 10 23 11
REMARK SMILES IDX 24 12 25 13 26 14 12 15 11 16 10 17 9 18 8 19 7 20 6 21 5 22
REMARK SMILES IDX 4 23 3 24 2 25 1 26
REMARK H PARENT
REMARK Flexibility Score: inf
ROOT
ATOM      1  C   UNL     1      58.074  28.915  52.727  1.00  0.00     0.000 C 
ENDROOT
BRANCH   1   2
ATOM      2  C   UNL     1      56.583  29.207  52.492  1.00  0.00     0.000 C 
BRANCH   2   3
ATOM      3  C   UNL     1      55.658  28.257  53.269  1.00  0.00     0.000 C 
BRANCH   3   4
ATOM      4  C   UNL     1      54.664  27.531  52.349  1.00  0.00     0.000 C 
BRANCH   4   5
ATOM      5  C   UNL     1      54.888  27.862  50.864  1.00  0.00     0.000 C 
BRANCH   5   6
ATOM      6  C   UNL     1      54.995  26.598  49.993  1.00  0.00     0.000 C 
BRANCH   6   7
ATOM      7  C   UNL     1      56.049  25.578  50.476  1.00  0.00     0.000 C 
BRANCH   7   8
ATOM      8  C   UNL     1      57.483  26.130  50.625  1.00  0.00     0.000 C 
BRANCH   8   9
ATOM      9  C   UNL     1      58.591  25.241  50.030  1.00  0.00     0.000 C 
BRANCH   9  10
ATOM     10  C   UNL     1      59.130  24.214  51.035  1.00  0.00     0.006 C 
BRANCH  10  11
ATOM     11  C   UNL     1      60.605  24.475  51.354  1.00  0.00     0.053 C 
BRANCH  11  12
ATOM     12  C   UNL     1      61.483  23.634  50.484  1.00  0.00     0.041 C 
ATOM     13  O   UNL     1      62.727  23.822  50.472  1.00  0.00    -0.550 OA
ATOM     14  O   UNL     1      60.921  22.684  49.640  1.00  0.00    -0.550 OA
ENDBRANCH  11  12
ENDBRANCH  10  11
ENDBRANCH   9  10
ENDBRANCH   8   9
ENDBRANCH   7   8
ENDBRANCH   6   7
ENDBRANCH   5   6
ENDBRANCH   4   5
ENDBRANCH   3   4
ENDBRANCH   2   3
ENDBRANCH   1   2
BRANCH   1  15
ATOM     15  C   UNL     1      58.972  30.128  52.439  1.00  0.00     0.000 C 
BRANCH  15  16
ATOM     16  C   UNL     1      60.413  29.695  52.130  1.00  0.00     0.000 C 
BRANCH  16  17
ATOM     17  C   UNL     1      60.488  28.358  51.377  1.00  0.00     0.000 C 
BRANCH  17  18
ATOM     18  C   UNL     1      60.831  28.532  49.888  1.00  0.00    -0.000 C 
BRANCH  18  19
ATOM     19  C   UNL     1      61.614  27.337  49.312  1.00  0.00    -0.000 C 
BRANCH  19  20
ATOM     20  C   UNL     1      63.091  27.252  49.750  1.00  0.00    -0.000 C 
BRANCH  20  21
ATOM     21  C   UNL     1      64.118  27.158  48.601  1.00  0.00    -0.000 C 
BRANCH  21  22
ATOM     22  C   UNL     1      64.381  28.478  47.853  1.00  0.00    -0.000 C 
BRANCH  22  23
ATOM     23  C   UNL     1      65.593  29.242  48.409  1.00  0.00    -0.000 C 
BRANCH  23  24
ATOM     24  C   UNL     1      65.199  30.560  49.097  1.00  0.00    -0.000 C 
BRANCH  24  25
ATOM     25  C   UNL     1      63.683  30.844  49.064  1.00  0.00    -0.003 C 
ATOM     26  C   UNL     1      63.181  31.452  50.373  1.00  0.00     0.004 C 
ENDBRANCH  24  25
ENDBRANCH  23  24
ENDBRANCH  22  23
ENDBRANCH  21  22
ENDBRANCH  20  21
ENDBRANCH  19  20
ENDBRANCH  18  19
ENDBRANCH  17  18
ENDBRANCH  16  17
ENDBRANCH  15  16
ENDBRANCH   1  15
TORSDOF 22
ENDMDL
MODEL 6
REMARK VINA RESULT:    -2.625     10.298     14.476
REMARK INTER + INTRA:         -10.471
REMARK INTER:                  -7.458
REMARK INTRA:                  -3.012
REMARK UNBOUND:                -4.470
REMARK SMILES CCCCCCCCCCCCCCCCCCCCCCCC(=O)[O-]
REMARK SMILES IDX 13 1 14 2 15 3 16 4 17 5 18 6 19 7 20 8 21 9 22 10 23 11
REMARK SMILES IDX 24 12 25 13 26 14 12 15 11 16 10 17 9 18 8 19 7 20 6 21 5 22
REMARK SMILES IDX 4 23 3 24 2 25 1 26
REMARK H PARENT
REMARK Flexibility Score: inf
ROOT
ATOM      1  C   UNL     1      60.980  19.756  52.197  1.00  0.00     0.000 C 
ENDROOT
BRANCH   1   2
ATOM      2  C   UNL     1      60.130  20.578  51.214  1.00  0.00     0.000 C 
BRANCH   2   3
ATOM      3  C   UNL     1      60.535  20.360  49.747  1.00  0.00     0.000 C 
BRANCH   3   4
ATOM      4  C   UNL     1      61.176  21.612  49.128  1.00  0.00     0.000 C 
BRANCH   4   5
ATOM      5  C   UNL     1      60.631  22.914  49.739  1.00  0.00     0.000 C 
BRANCH   5   6
ATOM      6  C   UNL     1      61.752  23.820  50.279  1.00  0.00     0.000 C 
BRANCH   6   7
ATOM      7  C   UNL     1      61.255  25.127  50.934  1.00  0.00     0.000 C 
BRANCH   7   8
ATOM      8  C   UNL     1      60.327  25.995  50.056  1.00  0.00     0.000 C 
BRANCH   8   9
ATOM      9  C   UNL     1      61.028  27.137  49.295  1.00  0.00     0.000 C 
BRANCH   9  10
ATOM     10  C   UNL     1      61.191  28.403  50.147  1.00  0.00     0.006 C 
BRANCH  10  11
ATOM     11  C   UNL     1      62.635  28.556  50.637  1.00  0.00     0.053 C 
BRANCH  11  12
ATOM     12  C   UNL     1      63.194  29.874  50.207  1.00  0.00     0.041 C 
ATOM     13  O   UNL     1      62.520  30.634  49.464  1.00  0.00    -0.550 OA
ATOM     14  O   UNL     1      64.483  30.237  50.576  1.00  0.00    -0.550 OA
ENDBRANCH  11  12
ENDBRANCH  10  11
ENDBRANCH   9  10
ENDBRANCH   8   9
ENDBRANCH   7   8
ENDBRANCH   6   7
ENDBRANCH   5   6
ENDBRANCH   4   5
ENDBRANCH   3   4
ENDBRANCH   2   3
ENDBRANCH   1   2
BRANCH   1  15
ATOM     15  C   UNL     1      61.394  18.390  51.630  1.00  0.00     0.000 C 
BRANCH  15  16
ATOM     16  C   UNL     1      60.513  17.263  52.190  1.00  0.00     0.000 C 
BRANCH  16  17
ATOM     17  C   UNL     1      60.183  16.187  51.144  1.00  0.00     0.000 C 
BRANCH  17  18
ATOM     18  C   UNL     1      59.464  16.756  49.909  1.00  0.00    -0.000 C 
BRANCH  18  19
ATOM     19  C   UNL     1      57.938  16.846  50.095  1.00  0.00    -0.000 C 
BRANCH  19  20
ATOM     20  C   UNL     1      57.388  18.271  50.311  1.00  0.00    -0.000 C 
BRANCH  20  21
ATOM     21  C   UNL     1      56.474  18.450  51.543  1.00  0.00    -0.000 C 
BRANCH  21  22
ATOM     22  C   UNL     1      56.947  19.508  52.557  1.00  0.00    -0.000 C 
BRANCH  22  23
ATOM     23  C   UNL     1      57.635  18.888  53.783  1.00  0.00    -0.000 C 
BRANCH  23  24
ATOM     24  C   UNL     1      57.293  17.400  53.965  1.00  0.00    -0.000 C 
BRANCH  24  25
ATOM     25  C   UNL     1      56.337  17.126  55.145  1.00  0.00    -0.003 C 
ATOM     26  C   UNL     1      54.869  17.221  54.733  1.00  0.00     0.004 C 
ENDBRANCH  24  25
ENDBRANCH  23  24
ENDBRANCH  22  23
ENDBRANCH  21  22
ENDBRANCH  20  21
ENDBRANCH  19  20
ENDBRANCH  18  19
ENDBRANCH  17  18
ENDBRANCH  16  17
ENDBRANCH  15  16
ENDBRANCH   1  15
TORSDOF 22
ENDMDL
MODEL 7
REMARK VINA RESULT:    -2.605      8.688     12.239
REMARK INTER + INTRA:         -10.426
REMARK INTER:                  -6.257
REMARK INTRA:                  -4.169
REMARK UNBOUND:                -4.470
REMARK SMILES CCCCCCCCCCCCCCCCCCCCCCCC(=O)[O-]
REMARK SMILES IDX 13 1 14 2 15 3 16 4 17 5 18 6 19 7 20 8 21 9 22 10 23 11
REMARK SMILES IDX 24 12 25 13 26 14 12 15 11 16 10 17 9 18 8 19 7 20 6 21 5 22
REMARK SMILES IDX 4 23 3 24 2 25 1 26
REMARK H PARENT
REMARK Flexibility Score: inf
ROOT
ATOM      1  C   UNL     1      61.733  28.345  53.038  1.00  0.00     0.000 C 
ENDROOT
BRANCH   1   2
ATOM      2  C   UNL     1      61.055  29.491  52.269  1.00  0.00     0.000 C 
BRANCH   2   3
ATOM      3  C   UNL     1      60.155  28.994  51.127  1.00  0.00     0.000 C 
BRANCH   3   4
ATOM      4  C   UNL     1      60.919  28.862  49.800  1.00  0.00     0.000 C 
BRANCH   4   5
ATOM      5  C   UNL     1      61.128  27.395  49.386  1.00  0.00     0.000 C 
BRANCH   5   6
ATOM      6  C   UNL     1      62.569  26.916  49.635  1.00  0.00     0.000 C 
BRANCH   6   7
ATOM      7  C   UNL     1      63.657  27.926  49.211  1.00  0.00     0.000 C 
BRANCH   7   8
ATOM      8  C   UNL     1      64.404  28.618  50.372  1.00  0.00     0.000 C 
BRANCH   8   9
ATOM      9  C   UNL     1      64.851  30.065  50.092  1.00  0.00     0.000 C 
BRANCH   9  10
ATOM     10  C   UNL     1      63.728  31.087  50.318  1.00  0.00     0.006 C 
BRANCH  10  11
ATOM     11  C   UNL     1      63.192  31.622  48.986  1.00  0.00     0.053 C 
BRANCH  11  12
ATOM     12  C   UNL     1      63.476  33.084  48.861  1.00  0.00     0.041 C 
ATOM     13  O   UNL     1      62.680  33.830  48.235  1.00  0.00    -0.550 OA
ATOM     14  O   UNL     1      64.651  33.612  49.383  1.00  0.00    -0.550 OA
ENDBRANCH  11  12
ENDBRANCH  10  11
ENDBRANCH   9  10
ENDBRANCH   8   9
ENDBRANCH   7   8
ENDBRANCH   6   7
ENDBRANCH   5   6
ENDBRANCH   4   5
ENDBRANCH   3   4
ENDBRANCH   2   3
ENDBRANCH   1   2
BRANCH   1  15
ATOM     15  C   UNL     1      60.747  27.245  53.460  1.00  0.00     0.000 C 
BRANCH  15  16
ATOM     16  C   UNL     1      61.112  25.895  52.826  1.00  0.00     0.000 C 
BRANCH  16  17
ATOM     17  C   UNL     1      59.907  24.951  52.691  1.00  0.00     0.000 C 
BRANCH  17  18
ATOM     18  C   UNL     1      58.596  25.698  52.394  1.00  0.00    -0.000 C 
BRANCH  18  19
ATOM     19  C   UNL     1      58.322  25.845  50.885  1.00  0.00    -0.000 C 
BRANCH  19  20
ATOM     20  C   UNL     1      56.870  25.551  50.453  1.00  0.00    -0.000 C 
BRANCH  20  21
ATOM     21  C   UNL     1      55.861  25.359  51.606  1.00  0.00    -0.000 C 
BRANCH  21  22
ATOM     22  C   UNL     1      54.733  26.405  51.665  1.00  0.00    -0.000 C 
BRANCH  22  23
ATOM     23  C   UNL     1      55.078  27.693  50.900  1.00  0.00    -0.000 C 
BRANCH  23  24
ATOM     24  C   UNL     1      55.327  28.888  51.834  1.00  0.00    -0.000 C 
BRANCH  24  25
ATOM     25  C   UNL     1      56.810  29.070  52.223  1.00  0.00    -0.003 C 
ATOM     26  C   UNL     1      57.063  28.754  53.696  1.00  0.00     0.004 C 
ENDBRANCH  24  25
ENDBRANCH  23  24
ENDBRANCH  22  23
ENDBRANCH  21  22
ENDBRANCH  20  21
ENDBRANCH  19  20
ENDBRANCH  18  19
ENDBRANCH  17  18
ENDBRANCH  16  17
ENDBRANCH  15  16
ENDBRANCH   1  15
TORSDOF 22
ENDMDL
MODEL 8
REMARK VINA RESULT:    -2.602      9.513     11.923
REMARK INTER + INTRA:         -10.419
REMARK INTER:                  -7.249
REMARK INTRA:                  -3.170
REMARK UNBOUND:                -4.470
REMARK SMILES CCCCCCCCCCCCCCCCCCCCCCCC(=O)[O-]
REMARK SMILES IDX 13 1 14 2 15 3 16 4 17 5 18 6 19 7 20 8 21 9 22 10 23 11
REMARK SMILES IDX 24 12 25 13 26 14 12 15 11 16 10 17 9 18 8 19 7 20 6 21 5 22
REMARK SMILES IDX 4 23 3 24 2 25 1 26
REMARK H PARENT
REMARK Flexibility Score: inf
ROOT
ATOM      1  C   UNL     1      60.702  27.593  49.669  1.00  0.00     0.000 C 
ENDROOT
BRANCH   1   2
ATOM      2  C   UNL     1      61.075  26.103  49.731  1.00  0.00     0.000 C 
BRANCH   2   3
ATOM      3  C   UNL     1      61.830  25.729  51.017  1.00  0.00     0.000 C 
BRANCH   3   4
ATOM      4  C   UNL     1      61.686  24.239  51.364  1.00  0.00     0.000 C 
BRANCH   4   5
ATOM      5  C   UNL     1      61.402  23.371  50.126  1.00  0.00     0.000 C 
BRANCH   5   6
ATOM      6  C   UNL     1      60.411  22.233  50.425  1.00  0.00     0.000 C 
BRANCH   6   7
ATOM      7  C   UNL     1      60.618  20.967  49.566  1.00  0.00     0.000 C 
BRANCH   7   8
ATOM      8  C   UNL     1      60.940  19.678  50.354  1.00  0.00     0.000 C 
BRANCH   8   9
ATOM      9  C   UNL     1      60.370  19.627  51.784  1.00  0.00     0.000 C 
BRANCH   9  10
ATOM     10  C   UNL     1      59.252  18.587  51.940  1.00  0.00     0.006 C 
BRANCH  10  11
ATOM     11  C   UNL     1      57.933  19.103  51.356  1.00  0.00     0.053 C 
BRANCH  11  12
ATOM     12  C   UNL     1      57.381  18.123  50.372  1.00  0.00     0.041 C 
ATOM     13  O   UNL     1      56.138  17.955  50.278  1.00  0.00    -0.550 OA
ATOM     14  O   UNL     1      58.242  17.350  49.601  1.00  0.00    -0.550 OA
ENDBRANCH  11  12
ENDBRANCH  10  11
ENDBRANCH   9  10
ENDBRANCH   8   9
ENDBRANCH   7   8
ENDBRANCH   6   7
ENDBRANCH   5   6
ENDBRANCH   4   5
ENDBRANCH   3   4
ENDBRANCH   2   3
ENDBRANCH   1   2
BRANCH   1  15
ATOM     15  C   UNL     1      60.900  28.314  51.011  1.00  0.00     0.000 C 
BRANCH  15  16
ATOM     16  C   UNL     1      59.554  28.703  51.640  1.00  0.00     0.000 C 
BRANCH  16  17
ATOM     17  C   UNL     1      59.290  27.992  52.976  1.00  0.00     0.000 C 
BRANCH  17  18
ATOM     18  C   UNL     1      57.875  28.253  53.520  1.00  0.00    -0.000 C 
BRANCH  18  19
ATOM     19  C   UNL     1      56.952  28.922  52.484  1.00  0.00    -0.000 C 
BRANCH  19  20
ATOM     20  C   UNL     1      55.491  28.424  52.492  1.00  0.00    -0.000 C 
BRANCH  20  21
ATOM     21  C   UNL     1      54.678  28.733  51.217  1.00  0.00    -0.000 C 
BRANCH  21  22
ATOM     22  C   UNL     1      54.595  27.578  50.202  1.00  0.00    -0.000 C 
BRANCH  22  23
ATOM     23  C   UNL     1      54.935  26.215  50.826  1.00  0.00    -0.000 C 
BRANCH  23  24
ATOM     24  C   UNL     1      56.045  25.474  50.064  1.00  0.00    -0.000 C 
BRANCH  24  25
ATOM     25  C   UNL     1      57.465  25.786  50.581  1.00  0.00    -0.003 C 
ATOM     26  C   UNL     1      57.938  24.771  51.620  1.00  0.00     0.004 C 
ENDBRANCH  24  25
ENDBRANCH  23  24
ENDBRANCH  22  23
ENDBRANCH  21  22
ENDBRANCH  20  21
ENDBRANCH  19  20
ENDBRANCH  18  19
ENDBRANCH  17  18
ENDBRANCH  16  17
ENDBRANCH  15  16
ENDBRANCH   1  15
TORSDOF 22
ENDMDL
MODEL 9
REMARK VINA RESULT:    -2.588      9.222     12.143
REMARK INTER + INTRA:         -10.387
REMARK INTER:                  -6.370
REMARK INTRA:                  -4.017
REMARK UNBOUND:                -4.470
REMARK SMILES CCCCCCCCCCCCCCCCCCCCCCCC(=O)[O-]
REMARK SMILES IDX 13 1 14 2 15 3 16 4 17 5 18 6 19 7 20 8 21 9 22 10 23 11
REMARK SMILES IDX 24 12 25 13 26 14 12 15 11 16 10 17 9 18 8 19 7 20 6 21 5 22
REMARK SMILES IDX 4 23 3 24 2 25 1 26
REMARK H PARENT
REMARK Flexibility Score: inf
ROOT
ATOM      1  C   UNL     1      64.108  26.531  50.920  1.00  0.00     0.000 C 
ENDROOT
BRANCH   1   2
ATOM      2  C   UNL     1      65.245  27.241  50.166  1.00  0.00     0.000 C 
BRANCH   2   3
ATOM      3  C   UNL     1      65.238  26.946  48.658  1.00  0.00     0.000 C 
BRANCH   3   4
ATOM      4  C   UNL     1      64.373  27.945  47.874  1.00  0.00     0.000 C 
BRANCH   4   5
ATOM      5  C   UNL     1      64.573  29.395  48.348  1.00  0.00     0.000 C 
BRANCH   5   6
ATOM      6  C   UNL     1      65.936  29.967  47.920  1.00  0.00     0.000 C 
BRANCH   6   7
ATOM      7  C   UNL     1      66.797  30.502  49.084  1.00  0.00     0.000 C 
BRANCH   7   8
ATOM      8  C   UNL     1      66.011  31.160  50.239  1.00  0.00     0.000 C 
BRANCH   8   9
ATOM      9  C   UNL     1      66.283  32.662  50.442  1.00  0.00     0.000 C 
BRANCH   9  10
ATOM     10  C   UNL     1      65.001  33.466  50.700  1.00  0.00     0.006 C 
BRANCH  10  11
ATOM     11  C   UNL     1      63.774  32.748  50.129  1.00  0.00     0.053 C 
BRANCH  11  12
ATOM     12  C   UNL     1      62.923  33.705  49.358  1.00  0.00     0.041 C 
ATOM     13  O   UNL     1      62.437  34.716  49.927  1.00  0.00    -0.550 OA
ATOM     14  O   UNL     1      62.616  33.449  48.028  1.00  0.00    -0.550 OA
ENDBRANCH  11  12
ENDBRANCH  10  11
ENDBRANCH   9  10
ENDBRANCH   8   9
ENDBRANCH   7   8
ENDBRANCH   6   7
ENDBRANCH   5   6
ENDBRANCH   4   5
ENDBRANCH   3   4
ENDBRANCH   2   3
ENDBRANCH   1   2
BRANCH   1  15
ATOM     15  C   UNL     1      63.650  27.300  52.169  1.00  0.00     0.000 C 
BRANCH  15  16
ATOM     16  C   UNL     1      63.783  28.817  51.970  1.00  0.00     0.000 C 
BRANCH  16  17
ATOM     17  C   UNL     1      62.429  29.544  51.989  1.00  0.00     0.000 C 
BRANCH  17  18
ATOM     18  C   UNL     1      61.768  29.608  50.602  1.00  0.00    -0.000 C 
BRANCH  18  19
ATOM     19  C   UNL     1      60.665  28.548  50.417  1.00  0.00    -0.000 C 
BRANCH  19  20
ATOM     20  C   UNL     1      60.918  27.532  49.284  1.00  0.00    -0.000 C 
BRANCH  20  21
ATOM     21  C   UNL     1      60.658  26.054  49.648  1.00  0.00    -0.000 C 
BRANCH  21  22
ATOM     22  C   UNL     1      60.370  25.792  51.139  1.00  0.00    -0.000 C 
BRANCH  22  23
ATOM     23  C   UNL     1      61.058  24.520  51.659  1.00  0.00    -0.000 C 
BRANCH  23  24
ATOM     24  C   UNL     1      61.605  23.636  50.527  1.00  0.00    -0.000 C 
BRANCH  24  25
ATOM     25  C   UNL     1      60.708  22.422  50.203  1.00  0.00    -0.003 C 
ATOM     26  C   UNL     1      61.164  21.687  48.944  1.00  0.00     0.004 C 
ENDBRANCH  24  25
ENDBRANCH  23  24
ENDBRANCH  22  23
ENDBRANCH  21  22
ENDBRANCH  20  21
ENDBRANCH  19  20
ENDBRANCH  18  19
ENDBRANCH  17  18
ENDBRANCH  16  17
ENDBRANCH  15  16
ENDBRANCH   1  15
TORSDOF 22
ENDMDL
