MODEL 1
REMARK VINA RESULT:    -5.757      0.000      0.000
REMARK INTER + INTRA:          -7.084
REMARK INTER:                  -6.767
REMARK INTRA:                  -0.317
REMARK UNBOUND:                -0.317
REMARK SMILES O=c1cc(-c2ccc(O)c(O)c2)oc2cc(O)cc(O)c12
REMARK SMILES IDX 4 1 3 2 2 3 1 4 21 5 19 6 18 7 16 8 15 9 14 10 13 11 5 12
REMARK SMILES IDX 6 13 7 14 8 15 12 16 10 17 9 18 11 20 20 22 17 24
REMARK H PARENT 9 19 11 21 20 23 17 25
REMARK Flexibility Score: inf
ROOT
ATOM      1  C   UNL     1       7.770   4.099 -14.731  1.00  0.00     0.138 A 
ATOM      2  C   UNL     1       6.706   4.757 -15.363  1.00  0.00     0.100 A 
ATOM      3  C   UNL     1       5.758   5.433 -14.594  1.00  0.00     0.197 A 
ATOM      4  O   UNL     1       4.850   6.066 -15.192  1.00  0.00    -0.289 OA
ATOM      5  C   UNL     1       5.861   5.422 -13.182  1.00  0.00     0.107 A 
ATOM      6  C   UNL     1       4.929   6.042 -12.295  1.00  0.00     0.134 A 
ATOM      7  C   UNL     1       5.197   6.065 -10.921  1.00  0.00     0.093 A 
ATOM      8  C   UNL     1       6.326   5.440 -10.395  1.00  0.00     0.123 A 
ATOM      9  C   UNL     1       7.216   4.783 -11.247  1.00  0.00     0.094 A 
ATOM     10  C   UNL     1       6.995   4.772 -12.627  1.00  0.00     0.146 A 
ATOM     11  O   UNL     1       7.873   4.150 -13.406  1.00  0.00    -0.456 OA
ENDROOT
BRANCH   1  12
ATOM     12  C   UNL     1       8.805   3.363 -15.500  1.00  0.00     0.021 A 
ATOM     13  C   UNL     1       8.656   3.213 -16.891  1.00  0.00     0.016 A 
ATOM     14  C   UNL     1       9.620   2.531 -17.639  1.00  0.00     0.051 A 
ATOM     15  C   UNL     1      10.753   1.998 -17.013  1.00  0.00     0.157 A 
ATOM     16  C   UNL     1       9.953   2.835 -14.879  1.00  0.00     0.062 A 
ATOM     17  C   UNL     1      10.921   2.152 -15.632  1.00  0.00     0.158 A 
BRANCH  15  18
ATOM     18  O   UNL     1      11.715   1.316 -17.756  1.00  0.00    -0.504 OA
ATOM     19  H   UNL     1      12.629   1.105 -17.373  1.00  0.00     0.293 HD
ENDBRANCH  15  18
BRANCH  17  20
ATOM     20  O   UNL     1      12.056   1.630 -15.013  1.00  0.00    -0.504 OA
ATOM     21  H   UNL     1      12.100   0.662 -14.714  1.00  0.00     0.293 HD
ENDBRANCH  17  20
ENDBRANCH   1  12
BRANCH   6  22
ATOM     22  O   UNL     1       3.726   6.622 -12.707  1.00  0.00    -0.507 OA
ATOM     23  H   UNL     1       3.604   7.598 -12.933  1.00  0.00     0.293 HD
ENDBRANCH   6  22
BRANCH   8  24
ATOM     24  O   UNL     1       6.552   5.470  -9.021  1.00  0.00    -0.508 OA
ATOM     25  H   UNL     1       7.256   4.884  -8.587  1.00  0.00     0.293 HD
ENDBRANCH   8  24
TORSDOF 5
ENDMDL
MODEL 2
REMARK VINA RESULT:    -5.571      3.042      5.234
REMARK INTER + INTRA:          -6.865
REMARK INTER:                  -6.551
REMARK INTRA:                  -0.314
REMARK UNBOUND:                -0.317
REMARK SMILES O=c1cc(-c2ccc(O)c(O)c2)oc2cc(O)cc(O)c12
REMARK SMILES IDX 4 1 3 2 2 3 1 4 21 5 19 6 18 7 16 8 15 9 14 10 13 11 5 12
REMARK SMILES IDX 6 13 7 14 8 15 12 16 10 17 9 18 11 20 20 22 17 24
REMARK H PARENT 9 19 11 21 20 23 17 25
REMARK Flexibility Score: inf
ROOT
ATOM      1  C   UNL     1      11.015   1.665 -18.018  1.00  0.00     0.138 A 
ATOM      2  C   UNL     1      10.355   2.692 -18.706  1.00  0.00     0.100 A 
ATOM      3  C   UNL     1       9.386   3.451 -18.048  1.00  0.00     0.197 A 
ATOM      4  O   UNL     1       8.855   4.406 -18.672  1.00  0.00    -0.289 OA
ATOM      5  C   UNL     1       9.055   3.157 -16.704  1.00  0.00     0.107 A 
ATOM      6  C   UNL     1       8.054   3.836 -15.946  1.00  0.00     0.134 A 
ATOM      7  C   UNL     1       7.894   3.536 -14.588  1.00  0.00     0.093 A 
ATOM      8  C   UNL     1       8.655   2.541 -13.975  1.00  0.00     0.123 A 
ATOM      9  C   UNL     1       9.599   1.832 -14.720  1.00  0.00     0.094 A 
ATOM     10  C   UNL     1       9.806   2.132 -16.069  1.00  0.00     0.146 A 
ATOM     11  O   UNL     1      10.724   1.444 -16.740  1.00  0.00    -0.456 OA
ENDROOT
BRANCH   1  12
ATOM     12  C   UNL     1      12.053   0.827 -18.669  1.00  0.00     0.021 A 
ATOM     13  C   UNL     1      12.151   0.813 -20.072  1.00  0.00     0.016 A 
ATOM     14  C   UNL     1      13.124   0.038 -20.709  1.00  0.00     0.051 A 
ATOM     15  C   UNL     1      14.021  -0.728 -19.955  1.00  0.00     0.157 A 
ATOM     16  C   UNL     1      12.967   0.063 -17.917  1.00  0.00     0.062 A 
ATOM     17  C   UNL     1      13.945  -0.714 -18.558  1.00  0.00     0.158 A 
BRANCH  15  18
ATOM     18  O   UNL     1      14.991  -1.503 -20.588  1.00  0.00    -0.504 OA
ATOM     19  H   UNL     1      15.781  -1.884 -20.079  1.00  0.00     0.293 HD
ENDBRANCH  15  18
BRANCH  17  20
ATOM     20  O   UNL     1      14.847  -1.469 -17.810  1.00  0.00    -0.504 OA
ATOM     21  H   UNL     1      14.856  -1.435 -16.797  1.00  0.00     0.293 HD
ENDBRANCH  17  20
ENDBRANCH   1  12
BRANCH   6  22
ATOM     22  O   UNL     1       7.181   4.789 -16.481  1.00  0.00    -0.507 OA
ATOM     23  H   UNL     1       6.289   5.041 -16.083  1.00  0.00     0.293 HD
ENDBRANCH   6  22
BRANCH   8  24
ATOM     24  O   UNL     1       8.458   2.258 -12.626  1.00  0.00    -0.508 OA
ATOM     25  H   UNL     1       7.964   1.426 -12.325  1.00  0.00     0.293 HD
ENDBRANCH   8  24
TORSDOF 5
ENDMDL
MODEL 3
REMARK VINA RESULT:    -5.554      1.372      6.761
REMARK INTER + INTRA:          -6.845
REMARK INTER:                  -6.531
REMARK INTRA:                  -0.314
REMARK UNBOUND:                -0.317
REMARK SMILES O=c1cc(-c2ccc(O)c(O)c2)oc2cc(O)cc(O)c12
REMARK SMILES IDX 4 1 3 2 2 3 1 4 21 5 19 6 18 7 16 8 15 9 14 10 13 11 5 12
REMARK SMILES IDX 6 13 7 14 8 15 12 16 10 17 9 18 11 20 20 22 17 24
REMARK H PARENT 9 19 11 21 20 23 17 25
REMARK Flexibility Score: inf
ROOT
ATOM      1  C   UNL     1       7.201   4.372 -14.279  1.00  0.00     0.138 A 
ATOM      2  C   UNL     1       6.703   4.264 -15.585  1.00  0.00     0.100 A 
ATOM      3  C   UNL     1       7.463   3.616 -16.561  1.00  0.00     0.197 A 
ATOM      4  O   UNL     1       6.964   3.480 -17.708  1.00  0.00    -0.289 OA
ATOM      5  C   UNL     1       8.740   3.103 -16.232  1.00  0.00     0.107 A 
ATOM      6  C   UNL     1       9.620   2.461 -17.155  1.00  0.00     0.134 A 
ATOM      7  C   UNL     1      10.810   1.889 -16.690  1.00  0.00     0.093 A 
ATOM      8  C   UNL     1      11.182   1.989 -15.350  1.00  0.00     0.123 A 
ATOM      9  C   UNL     1      10.356   2.663 -14.449  1.00  0.00     0.094 A 
ATOM     10  C   UNL     1       9.145   3.214 -14.875  1.00  0.00     0.146 A 
ATOM     11  O   UNL     1       8.380   3.834 -13.983  1.00  0.00    -0.456 OA
ENDROOT
BRANCH   1  12
ATOM     12  C   UNL     1       6.436   5.052 -13.203  1.00  0.00     0.021 A 
ATOM     13  C   UNL     1       5.362   5.894 -13.544  1.00  0.00     0.016 A 
ATOM     14  C   UNL     1       4.623   6.540 -12.549  1.00  0.00     0.051 A 
ATOM     15  C   UNL     1       4.935   6.346 -11.199  1.00  0.00     0.157 A 
ATOM     16  C   UNL     1       6.737   4.853 -11.842  1.00  0.00     0.062 A 
ATOM     17  C   UNL     1       5.992   5.500 -10.844  1.00  0.00     0.158 A 
BRANCH  15  18
ATOM     18  O   UNL     1       4.200   6.990 -10.205  1.00  0.00    -0.504 OA
ATOM     19  H   UNL     1       4.272   7.990 -10.056  1.00  0.00     0.293 HD
ENDBRANCH  15  18
BRANCH  17  20
ATOM     20  O   UNL     1       6.294   5.301  -9.498  1.00  0.00    -0.504 OA
ATOM     21  H   UNL     1       7.178   5.599  -9.102  1.00  0.00     0.293 HD
ENDBRANCH  17  20
ENDBRANCH   1  12
BRANCH   6  22
ATOM     22  O   UNL     1       9.384   2.379 -18.531  1.00  0.00    -0.507 OA
ATOM     23  H   UNL     1       9.102   1.542 -19.019  1.00  0.00     0.293 HD
ENDBRANCH   6  22
BRANCH   8  24
ATOM     24  O   UNL     1      12.382   1.422 -14.926  1.00  0.00    -0.508 OA
ATOM     25  H   UNL     1      12.454   0.433 -14.714  1.00  0.00     0.293 HD
ENDBRANCH   8  24
TORSDOF 5
ENDMDL
MODEL 4
REMARK VINA RESULT:    -5.489      6.192      9.261
REMARK INTER + INTRA:          -6.769
REMARK INTER:                  -6.495
REMARK INTRA:                  -0.273
REMARK UNBOUND:                -0.317
REMARK SMILES O=c1cc(-c2ccc(O)c(O)c2)oc2cc(O)cc(O)c12
REMARK SMILES IDX 4 1 3 2 2 3 1 4 21 5 19 6 18 7 16 8 15 9 14 10 13 11 5 12
REMARK SMILES IDX 6 13 7 14 8 15 12 16 10 17 9 18 11 20 20 22 17 24
REMARK H PARENT 9 19 11 21 20 23 17 25
REMARK Flexibility Score: inf
ROOT
ATOM      1  C   UNL     1       9.257   2.477  -7.624  1.00  0.00     0.138 A 
ATOM      2  C   UNL     1      10.171   2.981  -6.688  1.00  0.00     0.100 A 
ATOM      3  C   UNL     1      10.774   2.113  -5.777  1.00  0.00     0.197 A 
ATOM      4  O   UNL     1      11.636   2.584  -4.990  1.00  0.00    -0.289 OA
ATOM      5  C   UNL     1      10.435   0.739  -5.785  1.00  0.00     0.107 A 
ATOM      6  C   UNL     1      10.956  -0.231  -4.875  1.00  0.00     0.134 A 
ATOM      7  C   UNL     1      10.637  -1.583  -5.053  1.00  0.00     0.093 A 
ATOM      8  C   UNL     1       9.772  -1.993  -6.065  1.00  0.00     0.123 A 
ATOM      9  C   UNL     1       9.213  -1.047  -6.926  1.00  0.00     0.094 A 
ATOM     10  C   UNL     1       9.538   0.306  -6.797  1.00  0.00     0.146 A 
ATOM     11  O   UNL     1       8.998   1.174  -7.646  1.00  0.00    -0.456 OA
ENDROOT
BRANCH   1  12
ATOM     12  C   UNL     1       8.585   3.356  -8.615  1.00  0.00     0.021 A 
ATOM     13  C   UNL     1       8.622   3.015  -9.979  1.00  0.00     0.016 A 
ATOM     14  C   UNL     1       7.992   3.821 -10.930  1.00  0.00     0.051 A 
ATOM     15  C   UNL     1       7.305   4.975 -10.535  1.00  0.00     0.157 A 
ATOM     16  C   UNL     1       7.882   4.512  -8.223  1.00  0.00     0.062 A 
ATOM     17  C   UNL     1       7.248   5.319  -9.179  1.00  0.00     0.158 A 
BRANCH  15  18
ATOM     18  O   UNL     1       6.677   5.782 -11.481  1.00  0.00    -0.504 OA
ATOM     19  H   UNL     1       7.135   6.599 -11.870  1.00  0.00     0.293 HD
ENDBRANCH  15  18
BRANCH  17  20
ATOM     20  O   UNL     1       6.554   6.463  -8.787  1.00  0.00    -0.504 OA
ATOM     21  H   UNL     1       5.541   6.488  -8.764  1.00  0.00     0.293 HD
ENDBRANCH  17  20
ENDBRANCH   1  12
BRANCH   6  22
ATOM     22  O   UNL     1      11.763   0.081  -3.778  1.00  0.00    -0.507 OA
ATOM     23  H   UNL     1      11.555  -0.163  -2.821  1.00  0.00     0.293 HD
ENDBRANCH   6  22
BRANCH   8  24
ATOM     24  O   UNL     1       9.465  -3.345  -6.202  1.00  0.00    -0.508 OA
ATOM     25  H   UNL     1       8.572  -3.719  -5.901  1.00  0.00     0.293 HD
ENDBRANCH   8  24
TORSDOF 5
ENDMDL
MODEL 5
REMARK VINA RESULT:    -5.368      1.765      7.198
REMARK INTER + INTRA:          -6.626
REMARK INTER:                  -6.336
REMARK INTRA:                  -0.290
REMARK UNBOUND:                -0.317
REMARK SMILES O=c1cc(-c2ccc(O)c(O)c2)oc2cc(O)cc(O)c12
REMARK SMILES IDX 4 1 3 2 2 3 1 4 21 5 19 6 18 7 16 8 15 9 14 10 13 11 5 12
REMARK SMILES IDX 6 13 7 14 8 15 12 16 10 17 9 18 11 20 20 22 17 24
REMARK H PARENT 9 19 11 21 20 23 17 25
REMARK Flexibility Score: inf
ROOT
ATOM      1  C   UNL     1       7.447   4.470 -14.071  1.00  0.00     0.138 A 
ATOM      2  C   UNL     1       8.267   3.373 -13.774  1.00  0.00     0.100 A 
ATOM      3  C   UNL     1       9.086   2.834 -14.768  1.00  0.00     0.197 A 
ATOM      4  O   UNL     1       9.857   1.890 -14.455  1.00  0.00    -0.289 OA
ATOM      5  C   UNL     1       9.058   3.379 -16.074  1.00  0.00     0.107 A 
ATOM      6  C   UNL     1       9.818   2.885 -17.176  1.00  0.00     0.134 A 
ATOM      7  C   UNL     1       9.797   3.578 -18.393  1.00  0.00     0.093 A 
ATOM      8  C   UNL     1       9.000   4.708 -18.567  1.00  0.00     0.123 A 
ATOM      9  C   UNL     1       8.210   5.168 -17.512  1.00  0.00     0.094 A 
ATOM     10  C   UNL     1       8.235   4.519 -16.274  1.00  0.00     0.146 A 
ATOM     11  O   UNL     1       7.480   4.997 -15.291  1.00  0.00    -0.456 OA
ENDROOT
BRANCH   1  12
ATOM     12  C   UNL     1       6.556   5.080 -13.052  1.00  0.00     0.021 A 
ATOM     13  C   UNL     1       5.409   5.781 -13.468  1.00  0.00     0.016 A 
ATOM     14  C   UNL     1       4.551   6.359 -12.528  1.00  0.00     0.051 A 
ATOM     15  C   UNL     1       4.817   6.238 -11.160  1.00  0.00     0.157 A 
ATOM     16  C   UNL     1       6.811   4.953 -11.673  1.00  0.00     0.062 A 
ATOM     17  C   UNL     1       5.948   5.532 -10.731  1.00  0.00     0.158 A 
BRANCH  15  18
ATOM     18  O   UNL     1       3.964   6.815 -10.221  1.00  0.00    -0.504 OA
ATOM     19  H   UNL     1       3.172   7.381 -10.501  1.00  0.00     0.293 HD
ENDBRANCH  15  18
BRANCH  17  20
ATOM     20  O   UNL     1       6.204   5.404  -9.367  1.00  0.00    -0.504 OA
ATOM     21  H   UNL     1       6.803   4.670  -9.005  1.00  0.00     0.293 HD
ENDBRANCH  17  20
ENDBRANCH   1  12
BRANCH   6  22
ATOM     22  O   UNL     1      10.584   1.717 -17.136  1.00  0.00    -0.507 OA
ATOM     23  H   UNL     1      11.590   1.689 -17.071  1.00  0.00     0.293 HD
ENDBRANCH   6  22
BRANCH   8  24
ATOM     24  O   UNL     1       8.993   5.362 -19.796  1.00  0.00    -0.508 OA
ATOM     25  H   UNL     1       9.286   6.328 -19.884  1.00  0.00     0.293 HD
ENDBRANCH   8  24
TORSDOF 5
ENDMDL
MODEL 6
REMARK VINA RESULT:    -5.340      1.761      3.406
REMARK INTER + INTRA:          -6.594
REMARK INTER:                  -6.296
REMARK INTRA:                  -0.298
REMARK UNBOUND:                -0.317
REMARK SMILES O=c1cc(-c2ccc(O)c(O)c2)oc2cc(O)cc(O)c12
REMARK SMILES IDX 4 1 3 2 2 3 1 4 21 5 19 6 18 7 16 8 15 9 14 10 13 11 5 12
REMARK SMILES IDX 6 13 7 14 8 15 12 16 10 17 9 18 11 20 20 22 17 24
REMARK H PARENT 9 19 11 21 20 23 17 25
REMARK Flexibility Score: inf
ROOT
ATOM      1  C   UNL     1       6.975   4.774 -13.498  1.00  0.00     0.138 A 
ATOM      2  C   UNL     1       7.217   4.900 -12.123  1.00  0.00     0.100 A 
ATOM      3  C   UNL     1       6.345   5.651 -11.334  1.00  0.00     0.197 A 
ATOM      4  O   UNL     1       6.553   5.695 -10.094  1.00  0.00    -0.289 OA
ATOM      5  C   UNL     1       5.242   6.305 -11.933  1.00  0.00     0.107 A 
ATOM      6  C   UNL     1       4.310   7.132 -11.235  1.00  0.00     0.134 A 
ATOM      7  C   UNL     1       3.191   7.632 -11.910  1.00  0.00     0.093 A 
ATOM      8  C   UNL     1       3.001   7.389 -13.270  1.00  0.00     0.123 A 
ATOM      9  C   UNL     1       3.934   6.628 -13.976  1.00  0.00     0.094 A 
ATOM     10  C   UNL     1       5.044   6.085 -13.322  1.00  0.00     0.146 A 
ATOM     11  O   UNL     1       5.901   5.354 -14.026  1.00  0.00    -0.456 OA
ENDROOT
BRANCH   1  12
ATOM     12  C   UNL     1       7.871   3.989 -14.383  1.00  0.00     0.021 A 
ATOM     13  C   UNL     1       8.408   2.774 -13.921  1.00  0.00     0.016 A 
ATOM     14  C   UNL     1       9.248   2.012 -14.738  1.00  0.00     0.051 A 
ATOM     15  C   UNL     1       9.557   2.446 -16.033  1.00  0.00     0.157 A 
ATOM     16  C   UNL     1       8.176   4.412 -15.691  1.00  0.00     0.062 A 
ATOM     17  C   UNL     1       9.018   3.645 -16.511  1.00  0.00     0.158 A 
BRANCH  15  18
ATOM     18  O   UNL     1      10.396   1.689 -16.849  1.00  0.00    -0.504 OA
ATOM     19  H   UNL     1      10.703   0.762 -16.579  1.00  0.00     0.293 HD
ENDBRANCH  15  18
BRANCH  17  20
ATOM     20  O   UNL     1       9.319   4.069 -17.805  1.00  0.00    -0.504 OA
ATOM     21  H   UNL     1      10.033   3.612 -18.360  1.00  0.00     0.293 HD
ENDBRANCH  17  20
ENDBRANCH   1  12
BRANCH   6  22
ATOM     22  O   UNL     1       4.450   7.507  -9.895  1.00  0.00    -0.507 OA
ATOM     23  H   UNL     1       4.036   8.327  -9.480  1.00  0.00     0.293 HD
ENDBRANCH   6  22
BRANCH   8  24
ATOM     24  O   UNL     1       1.883   7.917 -13.913  1.00  0.00    -0.508 OA
ATOM     25  H   UNL     1       0.988   7.441 -13.895  1.00  0.00     0.293 HD
ENDBRANCH   8  24
TORSDOF 5
ENDMDL
MODEL 7
REMARK VINA RESULT:    -5.212      3.409      5.935
REMARK INTER + INTRA:          -6.444
REMARK INTER:                  -6.151
REMARK INTRA:                  -0.293
REMARK UNBOUND:                -0.317
REMARK SMILES O=c1cc(-c2ccc(O)c(O)c2)oc2cc(O)cc(O)c12
REMARK SMILES IDX 4 1 3 2 2 3 1 4 21 5 19 6 18 7 16 8 15 9 14 10 13 11 5 12
REMARK SMILES IDX 6 13 7 14 8 15 12 16 10 17 9 18 11 20 20 22 17 24
REMARK H PARENT 9 19 11 21 20 23 17 25
REMARK Flexibility Score: inf
ROOT
ATOM      1  C   UNL     1      11.079   1.501 -17.677  1.00  0.00     0.138 A 
ATOM      2  C   UNL     1      11.197   1.704 -16.295  1.00  0.00     0.100 A 
ATOM      3  C   UNL     1      10.185   2.376 -15.608  1.00  0.00     0.197 A 
ATOM      4  O   UNL     1      10.289   2.488 -14.359  1.00  0.00    -0.289 OA
ATOM      5  C   UNL     1       9.065   2.873 -16.316  1.00  0.00     0.107 A 
ATOM      6  C   UNL     1       7.993   3.609 -15.726  1.00  0.00     0.134 A 
ATOM      7  C   UNL     1       6.880   3.949 -16.505  1.00  0.00     0.093 A 
ATOM      8  C   UNL     1       6.826   3.636 -17.862  1.00  0.00     0.123 A 
ATOM      9  C   UNL     1       7.894   2.965 -18.462  1.00  0.00     0.094 A 
ATOM     10  C   UNL     1       9.003   2.581 -17.704  1.00  0.00     0.146 A 
ATOM     11  O   UNL     1       9.991   1.930 -18.309  1.00  0.00    -0.456 OA
ENDROOT
BRANCH   1  12
ATOM     12  C   UNL     1      12.126   0.794 -18.457  1.00  0.00     0.021 A 
ATOM     13  C   UNL     1      12.178   0.959 -19.853  1.00  0.00     0.016 A 
ATOM     14  C   UNL     1      13.158   0.311 -20.609  1.00  0.00     0.051 A 
ATOM     15  C   UNL     1      14.109  -0.504 -19.983  1.00  0.00     0.157 A 
ATOM     16  C   UNL     1      13.093  -0.018 -17.833  1.00  0.00     0.062 A 
ATOM     17  C   UNL     1      14.078  -0.667 -18.594  1.00  0.00     0.158 A 
BRANCH  15  18
ATOM     18  O   UNL     1      15.086  -1.154 -20.735  1.00  0.00    -0.504 OA
ATOM     19  H   UNL     1      14.857  -1.928 -21.348  1.00  0.00     0.293 HD
ENDBRANCH  15  18
BRANCH  17  20
ATOM     20  O   UNL     1      15.033  -1.470 -17.972  1.00  0.00    -0.504 OA
ATOM     21  H   UNL     1      14.984  -1.685 -16.983  1.00  0.00     0.293 HD
ENDBRANCH  17  20
ENDBRANCH   1  12
BRANCH   6  22
ATOM     22  O   UNL     1       7.983   4.047 -14.399  1.00  0.00    -0.507 OA
ATOM     23  H   UNL     1       7.570   3.543 -13.629  1.00  0.00     0.293 HD
ENDBRANCH   6  22
BRANCH   8  24
ATOM     24  O   UNL     1       5.710   4.005 -18.609  1.00  0.00    -0.508 OA
ATOM     25  H   UNL     1       5.226   3.340 -19.202  1.00  0.00     0.293 HD
ENDBRANCH   8  24
TORSDOF 5
ENDMDL
MODEL 8
REMARK VINA RESULT:    -5.158      2.753      8.553
REMARK INTER + INTRA:          -6.380
REMARK INTER:                  -6.068
REMARK INTRA:                  -0.312
REMARK UNBOUND:                -0.317
REMARK SMILES O=c1cc(-c2ccc(O)c(O)c2)oc2cc(O)cc(O)c12
REMARK SMILES IDX 4 1 3 2 2 3 1 4 21 5 19 6 18 7 16 8 15 9 14 10 13 11 5 12
REMARK SMILES IDX 6 13 7 14 8 15 12 16 10 17 9 18 11 20 20 22 17 24
REMARK H PARENT 9 19 11 21 20 23 17 25
REMARK Flexibility Score: inf
ROOT
ATOM      1  C   UNL     1      10.602   1.966 -17.161  1.00  0.00     0.138 A 
ATOM      2  C   UNL     1      10.493   2.236 -18.532  1.00  0.00     0.100 A 
ATOM      3  C   UNL     1      11.371   1.623 -19.428  1.00  0.00     0.197 A 
ATOM      4  O   UNL     1      11.210   1.836 -20.657  1.00  0.00    -0.289 OA
ATOM      5  C   UNL     1      12.382   0.760 -18.942  1.00  0.00     0.107 A 
ATOM      6  C   UNL     1      13.358   0.112 -19.758  1.00  0.00     0.134 A 
ATOM      7  C   UNL     1      14.237  -0.811 -19.180  1.00  0.00     0.093 A 
ATOM      8  C   UNL     1      14.217  -1.066 -17.810  1.00  0.00     0.123 A 
ATOM      9  C   UNL     1      13.303  -0.398 -16.993  1.00  0.00     0.094 A 
ATOM     10  C   UNL     1      12.390   0.504 -17.545  1.00  0.00     0.146 A 
ATOM     11  O   UNL     1      11.525   1.109 -16.737  1.00  0.00    -0.456 OA
ENDROOT
BRANCH   1  12
ATOM     12  C   UNL     1       9.696   2.591 -16.165  1.00  0.00     0.021 A 
ATOM     13  C   UNL     1       8.996   3.762 -16.506  1.00  0.00     0.016 A 
ATOM     14  C   UNL     1       8.132   4.366 -15.589  1.00  0.00     0.051 A 
ATOM     15  C   UNL     1       7.944   3.805 -14.320  1.00  0.00     0.157 A 
ATOM     16  C   UNL     1       9.493   2.026 -14.891  1.00  0.00     0.062 A 
ATOM     17  C   UNL     1       8.624   2.632 -13.972  1.00  0.00     0.158 A 
BRANCH  15  18
ATOM     18  O   UNL     1       7.085   4.406 -13.403  1.00  0.00    -0.504 OA
ATOM     19  H   UNL     1       6.336   3.887 -12.958  1.00  0.00     0.293 HD
ENDBRANCH  15  18
BRANCH  17  20
ATOM     20  O   UNL     1       8.426   2.070 -12.711  1.00  0.00    -0.504 OA
ATOM     21  H   UNL     1       7.556   2.190 -12.207  1.00  0.00     0.293 HD
ENDBRANCH  17  20
ENDBRANCH   1  12
BRANCH   6  22
ATOM     22  O   UNL     1      13.521   0.357 -21.125  1.00  0.00    -0.507 OA
ATOM     23  H   UNL     1      14.359   0.725 -21.549  1.00  0.00     0.293 HD
ENDBRANCH   6  22
BRANCH   8  24
ATOM     24  O   UNL     1      15.117  -1.980 -17.267  1.00  0.00    -0.508 OA
ATOM     25  H   UNL     1      15.290  -2.025 -16.269  1.00  0.00     0.293 HD
ENDBRANCH   8  24
TORSDOF 5
ENDMDL
MODEL 9
REMARK VINA RESULT:    -4.998      1.709      7.378
REMARK INTER + INTRA:          -6.192
REMARK INTER:                  -5.886
REMARK INTRA:                  -0.306
REMARK UNBOUND:                -0.317
REMARK SMILES O=c1cc(-c2ccc(O)c(O)c2)oc2cc(O)cc(O)c12
REMARK SMILES IDX 4 1 3 2 2 3 1 4 21 5 19 6 18 7 16 8 15 9 14 10 13 11 5 12
REMARK SMILES IDX 6 13 7 14 8 15 12 16 10 17 9 18 11 20 20 22 17 24
REMARK H PARENT 9 19 11 21 20 23 17 25
REMARK Flexibility Score: inf
ROOT
ATOM      1  C   UNL     1       7.568   4.379 -14.222  1.00  0.00     0.138 A 
ATOM      2  C   UNL     1       8.388   3.288 -13.902  1.00  0.00     0.100 A 
ATOM      3  C   UNL     1       9.203   2.726 -14.886  1.00  0.00     0.197 A 
ATOM      4  O   UNL     1       9.974   1.789 -14.554  1.00  0.00    -0.289 OA
ATOM      5  C   UNL     1       9.172   3.241 -16.204  1.00  0.00     0.107 A 
ATOM      6  C   UNL     1       9.929   2.721 -17.297  1.00  0.00     0.134 A 
ATOM      7  C   UNL     1       9.905   3.385 -18.529  1.00  0.00     0.093 A 
ATOM      8  C   UNL     1       9.108   4.512 -18.727  1.00  0.00     0.123 A 
ATOM      9  C   UNL     1       8.321   4.997 -17.680  1.00  0.00     0.094 A 
ATOM     10  C   UNL     1       8.349   4.377 -16.428  1.00  0.00     0.146 A 
ATOM     11  O   UNL     1       7.598   4.878 -15.454  1.00  0.00    -0.456 OA
ENDROOT
BRANCH   1  12
ATOM     12  C   UNL     1       6.680   5.014 -13.216  1.00  0.00     0.021 A 
ATOM     13  C   UNL     1       7.050   4.998 -11.859  1.00  0.00     0.016 A 
ATOM     14  C   UNL     1       6.236   5.595 -10.893  1.00  0.00     0.051 A 
ATOM     15  C   UNL     1       5.044   6.227 -11.267  1.00  0.00     0.157 A 
ATOM     16  C   UNL     1       5.486   5.662 -13.586  1.00  0.00     0.062 A 
ATOM     17  C   UNL     1       4.670   6.263 -12.615  1.00  0.00     0.158 A 
BRANCH  15  18
ATOM     18  O   UNL     1       4.229   6.821 -10.306  1.00  0.00    -0.504 OA
ATOM     19  H   UNL     1       4.064   6.384  -9.406  1.00  0.00     0.293 HD
ENDBRANCH  15  18
BRANCH  17  20
ATOM     20  O   UNL     1       3.488   6.903 -12.985  1.00  0.00    -0.504 OA
ATOM     21  H   UNL     1       2.605   6.407 -13.024  1.00  0.00     0.293 HD
ENDBRANCH  17  20
ENDBRANCH   1  12
BRANCH   6  22
ATOM     22  O   UNL     1      10.694   1.553 -17.232  1.00  0.00    -0.507 OA
ATOM     23  H   UNL     1      10.333   0.620 -17.360  1.00  0.00     0.293 HD
ENDBRANCH   6  22
BRANCH   8  24
ATOM     24  O   UNL     1       9.098   5.137 -19.971  1.00  0.00    -0.508 OA
ATOM     25  H   UNL     1       9.745   5.886 -20.193  1.00  0.00     0.293 HD
ENDBRANCH   8  24
TORSDOF 5
ENDMDL
