MODEL 1
REMARK VINA RESULT:     8.554      0.000      0.000
REMARK INTER + INTRA:          10.298
REMARK INTER:                  10.054
REMARK INTRA:                   0.244
REMARK UNBOUND:                 0.244
REMARK SMILES O=c1c(O)c(-c2ccc(O)cc2)oc2cc(O)cc(O)c12
REMARK SMILES IDX 5 1 3 2 2 3 1 4 21 5 19 6 18 7 16 8 15 9 14 10 13 11 6 12
REMARK SMILES IDX 7 13 8 14 9 15 12 16 11 17 10 18 4 20 20 22 17 24
REMARK H PARENT 10 19 4 21 20 23 17 25
REMARK Flexibility Score: inf
ROOT
ATOM      1  C   UNL     1     132.414 155.541 171.224  1.00  0.00     0.180 A 
ATOM      2  C   UNL     1     131.868 154.584 170.350  1.00  0.00     0.208 A 
ATOM      3  C   UNL     1     130.856 153.733 170.821  1.00  0.00     0.238 A 
ATOM      4  O   UNL     1     130.332 152.916 170.020  1.00  0.00    -0.285 OA
ATOM      5  C   UNL     1     130.414 153.837 172.162  1.00  0.00     0.111 A 
ATOM      6  C   UNL     1     129.423 153.000 172.757  1.00  0.00     0.134 A 
ATOM      7  C   UNL     1     128.970 153.278 174.052  1.00  0.00     0.093 A 
ATOM      8  C   UNL     1     129.520 154.323 174.799  1.00  0.00     0.123 A 
ATOM      9  C   UNL     1     130.530 155.109 174.249  1.00  0.00     0.094 A 
ATOM     10  C   UNL     1     130.976 154.880 172.945  1.00  0.00     0.146 A 
ATOM     11  O   UNL     1     131.933 155.659 172.455  1.00  0.00    -0.452 OA
ENDROOT
BRANCH   1  12
ATOM     12  C   UNL     1     133.501 156.457 170.808  1.00  0.00     0.021 A 
ATOM     13  C   UNL     1     133.525 157.802 171.223  1.00  0.00     0.016 A 
ATOM     14  C   UNL     1     134.548 158.655 170.797  1.00  0.00     0.047 A 
ATOM     15  C   UNL     1     135.551 158.179 169.943  1.00  0.00     0.115 A 
ATOM     16  C   UNL     1     134.500 155.995 169.936  1.00  0.00     0.016 A 
ATOM     17  C   UNL     1     135.523 156.849 169.512  1.00  0.00     0.047 A 
BRANCH  15  18
ATOM     18  O   UNL     1     136.577 159.019 169.514  1.00  0.00    -0.508 OA
ATOM     19  H   UNL     1     137.085 159.608 170.163  1.00  0.00     0.293 HD
ENDBRANCH  15  18
ENDBRANCH   1  12
BRANCH   2  20
ATOM     20  O   UNL     1     132.303 154.513 169.024  1.00  0.00    -0.502 OA
ATOM     21  H   UNL     1     133.251 154.258 168.776  1.00  0.00     0.293 HD
ENDBRANCH   2  20
BRANCH   6  22
ATOM     22  O   UNL     1     128.875 151.875 172.132  1.00  0.00    -0.507 OA
ATOM     23  H   UNL     1     128.987 151.648 171.155  1.00  0.00     0.293 HD
ENDBRANCH   6  22
BRANCH   8  24
ATOM     24  O   UNL     1     129.075 154.583 176.093  1.00  0.00    -0.508 OA
ATOM     25  H   UNL     1     128.190 154.222 176.432  1.00  0.00     0.293 HD
ENDBRANCH   8  24
TORSDOF 5
ENDMDL
MODEL 2
REMARK VINA RESULT:     9.374      4.766      7.833
REMARK INTER + INTRA:          11.262
REMARK INTER:                  11.491
REMARK INTRA:                  -0.229
REMARK UNBOUND:                 0.244
REMARK SMILES O=c1c(O)c(-c2ccc(O)cc2)oc2cc(O)cc(O)c12
REMARK SMILES IDX 5 1 3 2 2 3 1 4 21 5 19 6 18 7 16 8 15 9 14 10 13 11 6 12
REMARK SMILES IDX 7 13 8 14 9 15 12 16 11 17 10 18 4 20 20 22 17 24
REMARK H PARENT 10 19 4 21 20 23 17 25
REMARK Flexibility Score: inf
ROOT
ATOM      1  C   UNL     1     134.205 159.741 172.794  1.00  0.00     0.180 A 
ATOM      2  C   UNL     1     132.999 160.429 173.014  1.00  0.00     0.208 A 
ATOM      3  C   UNL     1     132.975 161.478 173.946  1.00  0.00     0.238 A 
ATOM      4  O   UNL     1     131.907 162.126 174.099  1.00  0.00    -0.285 OA
ATOM      5  C   UNL     1     134.151 161.816 174.658  1.00  0.00     0.111 A 
ATOM      6  C   UNL     1     134.232 162.834 175.654  1.00  0.00     0.134 A 
ATOM      7  C   UNL     1     135.477 163.170 176.200  1.00  0.00     0.093 A 
ATOM      8  C   UNL     1     136.634 162.480 175.833  1.00  0.00     0.123 A 
ATOM      9  C   UNL     1     136.557 161.443 174.905  1.00  0.00     0.094 A 
ATOM     10  C   UNL     1     135.335 161.110 174.316  1.00  0.00     0.146 A 
ATOM     11  O   UNL     1     135.306 160.124 173.428  1.00  0.00    -0.452 OA
ENDROOT
BRANCH   1  12
ATOM     12  C   UNL     1     134.303 158.607 171.845  1.00  0.00     0.021 A 
ATOM     13  C   UNL     1     133.738 157.353 172.141  1.00  0.00     0.016 A 
ATOM     14  C   UNL     1     133.865 156.291 171.241  1.00  0.00     0.047 A 
ATOM     15  C   UNL     1     134.568 156.464 170.042  1.00  0.00     0.115 A 
ATOM     16  C   UNL     1     135.024 158.765 170.651  1.00  0.00     0.016 A 
ATOM     17  C   UNL     1     135.150 157.702 169.751  1.00  0.00     0.047 A 
BRANCH  15  18
ATOM     18  O   UNL     1     134.700 155.413 169.136  1.00  0.00    -0.508 OA
ATOM     19  H   UNL     1     135.545 154.856 169.092  1.00  0.00     0.293 HD
ENDBRANCH  15  18
ENDBRANCH   1  12
BRANCH   2  20
ATOM     20  O   UNL     1     131.855 160.094 172.285  1.00  0.00    -0.502 OA
ATOM     21  H   UNL     1     131.878 159.917 171.287  1.00  0.00     0.293 HD
ENDBRANCH   2  20
BRANCH   6  22
ATOM     22  O   UNL     1     133.124 163.522 176.159  1.00  0.00    -0.507 OA
ATOM     23  H   UNL     1     132.226 163.103 176.351  1.00  0.00     0.293 HD
ENDBRANCH   6  22
BRANCH   8  24
ATOM     24  O   UNL     1     137.867 162.809 176.393  1.00  0.00    -0.508 OA
ATOM     25  H   UNL     1     138.214 163.762 176.386  1.00  0.00     0.293 HD
ENDBRANCH   8  24
TORSDOF 5
ENDMDL
