MODEL 1
REMARK VINA RESULT:    -6.020      0.000      0.000
REMARK INTER + INTRA:          -7.380
REMARK INTER:                  -7.251
REMARK INTRA:                  -0.129
REMARK UNBOUND:                -0.129
REMARK SMILES O=c1c(O)c(-c2ccc(O)c(O)c2)oc2cc(O)cc(O)c12
REMARK SMILES IDX 5 1 3 2 2 3 1 4 22 5 20 6 19 7 17 8 16 9 15 10 14 11 6 12
REMARK SMILES IDX 7 13 8 14 9 15 13 16 11 17 10 18 12 20 4 22 21 24 18 26
REMARK H PARENT 10 19 12 21 4 23 21 25 18 27
REMARK Flexibility Score: inf
ROOT
ATOM      1  C   UNL     1      75.549 -55.614 197.976  1.00  0.00     0.180 A 
ATOM      2  C   UNL     1      74.669 -55.523 196.884  1.00  0.00     0.208 A 
ATOM      3  C   UNL     1      75.158 -55.062 195.651  1.00  0.00     0.238 A 
ATOM      4  O   UNL     1      74.354 -54.932 194.692  1.00  0.00    -0.285 OA
ATOM      5  C   UNL     1      76.524 -54.714 195.521  1.00  0.00     0.111 A 
ATOM      6  C   UNL     1      77.137 -54.274 194.310  1.00  0.00     0.134 A 
ATOM      7  C   UNL     1      78.465 -53.831 194.328  1.00  0.00     0.093 A 
ATOM      8  C   UNL     1      79.223 -53.874 195.498  1.00  0.00     0.123 A 
ATOM      9  C   UNL     1      78.651 -54.358 196.676  1.00  0.00     0.094 A 
ATOM     10  C   UNL     1      77.317 -54.773 196.697  1.00  0.00     0.146 A 
ATOM     11  O   UNL     1      76.809 -55.217 197.840  1.00  0.00    -0.452 OA
ENDROOT
BRANCH   1  12
ATOM     12  C   UNL     1      75.113 -56.113 199.300  1.00  0.00     0.025 A 
ATOM     13  C   UNL     1      74.150 -55.394 200.027  1.00  0.00     0.016 A 
ATOM     14  C   UNL     1      73.739 -55.837 201.287  1.00  0.00     0.051 A 
ATOM     15  C   UNL     1      74.296 -56.994 201.845  1.00  0.00     0.157 A 
ATOM     16  C   UNL     1      75.684 -57.264 199.873  1.00  0.00     0.062 A 
ATOM     17  C   UNL     1      75.273 -57.707 201.138  1.00  0.00     0.158 A 
BRANCH  15  18
ATOM     18  O   UNL     1      73.889 -57.439 203.101  1.00  0.00    -0.504 OA
ATOM     19  H   UNL     1      73.023 -57.952 203.227  1.00  0.00     0.293 HD
ENDBRANCH  15  18
BRANCH  17  20
ATOM     20  O   UNL     1      75.835 -58.851 201.702  1.00  0.00    -0.504 OA
ATOM     21  H   UNL     1      76.782 -58.854 202.062  1.00  0.00     0.293 HD
ENDBRANCH  17  20
ENDBRANCH   1  12
BRANCH   2  22
ATOM     22  O   UNL     1      73.319 -55.851 197.040  1.00  0.00    -0.502 OA
ATOM     23  H   UNL     1      72.580 -55.360 196.550  1.00  0.00     0.293 HD
ENDBRANCH   2  22
BRANCH   6  24
ATOM     24  O   UNL     1      76.499 -54.279 193.065  1.00  0.00    -0.507 OA
ATOM     25  H   UNL     1      75.754 -54.908 192.804  1.00  0.00     0.293 HD
ENDBRANCH   6  24
BRANCH   8  26
ATOM     26  O   UNL     1      80.546 -53.441 195.477  1.00  0.00    -0.508 OA
ATOM     27  H   UNL     1      81.048 -53.228 196.331  1.00  0.00     0.293 HD
ENDBRANCH   8  26
TORSDOF 6
ENDMDL
MODEL 2
REMARK VINA RESULT:    -5.402      1.990      3.881
REMARK INTER + INTRA:          -6.635
REMARK INTER:                  -6.558
REMARK INTRA:                  -0.077
REMARK UNBOUND:                -0.129
REMARK SMILES O=c1c(O)c(-c2ccc(O)c(O)c2)oc2cc(O)cc(O)c12
REMARK SMILES IDX 5 1 3 2 2 3 1 4 22 5 20 6 19 7 17 8 16 9 15 10 14 11 6 12
REMARK SMILES IDX 7 13 8 14 9 15 13 16 11 17 10 18 12 20 4 22 21 24 18 26
REMARK H PARENT 10 19 12 21 4 23 21 25 18 27
REMARK Flexibility Score: inf
ROOT
ATOM      1  C   UNL     1      74.189 -55.578 198.221  1.00  0.00     0.180 A 
ATOM      2  C   UNL     1      75.379 -55.126 197.626  1.00  0.00     0.208 A 
ATOM      3  C   UNL     1      75.338 -54.621 196.317  1.00  0.00     0.238 A 
ATOM      4  O   UNL     1      76.415 -54.267 195.771  1.00  0.00    -0.285 OA
ATOM      5  C   UNL     1      74.104 -54.559 195.624  1.00  0.00     0.111 A 
ATOM      6  C   UNL     1      73.938 -54.028 194.311  1.00  0.00     0.134 A 
ATOM      7  C   UNL     1      72.697 -54.137 193.673  1.00  0.00     0.093 A 
ATOM      8  C   UNL     1      71.598 -54.696 194.325  1.00  0.00     0.123 A 
ATOM      9  C   UNL     1      71.734 -55.165 195.633  1.00  0.00     0.094 A 
ATOM     10  C   UNL     1      72.970 -55.102 196.282  1.00  0.00     0.146 A 
ATOM     11  O   UNL     1      73.059 -55.568 197.522  1.00  0.00    -0.452 OA
ENDROOT
BRANCH   1  12
ATOM     12  C   UNL     1      74.149 -56.101 199.605  1.00  0.00     0.025 A 
ATOM     13  C   UNL     1      73.347 -55.460 200.564  1.00  0.00     0.016 A 
ATOM     14  C   UNL     1      73.310 -55.925 201.881  1.00  0.00     0.051 A 
ATOM     15  C   UNL     1      74.086 -57.026 202.262  1.00  0.00     0.157 A 
ATOM     16  C   UNL     1      74.941 -57.195 199.998  1.00  0.00     0.062 A 
ATOM     17  C   UNL     1      74.906 -57.660 201.321  1.00  0.00     0.158 A 
BRANCH  15  18
ATOM     18  O   UNL     1      74.051 -57.494 203.576  1.00  0.00    -0.504 OA
ATOM     19  H   UNL     1      73.845 -58.464 203.787  1.00  0.00     0.293 HD
ENDBRANCH  15  18
BRANCH  17  20
ATOM     20  O   UNL     1      75.687 -58.747 201.707  1.00  0.00    -0.504 OA
ATOM     21  H   UNL     1      75.454 -59.694 201.431  1.00  0.00     0.293 HD
ENDBRANCH  17  20
ENDBRANCH   1  12
BRANCH   2  22
ATOM     22  O   UNL     1      76.590 -55.217 198.320  1.00  0.00    -0.502 OA
ATOM     23  H   UNL     1      76.633 -55.394 199.316  1.00  0.00     0.293 HD
ENDBRANCH   2  22
BRANCH   6  24
ATOM     24  O   UNL     1      74.946 -53.364 193.603  1.00  0.00    -0.507 OA
ATOM     25  H   UNL     1      75.000 -52.364 193.483  1.00  0.00     0.293 HD
ENDBRANCH   6  24
BRANCH   8  26
ATOM     26  O   UNL     1      70.373 -54.774 193.667  1.00  0.00    -0.508 OA
ATOM     27  H   UNL     1      70.314 -54.776 192.656  1.00  0.00     0.293 HD
ENDBRANCH   8  26
TORSDOF 6
ENDMDL
MODEL 3
REMARK VINA RESULT:    -5.283      1.881      7.015
REMARK INTER + INTRA:          -6.492
REMARK INTER:                  -6.189
REMARK INTRA:                  -0.303
REMARK UNBOUND:                -0.129
REMARK SMILES O=c1c(O)c(-c2ccc(O)c(O)c2)oc2cc(O)cc(O)c12
REMARK SMILES IDX 5 1 3 2 2 3 1 4 22 5 20 6 19 7 17 8 16 9 15 10 14 11 6 12
REMARK SMILES IDX 7 13 8 14 9 15 13 16 11 17 10 18 12 20 4 22 21 24 18 26
REMARK H PARENT 10 19 12 21 4 23 21 25 18 27
REMARK Flexibility Score: inf
ROOT
ATOM      1  C   UNL     1      75.758 -54.886 198.561  1.00  0.00     0.180 A 
ATOM      2  C   UNL     1      75.081 -53.733 198.993  1.00  0.00     0.208 A 
ATOM      3  C   UNL     1      74.122 -53.847 200.012  1.00  0.00     0.238 A 
ATOM      4  O   UNL     1      73.480 -52.821 200.356  1.00  0.00    -0.285 OA
ATOM      5  C   UNL     1      73.864 -55.110 200.598  1.00  0.00     0.111 A 
ATOM      6  C   UNL     1      72.944 -55.336 201.665  1.00  0.00     0.134 A 
ATOM      7  C   UNL     1      72.672 -56.646 202.078  1.00  0.00     0.093 A 
ATOM      8  C   UNL     1      73.335 -57.733 201.509  1.00  0.00     0.123 A 
ATOM      9  C   UNL     1      74.282 -57.518 200.505  1.00  0.00     0.094 A 
ATOM     10  C   UNL     1      74.548 -56.226 200.047  1.00  0.00     0.146 A 
ATOM     11  O   UNL     1      75.447 -56.066 199.084  1.00  0.00    -0.452 OA
ENDROOT
BRANCH   1  12
ATOM     12  C   UNL     1      76.799 -54.841 197.509  1.00  0.00     0.025 A 
ATOM     13  C   UNL     1      78.104 -54.445 197.845  1.00  0.00     0.016 A 
ATOM     14  C   UNL     1      79.097 -54.377 196.864  1.00  0.00     0.051 A 
ATOM     15  C   UNL     1      78.796 -54.686 195.532  1.00  0.00     0.157 A 
ATOM     16  C   UNL     1      76.497 -55.132 196.166  1.00  0.00     0.062 A 
ATOM     17  C   UNL     1      77.493 -55.061 195.181  1.00  0.00     0.158 A 
BRANCH  15  18
ATOM     18  O   UNL     1      79.783 -54.620 194.550  1.00  0.00    -0.504 OA
ATOM     19  H   UNL     1      79.979 -53.758 194.052  1.00  0.00     0.293 HD
ENDBRANCH  15  18
BRANCH  17  20
ATOM     20  O   UNL     1      77.192 -55.354 193.853  1.00  0.00    -0.504 OA
ATOM     21  H   UNL     1      77.918 -55.440 193.151  1.00  0.00     0.293 HD
ENDBRANCH  17  20
ENDBRANCH   1  12
BRANCH   2  22
ATOM     22  O   UNL     1      75.335 -52.500 198.385  1.00  0.00    -0.502 OA
ATOM     23  H   UNL     1      75.093 -52.309 197.420  1.00  0.00     0.293 HD
ENDBRANCH   2  22
BRANCH   6  24
ATOM     24  O   UNL     1      72.295 -54.314 202.366  1.00  0.00    -0.507 OA
ATOM     25  H   UNL     1      71.424 -53.888 202.085  1.00  0.00     0.293 HD
ENDBRANCH   6  24
BRANCH   8  26
ATOM     26  O   UNL     1      73.053 -59.022 201.955  1.00  0.00    -0.508 OA
ATOM     27  H   UNL     1      72.305 -59.571 201.549  1.00  0.00     0.293 HD
ENDBRANCH   8  26
TORSDOF 6
ENDMDL
MODEL 4
REMARK VINA RESULT:    -5.267      3.328      4.111
REMARK INTER + INTRA:          -6.473
REMARK INTER:                  -6.210
REMARK INTRA:                  -0.263
REMARK UNBOUND:                -0.129
REMARK SMILES O=c1c(O)c(-c2ccc(O)c(O)c2)oc2cc(O)cc(O)c12
REMARK SMILES IDX 5 1 3 2 2 3 1 4 22 5 20 6 19 7 17 8 16 9 15 10 14 11 6 12
REMARK SMILES IDX 7 13 8 14 9 15 13 16 11 17 10 18 12 20 4 22 21 24 18 26
REMARK H PARENT 10 19 12 21 4 23 21 25 18 27
REMARK Flexibility Score: inf
ROOT
ATOM      1  C   UNL     1      72.452 -56.365 198.487  1.00  0.00     0.180 A 
ATOM      2  C   UNL     1      71.487 -57.119 197.798  1.00  0.00     0.208 A 
ATOM      3  C   UNL     1      71.210 -56.809 196.457  1.00  0.00     0.238 A 
ATOM      4  O   UNL     1      70.307 -57.452 195.861  1.00  0.00    -0.285 OA
ATOM      5  C   UNL     1      71.912 -55.759 195.817  1.00  0.00     0.111 A 
ATOM      6  C   UNL     1      71.743 -55.385 194.451  1.00  0.00     0.134 A 
ATOM      7  C   UNL     1      72.394 -54.247 193.959  1.00  0.00     0.093 A 
ATOM      8  C   UNL     1      73.262 -53.509 194.765  1.00  0.00     0.123 A 
ATOM      9  C   UNL     1      73.482 -53.902 196.087  1.00  0.00     0.094 A 
ATOM     10  C   UNL     1      72.817 -55.011 196.615  1.00  0.00     0.146 A 
ATOM     11  O   UNL     1      73.046 -55.345 197.879  1.00  0.00    -0.452 OA
ENDROOT
BRANCH   1  12
ATOM     12  C   UNL     1      72.816 -56.648 199.894  1.00  0.00     0.025 A 
ATOM     13  C   UNL     1      71.959 -56.232 200.926  1.00  0.00     0.016 A 
ATOM     14  C   UNL     1      72.294 -56.471 202.262  1.00  0.00     0.051 A 
ATOM     15  C   UNL     1      73.495 -57.114 202.585  1.00  0.00     0.157 A 
ATOM     16  C   UNL     1      74.030 -57.276 200.224  1.00  0.00     0.062 A 
ATOM     17  C   UNL     1      74.366 -57.514 201.565  1.00  0.00     0.158 A 
BRANCH  15  18
ATOM     18  O   UNL     1      73.831 -57.355 203.917  1.00  0.00    -0.504 OA
ATOM     19  H   UNL     1      73.748 -56.633 204.624  1.00  0.00     0.293 HD
ENDBRANCH  15  18
BRANCH  17  20
ATOM     20  O   UNL     1      75.568 -58.142 201.890  1.00  0.00    -0.504 OA
ATOM     21  H   UNL     1      75.798 -58.384 202.847  1.00  0.00     0.293 HD
ENDBRANCH  17  20
ENDBRANCH   1  12
BRANCH   2  22
ATOM     22  O   UNL     1      70.789 -58.137 198.455  1.00  0.00    -0.502 OA
ATOM     23  H   UNL     1      70.883 -58.305 199.450  1.00  0.00     0.293 HD
ENDBRANCH   2  22
BRANCH   6  24
ATOM     24  O   UNL     1      70.971 -56.106 193.533  1.00  0.00    -0.507 OA
ATOM     25  H   UNL     1      70.232 -55.713 192.970  1.00  0.00     0.293 HD
ENDBRANCH   6  24
BRANCH   8  26
ATOM     26  O   UNL     1      73.907 -52.393 194.239  1.00  0.00    -0.508 OA
ATOM     27  H   UNL     1      74.756 -52.479 193.695  1.00  0.00     0.293 HD
ENDBRANCH   8  26
TORSDOF 6
ENDMDL
MODEL 5
REMARK VINA RESULT:    -5.256      1.418      1.691
REMARK INTER + INTRA:          -6.460
REMARK INTER:                  -6.328
REMARK INTRA:                  -0.132
REMARK UNBOUND:                -0.129
REMARK SMILES O=c1c(O)c(-c2ccc(O)c(O)c2)oc2cc(O)cc(O)c12
REMARK SMILES IDX 5 1 3 2 2 3 1 4 22 5 20 6 19 7 17 8 16 9 15 10 14 11 6 12
REMARK SMILES IDX 7 13 8 14 9 15 13 16 11 17 10 18 12 20 4 22 21 24 18 26
REMARK H PARENT 10 19 12 21 4 23 21 25 18 27
REMARK Flexibility Score: inf
ROOT
ATOM      1  C   UNL     1      74.251 -55.391 198.217  1.00  0.00     0.180 A 
ATOM      2  C   UNL     1      73.116 -55.297 197.394  1.00  0.00     0.208 A 
ATOM      3  C   UNL     1      73.251 -54.759 196.104  1.00  0.00     0.238 A 
ATOM      4  O   UNL     1      72.222 -54.628 195.392  1.00  0.00    -0.285 OA
ATOM      5  C   UNL     1      74.523 -54.336 195.648  1.00  0.00     0.111 A 
ATOM      6  C   UNL     1      74.785 -53.814 194.346  1.00  0.00     0.134 A 
ATOM      7  C   UNL     1      76.055 -53.306 194.047  1.00  0.00     0.093 A 
ATOM      8  C   UNL     1      77.091 -53.361 194.980  1.00  0.00     0.123 A 
ATOM      9  C   UNL     1      76.862 -53.925 196.236  1.00  0.00     0.094 A 
ATOM     10  C   UNL     1      75.596 -54.407 196.576  1.00  0.00     0.146 A 
ATOM     11  O   UNL     1      75.417 -54.925 197.784  1.00  0.00    -0.452 OA
ENDROOT
BRANCH   1  12
ATOM     12  C   UNL     1      74.192 -55.969 199.579  1.00  0.00     0.025 A 
ATOM     13  C   UNL     1      73.433 -55.325 200.570  1.00  0.00     0.016 A 
ATOM     14  C   UNL     1      73.380 -55.843 201.867  1.00  0.00     0.051 A 
ATOM     15  C   UNL     1      74.096 -57.001 202.195  1.00  0.00     0.157 A 
ATOM     16  C   UNL     1      74.925 -57.120 199.918  1.00  0.00     0.062 A 
ATOM     17  C   UNL     1      74.873 -57.638 201.221  1.00  0.00     0.158 A 
BRANCH  15  18
ATOM     18  O   UNL     1      74.045 -57.520 203.488  1.00  0.00    -0.504 OA
ATOM     19  H   UNL     1      74.742 -58.176 203.824  1.00  0.00     0.293 HD
ENDBRANCH  15  18
BRANCH  17  20
ATOM     20  O   UNL     1      75.597 -58.782 201.554  1.00  0.00    -0.504 OA
ATOM     21  H   UNL     1      75.224 -59.711 201.394  1.00  0.00     0.293 HD
ENDBRANCH  17  20
ENDBRANCH   1  12
BRANCH   2  22
ATOM     22  O   UNL     1      71.865 -55.700 197.873  1.00  0.00    -0.502 OA
ATOM     23  H   UNL     1      71.760 -56.276 198.699  1.00  0.00     0.293 HD
ENDBRANCH   2  22
BRANCH   6  24
ATOM     24  O   UNL     1      73.847 -53.797 193.308  1.00  0.00    -0.507 OA
ATOM     25  H   UNL     1      73.529 -54.613 192.808  1.00  0.00     0.293 HD
ENDBRANCH   6  24
BRANCH   8  26
ATOM     26  O   UNL     1      78.346 -52.861 194.644  1.00  0.00    -0.508 OA
ATOM     27  H   UNL     1      78.460 -52.144 193.937  1.00  0.00     0.293 HD
ENDBRANCH   8  26
TORSDOF 6
ENDMDL
MODEL 6
REMARK VINA RESULT:    -5.230      3.770      7.729
REMARK INTER + INTRA:          -6.428
REMARK INTER:                  -6.133
REMARK INTRA:                  -0.296
REMARK UNBOUND:                -0.129
REMARK SMILES O=c1c(O)c(-c2ccc(O)c(O)c2)oc2cc(O)cc(O)c12
REMARK SMILES IDX 5 1 3 2 2 3 1 4 22 5 20 6 19 7 17 8 16 9 15 10 14 11 6 12
REMARK SMILES IDX 7 13 8 14 9 15 13 16 11 17 10 18 12 20 4 22 21 24 18 26
REMARK H PARENT 10 19 12 21 4 23 21 25 18 27
REMARK Flexibility Score: inf
ROOT
ATOM      1  C   UNL     1      72.444 -57.113 199.315  1.00  0.00     0.180 A 
ATOM      2  C   UNL     1      71.603 -57.556 198.280  1.00  0.00     0.208 A 
ATOM      3  C   UNL     1      70.784 -58.675 198.499  1.00  0.00     0.238 A 
ATOM      4  O   UNL     1      70.073 -59.099 197.551  1.00  0.00    -0.285 OA
ATOM      5  C   UNL     1      70.805 -59.328 199.756  1.00  0.00     0.111 A 
ATOM      6  C   UNL     1      69.988 -60.445 200.102  1.00  0.00     0.134 A 
ATOM      7  C   UNL     1      70.185 -61.093 201.328  1.00  0.00     0.093 A 
ATOM      8  C   UNL     1      71.123 -60.624 202.248  1.00  0.00     0.123 A 
ATOM      9  C   UNL     1      71.886 -59.495 201.943  1.00  0.00     0.094 A 
ATOM     10  C   UNL     1      71.737 -58.850 200.713  1.00  0.00     0.146 A 
ATOM     11  O   UNL     1      72.490 -57.786 200.459  1.00  0.00    -0.452 OA
ENDROOT
BRANCH   1  12
ATOM     12  C   UNL     1      73.318 -55.927 199.168  1.00  0.00     0.025 A 
ATOM     13  C   UNL     1      72.766 -54.642 199.296  1.00  0.00     0.016 A 
ATOM     14  C   UNL     1      73.568 -53.509 199.141  1.00  0.00     0.051 A 
ATOM     15  C   UNL     1      74.929 -53.643 198.838  1.00  0.00     0.157 A 
ATOM     16  C   UNL     1      74.681 -56.057 198.844  1.00  0.00     0.062 A 
ATOM     17  C   UNL     1      75.486 -54.919 198.686  1.00  0.00     0.158 A 
BRANCH  15  18
ATOM     18  O   UNL     1      75.733 -52.515 198.683  1.00  0.00    -0.504 OA
ATOM     19  H   UNL     1      75.842 -51.835 199.428  1.00  0.00     0.293 HD
ENDBRANCH  15  18
BRANCH  17  20
ATOM     20  O   UNL     1      76.837 -55.049 198.371  1.00  0.00    -0.504 OA
ATOM     21  H   UNL     1      77.350 -55.899 198.577  1.00  0.00     0.293 HD
ENDBRANCH  17  20
ENDBRANCH   1  12
BRANCH   2  22
ATOM     22  O   UNL     1      71.615 -56.911 197.040  1.00  0.00    -0.502 OA
ATOM     23  H   UNL     1      70.778 -56.528 196.619  1.00  0.00     0.293 HD
ENDBRANCH   2  22
BRANCH   6  24
ATOM     24  O   UNL     1      68.957 -60.939 199.296  1.00  0.00    -0.507 OA
ATOM     25  H   UNL     1      68.266 -61.612 199.594  1.00  0.00     0.293 HD
ENDBRANCH   6  24
BRANCH   8  26
ATOM     26  O   UNL     1      71.283 -61.282 203.464  1.00  0.00    -0.508 OA
ATOM     27  H   UNL     1      70.609 -61.965 203.790  1.00  0.00     0.293 HD
ENDBRANCH   8  26
TORSDOF 6
ENDMDL
MODEL 7
REMARK VINA RESULT:    -5.204      3.277      5.730
REMARK INTER + INTRA:          -6.397
REMARK INTER:                  -6.075
REMARK INTRA:                  -0.322
REMARK UNBOUND:                -0.129
REMARK SMILES O=c1c(O)c(-c2ccc(O)c(O)c2)oc2cc(O)cc(O)c12
REMARK SMILES IDX 5 1 3 2 2 3 1 4 22 5 20 6 19 7 17 8 16 9 15 10 14 11 6 12
REMARK SMILES IDX 7 13 8 14 9 15 13 16 11 17 10 18 12 20 4 22 21 24 18 26
REMARK H PARENT 10 19 12 21 4 23 21 25 18 27
REMARK Flexibility Score: inf
ROOT
ATOM      1  C   UNL     1      73.568 -54.643 194.908  1.00  0.00     0.180 A 
ATOM      2  C   UNL     1      74.102 -55.160 196.101  1.00  0.00     0.208 A 
ATOM      3  C   UNL     1      75.489 -55.100 196.310  1.00  0.00     0.238 A 
ATOM      4  O   UNL     1      75.966 -55.613 197.355  1.00  0.00    -0.285 OA
ATOM      5  C   UNL     1      76.324 -54.509 195.330  1.00  0.00     0.111 A 
ATOM      6  C   UNL     1      77.737 -54.357 195.454  1.00  0.00     0.134 A 
ATOM      7  C   UNL     1      78.479 -53.877 194.368  1.00  0.00     0.093 A 
ATOM      8  C   UNL     1      77.852 -53.481 193.186  1.00  0.00     0.123 A 
ATOM      9  C   UNL     1      76.463 -53.569 193.076  1.00  0.00     0.094 A 
ATOM     10  C   UNL     1      75.700 -54.078 194.129  1.00  0.00     0.146 A 
ATOM     11  O   UNL     1      74.384 -54.155 193.980  1.00  0.00    -0.452 OA
ENDROOT
BRANCH   1  12
ATOM     12  C   UNL     1      72.115 -54.648 194.628  1.00  0.00     0.025 A 
ATOM     13  C   UNL     1      71.316 -53.594 195.100  1.00  0.00     0.016 A 
ATOM     14  C   UNL     1      69.938 -53.589 194.863  1.00  0.00     0.051 A 
ATOM     15  C   UNL     1      69.338 -54.646 194.167  1.00  0.00     0.157 A 
ATOM     16  C   UNL     1      71.504 -55.717 193.946  1.00  0.00     0.062 A 
ATOM     17  C   UNL     1      70.121 -55.713 193.711  1.00  0.00     0.158 A 
BRANCH  15  18
ATOM     18  O   UNL     1      67.964 -54.645 193.929  1.00  0.00    -0.504 OA
ATOM     19  H   UNL     1      67.302 -54.373 194.647  1.00  0.00     0.293 HD
ENDBRANCH  15  18
BRANCH  17  20
ATOM     20  O   UNL     1      69.519 -56.770 193.031  1.00  0.00    -0.504 OA
ATOM     21  H   UNL     1      70.001 -57.269 192.292  1.00  0.00     0.293 HD
ENDBRANCH  17  20
ENDBRANCH   1  12
BRANCH   2  22
ATOM     22  O   UNL     1      73.262 -55.759 197.044  1.00  0.00    -0.502 OA
ATOM     23  H   UNL     1      73.619 -56.298 197.824  1.00  0.00     0.293 HD
ENDBRANCH   2  22
BRANCH   6  24
ATOM     24  O   UNL     1      78.453 -54.636 196.623  1.00  0.00    -0.507 OA
ATOM     25  H   UNL     1      78.158 -55.287 197.335  1.00  0.00     0.293 HD
ENDBRANCH   6  24
BRANCH   8  26
ATOM     26  O   UNL     1      78.619 -52.993 192.131  1.00  0.00    -0.508 OA
ATOM     27  H   UNL     1      78.801 -52.002 192.022  1.00  0.00     0.293 HD
ENDBRANCH   8  26
TORSDOF 6
ENDMDL
MODEL 8
REMARK VINA RESULT:    -5.201      1.516      2.081
REMARK INTER + INTRA:          -6.394
REMARK INTER:                  -6.068
REMARK INTRA:                  -0.326
REMARK UNBOUND:                -0.129
REMARK SMILES O=c1c(O)c(-c2ccc(O)c(O)c2)oc2cc(O)cc(O)c12
REMARK SMILES IDX 5 1 3 2 2 3 1 4 22 5 20 6 19 7 17 8 16 9 15 10 14 11 6 12
REMARK SMILES IDX 7 13 8 14 9 15 13 16 11 17 10 18 12 20 4 22 21 24 18 26
REMARK H PARENT 10 19 12 21 4 23 21 25 18 27
REMARK Flexibility Score: inf
ROOT
ATOM      1  C   UNL     1      76.138 -54.271 196.756  1.00  0.00     0.180 A 
ATOM      2  C   UNL     1      75.556 -54.185 195.480  1.00  0.00     0.208 A 
ATOM      3  C   UNL     1      76.348 -53.775 194.396  1.00  0.00     0.238 A 
ATOM      4  O   UNL     1      75.808 -53.649 193.266  1.00  0.00    -0.285 OA
ATOM      5  C   UNL     1      77.716 -53.471 194.598  1.00  0.00     0.111 A 
ATOM      6  C   UNL     1      78.623 -53.086 193.566  1.00  0.00     0.134 A 
ATOM      7  C   UNL     1      79.921 -52.683 193.900  1.00  0.00     0.093 A 
ATOM      8  C   UNL     1      80.367 -52.714 195.222  1.00  0.00     0.123 A 
ATOM      9  C   UNL     1      79.507 -53.147 196.233  1.00  0.00     0.094 A 
ATOM     10  C   UNL     1      78.195 -53.521 195.934  1.00  0.00     0.146 A 
ATOM     11  O   UNL     1      77.407 -53.916 196.926  1.00  0.00    -0.452 OA
ENDROOT
BRANCH   1  12
ATOM     12  C   UNL     1      75.374 -54.718 197.943  1.00  0.00     0.025 A 
ATOM     13  C   UNL     1      74.846 -53.762 198.826  1.00  0.00     0.016 A 
ATOM     14  C   UNL     1      74.138 -54.164 199.962  1.00  0.00     0.051 A 
ATOM     15  C   UNL     1      73.963 -55.525 200.241  1.00  0.00     0.157 A 
ATOM     16  C   UNL     1      75.212 -56.085 198.237  1.00  0.00     0.062 A 
ATOM     17  C   UNL     1      74.504 -56.487 199.379  1.00  0.00     0.158 A 
BRANCH  15  18
ATOM     18  O   UNL     1      73.257 -55.929 201.373  1.00  0.00    -0.504 OA
ATOM     19  H   UNL     1      72.331 -55.570 201.577  1.00  0.00     0.293 HD
ENDBRANCH  15  18
BRANCH  17  20
ATOM     20  O   UNL     1      74.340 -57.841 199.666  1.00  0.00    -0.504 OA
ATOM     21  H   UNL     1      73.594 -58.386 199.249  1.00  0.00     0.293 HD
ENDBRANCH  17  20
ENDBRANCH   1  12
BRANCH   2  22
ATOM     22  O   UNL     1      74.198 -54.468 195.307  1.00  0.00    -0.502 OA
ATOM     23  H   UNL     1      73.848 -54.986 194.510  1.00  0.00     0.293 HD
ENDBRANCH   2  22
BRANCH   6  24
ATOM     24  O   UNL     1      78.308 -53.107 192.203  1.00  0.00    -0.507 OA
ATOM     25  H   UNL     1      77.493 -53.553 191.808  1.00  0.00     0.293 HD
ENDBRANCH   6  24
BRANCH   8  26
ATOM     26  O   UNL     1      81.670 -52.322 195.517  1.00  0.00    -0.508 OA
ATOM     27  H   UNL     1      82.103 -52.546 196.405  1.00  0.00     0.293 HD
ENDBRANCH   8  26
TORSDOF 6
ENDMDL
MODEL 9
REMARK VINA RESULT:    -5.199      2.004      6.797
REMARK INTER + INTRA:          -6.391
REMARK INTER:                  -6.313
REMARK INTRA:                  -0.078
REMARK UNBOUND:                -0.129
REMARK SMILES O=c1c(O)c(-c2ccc(O)c(O)c2)oc2cc(O)cc(O)c12
REMARK SMILES IDX 5 1 3 2 2 3 1 4 22 5 20 6 19 7 17 8 16 9 15 10 14 11 6 12
REMARK SMILES IDX 7 13 8 14 9 15 13 16 11 17 10 18 12 20 4 22 21 24 18 26
REMARK H PARENT 10 19 12 21 4 23 21 25 18 27
REMARK Flexibility Score: inf
ROOT
ATOM      1  C   UNL     1      74.236 -55.235 197.229  1.00  0.00     0.180 A 
ATOM      2  C   UNL     1      72.849 -55.408 197.377  1.00  0.00     0.208 A 
ATOM      3  C   UNL     1      72.367 -56.155 198.463  1.00  0.00     0.238 A 
ATOM      4  O   UNL     1      71.128 -56.351 198.560  1.00  0.00    -0.285 OA
ATOM      5  C   UNL     1      73.277 -56.706 199.398  1.00  0.00     0.111 A 
ATOM      6  C   UNL     1      72.898 -57.446 200.558  1.00  0.00     0.134 A 
ATOM      7  C   UNL     1      73.885 -58.056 201.341  1.00  0.00     0.093 A 
ATOM      8  C   UNL     1      75.240 -57.898 201.046  1.00  0.00     0.123 A 
ATOM      9  C   UNL     1      75.623 -57.127 199.947  1.00  0.00     0.094 A 
ATOM     10  C   UNL     1      74.660 -56.536 199.126  1.00  0.00     0.146 A 
ATOM     11  O   UNL     1      75.066 -55.819 198.085  1.00  0.00    -0.452 OA
ENDROOT
BRANCH   1  12
ATOM     12  C   UNL     1      74.818 -54.440 196.124  1.00  0.00     0.025 A 
ATOM     13  C   UNL     1      74.428 -53.101 195.956  1.00  0.00     0.016 A 
ATOM     14  C   UNL     1      74.950 -52.339 194.907  1.00  0.00     0.051 A 
ATOM     15  C   UNL     1      75.855 -52.909 194.003  1.00  0.00     0.157 A 
ATOM     16  C   UNL     1      75.713 -55.013 195.202  1.00  0.00     0.062 A 
ATOM     17  C   UNL     1      76.235 -54.249 194.148  1.00  0.00     0.158 A 
BRANCH  15  18
ATOM     18  O   UNL     1      76.379 -52.152 192.956  1.00  0.00    -0.504 OA
ATOM     19  H   UNL     1      76.902 -52.581 192.201  1.00  0.00     0.293 HD
ENDBRANCH  15  18
BRANCH  17  20
ATOM     20  O   UNL     1      77.125 -54.817 193.239  1.00  0.00    -0.504 OA
ATOM     21  H   UNL     1      78.096 -54.529 193.196  1.00  0.00     0.293 HD
ENDBRANCH  17  20
ENDBRANCH   1  12
BRANCH   2  22
ATOM     22  O   UNL     1      71.970 -54.874 196.430  1.00  0.00    -0.502 OA
ATOM     23  H   UNL     1      71.580 -53.943 196.515  1.00  0.00     0.293 HD
ENDBRANCH   2  22
BRANCH   6  24
ATOM     24  O   UNL     1      71.578 -57.588 200.997  1.00  0.00    -0.507 OA
ATOM     25  H   UNL     1      70.882 -58.164 200.547  1.00  0.00     0.293 HD
ENDBRANCH   6  24
BRANCH   8  26
ATOM     26  O   UNL     1      76.196 -58.506 201.856  1.00  0.00    -0.508 OA
ATOM     27  H   UNL     1      77.146 -58.651 201.536  1.00  0.00     0.293 HD
ENDBRANCH   8  26
TORSDOF 6
ENDMDL
