MODEL 1
REMARK VINA RESULT:    -6.639      0.000      0.000
REMARK INTER + INTRA:          -8.066
REMARK INTER:                  -7.804
REMARK INTRA:                  -0.262
REMARK UNBOUND:                -0.262
REMARK SMILES O=c1cc(-c2ccc(O)c(O)c2)oc2cc(O)cc(O)c12
REMARK SMILES IDX 4 1 3 2 2 3 1 4 21 5 19 6 18 7 16 8 15 9 14 10 13 11 5 12
REMARK SMILES IDX 6 13 7 14 8 15 12 16 10 17 9 18 11 20 20 22 17 24
REMARK H PARENT 9 19 11 21 20 23 17 25
REMARK Flexibility Score: inf
ROOT
ATOM      1  C   UNL     1     -16.547  -2.356   3.988  1.00  0.00     0.138 A 
ATOM      2  C   UNL     1     -17.481  -3.399   4.054  1.00  0.00     0.100 A 
ATOM      3  C   UNL     1     -18.787  -3.186   3.610  1.00  0.00     0.197 A 
ATOM      4  O   UNL     1     -19.616  -4.125   3.734  1.00  0.00    -0.289 OA
ATOM      5  C   UNL     1     -19.149  -1.932   3.061  1.00  0.00     0.107 A 
ATOM      6  C   UNL     1     -20.441  -1.611   2.546  1.00  0.00     0.134 A 
ATOM      7  C   UNL     1     -20.708  -0.304   2.119  1.00  0.00     0.093 A 
ATOM      8  C   UNL     1     -19.717   0.677   2.136  1.00  0.00     0.123 A 
ATOM      9  C   UNL     1     -18.436   0.361   2.591  1.00  0.00     0.094 A 
ATOM     10  C   UNL     1     -18.148  -0.924   3.055  1.00  0.00     0.146 A 
ATOM     11  O   UNL     1     -16.920  -1.178   3.498  1.00  0.00    -0.456 OA
ENDROOT
BRANCH   1  12
ATOM     12  C   UNL     1     -15.145  -2.528   4.444  1.00  0.00     0.021 A 
ATOM     13  C   UNL     1     -14.121  -2.918   3.561  1.00  0.00     0.016 A 
ATOM     14  C   UNL     1     -12.812  -3.081   4.021  1.00  0.00     0.051 A 
ATOM     15  C   UNL     1     -12.505  -2.866   5.370  1.00  0.00     0.157 A 
ATOM     16  C   UNL     1     -14.830  -2.327   5.801  1.00  0.00     0.062 A 
ATOM     17  C   UNL     1     -13.516  -2.491   6.262  1.00  0.00     0.158 A 
BRANCH  15  18
ATOM     18  O   UNL     1     -11.200  -3.028   5.832  1.00  0.00    -0.504 OA
ATOM     19  H   UNL     1     -10.942  -2.799   6.785  1.00  0.00     0.293 HD
ENDBRANCH  15  18
BRANCH  17  20
ATOM     20  O   UNL     1     -13.209  -2.281   7.605  1.00  0.00    -0.504 OA
ATOM     21  H   UNL     1     -12.545  -2.869   8.096  1.00  0.00     0.293 HD
ENDBRANCH  17  20
ENDBRANCH   1  12
BRANCH   6  22
ATOM     22  O   UNL     1     -21.482  -2.535   2.409  1.00  0.00    -0.507 OA
ATOM     23  H   UNL     1     -22.201  -2.704   3.095  1.00  0.00     0.293 HD
ENDBRANCH   6  22
BRANCH   8  24
ATOM     24  O   UNL     1     -20.015   1.962   1.689  1.00  0.00    -0.508 OA
ATOM     25  H   UNL     1     -20.023   2.192   0.701  1.00  0.00     0.293 HD
ENDBRANCH   8  24
TORSDOF 5
ENDMDL
MODEL 2
REMARK VINA RESULT:    -6.454      1.513      7.216
REMARK INTER + INTRA:          -7.848
REMARK INTER:                  -7.587
REMARK INTRA:                  -0.262
REMARK UNBOUND:                -0.262
REMARK SMILES O=c1cc(-c2ccc(O)c(O)c2)oc2cc(O)cc(O)c12
REMARK SMILES IDX 4 1 3 2 2 3 1 4 21 5 19 6 18 7 16 8 15 9 14 10 13 11 5 12
REMARK SMILES IDX 6 13 7 14 8 15 12 16 10 17 9 18 11 20 20 22 17 24
REMARK H PARENT 9 19 11 21 20 23 17 25
REMARK Flexibility Score: inf
ROOT
ATOM      1  C   UNL     1     -16.651  -1.434   3.939  1.00  0.00     0.138 A 
ATOM      2  C   UNL     1     -16.321  -0.907   5.196  1.00  0.00     0.100 A 
ATOM      3  C   UNL     1     -15.026  -1.064   5.692  1.00  0.00     0.197 A 
ATOM      4  O   UNL     1     -14.777  -0.629   6.846  1.00  0.00    -0.289 OA
ATOM      5  C   UNL     1     -14.047  -1.721   4.909  1.00  0.00     0.107 A 
ATOM      6  C   UNL     1     -12.686  -1.911   5.297  1.00  0.00     0.134 A 
ATOM      7  C   UNL     1     -11.834  -2.664   4.480  1.00  0.00     0.093 A 
ATOM      8  C   UNL     1     -12.275  -3.186   3.265  1.00  0.00     0.123 A 
ATOM      9  C   UNL     1     -13.590  -2.965   2.851  1.00  0.00     0.094 A 
ATOM     10  C   UNL     1     -14.474  -2.247   3.660  1.00  0.00     0.146 A 
ATOM     11  O   UNL     1     -15.722  -2.074   3.237  1.00  0.00    -0.456 OA
ENDROOT
BRANCH   1  12
ATOM     12  C   UNL     1     -18.012  -1.293   3.362  1.00  0.00     0.021 A 
ATOM     13  C   UNL     1     -18.954  -2.336   3.422  1.00  0.00     0.016 A 
ATOM     14  C   UNL     1     -20.224  -2.178   2.861  1.00  0.00     0.051 A 
ATOM     15  C   UNL     1     -20.571  -0.980   2.226  1.00  0.00     0.157 A 
ATOM     16  C   UNL     1     -18.365  -0.097   2.709  1.00  0.00     0.062 A 
ATOM     17  C   UNL     1     -19.640   0.061   2.147  1.00  0.00     0.158 A 
BRANCH  15  18
ATOM     18  O   UNL     1     -21.838  -0.819   1.666  1.00  0.00    -0.504 OA
ATOM     19  H   UNL     1     -22.308   0.079   1.665  1.00  0.00     0.293 HD
ENDBRANCH  15  18
BRANCH  17  20
ATOM     20  O   UNL     1     -19.987   1.252   1.510  1.00  0.00    -0.504 OA
ATOM     21  H   UNL     1     -20.945   1.454   1.248  1.00  0.00     0.293 HD
ENDBRANCH  17  20
ENDBRANCH   1  12
BRANCH   6  22
ATOM     22  O   UNL     1     -12.118  -1.366   6.453  1.00  0.00    -0.507 OA
ATOM     23  H   UNL     1     -11.256  -1.675   6.876  1.00  0.00     0.293 HD
ENDBRANCH   6  22
BRANCH   8  24
ATOM     24  O   UNL     1     -11.395  -3.917   2.470  1.00  0.00    -0.508 OA
ATOM     25  H   UNL     1     -10.532  -3.513   2.124  1.00  0.00     0.293 HD
ENDBRANCH   8  24
TORSDOF 5
ENDMDL
MODEL 3
REMARK VINA RESULT:    -5.953      1.177      2.664
REMARK INTER + INTRA:          -7.260
REMARK INTER:                  -6.992
REMARK INTRA:                  -0.268
REMARK UNBOUND:                -0.262
REMARK SMILES O=c1cc(-c2ccc(O)c(O)c2)oc2cc(O)cc(O)c12
REMARK SMILES IDX 4 1 3 2 2 3 1 4 21 5 19 6 18 7 16 8 15 9 14 10 13 11 5 12
REMARK SMILES IDX 6 13 7 14 8 15 12 16 10 17 9 18 11 20 20 22 17 24
REMARK H PARENT 9 19 11 21 20 23 17 25
REMARK Flexibility Score: inf
ROOT
ATOM      1  C   UNL     1     -16.539  -1.714   3.854  1.00  0.00     0.138 A 
ATOM      2  C   UNL     1     -16.796  -0.540   3.132  1.00  0.00     0.100 A 
ATOM      3  C   UNL     1     -18.090  -0.274   2.682  1.00  0.00     0.197 A 
ATOM      4  O   UNL     1     -18.276   0.760   1.990  1.00  0.00    -0.289 OA
ATOM      5  C   UNL     1     -19.141  -1.172   2.989  1.00  0.00     0.107 A 
ATOM      6  C   UNL     1     -20.505  -0.988   2.612  1.00  0.00     0.134 A 
ATOM      7  C   UNL     1     -21.438  -1.995   2.888  1.00  0.00     0.093 A 
ATOM      8  C   UNL     1     -21.070  -3.151   3.575  1.00  0.00     0.123 A 
ATOM      9  C   UNL     1     -19.749  -3.320   3.992  1.00  0.00     0.094 A 
ATOM     10  C   UNL     1     -18.788  -2.349   3.702  1.00  0.00     0.146 A 
ATOM     11  O   UNL     1     -17.537  -2.556   4.102  1.00  0.00    -0.456 OA
ENDROOT
BRANCH   1  12
ATOM     12  C   UNL     1     -15.183  -2.044   4.359  1.00  0.00     0.021 A 
ATOM     13  C   UNL     1     -14.145  -2.437   3.493  1.00  0.00     0.016 A 
ATOM     14  C   UNL     1     -12.881  -2.752   3.998  1.00  0.00     0.051 A 
ATOM     15  C   UNL     1     -12.634  -2.687   5.375  1.00  0.00     0.157 A 
ATOM     16  C   UNL     1     -14.929  -1.995   5.742  1.00  0.00     0.062 A 
ATOM     17  C   UNL     1     -13.660  -2.311   6.248  1.00  0.00     0.158 A 
BRANCH  15  18
ATOM     18  O   UNL     1     -11.374  -3.000   5.881  1.00  0.00    -0.504 OA
ATOM     19  H   UNL     1     -10.667  -2.288   6.023  1.00  0.00     0.293 HD
ENDBRANCH  15  18
BRANCH  17  20
ATOM     20  O   UNL     1     -13.413  -2.251   7.619  1.00  0.00    -0.504 OA
ATOM     21  H   UNL     1     -14.073  -1.825   8.260  1.00  0.00     0.293 HD
ENDBRANCH  17  20
ENDBRANCH   1  12
BRANCH   6  22
ATOM     22  O   UNL     1     -20.999   0.163   1.992  1.00  0.00    -0.507 OA
ATOM     23  H   UNL     1     -21.075   1.069   2.428  1.00  0.00     0.293 HD
ENDBRANCH   6  22
BRANCH   8  24
ATOM     24  O   UNL     1     -22.029  -4.125   3.846  1.00  0.00    -0.508 OA
ATOM     25  H   UNL     1     -22.176  -4.913   3.225  1.00  0.00     0.293 HD
ENDBRANCH   8  24
TORSDOF 5
ENDMDL
MODEL 4
REMARK VINA RESULT:    -5.811      1.503      7.113
REMARK INTER + INTRA:          -7.093
REMARK INTER:                  -6.826
REMARK INTRA:                  -0.267
REMARK UNBOUND:                -0.262
REMARK SMILES O=c1cc(-c2ccc(O)c(O)c2)oc2cc(O)cc(O)c12
REMARK SMILES IDX 4 1 3 2 2 3 1 4 21 5 19 6 18 7 16 8 15 9 14 10 13 11 5 12
REMARK SMILES IDX 6 13 7 14 8 15 12 16 10 17 9 18 11 20 20 22 17 24
REMARK H PARENT 9 19 11 21 20 23 17 25
REMARK Flexibility Score: inf
ROOT
ATOM      1  C   UNL     1     -17.014  -2.205   2.923  1.00  0.00     0.138 A 
ATOM      2  C   UNL     1     -16.079  -2.374   1.892  1.00  0.00     0.100 A 
ATOM      3  C   UNL     1     -14.723  -2.488   2.200  1.00  0.00     0.197 A 
ATOM      4  O   UNL     1     -13.905  -2.583   1.249  1.00  0.00    -0.289 OA
ATOM      5  C   UNL     1     -14.305  -2.471   3.552  1.00  0.00     0.107 A 
ATOM      6  C   UNL     1     -12.953  -2.613   3.988  1.00  0.00     0.134 A 
ATOM      7  C   UNL     1     -12.650  -2.481   5.349  1.00  0.00     0.093 A 
ATOM      8  C   UNL     1     -13.652  -2.268   6.294  1.00  0.00     0.123 A 
ATOM      9  C   UNL     1     -14.983  -2.177   5.885  1.00  0.00     0.094 A 
ATOM     10  C   UNL     1     -15.314  -2.271   4.532  1.00  0.00     0.146 A 
ATOM     11  O   UNL     1     -16.592  -2.160   4.182  1.00  0.00    -0.456 OA
ENDROOT
BRANCH   1  12
ATOM     12  C   UNL     1     -18.468  -2.081   2.651  1.00  0.00     0.021 A 
ATOM     13  C   UNL     1     -19.262  -3.199   2.335  1.00  0.00     0.016 A 
ATOM     14  C   UNL     1     -20.626  -3.050   2.075  1.00  0.00     0.051 A 
ATOM     15  C   UNL     1     -21.219  -1.782   2.118  1.00  0.00     0.157 A 
ATOM     16  C   UNL     1     -19.070  -0.809   2.679  1.00  0.00     0.062 A 
ATOM     17  C   UNL     1     -20.440  -0.660   2.418  1.00  0.00     0.158 A 
BRANCH  15  18
ATOM     18  O   UNL     1     -22.581  -1.631   1.860  1.00  0.00    -0.504 OA
ATOM     19  H   UNL     1     -22.935  -0.845   1.327  1.00  0.00     0.293 HD
ENDBRANCH  15  18
BRANCH  17  20
ATOM     20  O   UNL     1     -21.032   0.601   2.457  1.00  0.00    -0.504 OA
ATOM     21  H   UNL     1     -21.801   0.846   1.844  1.00  0.00     0.293 HD
ENDBRANCH  17  20
ENDBRANCH   1  12
BRANCH   6  22
ATOM     22  O   UNL     1     -11.882  -2.907   3.139  1.00  0.00    -0.507 OA
ATOM     23  H   UNL     1     -11.146  -3.565   3.340  1.00  0.00     0.293 HD
ENDBRANCH   6  22
BRANCH   8  24
ATOM     24  O   UNL     1     -13.315  -2.157   7.641  1.00  0.00    -0.508 OA
ATOM     25  H   UNL     1     -13.746  -2.743   8.347  1.00  0.00     0.293 HD
ENDBRANCH   8  24
TORSDOF 5
ENDMDL
MODEL 5
REMARK VINA RESULT:    -5.555      4.389      7.058
REMARK INTER + INTRA:          -6.792
REMARK INTER:                  -6.494
REMARK INTRA:                  -0.298
REMARK UNBOUND:                -0.262
REMARK SMILES O=c1cc(-c2ccc(O)c(O)c2)oc2cc(O)cc(O)c12
REMARK SMILES IDX 4 1 3 2 2 3 1 4 21 5 19 6 18 7 16 8 15 9 14 10 13 11 5 12
REMARK SMILES IDX 6 13 7 14 8 15 12 16 10 17 9 18 11 20 20 22 17 24
REMARK H PARENT 9 19 11 21 20 23 17 25
REMARK Flexibility Score: inf
ROOT
ATOM      1  C   UNL     1     -22.345  -1.796   3.914  1.00  0.00     0.138 A 
ATOM      2  C   UNL     1     -22.271  -2.609   5.054  1.00  0.00     0.100 A 
ATOM      3  C   UNL     1     -23.445  -3.079   5.645  1.00  0.00     0.197 A 
ATOM      4  O   UNL     1     -23.346  -3.760   6.699  1.00  0.00    -0.289 OA
ATOM      5  C   UNL     1     -24.699  -2.764   5.069  1.00  0.00     0.107 A 
ATOM      6  C   UNL     1     -25.959  -3.214   5.564  1.00  0.00     0.134 A 
ATOM      7  C   UNL     1     -27.140  -2.755   4.967  1.00  0.00     0.093 A 
ATOM      8  C   UNL     1     -27.106  -1.908   3.860  1.00  0.00     0.123 A 
ATOM      9  C   UNL     1     -25.878  -1.500   3.336  1.00  0.00     0.094 A 
ATOM     10  C   UNL     1     -24.684  -1.914   3.930  1.00  0.00     0.146 A 
ATOM     11  O   UNL     1     -23.536  -1.488   3.411  1.00  0.00    -0.456 OA
ENDROOT
BRANCH   1  12
ATOM     12  C   UNL     1     -21.129  -1.271   3.244  1.00  0.00     0.021 A 
ATOM     13  C   UNL     1     -19.961  -2.046   3.114  1.00  0.00     0.016 A 
ATOM     14  C   UNL     1     -18.828  -1.522   2.487  1.00  0.00     0.051 A 
ATOM     15  C   UNL     1     -18.840  -0.214   1.987  1.00  0.00     0.157 A 
ATOM     16  C   UNL     1     -21.127   0.047   2.750  1.00  0.00     0.062 A 
ATOM     17  C   UNL     1     -19.989   0.572   2.120  1.00  0.00     0.158 A 
BRANCH  15  18
ATOM     18  O   UNL     1     -17.711   0.312   1.360  1.00  0.00    -0.504 OA
ATOM     19  H   UNL     1     -17.787   0.980   0.602  1.00  0.00     0.293 HD
ENDBRANCH  15  18
BRANCH  17  20
ATOM     20  O   UNL     1     -19.997   1.875   1.625  1.00  0.00    -0.504 OA
ATOM     21  H   UNL     1     -20.861   2.344   1.377  1.00  0.00     0.293 HD
ENDBRANCH  17  20
ENDBRANCH   1  12
BRANCH   6  22
ATOM     22  O   UNL     1     -26.108  -4.124   6.616  1.00  0.00    -0.507 OA
ATOM     23  H   UNL     1     -26.884  -4.758   6.728  1.00  0.00     0.293 HD
ENDBRANCH   6  22
BRANCH   8  24
ATOM     24  O   UNL     1     -28.300  -1.483   3.282  1.00  0.00    -0.508 OA
ATOM     25  H   UNL     1     -28.419  -0.535   2.945  1.00  0.00     0.293 HD
ENDBRANCH   8  24
TORSDOF 5
ENDMDL
MODEL 6
REMARK VINA RESULT:    -5.511      1.971      7.220
REMARK INTER + INTRA:          -6.739
REMARK INTER:                  -6.477
REMARK INTRA:                  -0.262
REMARK UNBOUND:                -0.262
REMARK SMILES O=c1cc(-c2ccc(O)c(O)c2)oc2cc(O)cc(O)c12
REMARK SMILES IDX 4 1 3 2 2 3 1 4 21 5 19 6 18 7 16 8 15 9 14 10 13 11 5 12
REMARK SMILES IDX 6 13 7 14 8 15 12 16 10 17 9 18 11 20 20 22 17 24
REMARK H PARENT 9 19 11 21 20 23 17 25
REMARK Flexibility Score: inf
ROOT
ATOM      1  C   UNL     1     -17.634  -1.746   3.330  1.00  0.00     0.138 A 
ATOM      2  C   UNL     1     -16.725  -0.769   2.903  1.00  0.00     0.100 A 
ATOM      3  C   UNL     1     -15.494  -0.641   3.547  1.00  0.00     0.197 A 
ATOM      4  O   UNL     1     -14.724   0.282   3.176  1.00  0.00    -0.289 OA
ATOM      5  C   UNL     1     -15.157  -1.523   4.602  1.00  0.00     0.107 A 
ATOM      6  C   UNL     1     -13.918  -1.508   5.311  1.00  0.00     0.134 A 
ATOM      7  C   UNL     1     -13.737  -2.367   6.403  1.00  0.00     0.093 A 
ATOM      8  C   UNL     1     -14.726  -3.275   6.777  1.00  0.00     0.123 A 
ATOM      9  C   UNL     1     -15.923  -3.333   6.061  1.00  0.00     0.094 A 
ATOM     10  C   UNL     1     -16.146  -2.467   4.988  1.00  0.00     0.146 A 
ATOM     11  O   UNL     1     -17.307  -2.541   4.343  1.00  0.00    -0.456 OA
ENDROOT
BRANCH   1  12
ATOM     12  C   UNL     1     -18.956  -1.928   2.678  1.00  0.00     0.021 A 
ATOM     13  C   UNL     1     -19.096  -2.637   1.471  1.00  0.00     0.016 A 
ATOM     14  C   UNL     1     -20.351  -2.783   0.875  1.00  0.00     0.051 A 
ATOM     15  C   UNL     1     -21.485  -2.217   1.471  1.00  0.00     0.157 A 
ATOM     16  C   UNL     1     -20.099  -1.351   3.262  1.00  0.00     0.062 A 
ATOM     17  C   UNL     1     -21.359  -1.499   2.664  1.00  0.00     0.158 A 
BRANCH  15  18
ATOM     18  O   UNL     1     -22.739  -2.362   0.880  1.00  0.00    -0.504 OA
ATOM     19  H   UNL     1     -22.926  -2.028  -0.059  1.00  0.00     0.293 HD
ENDBRANCH  15  18
BRANCH  17  20
ATOM     20  O   UNL     1     -22.489  -0.933   3.253  1.00  0.00    -0.504 OA
ATOM     21  H   UNL     1     -23.407  -1.350   3.149  1.00  0.00     0.293 HD
ENDBRANCH  17  20
ENDBRANCH   1  12
BRANCH   6  22
ATOM     22  O   UNL     1     -12.831  -0.696   4.973  1.00  0.00    -0.507 OA
ATOM     23  H   UNL     1     -12.742  -0.174   4.115  1.00  0.00     0.293 HD
ENDBRANCH   6  22
BRANCH   8  24
ATOM     24  O   UNL     1     -14.506  -4.125   7.859  1.00  0.00    -0.508 OA
ATOM     25  H   UNL     1     -14.161  -5.069   7.730  1.00  0.00     0.293 HD
ENDBRANCH   8  24
TORSDOF 5
ENDMDL
MODEL 7
REMARK VINA RESULT:    -5.392      3.048      7.634
REMARK INTER + INTRA:          -6.600
REMARK INTER:                  -6.305
REMARK INTRA:                  -0.294
REMARK UNBOUND:                -0.262
REMARK SMILES O=c1cc(-c2ccc(O)c(O)c2)oc2cc(O)cc(O)c12
REMARK SMILES IDX 4 1 3 2 2 3 1 4 21 5 19 6 18 7 16 8 15 9 14 10 13 11 5 12
REMARK SMILES IDX 6 13 7 14 8 15 12 16 10 17 9 18 11 20 20 22 17 24
REMARK H PARENT 9 19 11 21 20 23 17 25
REMARK Flexibility Score: inf
ROOT
ATOM      1  C   UNL     1     -20.957  -1.718   3.681  1.00  0.00     0.138 A 
ATOM      2  C   UNL     1     -20.899  -0.653   2.772  1.00  0.00     0.100 A 
ATOM      3  C   UNL     1     -19.681  -0.314   2.181  1.00  0.00     0.197 A 
ATOM      4  O   UNL     1     -19.652   0.682   1.412  1.00  0.00    -0.289 OA
ATOM      5  C   UNL     1     -18.521  -1.071   2.474  1.00  0.00     0.107 A 
ATOM      6  C   UNL     1     -17.232  -0.839   1.906  1.00  0.00     0.134 A 
ATOM      7  C   UNL     1     -16.138  -1.593   2.349  1.00  0.00     0.093 A 
ATOM      8  C   UNL     1     -16.294  -2.604   3.296  1.00  0.00     0.123 A 
ATOM      9  C   UNL     1     -17.559  -2.873   3.822  1.00  0.00     0.094 A 
ATOM     10  C   UNL     1     -18.664  -2.117   3.425  1.00  0.00     0.146 A 
ATOM     11  O   UNL     1     -19.847  -2.393   3.964  1.00  0.00    -0.456 OA
ENDROOT
BRANCH   1  12
ATOM     12  C   UNL     1     -22.226  -2.123   4.336  1.00  0.00     0.021 A 
ATOM     13  C   UNL     1     -22.297  -3.240   5.189  1.00  0.00     0.016 A 
ATOM     14  C   UNL     1     -23.507  -3.603   5.784  1.00  0.00     0.051 A 
ATOM     15  C   UNL     1     -24.668  -2.861   5.532  1.00  0.00     0.157 A 
ATOM     16  C   UNL     1     -23.401  -1.392   4.078  1.00  0.00     0.062 A 
ATOM     17  C   UNL     1     -24.616  -1.756   4.676  1.00  0.00     0.158 A 
BRANCH  15  18
ATOM     18  O   UNL     1     -25.878  -3.220   6.125  1.00  0.00    -0.504 OA
ATOM     19  H   UNL     1     -25.933  -3.964   6.811  1.00  0.00     0.293 HD
ENDBRANCH  15  18
BRANCH  17  20
ATOM     20  O   UNL     1     -25.773  -1.022   4.424  1.00  0.00    -0.504 OA
ATOM     21  H   UNL     1     -25.968  -0.635   3.507  1.00  0.00     0.293 HD
ENDBRANCH  17  20
ENDBRANCH   1  12
BRANCH   6  22
ATOM     22  O   UNL     1     -16.977   0.093   0.895  1.00  0.00    -0.507 OA
ATOM     23  H   UNL     1     -17.240  -0.014  -0.072  1.00  0.00     0.293 HD
ENDBRANCH   6  22
BRANCH   8  24
ATOM     24  O   UNL     1     -15.185  -3.344   3.701  1.00  0.00    -0.508 OA
ATOM     25  H   UNL     1     -14.402  -2.909   4.176  1.00  0.00     0.293 HD
ENDBRANCH   8  24
TORSDOF 5
ENDMDL
MODEL 8
REMARK VINA RESULT:    -5.370      2.151      7.067
REMARK INTER + INTRA:          -6.574
REMARK INTER:                  -6.260
REMARK INTRA:                  -0.314
REMARK UNBOUND:                -0.262
REMARK SMILES O=c1cc(-c2ccc(O)c(O)c2)oc2cc(O)cc(O)c12
REMARK SMILES IDX 4 1 3 2 2 3 1 4 21 5 19 6 18 7 16 8 15 9 14 10 13 11 5 12
REMARK SMILES IDX 6 13 7 14 8 15 12 16 10 17 9 18 11 20 20 22 17 24
REMARK H PARENT 9 19 11 21 20 23 17 25
REMARK Flexibility Score: inf
ROOT
ATOM      1  C   UNL     1     -18.434  -2.070   2.620  1.00  0.00     0.138 A 
ATOM      2  C   UNL     1     -17.440  -2.451   1.708  1.00  0.00     0.100 A 
ATOM      3  C   UNL     1     -16.097  -2.374   2.076  1.00  0.00     0.197 A 
ATOM      4  O   UNL     1     -15.228  -2.671   1.215  1.00  0.00    -0.289 OA
ATOM      5  C   UNL     1     -15.747  -1.948   3.380  1.00  0.00     0.107 A 
ATOM      6  C   UNL     1     -14.413  -1.861   3.879  1.00  0.00     0.134 A 
ATOM      7  C   UNL     1     -14.186  -1.330   5.155  1.00  0.00     0.093 A 
ATOM      8  C   UNL     1     -15.245  -0.936   5.970  1.00  0.00     0.123 A 
ATOM      9  C   UNL     1     -16.558  -1.061   5.513  1.00  0.00     0.094 A 
ATOM     10  C   UNL     1     -16.815  -1.555   4.232  1.00  0.00     0.146 A 
ATOM     11  O   UNL     1     -18.078  -1.642   3.828  1.00  0.00    -0.456 OA
ENDROOT
BRANCH   1  12
ATOM     12  C   UNL     1     -19.878  -2.134   2.282  1.00  0.00     0.021 A 
ATOM     13  C   UNL     1     -20.348  -2.866   1.175  1.00  0.00     0.016 A 
ATOM     14  C   UNL     1     -21.712  -2.900   0.875  1.00  0.00     0.051 A 
ATOM     15  C   UNL     1     -22.628  -2.199   1.669  1.00  0.00     0.157 A 
ATOM     16  C   UNL     1     -20.804  -1.421   3.066  1.00  0.00     0.062 A 
ATOM     17  C   UNL     1     -22.173  -1.457   2.765  1.00  0.00     0.158 A 
BRANCH  15  18
ATOM     18  O   UNL     1     -23.989  -2.232   1.373  1.00  0.00    -0.504 OA
ATOM     19  H   UNL     1     -24.560  -1.395   1.405  1.00  0.00     0.293 HD
ENDBRANCH  15  18
BRANCH  17  20
ATOM     20  O   UNL     1     -23.086  -0.756   3.551  1.00  0.00    -0.504 OA
ATOM     21  H   UNL     1     -23.044   0.253   3.642  1.00  0.00     0.293 HD
ENDBRANCH  17  20
ENDBRANCH   1  12
BRANCH   6  22
ATOM     22  O   UNL     1     -13.285  -2.301   3.179  1.00  0.00    -0.507 OA
ATOM     23  H   UNL     1     -13.147  -2.210   2.185  1.00  0.00     0.293 HD
ENDBRANCH   6  22
BRANCH   8  24
ATOM     24  O   UNL     1     -14.982  -0.427   7.240  1.00  0.00    -0.508 OA
ATOM     25  H   UNL     1     -15.725  -0.263   7.911  1.00  0.00     0.293 HD
ENDBRANCH   8  24
TORSDOF 5
ENDMDL
MODEL 9
REMARK VINA RESULT:    -5.101      2.164      2.769
REMARK INTER + INTRA:          -6.258
REMARK INTER:                  -5.947
REMARK INTRA:                  -0.311
REMARK UNBOUND:                -0.262
REMARK SMILES O=c1cc(-c2ccc(O)c(O)c2)oc2cc(O)cc(O)c12
REMARK SMILES IDX 4 1 3 2 2 3 1 4 21 5 19 6 18 7 16 8 15 9 14 10 13 11 5 12
REMARK SMILES IDX 6 13 7 14 8 15 12 16 10 17 9 18 11 20 20 22 17 24
REMARK H PARENT 9 19 11 21 20 23 17 25
REMARK Flexibility Score: inf
ROOT
ATOM      1  C   UNL     1     -18.172  -2.129   3.344  1.00  0.00     0.138 A 
ATOM      2  C   UNL     1     -18.353  -3.010   2.269  1.00  0.00     0.100 A 
ATOM      3  C   UNL     1     -19.641  -3.288   1.812  1.00  0.00     0.197 A 
ATOM      4  O   UNL     1     -19.773  -4.125   0.883  1.00  0.00    -0.289 OA
ATOM      5  C   UNL     1     -20.754  -2.649   2.412  1.00  0.00     0.107 A 
ATOM      6  C   UNL     1     -22.111  -2.829   2.009  1.00  0.00     0.134 A 
ATOM      7  C   UNL     1     -23.136  -2.219   2.744  1.00  0.00     0.093 A 
ATOM      8  C   UNL     1     -22.851  -1.393   3.830  1.00  0.00     0.123 A 
ATOM      9  C   UNL     1     -21.525  -1.170   4.204  1.00  0.00     0.094 A 
ATOM     10  C   UNL     1     -20.483  -1.791   3.512  1.00  0.00     0.146 A 
ATOM     11  O   UNL     1     -19.234  -1.567   3.911  1.00  0.00    -0.456 OA
ENDROOT
BRANCH   1  12
ATOM     12  C   UNL     1     -16.823  -1.796   3.868  1.00  0.00     0.021 A 
ATOM     13  C   UNL     1     -15.664  -1.957   3.087  1.00  0.00     0.016 A 
ATOM     14  C   UNL     1     -14.407  -1.645   3.611  1.00  0.00     0.051 A 
ATOM     15  C   UNL     1     -14.285  -1.175   4.924  1.00  0.00     0.157 A 
ATOM     16  C   UNL     1     -16.690  -1.337   5.192  1.00  0.00     0.062 A 
ATOM     17  C   UNL     1     -15.428  -1.023   5.717  1.00  0.00     0.158 A 
BRANCH  15  18
ATOM     18  O   UNL     1     -13.032  -0.863   5.449  1.00  0.00    -0.504 OA
ATOM     19  H   UNL     1     -12.415  -0.203   4.992  1.00  0.00     0.293 HD
ENDBRANCH  15  18
BRANCH  17  20
ATOM     20  O   UNL     1     -15.304  -0.560   7.026  1.00  0.00    -0.504 OA
ATOM     21  H   UNL     1     -15.909  -0.895   7.767  1.00  0.00     0.293 HD
ENDBRANCH  17  20
ENDBRANCH   1  12
BRANCH   6  22
ATOM     22  O   UNL     1     -22.505  -3.569   0.890  1.00  0.00    -0.507 OA
ATOM     23  H   UNL     1     -23.448  -3.864   0.692  1.00  0.00     0.293 HD
ENDBRANCH   6  22
BRANCH   8  24
ATOM     24  O   UNL     1     -23.896  -0.791   4.528  1.00  0.00    -0.508 OA
ATOM     25  H   UNL     1     -24.842  -0.783   4.164  1.00  0.00     0.293 HD
ENDBRANCH   8  24
TORSDOF 5
ENDMDL
