MODEL 1
REMARK VINA RESULT:    -7.813      0.000      0.000
REMARK INTER + INTRA:          -9.493
REMARK INTER:                  -9.183
REMARK INTRA:                  -0.310
REMARK UNBOUND:                -0.310
REMARK SMILES O=c1cc(-c2ccc(O)c(O)c2)oc2cc(O)cc(O)c12
REMARK SMILES IDX 4 1 3 2 2 3 1 4 21 5 19 6 18 7 16 8 15 9 14 10 13 11 5 12
REMARK SMILES IDX 6 13 7 14 8 15 12 16 10 17 9 18 11 20 20 22 17 24
REMARK H PARENT 9 19 11 21 20 23 17 25
REMARK Flexibility Score: inf
ROOT
ATOM      1  C   UNL     1     -57.827  27.096 -22.625  1.00  0.00     0.138 A 
ATOM      2  C   UNL     1     -58.925  27.818 -22.139  1.00  0.00     0.100 A 
ATOM      3  C   UNL     1     -58.713  28.923 -21.314  1.00  0.00     0.197 A 
ATOM      4  O   UNL     1     -59.715  29.588 -20.943  1.00  0.00    -0.289 OA
ATOM      5  C   UNL     1     -57.395  29.287 -20.948  1.00  0.00     0.107 A 
ATOM      6  C   UNL     1     -57.062  30.369 -20.079  1.00  0.00     0.134 A 
ATOM      7  C   UNL     1     -55.716  30.706 -19.882  1.00  0.00     0.093 A 
ATOM      8  C   UNL     1     -54.694  29.965 -20.472  1.00  0.00     0.123 A 
ATOM      9  C   UNL     1     -55.007  28.871 -21.281  1.00  0.00     0.094 A 
ATOM     10  C   UNL     1     -56.340  28.530 -21.525  1.00  0.00     0.146 A 
ATOM     11  O   UNL     1     -56.596  27.491 -22.311  1.00  0.00    -0.456 OA
ENDROOT
BRANCH   1  12
ATOM     12  C   UNL     1     -57.994  25.912 -23.505  1.00  0.00     0.021 A 
ATOM     13  C   UNL     1     -59.198  25.187 -23.468  1.00  0.00     0.016 A 
ATOM     14  C   UNL     1     -59.383  24.074 -24.293  1.00  0.00     0.051 A 
ATOM     15  C   UNL     1     -58.372  23.673 -25.175  1.00  0.00     0.157 A 
ATOM     16  C   UNL     1     -56.987  25.510 -24.405  1.00  0.00     0.062 A 
ATOM     17  C   UNL     1     -57.174  24.394 -25.233  1.00  0.00     0.158 A 
BRANCH  15  18
ATOM     18  O   UNL     1     -58.553  22.562 -25.997  1.00  0.00    -0.504 OA
ATOM     19  H   UNL     1     -57.772  22.117 -26.465  1.00  0.00     0.293 HD
ENDBRANCH  15  18
BRANCH  17  20
ATOM     20  O   UNL     1     -56.174  23.999 -26.120  1.00  0.00    -0.504 OA
ATOM     21  H   UNL     1     -55.324  23.553 -25.797  1.00  0.00     0.293 HD
ENDBRANCH  17  20
ENDBRANCH   1  12
BRANCH   6  22
ATOM     22  O   UNL     1     -58.004  31.122 -19.372  1.00  0.00    -0.507 OA
ATOM     23  H   UNL     1     -57.789  31.933 -18.812  1.00  0.00     0.293 HD
ENDBRANCH   6  22
BRANCH   8  24
ATOM     24  O   UNL     1     -53.367  30.320 -20.242  1.00  0.00    -0.508 OA
ATOM     25  H   UNL     1     -52.599  29.748 -20.574  1.00  0.00     0.293 HD
ENDBRANCH   8  24
TORSDOF 5
ENDMDL
MODEL 2
REMARK VINA RESULT:    -7.771      7.607     10.665
REMARK INTER + INTRA:          -9.443
REMARK INTER:                  -9.166
REMARK INTRA:                  -0.278
REMARK UNBOUND:                -0.310
REMARK SMILES O=c1cc(-c2ccc(O)c(O)c2)oc2cc(O)cc(O)c12
REMARK SMILES IDX 4 1 3 2 2 3 1 4 21 5 19 6 18 7 16 8 15 9 14 10 13 11 5 12
REMARK SMILES IDX 6 13 7 14 8 15 12 16 10 17 9 18 11 20 20 22 17 24
REMARK H PARENT 9 19 11 21 20 23 17 25
REMARK Flexibility Score: inf
ROOT
ATOM      1  C   UNL     1     -59.833  20.229 -29.634  1.00  0.00     0.138 A 
ATOM      2  C   UNL     1     -59.093  20.465 -28.467  1.00  0.00     0.100 A 
ATOM      3  C   UNL     1     -58.954  21.768 -27.989  1.00  0.00     0.197 A 
ATOM      4  O   UNL     1     -58.336  21.941 -26.907  1.00  0.00    -0.289 OA
ATOM      5  C   UNL     1     -59.535  22.844 -28.701  1.00  0.00     0.107 A 
ATOM      6  C   UNL     1     -59.423  24.218 -28.331  1.00  0.00     0.134 A 
ATOM      7  C   UNL     1     -60.138  25.186 -29.048  1.00  0.00     0.093 A 
ATOM      8  C   UNL     1     -60.909  24.839 -30.156  1.00  0.00     0.123 A 
ATOM      9  C   UNL     1     -60.982  23.504 -30.560  1.00  0.00     0.094 A 
ATOM     10  C   UNL     1     -60.308  22.511 -29.845  1.00  0.00     0.146 A 
ATOM     11  O   UNL     1     -60.414  21.252 -30.254  1.00  0.00    -0.456 OA
ENDROOT
BRANCH   1  12
ATOM     12  C   UNL     1     -60.012  18.863 -30.187  1.00  0.00     0.021 A 
ATOM     13  C   UNL     1     -59.866  18.652 -31.569  1.00  0.00     0.016 A 
ATOM     14  C   UNL     1     -60.022  17.374 -32.113  1.00  0.00     0.051 A 
ATOM     15  C   UNL     1     -60.316  16.285 -31.285  1.00  0.00     0.157 A 
ATOM     16  C   UNL     1     -60.296  17.760 -29.358  1.00  0.00     0.062 A 
ATOM     17  C   UNL     1     -60.451  16.478 -29.905  1.00  0.00     0.158 A 
BRANCH  15  18
ATOM     18  O   UNL     1     -60.474  15.010 -31.824  1.00  0.00    -0.504 OA
ATOM     19  H   UNL     1     -60.055  14.754 -32.711  1.00  0.00     0.293 HD
ENDBRANCH  15  18
BRANCH  17  20
ATOM     20  O   UNL     1     -60.733  15.389 -29.081  1.00  0.00    -0.504 OA
ATOM     21  H   UNL     1     -60.306  14.483 -29.235  1.00  0.00     0.293 HD
ENDBRANCH  17  20
ENDBRANCH   1  12
BRANCH   6  22
ATOM     22  O   UNL     1     -58.613  24.684 -27.291  1.00  0.00    -0.507 OA
ATOM     23  H   UNL     1     -57.797  24.207 -26.939  1.00  0.00     0.293 HD
ENDBRANCH   6  22
BRANCH   8  24
ATOM     24  O   UNL     1     -61.594  25.830 -30.855  1.00  0.00    -0.508 OA
ATOM     25  H   UNL     1     -61.993  25.655 -31.770  1.00  0.00     0.293 HD
ENDBRANCH   8  24
TORSDOF 5
ENDMDL
MODEL 3
REMARK VINA RESULT:    -7.734      6.556      9.864
REMARK INTER + INTRA:          -9.400
REMARK INTER:                  -9.130
REMARK INTRA:                  -0.270
REMARK UNBOUND:                -0.310
REMARK SMILES O=c1cc(-c2ccc(O)c(O)c2)oc2cc(O)cc(O)c12
REMARK SMILES IDX 4 1 3 2 2 3 1 4 21 5 19 6 18 7 16 8 15 9 14 10 13 11 5 12
REMARK SMILES IDX 6 13 7 14 8 15 12 16 10 17 9 18 11 20 20 22 17 24
REMARK H PARENT 9 19 11 21 20 23 17 25
REMARK Flexibility Score: inf
ROOT
ATOM      1  C   UNL     1     -60.023  20.610 -29.492  1.00  0.00     0.138 A 
ATOM      2  C   UNL     1     -60.580  21.535 -30.386  1.00  0.00     0.100 A 
ATOM      3  C   UNL     1     -60.330  22.897 -30.214  1.00  0.00     0.197 A 
ATOM      4  O   UNL     1     -60.793  23.697 -31.068  1.00  0.00    -0.289 OA
ATOM      5  C   UNL     1     -59.545  23.336 -29.123  1.00  0.00     0.107 A 
ATOM      6  C   UNL     1     -59.259  24.703 -28.825  1.00  0.00     0.134 A 
ATOM      7  C   UNL     1     -58.373  25.011 -27.784  1.00  0.00     0.093 A 
ATOM      8  C   UNL     1     -57.812  24.009 -26.995  1.00  0.00     0.123 A 
ATOM      9  C   UNL     1     -58.127  22.671 -27.243  1.00  0.00     0.094 A 
ATOM     10  C   UNL     1     -58.980  22.329 -28.295  1.00  0.00     0.146 A 
ATOM     11  O   UNL     1     -59.243  21.045 -28.507  1.00  0.00    -0.456 OA
ENDROOT
BRANCH   1  12
ATOM     12  C   UNL     1     -60.256  19.150 -29.627  1.00  0.00     0.021 A 
ATOM     13  C   UNL     1     -60.786  18.430 -28.541  1.00  0.00     0.016 A 
ATOM     14  C   UNL     1     -61.021  17.057 -28.646  1.00  0.00     0.051 A 
ATOM     15  C   UNL     1     -60.741  16.381 -29.840  1.00  0.00     0.157 A 
ATOM     16  C   UNL     1     -59.989  18.465 -30.829  1.00  0.00     0.062 A 
ATOM     17  C   UNL     1     -60.227  17.088 -30.934  1.00  0.00     0.158 A 
BRANCH  15  18
ATOM     18  O   UNL     1     -60.973  15.012 -29.947  1.00  0.00    -0.504 OA
ATOM     19  H   UNL     1     -60.553  14.459 -30.685  1.00  0.00     0.293 HD
ENDBRANCH  15  18
BRANCH  17  20
ATOM     20  O   UNL     1     -59.960  16.414 -32.125  1.00  0.00    -0.504 OA
ATOM     21  H   UNL     1     -59.115  16.590 -32.656  1.00  0.00     0.293 HD
ENDBRANCH  17  20
ENDBRANCH   1  12
BRANCH   6  22
ATOM     22  O   UNL     1     -59.833  25.786 -29.498  1.00  0.00    -0.507 OA
ATOM     23  H   UNL     1     -60.013  25.817 -30.490  1.00  0.00     0.293 HD
ENDBRANCH   6  22
BRANCH   8  24
ATOM     24  O   UNL     1     -56.947  24.354 -25.959  1.00  0.00    -0.508 OA
ATOM     25  H   UNL     1     -56.049  24.788 -26.140  1.00  0.00     0.293 HD
ENDBRANCH   8  24
TORSDOF 5
ENDMDL
MODEL 4
REMARK VINA RESULT:    -7.584      5.512     11.700
REMARK INTER + INTRA:          -9.223
REMARK INTER:                  -8.914
REMARK INTRA:                  -0.309
REMARK UNBOUND:                -0.310
REMARK SMILES O=c1cc(-c2ccc(O)c(O)c2)oc2cc(O)cc(O)c12
REMARK SMILES IDX 4 1 3 2 2 3 1 4 21 5 19 6 18 7 16 8 15 9 14 10 13 11 5 12
REMARK SMILES IDX 6 13 7 14 8 15 12 16 10 17 9 18 11 20 20 22 17 24
REMARK H PARENT 9 19 11 21 20 23 17 25
REMARK Flexibility Score: inf
ROOT
ATOM      1  C   UNL     1     -58.994  21.012 -28.181  1.00  0.00     0.138 A 
ATOM      2  C   UNL     1     -58.656  21.133 -29.536  1.00  0.00     0.100 A 
ATOM      3  C   UNL     1     -59.034  20.134 -30.434  1.00  0.00     0.197 A 
ATOM      4  O   UNL     1     -58.771  20.301 -31.653  1.00  0.00    -0.289 OA
ATOM      5  C   UNL     1     -59.726  18.992 -29.966  1.00  0.00     0.107 A 
ATOM      6  C   UNL     1     -60.124  17.892 -30.783  1.00  0.00     0.134 A 
ATOM      7  C   UNL     1     -60.906  16.869 -30.230  1.00  0.00     0.093 A 
ATOM      8  C   UNL     1     -61.251  16.877 -28.880  1.00  0.00     0.123 A 
ATOM      9  C   UNL     1     -60.822  17.921 -28.059  1.00  0.00     0.094 A 
ATOM     10  C   UNL     1     -60.070  18.973 -28.588  1.00  0.00     0.146 A 
ATOM     11  O   UNL     1     -59.692  19.955 -27.777  1.00  0.00    -0.456 OA
ENDROOT
BRANCH   1  12
ATOM     12  C   UNL     1     -58.617  22.044 -27.183  1.00  0.00     0.021 A 
ATOM     13  C   UNL     1     -57.500  22.864 -27.423  1.00  0.00     0.016 A 
ATOM     14  C   UNL     1     -57.130  23.847 -26.502  1.00  0.00     0.051 A 
ATOM     15  C   UNL     1     -57.875  24.035 -25.332  1.00  0.00     0.157 A 
ATOM     16  C   UNL     1     -59.369  22.248 -26.009  1.00  0.00     0.062 A 
ATOM     17  C   UNL     1     -58.998  23.236 -25.087  1.00  0.00     0.158 A 
BRANCH  15  18
ATOM     18  O   UNL     1     -57.507  25.014 -24.411  1.00  0.00    -0.504 OA
ATOM     19  H   UNL     1     -57.332  24.789 -23.439  1.00  0.00     0.293 HD
ENDBRANCH  15  18
BRANCH  17  20
ATOM     20  O   UNL     1     -59.743  23.434 -23.926  1.00  0.00    -0.504 OA
ATOM     21  H   UNL     1     -59.302  23.487 -23.015  1.00  0.00     0.293 HD
ENDBRANCH  17  20
ENDBRANCH   1  12
BRANCH   6  22
ATOM     22  O   UNL     1     -59.761  17.743 -32.125  1.00  0.00    -0.507 OA
ATOM     23  H   UNL     1     -58.878  18.031 -32.518  1.00  0.00     0.293 HD
ENDBRANCH   6  22
BRANCH   8  24
ATOM     24  O   UNL     1     -62.018  15.836 -28.361  1.00  0.00    -0.508 OA
ATOM     25  H   UNL     1     -61.944  15.555 -27.390  1.00  0.00     0.293 HD
ENDBRANCH   8  24
TORSDOF 5
ENDMDL
MODEL 5
REMARK VINA RESULT:    -7.553      1.178      2.693
REMARK INTER + INTRA:          -9.187
REMARK INTER:                  -8.898
REMARK INTRA:                  -0.289
REMARK UNBOUND:                -0.310
REMARK SMILES O=c1cc(-c2ccc(O)c(O)c2)oc2cc(O)cc(O)c12
REMARK SMILES IDX 4 1 3 2 2 3 1 4 21 5 19 6 18 7 16 8 15 9 14 10 13 11 5 12
REMARK SMILES IDX 6 13 7 14 8 15 12 16 10 17 9 18 11 20 20 22 17 24
REMARK H PARENT 9 19 11 21 20 23 17 25
REMARK Flexibility Score: inf
ROOT
ATOM      1  C   UNL     1     -57.508  26.685 -22.881  1.00  0.00     0.138 A 
ATOM      2  C   UNL     1     -56.159  26.984 -22.643  1.00  0.00     0.100 A 
ATOM      3  C   UNL     1     -55.826  28.057 -21.816  1.00  0.00     0.197 A 
ATOM      4  O   UNL     1     -54.609  28.262 -21.572  1.00  0.00    -0.289 OA
ATOM      5  C   UNL     1     -56.849  28.853 -21.249  1.00  0.00     0.107 A 
ATOM      6  C   UNL     1     -56.626  29.997 -20.425  1.00  0.00     0.134 A 
ATOM      7  C   UNL     1     -57.718  30.638 -19.826  1.00  0.00     0.093 A 
ATOM      8  C   UNL     1     -59.024  30.217 -20.070  1.00  0.00     0.123 A 
ATOM      9  C   UNL     1     -59.257  29.133 -20.918  1.00  0.00     0.094 A 
ATOM     10  C   UNL     1     -58.187  28.451 -21.503  1.00  0.00     0.146 A 
ATOM     11  O   UNL     1     -58.450  27.416 -22.293  1.00  0.00    -0.456 OA
ENDROOT
BRANCH   1  12
ATOM     12  C   UNL     1     -57.919  25.556 -23.753  1.00  0.00     0.021 A 
ATOM     13  C   UNL     1     -59.157  24.926 -23.531  1.00  0.00     0.016 A 
ATOM     14  C   UNL     1     -59.570  23.866 -24.343  1.00  0.00     0.051 A 
ATOM     15  C   UNL     1     -58.759  23.425 -25.395  1.00  0.00     0.157 A 
ATOM     16  C   UNL     1     -57.115  25.115 -24.822  1.00  0.00     0.062 A 
ATOM     17  C   UNL     1     -57.531  24.052 -25.637  1.00  0.00     0.158 A 
BRANCH  15  18
ATOM     18  O   UNL     1     -59.168  22.367 -26.205  1.00  0.00    -0.504 OA
ATOM     19  H   UNL     1     -58.514  21.664 -26.529  1.00  0.00     0.293 HD
ENDBRANCH  15  18
BRANCH  17  20
ATOM     20  O   UNL     1     -56.731  23.617 -26.692  1.00  0.00    -0.504 OA
ATOM     21  H   UNL     1     -57.108  23.484 -27.623  1.00  0.00     0.293 HD
ENDBRANCH  17  20
ENDBRANCH   1  12
BRANCH   6  22
ATOM     22  O   UNL     1     -55.366  30.553 -20.183  1.00  0.00    -0.507 OA
ATOM     23  H   UNL     1     -55.027  31.409 -20.594  1.00  0.00     0.293 HD
ENDBRANCH   6  22
BRANCH   8  24
ATOM     24  O   UNL     1     -60.086  30.889 -19.468  1.00  0.00    -0.508 OA
ATOM     25  H   UNL     1     -60.616  31.596 -19.965  1.00  0.00     0.293 HD
ENDBRANCH   8  24
TORSDOF 5
ENDMDL
MODEL 6
REMARK VINA RESULT:    -7.187      2.236      6.902
REMARK INTER + INTRA:          -8.757
REMARK INTER:                  -8.484
REMARK INTRA:                  -0.272
REMARK UNBOUND:                -0.310
REMARK SMILES O=c1cc(-c2ccc(O)c(O)c2)oc2cc(O)cc(O)c12
REMARK SMILES IDX 4 1 3 2 2 3 1 4 21 5 19 6 18 7 16 8 15 9 14 10 13 11 5 12
REMARK SMILES IDX 6 13 7 14 8 15 12 16 10 17 9 18 11 20 20 22 17 24
REMARK H PARENT 9 19 11 21 20 23 17 25
REMARK Flexibility Score: inf
ROOT
ATOM      1  C   UNL     1     -57.455  28.949 -22.528  1.00  0.00     0.138 A 
ATOM      2  C   UNL     1     -57.935  29.756 -23.569  1.00  0.00     0.100 A 
ATOM      3  C   UNL     1     -58.664  29.180 -24.609  1.00  0.00     0.197 A 
ATOM      4  O   UNL     1     -59.134  29.939 -25.497  1.00  0.00    -0.289 OA
ATOM      5  C   UNL     1     -58.886  27.783 -24.623  1.00  0.00     0.107 A 
ATOM      6  C   UNL     1     -59.580  27.080 -25.654  1.00  0.00     0.134 A 
ATOM      7  C   UNL     1     -59.839  25.712 -25.502  1.00  0.00     0.093 A 
ATOM      8  C   UNL     1     -59.379  25.011 -24.389  1.00  0.00     0.123 A 
ATOM      9  C   UNL     1     -58.653  25.677 -23.400  1.00  0.00     0.094 A 
ATOM     10  C   UNL     1     -58.408  27.048 -23.506  1.00  0.00     0.146 A 
ATOM     11  O   UNL     1     -57.725  27.647 -22.537  1.00  0.00    -0.456 OA
ENDROOT
BRANCH   1  12
ATOM     12  C   UNL     1     -56.674  29.510 -21.397  1.00  0.00     0.021 A 
ATOM     13  C   UNL     1     -57.289  30.412 -20.512  1.00  0.00     0.016 A 
ATOM     14  C   UNL     1     -56.577  30.948 -19.435  1.00  0.00     0.051 A 
ATOM     15  C   UNL     1     -55.243  30.583 -19.219  1.00  0.00     0.157 A 
ATOM     16  C   UNL     1     -55.335  29.138 -21.166  1.00  0.00     0.062 A 
ATOM     17  C   UNL     1     -54.622  29.675 -20.085  1.00  0.00     0.158 A 
BRANCH  15  18
ATOM     18  O   UNL     1     -54.530  31.117 -18.148  1.00  0.00    -0.504 OA
ATOM     19  H   UNL     1     -54.220  32.082 -18.145  1.00  0.00     0.293 HD
ENDBRANCH  15  18
BRANCH  17  20
ATOM     20  O   UNL     1     -53.297  29.305 -19.860  1.00  0.00    -0.504 OA
ATOM     21  H   UNL     1     -52.525  29.873 -20.190  1.00  0.00     0.293 HD
ENDBRANCH  17  20
ENDBRANCH   1  12
BRANCH   6  22
ATOM     22  O   UNL     1     -60.010  27.668 -26.848  1.00  0.00    -0.507 OA
ATOM     23  H   UNL     1     -60.962  27.669 -27.179  1.00  0.00     0.293 HD
ENDBRANCH   6  22
BRANCH   8  24
ATOM     24  O   UNL     1     -59.643  23.647 -24.279  1.00  0.00    -0.508 OA
ATOM     25  H   UNL     1     -59.075  23.042 -23.697  1.00  0.00     0.293 HD
ENDBRANCH   8  24
TORSDOF 5
ENDMDL
MODEL 7
REMARK VINA RESULT:    -7.139      1.701      3.172
REMARK INTER + INTRA:          -8.700
REMARK INTER:                  -8.429
REMARK INTRA:                  -0.271
REMARK UNBOUND:                -0.310
REMARK SMILES O=c1cc(-c2ccc(O)c(O)c2)oc2cc(O)cc(O)c12
REMARK SMILES IDX 4 1 3 2 2 3 1 4 21 5 19 6 18 7 16 8 15 9 14 10 13 11 5 12
REMARK SMILES IDX 6 13 7 14 8 15 12 16 10 17 9 18 11 20 20 22 17 24
REMARK H PARENT 9 19 11 21 20 23 17 25
REMARK Flexibility Score: inf
ROOT
ATOM      1  C   UNL     1     -57.925  26.039 -23.702  1.00  0.00     0.138 A 
ATOM      2  C   UNL     1     -56.684  26.255 -23.086  1.00  0.00     0.100 A 
ATOM      3  C   UNL     1     -56.504  27.372 -22.270  1.00  0.00     0.197 A 
ATOM      4  O   UNL     1     -55.400  27.507 -21.683  1.00  0.00    -0.289 OA
ATOM      5  C   UNL     1     -57.563  28.294 -22.095  1.00  0.00     0.107 A 
ATOM      6  C   UNL     1     -57.481  29.490 -21.319  1.00  0.00     0.134 A 
ATOM      7  C   UNL     1     -58.631  30.266 -21.124  1.00  0.00     0.093 A 
ATOM      8  C   UNL     1     -59.842  29.924 -21.724  1.00  0.00     0.123 A 
ATOM      9  C   UNL     1     -59.921  28.785 -22.528  1.00  0.00     0.094 A 
ATOM     10  C   UNL     1     -58.800  27.972 -22.715  1.00  0.00     0.146 A 
ATOM     11  O   UNL     1     -58.921  26.891 -23.477  1.00  0.00    -0.456 OA
ENDROOT
BRANCH   1  12
ATOM     12  C   UNL     1     -58.171  24.867 -24.580  1.00  0.00     0.021 A 
ATOM     13  C   UNL     1     -59.254  24.013 -24.307  1.00  0.00     0.016 A 
ATOM     14  C   UNL     1     -59.511  22.908 -25.123  1.00  0.00     0.051 A 
ATOM     15  C   UNL     1     -58.697  22.644 -26.230  1.00  0.00     0.157 A 
ATOM     16  C   UNL     1     -57.364  24.602 -25.704  1.00  0.00     0.062 A 
ATOM     17  C   UNL     1     -57.624  23.494 -26.523  1.00  0.00     0.158 A 
BRANCH  15  18
ATOM     18  O   UNL     1     -58.950  21.543 -27.045  1.00  0.00    -0.504 OA
ATOM     19  H   UNL     1     -59.895  21.237 -27.245  1.00  0.00     0.293 HD
ENDBRANCH  15  18
BRANCH  17  20
ATOM     20  O   UNL     1     -56.823  23.234 -27.634  1.00  0.00    -0.504 OA
ATOM     21  H   UNL     1     -57.166  23.365 -28.578  1.00  0.00     0.293 HD
ENDBRANCH  17  20
ENDBRANCH   1  12
BRANCH   6  22
ATOM     22  O   UNL     1     -56.300  29.969 -20.745  1.00  0.00    -0.507 OA
ATOM     23  H   UNL     1     -56.240  30.427 -19.849  1.00  0.00     0.293 HD
ENDBRANCH   6  22
BRANCH   8  24
ATOM     24  O   UNL     1     -60.961  30.727 -21.519  1.00  0.00    -0.508 OA
ATOM     25  H   UNL     1     -60.899  31.603 -21.014  1.00  0.00     0.293 HD
ENDBRANCH   8  24
TORSDOF 5
ENDMDL
MODEL 8
REMARK VINA RESULT:    -7.074      5.634      8.592
REMARK INTER + INTRA:          -8.625
REMARK INTER:                  -8.334
REMARK INTRA:                  -0.291
REMARK UNBOUND:                -0.310
REMARK SMILES O=c1cc(-c2ccc(O)c(O)c2)oc2cc(O)cc(O)c12
REMARK SMILES IDX 4 1 3 2 2 3 1 4 21 5 19 6 18 7 16 8 15 9 14 10 13 11 5 12
REMARK SMILES IDX 6 13 7 14 8 15 12 16 10 17 9 18 11 20 20 22 17 24
REMARK H PARENT 9 19 11 21 20 23 17 25
REMARK Flexibility Score: inf
ROOT
ATOM      1  C   UNL     1     -59.245  21.527 -28.372  1.00  0.00     0.138 A 
ATOM      2  C   UNL     1     -59.050  21.456 -26.986  1.00  0.00     0.100 A 
ATOM      3  C   UNL     1     -58.747  22.615 -26.271  1.00  0.00     0.197 A 
ATOM      4  O   UNL     1     -58.639  22.530 -25.020  1.00  0.00    -0.289 OA
ATOM      5  C   UNL     1     -58.607  23.846 -26.953  1.00  0.00     0.107 A 
ATOM      6  C   UNL     1     -58.259  25.084 -26.333  1.00  0.00     0.134 A 
ATOM      7  C   UNL     1     -58.264  26.261 -27.093  1.00  0.00     0.093 A 
ATOM      8  C   UNL     1     -58.543  26.236 -28.459  1.00  0.00     0.123 A 
ATOM      9  C   UNL     1     -58.832  25.023 -29.086  1.00  0.00     0.094 A 
ATOM     10  C   UNL     1     -58.869  23.837 -28.349  1.00  0.00     0.146 A 
ATOM     11  O   UNL     1     -59.161  22.706 -28.981  1.00  0.00    -0.456 OA
ENDROOT
BRANCH   1  12
ATOM     12  C   UNL     1     -59.569  20.326 -29.182  1.00  0.00     0.021 A 
ATOM     13  C   UNL     1     -59.305  20.330 -30.563  1.00  0.00     0.016 A 
ATOM     14  C   UNL     1     -59.594  19.209 -31.345  1.00  0.00     0.051 A 
ATOM     15  C   UNL     1     -60.141  18.062 -30.760  1.00  0.00     0.157 A 
ATOM     16  C   UNL     1     -60.108  19.163 -28.598  1.00  0.00     0.062 A 
ATOM     17  C   UNL     1     -60.396  18.038 -29.383  1.00  0.00     0.158 A 
BRANCH  15  18
ATOM     18  O   UNL     1     -60.432  16.943 -31.537  1.00  0.00    -0.504 OA
ATOM     19  H   UNL     1     -61.172  16.956 -32.230  1.00  0.00     0.293 HD
ENDBRANCH  15  18
BRANCH  17  20
ATOM     20  O   UNL     1     -60.932  16.889 -28.802  1.00  0.00    -0.504 OA
ATOM     21  H   UNL     1     -61.127  16.059 -29.349  1.00  0.00     0.293 HD
ENDBRANCH  17  20
ENDBRANCH   1  12
BRANCH   6  22
ATOM     22  O   UNL     1     -57.881  25.208 -24.993  1.00  0.00    -0.507 OA
ATOM     23  H   UNL     1     -57.145  25.810 -24.656  1.00  0.00     0.293 HD
ENDBRANCH   6  22
BRANCH   8  24
ATOM     24  O   UNL     1     -58.523  27.424 -29.185  1.00  0.00    -0.508 OA
ATOM     25  H   UNL     1     -59.105  28.214 -28.928  1.00  0.00     0.293 HD
ENDBRANCH   8  24
TORSDOF 5
ENDMDL
MODEL 9
REMARK VINA RESULT:    -6.933      3.609      9.563
REMARK INTER + INTRA:          -8.458
REMARK INTER:                  -8.190
REMARK INTRA:                  -0.269
REMARK UNBOUND:                -0.310
REMARK SMILES O=c1cc(-c2ccc(O)c(O)c2)oc2cc(O)cc(O)c12
REMARK SMILES IDX 4 1 3 2 2 3 1 4 21 5 19 6 18 7 16 8 15 9 14 10 13 11 5 12
REMARK SMILES IDX 6 13 7 14 8 15 12 16 10 17 9 18 11 20 20 22 17 24
REMARK H PARENT 9 19 11 21 20 23 17 25
REMARK Flexibility Score: inf
ROOT
ATOM      1  C   UNL     1     -58.193  23.652 -26.785  1.00  0.00     0.138 A 
ATOM      2  C   UNL     1     -57.778  24.161 -28.023  1.00  0.00     0.100 A 
ATOM      3  C   UNL     1     -57.875  23.364 -29.165  1.00  0.00     0.197 A 
ATOM      4  O   UNL     1     -57.552  23.870 -30.270  1.00  0.00    -0.289 OA
ATOM      5  C   UNL     1     -58.362  22.040 -29.059  1.00  0.00     0.107 A 
ATOM      6  C   UNL     1     -58.465  21.123 -30.148  1.00  0.00     0.134 A 
ATOM      7  C   UNL     1     -59.071  19.876 -29.945  1.00  0.00     0.093 A 
ATOM      8  C   UNL     1     -59.520  19.490 -28.683  1.00  0.00     0.123 A 
ATOM      9  C   UNL     1     -59.375  20.358 -27.599  1.00  0.00     0.094 A 
ATOM     10  C   UNL     1     -58.806  21.622 -27.776  1.00  0.00     0.146 A 
ATOM     11  O   UNL     1     -58.698  22.423 -26.722  1.00  0.00    -0.456 OA
ENDROOT
BRANCH   1  12
ATOM     12  C   UNL     1     -58.112  24.455 -25.539  1.00  0.00     0.021 A 
ATOM     13  C   UNL     1     -56.853  24.740 -24.980  1.00  0.00     0.016 A 
ATOM     14  C   UNL     1     -56.750  25.500 -23.813  1.00  0.00     0.051 A 
ATOM     15  C   UNL     1     -57.900  25.997 -23.189  1.00  0.00     0.157 A 
ATOM     16  C   UNL     1     -59.264  24.970 -24.913  1.00  0.00     0.062 A 
ATOM     17  C   UNL     1     -59.159  25.734 -23.742  1.00  0.00     0.158 A 
BRANCH  15  18
ATOM     18  O   UNL     1     -57.801  26.754 -22.024  1.00  0.00    -0.504 OA
ATOM     19  H   UNL     1     -58.379  27.573 -21.872  1.00  0.00     0.293 HD
ENDBRANCH  15  18
BRANCH  17  20
ATOM     20  O   UNL     1     -60.302  26.240 -23.125  1.00  0.00    -0.504 OA
ATOM     21  H   UNL     1     -61.131  26.479 -23.657  1.00  0.00     0.293 HD
ENDBRANCH  17  20
ENDBRANCH   1  12
BRANCH   6  22
ATOM     22  O   UNL     1     -57.972  21.375 -31.432  1.00  0.00    -0.507 OA
ATOM     23  H   UNL     1     -57.423  22.181 -31.690  1.00  0.00     0.293 HD
ENDBRANCH   6  22
BRANCH   8  24
ATOM     24  O   UNL     1     -60.104  18.237 -28.515  1.00  0.00    -0.508 OA
ATOM     25  H   UNL     1     -61.079  18.136 -28.259  1.00  0.00     0.293 HD
ENDBRANCH   8  24
TORSDOF 5
ENDMDL
