MODEL 1
REMARK VINA RESULT:    -2.435      0.000      0.000
REMARK INTER + INTRA:          -3.140
REMARK INTER:                  -2.934
REMARK INTRA:                  -0.207
REMARK UNBOUND:                -0.207
REMARK SMILES O=c1c(O)c(-c2ccc(O)c(O)c2)oc2cc(O)cc(O)c12
REMARK SMILES IDX 5 1 3 2 2 3 1 4 22 5 20 6 19 7 17 8 16 9 15 10 14 11 6 12
REMARK SMILES IDX 7 13 8 14 9 15 13 16 11 17 10 18 12 20 4 22 21 24 18 26
REMARK H PARENT 10 19 12 21 4 23 21 25 18 27
REMARK Flexibility Score: inf
ROOT
ATOM      1  C   UNL     1      59.564   3.952  55.410  1.00  0.00     0.180 A 
ATOM      2  C   UNL     1      59.394   3.202  54.233  1.00  0.00     0.208 A 
ATOM      3  C   UNL     1      60.189   3.500  53.114  1.00  0.00     0.238 A 
ATOM      4  O   UNL     1      60.070   2.789  52.082  1.00  0.00    -0.285 OA
ATOM      5  C   UNL     1      61.131   4.554  53.181  1.00  0.00     0.111 A 
ATOM      6  C   UNL     1      61.961   4.968  52.095  1.00  0.00     0.134 A 
ATOM      7  C   UNL     1      62.950   5.936  52.312  1.00  0.00     0.093 A 
ATOM      8  C   UNL     1      63.095   6.551  53.558  1.00  0.00     0.123 A 
ATOM      9  C   UNL     1      62.251   6.195  54.608  1.00  0.00     0.094 A 
ATOM     10  C   UNL     1      61.279   5.207  54.431  1.00  0.00     0.146 A 
ATOM     11  O   UNL     1      60.502   4.890  55.461  1.00  0.00    -0.452 OA
ENDROOT
BRANCH   1  12
ATOM     12  C   UNL     1      58.747   3.714  56.622  1.00  0.00     0.025 A 
ATOM     13  C   UNL     1      57.363   3.964  56.632  1.00  0.00     0.016 A 
ATOM     14  C   UNL     1      56.617   3.754  57.793  1.00  0.00     0.051 A 
ATOM     15  C   UNL     1      57.241   3.308  58.965  1.00  0.00     0.157 A 
ATOM     16  C   UNL     1      59.372   3.286  57.804  1.00  0.00     0.062 A 
ATOM     17  C   UNL     1      58.627   3.075  58.970  1.00  0.00     0.158 A 
BRANCH  15  18
ATOM     18  O   UNL     1      56.493   3.098  60.122  1.00  0.00    -0.504 OA
ATOM     19  H   UNL     1      56.735   3.543  61.000  1.00  0.00     0.293 HD
ENDBRANCH  15  18
BRANCH  17  20
ATOM     20  O   UNL     1      59.281   2.637  60.122  1.00  0.00    -0.504 OA
ATOM     21  H   UNL     1      58.774   2.289  60.927  1.00  0.00     0.293 HD
ENDBRANCH  17  20
ENDBRANCH   1  12
BRANCH   2  22
ATOM     22  O   UNL     1      58.473   2.152  54.196  1.00  0.00    -0.502 OA
ATOM     23  H   UNL     1      57.630   2.187  53.636  1.00  0.00     0.293 HD
ENDBRANCH   2  22
BRANCH   6  24
ATOM     24  O   UNL     1      61.836   4.485  50.789  1.00  0.00    -0.507 OA
ATOM     25  H   UNL     1      62.005   3.530  50.511  1.00  0.00     0.293 HD
ENDBRANCH   6  24
BRANCH   8  26
ATOM     26  O   UNL     1      64.070   7.524  53.761  1.00  0.00    -0.508 OA
ATOM     27  H   UNL     1      65.058   7.310  53.681  1.00  0.00     0.293 HD
ENDBRANCH   8  26
TORSDOF 6
ENDMDL
MODEL 2
REMARK VINA RESULT:    -2.421      1.234      6.699
REMARK INTER + INTRA:          -3.123
REMARK INTER:                  -3.647
REMARK INTRA:                   0.524
REMARK UNBOUND:                -0.207
REMARK SMILES O=c1c(O)c(-c2ccc(O)c(O)c2)oc2cc(O)cc(O)c12
REMARK SMILES IDX 5 1 3 2 2 3 1 4 22 5 20 6 19 7 17 8 16 9 15 10 14 11 6 12
REMARK SMILES IDX 7 13 8 14 9 15 13 16 11 17 10 18 12 20 4 22 21 24 18 26
REMARK H PARENT 10 19 12 21 4 23 21 25 18 27
REMARK Flexibility Score: inf
ROOT
ATOM      1  C   UNL     1      60.048   4.629  54.830  1.00  0.00     0.180 A 
ATOM      2  C   UNL     1      59.189   3.852  54.034  1.00  0.00     0.208 A 
ATOM      3  C   UNL     1      58.067   3.251  54.627  1.00  0.00     0.238 A 
ATOM      4  O   UNL     1      57.273   2.603  53.898  1.00  0.00    -0.285 OA
ATOM      5  C   UNL     1      57.828   3.420  56.012  1.00  0.00     0.111 A 
ATOM      6  C   UNL     1      56.744   2.825  56.725  1.00  0.00     0.134 A 
ATOM      7  C   UNL     1      56.530   3.166  58.066  1.00  0.00     0.093 A 
ATOM      8  C   UNL     1      57.398   4.032  58.737  1.00  0.00     0.123 A 
ATOM      9  C   UNL     1      58.492   4.572  58.065  1.00  0.00     0.094 A 
ATOM     10  C   UNL     1      58.711   4.278  56.718  1.00  0.00     0.146 A 
ATOM     11  O   UNL     1      59.760   4.823  56.112  1.00  0.00    -0.452 OA
ENDROOT
BRANCH   1  12
ATOM     12  C   UNL     1      61.264   5.274  54.283  1.00  0.00     0.025 A 
ATOM     13  C   UNL     1      61.992   6.216  55.031  1.00  0.00     0.016 A 
ATOM     14  C   UNL     1      63.123   6.828  54.486  1.00  0.00     0.051 A 
ATOM     15  C   UNL     1      63.535   6.522  53.182  1.00  0.00     0.157 A 
ATOM     16  C   UNL     1      61.669   4.985  52.970  1.00  0.00     0.062 A 
ATOM     17  C   UNL     1      62.801   5.596  52.420  1.00  0.00     0.158 A 
BRANCH  15  18
ATOM     18  O   UNL     1      64.665   7.134  52.642  1.00  0.00    -0.504 OA
ATOM     19  H   UNL     1      65.468   7.366  53.215  1.00  0.00     0.293 HD
ENDBRANCH  15  18
BRANCH  17  20
ATOM     20  O   UNL     1      63.181   5.274  51.117  1.00  0.00    -0.504 OA
ATOM     21  H   UNL     1      62.594   5.486  50.319  1.00  0.00     0.293 HD
ENDBRANCH  17  20
ENDBRANCH   1  12
BRANCH   2  22
ATOM     22  O   UNL     1      59.433   3.716  52.664  1.00  0.00    -0.502 OA
ATOM     23  H   UNL     1      60.041   2.998  52.289  1.00  0.00     0.293 HD
ENDBRANCH   2  22
BRANCH   6  24
ATOM     24  O   UNL     1      55.875   1.877  56.175  1.00  0.00    -0.507 OA
ATOM     25  H   UNL     1      56.021   0.880  56.203  1.00  0.00     0.293 HD
ENDBRANCH   6  24
BRANCH   8  26
ATOM     26  O   UNL     1      57.186   4.353  60.075  1.00  0.00    -0.508 OA
ATOM     27  H   UNL     1      57.527   5.222  60.473  1.00  0.00     0.293 HD
ENDBRANCH   8  26
TORSDOF 6
ENDMDL
MODEL 3
REMARK VINA RESULT:     0.203      1.308      2.918
REMARK INTER + INTRA:           0.038
REMARK INTER:                   0.327
REMARK INTRA:                  -0.290
REMARK UNBOUND:                -0.207
REMARK SMILES O=c1c(O)c(-c2ccc(O)c(O)c2)oc2cc(O)cc(O)c12
REMARK SMILES IDX 5 1 3 2 2 3 1 4 22 5 20 6 19 7 17 8 16 9 15 10 14 11 6 12
REMARK SMILES IDX 7 13 8 14 9 15 13 16 11 17 10 18 12 20 4 22 21 24 18 26
REMARK H PARENT 10 19 12 21 4 23 21 25 18 27
REMARK Flexibility Score: inf
ROOT
ATOM      1  C   UNL     1      59.302   4.132  55.817  1.00  0.00     0.180 A 
ATOM      2  C   UNL     1      60.214   5.196  55.935  1.00  0.00     0.208 A 
ATOM      3  C   UNL     1      61.062   5.489  54.855  1.00  0.00     0.238 A 
ATOM      4  O   UNL     1      61.837   6.476  54.946  1.00  0.00    -0.285 OA
ATOM      5  C   UNL     1      61.000   4.705  53.678  1.00  0.00     0.111 A 
ATOM      6  C   UNL     1      61.840   4.888  52.538  1.00  0.00     0.134 A 
ATOM      7  C   UNL     1      61.603   4.140  51.378  1.00  0.00     0.093 A 
ATOM      8  C   UNL     1      60.598   3.169  51.340  1.00  0.00     0.123 A 
ATOM      9  C   UNL     1      59.811   2.943  52.467  1.00  0.00     0.094 A 
ATOM     10  C   UNL     1      60.001   3.699  53.626  1.00  0.00     0.146 A 
ATOM     11  O   UNL     1      59.222   3.458  54.675  1.00  0.00    -0.452 OA
ENDROOT
BRANCH   1  12
ATOM     12  C   UNL     1      58.392   3.746  56.920  1.00  0.00     0.025 A 
ATOM     13  C   UNL     1      57.050   4.166  56.942  1.00  0.00     0.016 A 
ATOM     14  C   UNL     1      56.217   3.809  58.005  1.00  0.00     0.051 A 
ATOM     15  C   UNL     1      56.713   3.041  59.067  1.00  0.00     0.157 A 
ATOM     16  C   UNL     1      58.890   2.995  57.996  1.00  0.00     0.062 A 
ATOM     17  C   UNL     1      58.058   2.635  59.062  1.00  0.00     0.158 A 
BRANCH  15  18
ATOM     18  O   UNL     1      55.878   2.685  60.124  1.00  0.00    -0.504 OA
ATOM     19  H   UNL     1      55.063   3.237  60.367  1.00  0.00     0.293 HD
ENDBRANCH  15  18
BRANCH  17  20
ATOM     20  O   UNL     1      58.585   1.876  60.107  1.00  0.00    -0.504 OA
ATOM     21  H   UNL     1      57.995   1.446  60.809  1.00  0.00     0.293 HD
ENDBRANCH  17  20
ENDBRANCH   1  12
BRANCH   2  22
ATOM     22  O   UNL     1      60.243   5.970  57.098  1.00  0.00    -0.502 OA
ATOM     23  H   UNL     1      61.097   6.378  57.459  1.00  0.00     0.293 HD
ENDBRANCH   2  22
BRANCH   6  24
ATOM     24  O   UNL     1      62.929   5.764  52.504  1.00  0.00    -0.507 OA
ATOM     25  H   UNL     1      63.405   6.057  51.664  1.00  0.00     0.293 HD
ENDBRANCH   6  24
BRANCH   8  26
ATOM     26  O   UNL     1      60.379   2.418  50.188  1.00  0.00    -0.508 OA
ATOM     27  H   UNL     1      59.499   1.943  50.023  1.00  0.00     0.293 HD
ENDBRANCH   8  26
TORSDOF 6
ENDMDL
