MODEL 1
REMARK VINA RESULT:    -4.741      0.000      0.000
REMARK INTER + INTRA:          -7.904
REMARK INTER:                  -6.681
REMARK INTRA:                  -1.223
REMARK UNBOUND:                -1.223
REMARK SMILES O=c1cc(-c2ccc(O)c(O)c2)oc2cc(O)c([C@H]3O[C@@H](CO)[C@@H](O)[C@H](O)[C@@H]3O)c(O)c12
REMARK SMILES IDX 4 1 3 2 2 3 1 4 32 5 14 6 13 7 15 8 16 9 18 10 30 11 5 12
REMARK SMILES IDX 6 13 7 14 8 15 12 16 10 17 9 18 11 20 31 22 17 24 19 26
REMARK SMILES IDX 28 27 20 28 26 29 21 30 24 31 29 32 27 34 22 36 23 37 25 39
REMARK H PARENT 9 19 11 21 31 23 17 25 29 33 27 35 23 38 25 40
REMARK Flexibility Score: inf
ROOT
ATOM      1  C   UNL     1       1.732   7.977   5.054  1.00  0.00     0.138 A 
ATOM      2  C   UNL     1       1.027   7.612   3.900  1.00  0.00     0.100 A 
ATOM      3  C   UNL     1       1.725   7.357   2.719  1.00  0.00     0.197 A 
ATOM      4  O   UNL     1       1.060   7.106   1.680  1.00  0.00    -0.289 OA
ATOM      5  C   UNL     1       3.142   7.430   2.709  1.00  0.00     0.107 A 
ATOM      6  C   UNL     1       3.770   7.838   3.911  1.00  0.00     0.146 A 
ATOM      7  O   UNL     1       3.058   8.072   5.008  1.00  0.00    -0.456 OA
ATOM      8  C   UNL     1       5.147   8.023   3.959  1.00  0.00     0.094 A 
ATOM      9  C   UNL     1       5.934   7.852   2.820  1.00  0.00     0.128 A 
ATOM     10  C   UNL     1       5.345   7.426   1.611  1.00  0.00     0.068 A 
ATOM     11  C   UNL     1       3.952   7.163   1.566  1.00  0.00     0.140 A 
ENDROOT
BRANCH   1  12
ATOM     12  C   UNL     1       1.039   8.267   6.333  1.00  0.00     0.021 A 
ATOM     13  C   UNL     1      -0.242   8.850   6.361  1.00  0.00     0.016 A 
ATOM     14  C   UNL     1      -0.864   9.131   7.580  1.00  0.00     0.051 A 
ATOM     15  C   UNL     1      -0.224   8.840   8.787  1.00  0.00     0.157 A 
ATOM     16  C   UNL     1       1.684   7.989   7.550  1.00  0.00     0.062 A 
ATOM     17  C   UNL     1       1.058   8.268   8.773  1.00  0.00     0.158 A 
BRANCH  15  18
ATOM     18  O   UNL     1      -0.873   9.132   9.986  1.00  0.00    -0.504 OA
ATOM     19  H   UNL     1      -1.881   9.229  10.044  1.00  0.00     0.293 HD
ENDBRANCH  15  18
BRANCH  17  20
ATOM     20  O   UNL     1       1.705   7.977   9.975  1.00  0.00    -0.504 OA
ATOM     21  H   UNL     1       1.692   8.624  10.755  1.00  0.00     0.293 HD
ENDBRANCH  17  20
ENDBRANCH   1  12
BRANCH  11  22
ATOM     22  O   UNL     1       3.428   6.619   0.386  1.00  0.00    -0.506 OA
ATOM     23  H   UNL     1       2.815   5.818   0.349  1.00  0.00     0.293 HD
ENDBRANCH  11  22
BRANCH   9  24
ATOM     24  O   UNL     1       7.304   8.101   2.893  1.00  0.00    -0.507 OA
ATOM     25  H   UNL     1       7.971   7.367   3.108  1.00  0.00     0.293 HD
ENDBRANCH   9  24
BRANCH  10  26
ATOM     26  C   UNL     1       6.205   7.255   0.362  1.00  0.00     0.188 C 
ATOM     27  C   UNL     1       6.931   5.887   0.394  1.00  0.00     0.179 C 
ATOM     28  O   UNL     1       7.132   8.329   0.289  1.00  0.00    -0.362 OA
ATOM     29  C   UNL     1       7.872   5.745  -0.820  1.00  0.00     0.177 C 
ATOM     30  C   UNL     1       7.869   8.280  -0.922  1.00  0.00     0.176 C 
ATOM     31  C   UNL     1       8.750   7.005  -0.984  1.00  0.00     0.177 C 
BRANCH  27  32
ATOM     32  O   UNL     1       5.983   4.851   0.389  1.00  0.00    -0.387 OA
ATOM     33  H   UNL     1       5.113   5.257   0.646  1.00  0.00     0.211 HD
ENDBRANCH  27  32
BRANCH  29  34
ATOM     34  O   UNL     1       7.108   5.541  -1.983  1.00  0.00    -0.387 OA
ATOM     35  H   UNL     1       6.216   5.947  -1.817  1.00  0.00     0.211 HD
ENDBRANCH  29  34
BRANCH  30  36
ATOM     36  C   UNL     1       8.698   9.566  -1.072  1.00  0.00     0.191 C 
BRANCH  36  37
ATOM     37  O   UNL     1       9.497   9.801   0.057  1.00  0.00    -0.394 OA
ATOM     38  H   UNL     1      10.324   9.263  -0.060  1.00  0.00     0.210 HD
ENDBRANCH  36  37
ENDBRANCH  30  36
BRANCH  31  39
ATOM     39  O   UNL     1       9.781   7.019  -0.026  1.00  0.00    -0.388 OA
ATOM     40  H   UNL     1      10.406   6.278  -0.228  1.00  0.00     0.211 HD
ENDBRANCH  31  39
ENDBRANCH  10  26
TORSDOF 11
ENDMDL
MODEL 2
REMARK VINA RESULT:    -4.555     12.713     17.404
REMARK INTER + INTRA:          -7.643
REMARK INTER:                  -6.436
REMARK INTRA:                  -1.206
REMARK UNBOUND:                -1.223
REMARK SMILES O=c1cc(-c2ccc(O)c(O)c2)oc2cc(O)c([C@H]3O[C@@H](CO)[C@@H](O)[C@H](O)[C@@H]3O)c(O)c12
REMARK SMILES IDX 4 1 3 2 2 3 1 4 32 5 14 6 13 7 15 8 16 9 18 10 30 11 5 12
REMARK SMILES IDX 6 13 7 14 8 15 12 16 10 17 9 18 11 20 31 22 17 24 19 26
REMARK SMILES IDX 28 27 20 28 26 29 21 30 24 31 29 32 27 34 22 36 23 37 25 39
REMARK H PARENT 9 19 11 21 31 23 17 25 29 33 27 35 23 38 25 40
REMARK Flexibility Score: inf
ROOT
ATOM      1  C   UNL     1       6.664  -1.017  -7.438  1.00  0.00     0.138 A 
ATOM      2  C   UNL     1       7.925  -1.558  -7.718  1.00  0.00     0.100 A 
ATOM      3  C   UNL     1       8.067  -2.940  -7.856  1.00  0.00     0.197 A 
ATOM      4  O   UNL     1       9.224  -3.402  -8.030  1.00  0.00    -0.289 OA
ATOM      5  C   UNL     1       6.926  -3.777  -7.752  1.00  0.00     0.107 A 
ATOM      6  C   UNL     1       5.698  -3.148  -7.435  1.00  0.00     0.146 A 
ATOM      7  O   UNL     1       5.618  -1.828  -7.311  1.00  0.00    -0.456 OA
ATOM      8  C   UNL     1       4.551  -3.907  -7.225  1.00  0.00     0.094 A 
ATOM      9  C   UNL     1       4.593  -5.300  -7.282  1.00  0.00     0.128 A 
ATOM     10  C   UNL     1       5.794  -5.959  -7.615  1.00  0.00     0.068 A 
ATOM     11  C   UNL     1       6.955  -5.195  -7.903  1.00  0.00     0.140 A 
ENDROOT
BRANCH   1  12
ATOM     12  C   UNL     1       6.460   0.443  -7.274  1.00  0.00     0.021 A 
ATOM     13  C   UNL     1       6.291   1.024  -6.002  1.00  0.00     0.016 A 
ATOM     14  C   UNL     1       6.081   2.400  -5.876  1.00  0.00     0.051 A 
ATOM     15  C   UNL     1       6.033   3.217  -7.008  1.00  0.00     0.157 A 
ATOM     16  C   UNL     1       6.398   1.267  -8.410  1.00  0.00     0.062 A 
ATOM     17  C   UNL     1       6.191   2.648  -8.283  1.00  0.00     0.158 A 
BRANCH  15  18
ATOM     18  O   UNL     1       5.824   4.586  -6.849  1.00  0.00    -0.504 OA
ATOM     19  H   UNL     1       5.921   5.045  -5.949  1.00  0.00     0.293 HD
ENDBRANCH  15  18
BRANCH  17  20
ATOM     20  O   UNL     1       6.142   3.458  -9.418  1.00  0.00    -0.504 OA
ATOM     21  H   UNL     1       6.091   4.468  -9.349  1.00  0.00     0.293 HD
ENDBRANCH  17  20
ENDBRANCH   1  12
BRANCH  11  22
ATOM     22  O   UNL     1       8.091  -5.878  -8.355  1.00  0.00    -0.506 OA
ATOM     23  H   UNL     1       8.421  -5.871  -9.308  1.00  0.00     0.293 HD
ENDBRANCH  11  22
BRANCH   9  24
ATOM     24  O   UNL     1       3.435  -6.029  -7.011  1.00  0.00    -0.507 OA
ATOM     25  H   UNL     1       3.374  -6.661  -6.219  1.00  0.00     0.293 HD
ENDBRANCH   9  24
BRANCH  10  26
ATOM     26  C   UNL     1       5.842  -7.483  -7.659  1.00  0.00     0.188 C 
ATOM     27  C   UNL     1       5.238  -8.000  -8.989  1.00  0.00     0.179 C 
ATOM     28  O   UNL     1       5.138  -8.001  -6.539  1.00  0.00    -0.362 OA
ATOM     29  C   UNL     1       5.200  -9.542  -9.004  1.00  0.00     0.177 C 
ATOM     30  C   UNL     1       5.262  -9.412  -6.471  1.00  0.00     0.176 C 
ATOM     31  C   UNL     1       4.590 -10.088  -7.695  1.00  0.00     0.177 C 
BRANCH  27  32
ATOM     32  O   UNL     1       6.005  -7.530 -10.068  1.00  0.00    -0.387 OA
ATOM     33  H   UNL     1       6.838  -7.147  -9.683  1.00  0.00     0.211 HD
ENDBRANCH  27  32
BRANCH  29  34
ATOM     34  O   UNL     1       6.505 -10.041  -9.167  1.00  0.00    -0.387 OA
ATOM     35  H   UNL     1       6.431 -10.870  -9.710  1.00  0.00     0.211 HD
ENDBRANCH  29  34
BRANCH  30  36
ATOM     36  C   UNL     1       4.683  -9.916  -5.139  1.00  0.00     0.191 C 
BRANCH  36  37
ATOM     37  O   UNL     1       3.391  -9.416  -4.915  1.00  0.00    -0.394 OA
ATOM     38  H   UNL     1       3.391  -9.016  -4.006  1.00  0.00     0.210 HD
ENDBRANCH  36  37
ENDBRANCH  30  36
BRANCH  31  39
ATOM     39  O   UNL     1       3.191  -9.927  -7.695  1.00  0.00    -0.388 OA
ATOM     40  H   UNL     1       2.978  -9.039  -7.311  1.00  0.00     0.211 HD
ENDBRANCH  31  39
ENDBRANCH  10  26
TORSDOF 11
ENDMDL
MODEL 3
REMARK VINA RESULT:    -4.509      8.217     12.904
REMARK INTER + INTRA:          -7.578
REMARK INTER:                  -6.362
REMARK INTRA:                  -1.216
REMARK UNBOUND:                -1.223
REMARK SMILES O=c1cc(-c2ccc(O)c(O)c2)oc2cc(O)c([C@H]3O[C@@H](CO)[C@@H](O)[C@H](O)[C@@H]3O)c(O)c12
REMARK SMILES IDX 4 1 3 2 2 3 1 4 32 5 14 6 13 7 15 8 16 9 18 10 30 11 5 12
REMARK SMILES IDX 6 13 7 14 8 15 12 16 10 17 9 18 11 20 31 22 17 24 19 26
REMARK SMILES IDX 28 27 20 28 26 29 21 30 24 31 29 32 27 34 22 36 23 37 25 39
REMARK H PARENT 9 19 11 21 31 23 17 25 29 33 27 35 23 38 25 40
REMARK Flexibility Score: inf
ROOT
ATOM      1  C   UNL     1       6.916   0.040  -7.016  1.00  0.00     0.138 A 
ATOM      2  C   UNL     1       8.254  -0.126  -6.636  1.00  0.00     0.100 A 
ATOM      3  C   UNL     1       8.902   0.893  -5.937  1.00  0.00     0.197 A 
ATOM      4  O   UNL     1      10.125   0.748  -5.677  1.00  0.00    -0.289 OA
ATOM      5  C   UNL     1       8.189   2.067  -5.583  1.00  0.00     0.107 A 
ATOM      6  C   UNL     1       6.851   2.164  -6.035  1.00  0.00     0.146 A 
ATOM      7  O   UNL     1       6.281   1.165  -6.701  1.00  0.00    -0.456 OA
ATOM      8  C   UNL     1       6.112   3.320  -5.810  1.00  0.00     0.094 A 
ATOM      9  C   UNL     1       6.681   4.422  -5.171  1.00  0.00     0.128 A 
ATOM     10  C   UNL     1       8.005   4.353  -4.688  1.00  0.00     0.068 A 
ATOM     11  C   UNL     1       8.746   3.154  -4.847  1.00  0.00     0.140 A 
ENDROOT
BRANCH   1  12
ATOM     12  C   UNL     1       6.182  -1.008  -7.768  1.00  0.00     0.021 A 
ATOM     13  C   UNL     1       6.370  -1.189  -9.151  1.00  0.00     0.016 A 
ATOM     14  C   UNL     1       5.651  -2.170  -9.839  1.00  0.00     0.051 A 
ATOM     15  C   UNL     1       4.737  -2.983  -9.165  1.00  0.00     0.157 A 
ATOM     16  C   UNL     1       5.251  -1.819  -7.097  1.00  0.00     0.062 A 
ATOM     17  C   UNL     1       4.533  -2.807  -7.787  1.00  0.00     0.158 A 
BRANCH  15  18
ATOM     18  O   UNL     1       4.037  -3.954  -9.881  1.00  0.00    -0.504 OA
ATOM     19  H   UNL     1       4.012  -3.964 -10.894  1.00  0.00     0.293 HD
ENDBRANCH  15  18
BRANCH  17  20
ATOM     20  O   UNL     1       3.619  -3.613  -7.108  1.00  0.00    -0.504 OA
ATOM     21  H   UNL     1       3.829  -4.002  -6.196  1.00  0.00     0.293 HD
ENDBRANCH  17  20
ENDBRANCH   1  12
BRANCH  11  22
ATOM     22  O   UNL     1      10.008   3.081  -4.242  1.00  0.00    -0.506 OA
ATOM     23  H   UNL     1      10.295   2.354  -3.605  1.00  0.00     0.293 HD
ENDBRANCH  11  22
BRANCH   9  24
ATOM     24  O   UNL     1       5.927   5.584  -5.012  1.00  0.00    -0.507 OA
ATOM     25  H   UNL     1       5.744   6.213  -5.787  1.00  0.00     0.293 HD
ENDBRANCH   9  24
BRANCH  10  26
ATOM     26  C   UNL     1       8.632   5.565  -4.005  1.00  0.00     0.188 C 
ATOM     27  C   UNL     1       8.179   5.640  -2.526  1.00  0.00     0.179 C 
ATOM     28  O   UNL     1       8.264   6.739  -4.717  1.00  0.00    -0.362 OA
ATOM     29  C   UNL     1       8.735   6.912  -1.852  1.00  0.00     0.177 C 
ATOM     30  C   UNL     1       8.925   7.877  -4.190  1.00  0.00     0.176 C 
ATOM     31  C   UNL     1       8.478   8.154  -2.732  1.00  0.00     0.177 C 
BRANCH  27  32
ATOM     32  O   UNL     1       8.626   4.500  -1.838  1.00  0.00    -0.387 OA
ATOM     33  H   UNL     1       8.898   3.838  -2.528  1.00  0.00     0.211 HD
ENDBRANCH  27  32
BRANCH  29  34
ATOM     34  O   UNL     1      10.116   6.758  -1.633  1.00  0.00    -0.387 OA
ATOM     35  H   UNL     1      10.544   6.692  -2.527  1.00  0.00     0.211 HD
ENDBRANCH  29  34
BRANCH  30  36
ATOM     36  C   UNL     1       8.683   9.084  -5.112  1.00  0.00     0.191 C 
BRANCH  36  37
ATOM     37  O   UNL     1       7.341   9.164  -5.517  1.00  0.00    -0.394 OA
ATOM     38  H   UNL     1       7.189  10.096  -5.824  1.00  0.00     0.210 HD
ENDBRANCH  36  37
ENDBRANCH  30  36
BRANCH  31  39
ATOM     39  O   UNL     1       7.129   8.549  -2.650  1.00  0.00    -0.388 OA
ATOM     40  H   UNL     1       6.607   7.803  -2.263  1.00  0.00     0.211 HD
ENDBRANCH  31  39
ENDBRANCH  10  26
TORSDOF 11
ENDMDL
MODEL 4
REMARK VINA RESULT:    -4.493      2.006      9.572
REMARK INTER + INTRA:          -7.555
REMARK INTER:                  -6.656
REMARK INTRA:                  -0.899
REMARK UNBOUND:                -1.223
REMARK SMILES O=c1cc(-c2ccc(O)c(O)c2)oc2cc(O)c([C@H]3O[C@@H](CO)[C@@H](O)[C@H](O)[C@@H]3O)c(O)c12
REMARK SMILES IDX 4 1 3 2 2 3 1 4 32 5 14 6 13 7 15 8 16 9 18 10 30 11 5 12
REMARK SMILES IDX 6 13 7 14 8 15 12 16 10 17 9 18 11 20 31 22 17 24 19 26
REMARK SMILES IDX 28 27 20 28 26 29 21 30 24 31 29 32 27 34 22 36 23 37 25 39
REMARK H PARENT 9 19 11 21 31 23 17 25 29 33 27 35 23 38 25 40
REMARK Flexibility Score: inf
ROOT
ATOM      1  C   UNL     1       6.856   6.916   0.075  1.00  0.00     0.138 A 
ATOM      2  C   UNL     1       7.430   7.687   1.094  1.00  0.00     0.100 A 
ATOM      3  C   UNL     1       6.671   8.018   2.216  1.00  0.00     0.197 A 
ATOM      4  O   UNL     1       7.188   8.776   3.079  1.00  0.00    -0.289 OA
ATOM      5  C   UNL     1       5.341   7.537   2.334  1.00  0.00     0.107 A 
ATOM      6  C   UNL     1       4.832   6.792   1.242  1.00  0.00     0.146 A 
ATOM      7  O   UNL     1       5.596   6.507   0.194  1.00  0.00    -0.456 OA
ATOM      8  C   UNL     1       3.509   6.363   1.238  1.00  0.00     0.094 A 
ATOM      9  C   UNL     1       2.646   6.689   2.284  1.00  0.00     0.128 A 
ATOM     10  C   UNL     1       3.125   7.411   3.398  1.00  0.00     0.068 A 
ATOM     11  C   UNL     1       4.490   7.793   3.449  1.00  0.00     0.140 A 
ENDROOT
BRANCH   1  12
ATOM     12  C   UNL     1       7.616   6.543  -1.144  1.00  0.00     0.021 A 
ATOM     13  C   UNL     1       7.794   7.450  -2.206  1.00  0.00     0.016 A 
ATOM     14  C   UNL     1       8.497   7.067  -3.352  1.00  0.00     0.051 A 
ATOM     15  C   UNL     1       9.030   5.780  -3.460  1.00  0.00     0.157 A 
ATOM     16  C   UNL     1       8.143   5.246  -1.263  1.00  0.00     0.062 A 
ATOM     17  C   UNL     1       8.851   4.863  -2.411  1.00  0.00     0.158 A 
BRANCH  15  18
ATOM     18  O   UNL     1       9.728   5.429  -4.615  1.00  0.00    -0.504 OA
ATOM     19  H   UNL     1      10.353   6.076  -5.084  1.00  0.00     0.293 HD
ENDBRANCH  15  18
BRANCH  17  20
ATOM     20  O   UNL     1       9.378   3.575  -2.513  1.00  0.00    -0.504 OA
ATOM     21  H   UNL     1       8.810   2.791  -2.815  1.00  0.00     0.293 HD
ENDBRANCH  17  20
ENDBRANCH   1  12
BRANCH  11  22
ATOM     22  O   UNL     1       4.956   8.394   4.626  1.00  0.00    -0.506 OA
ATOM     23  H   UNL     1       4.535   9.200   5.060  1.00  0.00     0.293 HD
ENDBRANCH  11  22
BRANCH   9  24
ATOM     24  O   UNL     1       1.312   6.288   2.219  1.00  0.00    -0.507 OA
ATOM     25  H   UNL     1       0.596   6.877   1.806  1.00  0.00     0.293 HD
ENDBRANCH   9  24
BRANCH  10  26
ATOM     26  C   UNL     1       2.175   7.781   4.533  1.00  0.00     0.188 C 
ATOM     27  C   UNL     1       1.929   9.310   4.549  1.00  0.00     0.179 C 
ATOM     28  O   UNL     1       2.730   7.336   5.763  1.00  0.00    -0.362 OA
ATOM     29  C   UNL     1       1.043   9.705   5.748  1.00  0.00     0.177 C 
ATOM     30  C   UNL     1       1.823   7.548   6.833  1.00  0.00     0.176 C 
ATOM     31  C   UNL     1       1.566   9.062   7.051  1.00  0.00     0.177 C 
BRANCH  27  32
ATOM     32  O   UNL     1       1.312   9.700   3.349  1.00  0.00    -0.387 OA
ATOM     33  H   UNL     1       0.380   9.353   3.380  1.00  0.00     0.211 HD
ENDBRANCH  27  32
BRANCH  29  34
ATOM     34  O   UNL     1      -0.279   9.290   5.508  1.00  0.00    -0.387 OA
ATOM     35  H   UNL     1      -0.869   9.875   6.054  1.00  0.00     0.211 HD
ENDBRANCH  29  34
BRANCH  30  36
ATOM     36  C   UNL     1       2.355   6.861   8.102  1.00  0.00     0.191 C 
BRANCH  36  37
ATOM     37  O   UNL     1       2.275   5.463   8.003  1.00  0.00    -0.394 OA
ATOM     38  H   UNL     1       3.019   5.094   8.548  1.00  0.00     0.210 HD
ENDBRANCH  36  37
ENDBRANCH  30  36
BRANCH  31  39
ATOM     39  O   UNL     1       2.711   9.739   7.512  1.00  0.00    -0.388 OA
ATOM     40  H   UNL     1       3.092  10.259   6.761  1.00  0.00     0.211 HD
ENDBRANCH  31  39
ENDBRANCH  10  26
TORSDOF 11
ENDMDL
MODEL 5
REMARK VINA RESULT:    -4.454      7.407     12.436
REMARK INTER + INTRA:          -7.500
REMARK INTER:                  -6.661
REMARK INTRA:                  -0.838
REMARK UNBOUND:                -1.223
REMARK SMILES O=c1cc(-c2ccc(O)c(O)c2)oc2cc(O)c([C@H]3O[C@@H](CO)[C@@H](O)[C@H](O)[C@@H]3O)c(O)c12
REMARK SMILES IDX 4 1 3 2 2 3 1 4 32 5 14 6 13 7 15 8 16 9 18 10 30 11 5 12
REMARK SMILES IDX 6 13 7 14 8 15 12 16 10 17 9 18 11 20 31 22 17 24 19 26
REMARK SMILES IDX 28 27 20 28 26 29 21 30 24 31 29 32 27 34 22 36 23 37 25 39
REMARK H PARENT 9 19 11 21 31 23 17 25 29 33 27 35 23 38 25 40
REMARK Flexibility Score: inf
ROOT
ATOM      1  C   UNL     1       8.773   4.257  -3.648  1.00  0.00     0.138 A 
ATOM      2  C   UNL     1       9.564   3.175  -3.242  1.00  0.00     0.100 A 
ATOM      3  C   UNL     1       9.459   1.956  -3.914  1.00  0.00     0.197 A 
ATOM      4  O   UNL     1      10.125   0.981  -3.478  1.00  0.00    -0.289 OA
ATOM      5  C   UNL     1       8.586   1.838  -5.025  1.00  0.00     0.107 A 
ATOM      6  C   UNL     1       7.801   2.972  -5.345  1.00  0.00     0.146 A 
ATOM      7  O   UNL     1       7.936   4.109  -4.671  1.00  0.00    -0.456 OA
ATOM      8  C   UNL     1       6.854   2.910  -6.362  1.00  0.00     0.094 A 
ATOM      9  C   UNL     1       6.627   1.724  -7.060  1.00  0.00     0.128 A 
ATOM     10  C   UNL     1       7.405   0.580  -6.781  1.00  0.00     0.068 A 
ATOM     11  C   UNL     1       8.424   0.650  -5.797  1.00  0.00     0.140 A 
ENDROOT
BRANCH   1  12
ATOM     12  C   UNL     1       8.838   5.572  -2.963  1.00  0.00     0.021 A 
ATOM     13  C   UNL     1       9.971   6.401  -3.068  1.00  0.00     0.016 A 
ATOM     14  C   UNL     1      10.015   7.626  -2.397  1.00  0.00     0.051 A 
ATOM     15  C   UNL     1       8.937   8.044  -1.613  1.00  0.00     0.157 A 
ATOM     16  C   UNL     1       7.762   5.991  -2.163  1.00  0.00     0.062 A 
ATOM     17  C   UNL     1       7.804   7.222  -1.493  1.00  0.00     0.158 A 
BRANCH  15  18
ATOM     18  O   UNL     1       9.011   9.272  -0.958  1.00  0.00    -0.504 OA
ATOM     19  H   UNL     1       8.270   9.962  -1.020  1.00  0.00     0.293 HD
ENDBRANCH  15  18
BRANCH  17  20
ATOM     20  O   UNL     1       6.725   7.632  -0.709  1.00  0.00    -0.504 OA
ATOM     21  H   UNL     1       6.164   6.967  -0.189  1.00  0.00     0.293 HD
ENDBRANCH  17  20
ENDBRANCH   1  12
BRANCH  11  22
ATOM     22  O   UNL     1       9.258  -0.465  -5.641  1.00  0.00    -0.506 OA
ATOM     23  H   UNL     1       8.956  -1.358  -5.282  1.00  0.00     0.293 HD
ENDBRANCH  11  22
BRANCH   9  24
ATOM     24  O   UNL     1       5.630   1.684  -8.034  1.00  0.00    -0.507 OA
ATOM     25  H   UNL     1       5.744   1.158  -8.894  1.00  0.00     0.293 HD
ENDBRANCH   9  24
BRANCH  10  26
ATOM     26  C   UNL     1       7.144  -0.721  -7.533  1.00  0.00     0.188 C 
ATOM     27  C   UNL     1       7.482  -0.550  -9.035  1.00  0.00     0.179 C 
ATOM     28  O   UNL     1       5.786  -1.097  -7.351  1.00  0.00    -0.362 OA
ATOM     29  C   UNL     1       7.136  -1.833  -9.819  1.00  0.00     0.177 C 
ATOM     30  C   UNL     1       5.529  -2.366  -7.930  1.00  0.00     0.176 C 
ATOM     31  C   UNL     1       5.714  -2.322  -9.469  1.00  0.00     0.177 C 
BRANCH  27  32
ATOM     32  O   UNL     1       8.848  -0.255  -9.179  1.00  0.00    -0.387 OA
ATOM     33  H   UNL     1       9.099  -0.506 -10.108  1.00  0.00     0.211 HD
ENDBRANCH  27  32
BRANCH  29  34
ATOM     34  O   UNL     1       8.074  -2.834  -9.514  1.00  0.00    -0.387 OA
ATOM     35  H   UNL     1       7.689  -3.376  -8.776  1.00  0.00     0.211 HD
ENDBRANCH  29  34
BRANCH  30  36
ATOM     36  C   UNL     1       4.123  -2.840  -7.527  1.00  0.00     0.191 C 
BRANCH  36  37
ATOM     37  O   UNL     1       4.163  -3.675  -6.399  1.00  0.00    -0.394 OA
ATOM     38  H   UNL     1       4.575  -4.531  -6.691  1.00  0.00     0.210 HD
ENDBRANCH  36  37
ENDBRANCH  30  36
BRANCH  31  39
ATOM     39  O   UNL     1       4.744  -1.522 -10.102  1.00  0.00    -0.388 OA
ATOM     40  H   UNL     1       4.720  -0.641  -9.650  1.00  0.00     0.211 HD
ENDBRANCH  31  39
ENDBRANCH  10  26
TORSDOF 11
ENDMDL
MODEL 6
REMARK VINA RESULT:    -4.426      2.153      9.806
REMARK INTER + INTRA:          -7.461
REMARK INTER:                  -6.289
REMARK INTRA:                  -1.172
REMARK UNBOUND:                -1.223
REMARK SMILES O=c1cc(-c2ccc(O)c(O)c2)oc2cc(O)c([C@H]3O[C@@H](CO)[C@@H](O)[C@H](O)[C@@H]3O)c(O)c12
REMARK SMILES IDX 4 1 3 2 2 3 1 4 32 5 14 6 13 7 15 8 16 9 18 10 30 11 5 12
REMARK SMILES IDX 6 13 7 14 8 15 12 16 10 17 9 18 11 20 31 22 17 24 19 26
REMARK SMILES IDX 28 27 20 28 26 29 21 30 24 31 29 32 27 34 22 36 23 37 25 39
REMARK H PARENT 9 19 11 21 31 23 17 25 29 33 27 35 23 38 25 40
REMARK Flexibility Score: inf
ROOT
ATOM      1  C   UNL     1       7.676   6.101  -0.684  1.00  0.00     0.138 A 
ATOM      2  C   UNL     1       8.398   7.092  -0.006  1.00  0.00     0.100 A 
ATOM      3  C   UNL     1       7.811   7.756   1.071  1.00  0.00     0.197 A 
ATOM      4  O   UNL     1       8.455   8.694   1.611  1.00  0.00    -0.289 OA
ATOM      5  C   UNL     1       6.506   7.394   1.495  1.00  0.00     0.107 A 
ATOM      6  C   UNL     1       5.838   6.406   0.732  1.00  0.00     0.146 A 
ATOM      7  O   UNL     1       6.441   5.806  -0.288  1.00  0.00    -0.456 OA
ATOM      8  C   UNL     1       4.523   6.060   1.025  1.00  0.00     0.094 A 
ATOM      9  C   UNL     1       3.822   6.703   2.045  1.00  0.00     0.128 A 
ATOM     10  C   UNL     1       4.463   7.677   2.838  1.00  0.00     0.068 A 
ATOM     11  C   UNL     1       5.826   7.989   2.598  1.00  0.00     0.140 A 
ENDROOT
BRANCH   1  12
ATOM     12  C   UNL     1       8.249   5.370  -1.841  1.00  0.00     0.021 A 
ATOM     13  C   UNL     1       9.338   4.491  -1.689  1.00  0.00     0.016 A 
ATOM     14  C   UNL     1       9.872   3.830  -2.798  1.00  0.00     0.051 A 
ATOM     15  C   UNL     1       9.335   4.033  -4.071  1.00  0.00     0.157 A 
ATOM     16  C   UNL     1       7.721   5.582  -3.125  1.00  0.00     0.062 A 
ATOM     17  C   UNL     1       8.255   4.915  -4.238  1.00  0.00     0.158 A 
BRANCH  15  18
ATOM     18  O   UNL     1       9.889   3.357  -5.158  1.00  0.00    -0.504 OA
ATOM     19  H   UNL     1      10.211   2.398  -5.088  1.00  0.00     0.293 HD
ENDBRANCH  15  18
BRANCH  17  20
ATOM     20  O   UNL     1       7.715   5.126  -5.507  1.00  0.00    -0.504 OA
ATOM     21  H   UNL     1       7.559   6.060  -5.869  1.00  0.00     0.293 HD
ENDBRANCH  17  20
ENDBRANCH   1  12
BRANCH  11  22
ATOM     22  O   UNL     1       6.462   8.865   3.488  1.00  0.00    -0.506 OA
ATOM     23  H   UNL     1       6.658   8.654   4.454  1.00  0.00     0.293 HD
ENDBRANCH  11  22
BRANCH   9  24
ATOM     24  O   UNL     1       2.487   6.369   2.272  1.00  0.00    -0.507 OA
ATOM     25  H   UNL     1       2.210   5.772   3.045  1.00  0.00     0.293 HD
ENDBRANCH   9  24
BRANCH  10  26
ATOM     26  C   UNL     1       3.690   8.392   3.942  1.00  0.00     0.188 C 
ATOM     27  C   UNL     1       3.660   7.523   5.225  1.00  0.00     0.179 C 
ATOM     28  O   UNL     1       2.376   8.672   3.480  1.00  0.00    -0.362 OA
ATOM     29  C   UNL     1       2.804   8.198   6.317  1.00  0.00     0.177 C 
ATOM     30  C   UNL     1       1.660   9.446   4.428  1.00  0.00     0.176 C 
ATOM     31  C   UNL     1       1.445   8.654   5.744  1.00  0.00     0.177 C 
BRANCH  27  32
ATOM     32  O   UNL     1       4.970   7.332   5.694  1.00  0.00    -0.387 OA
ATOM     33  H   UNL     1       5.425   8.214   5.641  1.00  0.00     0.211 HD
ENDBRANCH  27  32
BRANCH  29  34
ATOM     34  O   UNL     1       3.498   9.304   6.838  1.00  0.00    -0.387 OA
ATOM     35  H   UNL     1       3.170   9.440   7.766  1.00  0.00     0.211 HD
ENDBRANCH  29  34
BRANCH  30  36
ATOM     36  C   UNL     1       0.333   9.918   3.810  1.00  0.00     0.191 C 
BRANCH  36  37
ATOM     37  O   UNL     1      -0.412   8.842   3.302  1.00  0.00    -0.394 OA
ATOM     38  H   UNL     1       0.206   8.308   2.736  1.00  0.00     0.210 HD
ENDBRANCH  36  37
ENDBRANCH  30  36
BRANCH  31  39
ATOM     39  O   UNL     1       0.585   7.553   5.571  1.00  0.00    -0.388 OA
ATOM     40  H   UNL     1      -0.334   7.892   5.430  1.00  0.00     0.211 HD
ENDBRANCH  31  39
ENDBRANCH  10  26
TORSDOF 11
ENDMDL
MODEL 7
REMARK VINA RESULT:    -4.400     11.263     15.944
REMARK INTER + INTRA:          -7.424
REMARK INTER:                  -6.913
REMARK INTRA:                  -0.510
REMARK UNBOUND:                -1.223
REMARK SMILES O=c1cc(-c2ccc(O)c(O)c2)oc2cc(O)c([C@H]3O[C@@H](CO)[C@@H](O)[C@H](O)[C@@H]3O)c(O)c12
REMARK SMILES IDX 4 1 3 2 2 3 1 4 32 5 14 6 13 7 15 8 16 9 18 10 30 11 5 12
REMARK SMILES IDX 6 13 7 14 8 15 12 16 10 17 9 18 11 20 31 22 17 24 19 26
REMARK SMILES IDX 28 27 20 28 26 29 21 30 24 31 29 32 27 34 22 36 23 37 25 39
REMARK H PARENT 9 19 11 21 31 23 17 25 29 33 27 35 23 38 25 40
REMARK Flexibility Score: inf
ROOT
ATOM      1  C   UNL     1       7.002   0.641  -6.948  1.00  0.00     0.138 A 
ATOM      2  C   UNL     1       8.164   0.159  -7.565  1.00  0.00     0.100 A 
ATOM      3  C   UNL     1       8.223  -1.173  -7.975  1.00  0.00     0.197 A 
ATOM      4  O   UNL     1       9.306  -1.597  -8.456  1.00  0.00    -0.289 OA
ATOM      5  C   UNL     1       7.093  -2.013  -7.802  1.00  0.00     0.107 A 
ATOM      6  C   UNL     1       5.974  -1.452  -7.140  1.00  0.00     0.146 A 
ATOM      7  O   UNL     1       5.970  -0.178  -6.765  1.00  0.00    -0.456 OA
ATOM      8  C   UNL     1       4.862  -2.235  -6.848  1.00  0.00     0.094 A 
ATOM      9  C   UNL     1       4.839  -3.594  -7.163  1.00  0.00     0.128 A 
ATOM     10  C   UNL     1       5.927  -4.181  -7.841  1.00  0.00     0.068 A 
ATOM     11  C   UNL     1       7.038  -3.379  -8.209  1.00  0.00     0.140 A 
ENDROOT
BRANCH   1  12
ATOM     12  C   UNL     1       6.889   2.046  -6.484  1.00  0.00     0.021 A 
ATOM     13  C   UNL     1       8.030   2.834  -6.241  1.00  0.00     0.016 A 
ATOM     14  C   UNL     1       7.897   4.149  -5.786  1.00  0.00     0.051 A 
ATOM     15  C   UNL     1       6.631   4.698  -5.565  1.00  0.00     0.157 A 
ATOM     16  C   UNL     1       5.620   2.598  -6.247  1.00  0.00     0.062 A 
ATOM     17  C   UNL     1       5.485   3.919  -5.794  1.00  0.00     0.158 A 
BRANCH  15  18
ATOM     18  O   UNL     1       6.532   6.013  -5.112  1.00  0.00    -0.504 OA
ATOM     19  H   UNL     1       6.254   6.774  -5.723  1.00  0.00     0.293 HD
ENDBRANCH  15  18
BRANCH  17  20
ATOM     20  O   UNL     1       4.218   4.459  -5.572  1.00  0.00    -0.504 OA
ATOM     21  H   UNL     1       3.468   4.347  -6.245  1.00  0.00     0.293 HD
ENDBRANCH  17  20
ENDBRANCH   1  12
BRANCH  11  22
ATOM     22  O   UNL     1       8.039  -3.969  -8.993  1.00  0.00    -0.506 OA
ATOM     23  H   UNL     1       7.976  -4.108  -9.990  1.00  0.00     0.293 HD
ENDBRANCH  11  22
BRANCH   9  24
ATOM     24  O   UNL     1       3.729  -4.359  -6.805  1.00  0.00    -0.507 OA
ATOM     25  H   UNL     1       2.807  -3.948  -6.701  1.00  0.00     0.293 HD
ENDBRANCH   9  24
BRANCH  10  26
ATOM     26  C   UNL     1       5.908  -5.671  -8.169  1.00  0.00     0.188 C 
ATOM     27  C   UNL     1       4.503  -6.092  -8.669  1.00  0.00     0.179 C 
ATOM     28  O   UNL     1       6.283  -6.405  -7.012  1.00  0.00    -0.362 OA
ATOM     29  C   UNL     1       4.448  -7.613  -8.917  1.00  0.00     0.177 C 
ATOM     30  C   UNL     1       6.398  -7.788  -7.304  1.00  0.00     0.176 C 
ATOM     31  C   UNL     1       5.027  -8.386  -7.712  1.00  0.00     0.177 C 
BRANCH  27  32
ATOM     32  O   UNL     1       4.200  -5.402  -9.855  1.00  0.00    -0.387 OA
ATOM     33  H   UNL     1       4.499  -4.463  -9.725  1.00  0.00     0.211 HD
ENDBRANCH  27  32
BRANCH  29  34
ATOM     34  O   UNL     1       5.178  -7.924 -10.079  1.00  0.00    -0.387 OA
ATOM     35  H   UNL     1       4.947  -8.859 -10.323  1.00  0.00     0.211 HD
ENDBRANCH  29  34
BRANCH  30  36
ATOM     36  C   UNL     1       7.016  -8.518  -6.100  1.00  0.00     0.191 C 
BRANCH  36  37
ATOM     37  O   UNL     1       6.395  -8.148  -4.897  1.00  0.00    -0.394 OA
ATOM     38  H   UNL     1       7.115  -8.057  -4.219  1.00  0.00     0.210 HD
ENDBRANCH  36  37
ENDBRANCH  30  36
BRANCH  31  39
ATOM     39  O   UNL     1       4.109  -8.399  -6.645  1.00  0.00    -0.388 OA
ATOM     40  H   UNL     1       4.617  -8.424  -5.795  1.00  0.00     0.211 HD
ENDBRANCH  31  39
ENDBRANCH  10  26
TORSDOF 11
ENDMDL
MODEL 8
REMARK VINA RESULT:    -4.378      6.959     12.574
REMARK INTER + INTRA:          -7.393
REMARK INTER:                  -6.286
REMARK INTRA:                  -1.107
REMARK UNBOUND:                -1.223
REMARK SMILES O=c1cc(-c2ccc(O)c(O)c2)oc2cc(O)c([C@H]3O[C@@H](CO)[C@@H](O)[C@H](O)[C@@H]3O)c(O)c12
REMARK SMILES IDX 4 1 3 2 2 3 1 4 32 5 14 6 13 7 15 8 16 9 18 10 30 11 5 12
REMARK SMILES IDX 6 13 7 14 8 15 12 16 10 17 9 18 11 20 31 22 17 24 19 26
REMARK SMILES IDX 28 27 20 28 26 29 21 30 24 31 29 32 27 34 22 36 23 37 25 39
REMARK H PARENT 9 19 11 21 31 23 17 25 29 33 27 35 23 38 25 40
REMARK Flexibility Score: inf
ROOT
ATOM      1  C   UNL     1       8.095   0.990  -6.424  1.00  0.00     0.138 A 
ATOM      2  C   UNL     1       7.409   2.067  -7.001  1.00  0.00     0.100 A 
ATOM      3  C   UNL     1       7.421   3.309  -6.367  1.00  0.00     0.197 A 
ATOM      4  O   UNL     1       6.733   4.237  -6.867  1.00  0.00    -0.289 OA
ATOM      5  C   UNL     1       8.162   3.481  -5.169  1.00  0.00     0.107 A 
ATOM      6  C   UNL     1       8.798   2.331  -4.640  1.00  0.00     0.146 A 
ATOM      7  O   UNL     1       8.753   1.169  -5.282  1.00  0.00    -0.456 OA
ATOM      8  C   UNL     1       9.467   2.393  -3.422  1.00  0.00     0.094 A 
ATOM      9  C   UNL     1       9.492   3.572  -2.677  1.00  0.00     0.128 A 
ATOM     10  C   UNL     1       8.887   4.742  -3.183  1.00  0.00     0.068 A 
ATOM     11  C   UNL     1       8.263   4.712  -4.457  1.00  0.00     0.140 A 
ENDROOT
BRANCH   1  12
ATOM     12  C   UNL     1       8.107  -0.354  -7.052  1.00  0.00     0.021 A 
ATOM     13  C   UNL     1       9.274  -1.140  -7.086  1.00  0.00     0.016 A 
ATOM     14  C   UNL     1       9.264  -2.395  -7.700  1.00  0.00     0.051 A 
ATOM     15  C   UNL     1       8.097  -2.886  -8.291  1.00  0.00     0.157 A 
ATOM     16  C   UNL     1       6.939  -0.847  -7.659  1.00  0.00     0.062 A 
ATOM     17  C   UNL     1       6.928  -2.108  -8.272  1.00  0.00     0.158 A 
BRANCH  15  18
ATOM     18  O   UNL     1       8.118  -4.143  -8.895  1.00  0.00    -0.504 OA
ATOM     19  H   UNL     1       7.575  -4.351  -9.725  1.00  0.00     0.293 HD
ENDBRANCH  15  18
BRANCH  17  20
ATOM     20  O   UNL     1       5.759  -2.590  -8.863  1.00  0.00    -0.504 OA
ATOM     21  H   UNL     1       4.891  -2.069  -8.824  1.00  0.00     0.293 HD
ENDBRANCH  17  20
ENDBRANCH   1  12
BRANCH  11  22
ATOM     22  O   UNL     1       7.788   5.922  -4.979  1.00  0.00    -0.506 OA
ATOM     23  H   UNL     1       7.178   5.999  -5.779  1.00  0.00     0.293 HD
ENDBRANCH  11  22
BRANCH   9  24
ATOM     24  O   UNL     1      10.125   3.581  -1.434  1.00  0.00    -0.507 OA
ATOM     25  H   UNL     1       9.696   4.007  -0.619  1.00  0.00     0.293 HD
ENDBRANCH   9  24
BRANCH  10  26
ATOM     26  C   UNL     1       8.901   6.025  -2.358  1.00  0.00     0.188 C 
ATOM     27  C   UNL     1       7.538   6.220  -1.647  1.00  0.00     0.179 C 
ATOM     28  O   UNL     1       9.197   7.121  -3.213  1.00  0.00    -0.362 OA
ATOM     29  C   UNL     1       7.511   7.561  -0.884  1.00  0.00     0.177 C 
ATOM     30  C   UNL     1       9.342   8.319  -2.469  1.00  0.00     0.176 C 
ATOM     31  C   UNL     1       8.007   8.713  -1.784  1.00  0.00     0.177 C 
BRANCH  27  32
ATOM     32  O   UNL     1       7.316   5.158  -0.756  1.00  0.00    -0.387 OA
ATOM     33  H   UNL     1       7.769   4.361  -1.141  1.00  0.00     0.211 HD
ENDBRANCH  27  32
BRANCH  29  34
ATOM     34  O   UNL     1       8.324   7.464   0.259  1.00  0.00    -0.387 OA
ATOM     35  H   UNL     1       9.021   8.166   0.178  1.00  0.00     0.211 HD
ENDBRANCH  29  34
BRANCH  30  36
ATOM     36  C   UNL     1       9.876   9.432  -3.385  1.00  0.00     0.191 C 
BRANCH  36  37
ATOM     37  O   UNL     1       9.251   9.412  -4.641  1.00  0.00    -0.394 OA
ATOM     38  H   UNL     1       9.919   9.066  -5.289  1.00  0.00     0.210 HD
ENDBRANCH  36  37
ENDBRANCH  30  36
BRANCH  31  39
ATOM     39  O   UNL     1       7.015   9.078  -2.715  1.00  0.00    -0.388 OA
ATOM     40  H   UNL     1       6.290   9.547  -2.232  1.00  0.00     0.211 HD
ENDBRANCH  31  39
ENDBRANCH  10  26
TORSDOF 11
ENDMDL
MODEL 9
REMARK VINA RESULT:    -4.323      5.862     12.541
REMARK INTER + INTRA:          -7.315
REMARK INTER:                  -6.088
REMARK INTRA:                  -1.228
REMARK UNBOUND:                -1.223
REMARK SMILES O=c1cc(-c2ccc(O)c(O)c2)oc2cc(O)c([C@H]3O[C@@H](CO)[C@@H](O)[C@H](O)[C@@H]3O)c(O)c12
REMARK SMILES IDX 4 1 3 2 2 3 1 4 32 5 14 6 13 7 15 8 16 9 18 10 30 11 5 12
REMARK SMILES IDX 6 13 7 14 8 15 12 16 10 17 9 18 11 20 31 22 17 24 19 26
REMARK SMILES IDX 28 27 20 28 26 29 21 30 24 31 29 32 27 34 22 36 23 37 25 39
REMARK H PARENT 9 19 11 21 31 23 17 25 29 33 27 35 23 38 25 40
REMARK Flexibility Score: inf
ROOT
ATOM      1  C   UNL     1       8.571   1.949  -6.527  1.00  0.00     0.138 A 
ATOM      2  C   UNL     1       7.561   2.833  -6.930  1.00  0.00     0.100 A 
ATOM      3  C   UNL     1       7.199   3.891  -6.096  1.00  0.00     0.197 A 
ATOM      4  O   UNL     1       6.237   4.622  -6.450  1.00  0.00    -0.289 OA
ATOM      5  C   UNL     1       7.884   4.086  -4.870  1.00  0.00     0.107 A 
ATOM      6  C   UNL     1       8.868   3.127  -4.527  1.00  0.00     0.146 A 
ATOM      7  O   UNL     1       9.173   2.135  -5.355  1.00  0.00    -0.456 OA
ATOM      8  C   UNL     1       9.520   3.194  -3.300  1.00  0.00     0.094 A 
ATOM      9  C   UNL     1       9.194   4.178  -2.367  1.00  0.00     0.128 A 
ATOM     10  C   UNL     1       8.234   5.162  -2.683  1.00  0.00     0.068 A 
ATOM     11  C   UNL     1       7.613   5.149  -3.959  1.00  0.00     0.140 A 
ENDROOT
BRANCH   1  12
ATOM     12  C   UNL     1       8.989   0.803  -7.371  1.00  0.00     0.021 A 
ATOM     13  C   UNL     1       8.987   0.885  -8.776  1.00  0.00     0.016 A 
ATOM     14  C   UNL     1       9.367  -0.216  -9.549  1.00  0.00     0.051 A 
ATOM     15  C   UNL     1       9.750  -1.413  -8.938  1.00  0.00     0.157 A 
ATOM     16  C   UNL     1       9.362  -0.407  -6.762  1.00  0.00     0.062 A 
ATOM     17  C   UNL     1       9.746  -1.511  -7.537  1.00  0.00     0.158 A 
BRANCH  15  18
ATOM     18  O   UNL     1      10.125  -2.493  -9.736  1.00  0.00    -0.504 OA
ATOM     19  H   UNL     1       9.443  -3.116 -10.155  1.00  0.00     0.293 HD
ENDBRANCH  15  18
BRANCH  17  20
ATOM     20  O   UNL     1      10.125  -2.703  -6.920  1.00  0.00    -0.504 OA
ATOM     21  H   UNL     1      10.712  -3.382  -7.391  1.00  0.00     0.293 HD
ENDBRANCH  17  20
ENDBRANCH   1  12
BRANCH  11  22
ATOM     22  O   UNL     1       6.763   6.215  -4.282  1.00  0.00    -0.506 OA
ATOM     23  H   UNL     1       6.607   6.558  -5.217  1.00  0.00     0.293 HD
ENDBRANCH  11  22
BRANCH   9  24
ATOM     24  O   UNL     1       9.830   4.180  -1.126  1.00  0.00    -0.507 OA
ATOM     25  H   UNL     1      10.062   5.043  -0.645  1.00  0.00     0.293 HD
ENDBRANCH   9  24
BRANCH  10  26
ATOM     26  C   UNL     1       7.866   6.227  -1.655  1.00  0.00     0.188 C 
ATOM     27  C   UNL     1       8.982   7.298  -1.570  1.00  0.00     0.179 C 
ATOM     28  O   UNL     1       7.655   5.602  -0.396  1.00  0.00    -0.362 OA
ATOM     29  C   UNL     1       8.661   8.330  -0.468  1.00  0.00     0.177 C 
ATOM     30  C   UNL     1       7.190   6.538   0.562  1.00  0.00     0.176 C 
ATOM     31  C   UNL     1       8.262   7.623   0.845  1.00  0.00     0.177 C 
BRANCH  27  32
ATOM     32  O   UNL     1       9.109   7.946  -2.810  1.00  0.00    -0.387 OA
ATOM     33  H   UNL     1       9.129   8.922  -2.623  1.00  0.00     0.211 HD
ENDBRANCH  27  32
BRANCH  29  34
ATOM     34  O   UNL     1       7.614   9.164  -0.900  1.00  0.00    -0.387 OA
ATOM     35  H   UNL     1       7.189   8.715  -1.678  1.00  0.00     0.211 HD
ENDBRANCH  29  34
BRANCH  30  36
ATOM     36  C   UNL     1       6.763   5.797   1.840  1.00  0.00     0.191 C 
BRANCH  36  37
ATOM     37  O   UNL     1       7.511   4.625   2.032  1.00  0.00    -0.394 OA
ATOM     38  H   UNL     1       7.507   4.137   1.167  1.00  0.00     0.210 HD
ENDBRANCH  36  37
ENDBRANCH  30  36
BRANCH  31  39
ATOM     39  O   UNL     1       9.397   7.099   1.491  1.00  0.00    -0.388 OA
ATOM     40  H   UNL     1       9.121   6.308   2.018  1.00  0.00     0.211 HD
ENDBRANCH  31  39
ENDBRANCH  10  26
TORSDOF 11
ENDMDL
