MODEL 1
REMARK VINA RESULT:    -7.925      0.000      0.000
REMARK INTER + INTRA:          -9.588
REMARK INTER:                  -9.546
REMARK INTRA:                  -0.042
REMARK UNBOUND:                -0.042
REMARK SMILES O=c1c(O)c(-c2ccc(O)cc2O)oc2cc(O)cc(O)c12
REMARK SMILES IDX 5 1 3 2 2 3 1 4 22 5 20 6 19 7 17 8 16 9 15 10 14 11 6 12
REMARK SMILES IDX 8 13 7 14 9 15 11 16 12 17 10 18 13 20 4 22 21 24 18 26
REMARK H PARENT 10 19 13 21 4 23 21 25 18 27
REMARK Flexibility Score: inf
ROOT
ATOM      1  C   UNL     1      29.072  23.459  48.728  1.00  0.00     0.184 A 
ATOM      2  C   UNL     1      30.416  23.062  48.831  1.00  0.00     0.208 A 
ATOM      3  C   UNL     1      30.903  22.621  50.072  1.00  0.00     0.238 A 
ATOM      4  O   UNL     1      32.125  22.337  50.174  1.00  0.00    -0.285 OA
ATOM      5  C   UNL     1      30.028  22.534  51.182  1.00  0.00     0.111 A 
ATOM      6  C   UNL     1      30.403  22.060  52.476  1.00  0.00     0.134 A 
ATOM      7  C   UNL     1      29.480  22.120  53.527  1.00  0.00     0.093 A 
ATOM      8  C   UNL     1      28.176  22.578  53.317  1.00  0.00     0.123 A 
ATOM      9  C   UNL     1      27.785  22.991  52.046  1.00  0.00     0.094 A 
ATOM     10  C   UNL     1      28.694  22.978  50.985  1.00  0.00     0.146 A 
ATOM     11  O   UNL     1      28.285  23.400  49.795  1.00  0.00    -0.451 OA
ENDROOT
BRANCH   1  12
ATOM     12  C   UNL     1      28.496  23.945  47.454  1.00  0.00     0.063 A 
ATOM     13  C   UNL     1      28.697  25.251  45.409  1.00  0.00     0.047 A 
ATOM     14  C   UNL     1      29.250  24.769  46.598  1.00  0.00     0.020 A 
ATOM     15  C   UNL     1      27.379  24.930  45.064  1.00  0.00     0.119 A 
ATOM     16  C   UNL     1      26.617  24.125  45.915  1.00  0.00     0.093 A 
ATOM     17  C   UNL     1      27.165  23.634  47.110  1.00  0.00     0.130 A 
BRANCH  15  18
ATOM     18  O   UNL     1      26.818  25.406  43.882  1.00  0.00    -0.508 OA
ATOM     19  H   UNL     1      27.333  26.019  43.261  1.00  0.00     0.293 HD
ENDBRANCH  15  18
BRANCH  17  20
ATOM     20  O   UNL     1      26.394  22.827  47.947  1.00  0.00    -0.507 OA
ATOM     21  H   UNL     1      25.433  22.594  47.724  1.00  0.00     0.293 HD
ENDBRANCH  17  20
ENDBRANCH   1  12
BRANCH   2  22
ATOM     22  O   UNL     1      31.244  23.092  47.705  1.00  0.00    -0.502 OA
ATOM     23  H   UNL     1      30.912  22.844  46.780  1.00  0.00     0.293 HD
ENDBRANCH   2  22
BRANCH   6  24
ATOM     24  O   UNL     1      31.648  21.500  52.774  1.00  0.00    -0.507 OA
ATOM     25  H   UNL     1      32.375  21.315  52.100  1.00  0.00     0.293 HD
ENDBRANCH   6  24
BRANCH   8  26
ATOM     26  O   UNL     1      27.260  22.618  54.365  1.00  0.00    -0.508 OA
ATOM     27  H   UNL     1      26.706  23.444  54.554  1.00  0.00     0.293 HD
ENDBRANCH   8  26
TORSDOF 6
ENDMDL
MODEL 2
REMARK VINA RESULT:    -7.182      1.589      7.010
REMARK INTER + INTRA:          -8.694
REMARK INTER:                  -8.305
REMARK INTRA:                  -0.390
REMARK UNBOUND:                -0.042
REMARK SMILES O=c1c(O)c(-c2ccc(O)cc2O)oc2cc(O)cc(O)c12
REMARK SMILES IDX 5 1 3 2 2 3 1 4 22 5 20 6 19 7 17 8 16 9 15 10 14 11 6 12
REMARK SMILES IDX 8 13 7 14 9 15 11 16 12 17 10 18 13 20 4 22 21 24 18 26
REMARK H PARENT 10 19 13 21 4 23 21 25 18 27
REMARK Flexibility Score: inf
ROOT
ATOM      1  C   UNL     1      29.258  22.965  50.404  1.00  0.00     0.184 A 
ATOM      2  C   UNL     1      27.885  22.711  50.247  1.00  0.00     0.208 A 
ATOM      3  C   UNL     1      27.251  23.101  49.056  1.00  0.00     0.238 A 
ATOM      4  O   UNL     1      26.007  22.935  48.953  1.00  0.00    -0.285 OA
ATOM      5  C   UNL     1      28.008  23.693  48.016  1.00  0.00     0.111 A 
ATOM      6  C   UNL     1      27.478  24.086  46.749  1.00  0.00     0.134 A 
ATOM      7  C   UNL     1      28.299  24.761  45.838  1.00  0.00     0.093 A 
ATOM      8  C   UNL     1      29.646  25.000  46.120  1.00  0.00     0.123 A 
ATOM      9  C   UNL     1      30.186  24.571  47.331  1.00  0.00     0.094 A 
ATOM     10  C   UNL     1      29.384  23.929  48.276  1.00  0.00     0.146 A 
ATOM     11  O   UNL     1      29.934  23.555  49.425  1.00  0.00    -0.451 OA
ENDROOT
BRANCH   1  12
ATOM     12  C   UNL     1      29.987  22.594  51.637  1.00  0.00     0.063 A 
ATOM     13  C   UNL     1      30.334  22.829  54.035  1.00  0.00     0.047 A 
ATOM     14  C   UNL     1      29.628  23.158  52.876  1.00  0.00     0.020 A 
ATOM     15  C   UNL     1      31.414  21.942  53.975  1.00  0.00     0.119 A 
ATOM     16  C   UNL     1      31.788  21.387  52.747  1.00  0.00     0.093 A 
ATOM     17  C   UNL     1      31.083  21.710  51.577  1.00  0.00     0.130 A 
BRANCH  15  18
ATOM     18  O   UNL     1      32.125  21.607  55.125  1.00  0.00    -0.508 OA
ATOM     19  H   UNL     1      32.198  22.247  55.906  1.00  0.00     0.293 HD
ENDBRANCH  15  18
BRANCH  17  20
ATOM     20  O   UNL     1      31.464  21.145  50.360  1.00  0.00    -0.507 OA
ATOM     21  H   UNL     1      32.142  21.592  49.754  1.00  0.00     0.293 HD
ENDBRANCH  17  20
ENDBRANCH   1  12
BRANCH   2  22
ATOM     22  O   UNL     1      27.172  22.064  51.261  1.00  0.00    -0.502 OA
ATOM     23  H   UNL     1      27.447  22.115  52.235  1.00  0.00     0.293 HD
ENDBRANCH   2  22
BRANCH   6  24
ATOM     24  O   UNL     1      26.172  23.818  46.329  1.00  0.00    -0.507 OA
ATOM     25  H   UNL     1      25.782  22.895  46.210  1.00  0.00     0.293 HD
ENDBRANCH   6  24
BRANCH   8  26
ATOM     26  O   UNL     1      30.460  25.657  45.200  1.00  0.00    -0.508 OA
ATOM     27  H   UNL     1      30.289  25.596  44.203  1.00  0.00     0.293 HD
ENDBRANCH   8  26
TORSDOF 6
ENDMDL
MODEL 3
REMARK VINA RESULT:    -7.028      1.521      3.079
REMARK INTER + INTRA:          -8.509
REMARK INTER:                  -8.857
REMARK INTRA:                   0.349
REMARK UNBOUND:                -0.042
REMARK SMILES O=c1c(O)c(-c2ccc(O)cc2O)oc2cc(O)cc(O)c12
REMARK SMILES IDX 5 1 3 2 2 3 1 4 22 5 20 6 19 7 17 8 16 9 15 10 14 11 6 12
REMARK SMILES IDX 8 13 7 14 9 15 11 16 12 17 10 18 13 20 4 22 21 24 18 26
REMARK H PARENT 10 19 13 21 4 23 21 25 18 27
REMARK Flexibility Score: inf
ROOT
ATOM      1  C   UNL     1      27.945  23.594  49.225  1.00  0.00     0.184 A 
ATOM      2  C   UNL     1      26.931  22.762  49.729  1.00  0.00     0.208 A 
ATOM      3  C   UNL     1      27.003  22.333  51.064  1.00  0.00     0.238 A 
ATOM      4  O   UNL     1      26.131  21.530  51.487  1.00  0.00    -0.285 OA
ATOM      5  C   UNL     1      28.059  22.783  51.894  1.00  0.00     0.111 A 
ATOM      6  C   UNL     1      28.206  22.448  53.274  1.00  0.00     0.134 A 
ATOM      7  C   UNL     1      29.350  22.863  53.966  1.00  0.00     0.093 A 
ATOM      8  C   UNL     1      30.320  23.656  53.347  1.00  0.00     0.123 A 
ATOM      9  C   UNL     1      30.158  24.033  52.016  1.00  0.00     0.094 A 
ATOM     10  C   UNL     1      29.047  23.604  51.287  1.00  0.00     0.146 A 
ATOM     11  O   UNL     1      28.942  23.970  50.016  1.00  0.00    -0.451 OA
ENDROOT
BRANCH   1  12
ATOM     12  C   UNL     1      27.940  24.072  47.824  1.00  0.00     0.063 A 
ATOM     13  C   UNL     1      26.740  24.536  45.757  1.00  0.00     0.047 A 
ATOM     14  C   UNL     1      26.741  24.110  47.087  1.00  0.00     0.020 A 
ATOM     15  C   UNL     1      27.936  24.918  45.139  1.00  0.00     0.119 A 
ATOM     16  C   UNL     1      29.134  24.869  45.857  1.00  0.00     0.093 A 
ATOM     17  C   UNL     1      29.144  24.446  47.195  1.00  0.00     0.130 A 
BRANCH  15  18
ATOM     18  O   UNL     1      27.946  25.343  43.812  1.00  0.00    -0.508 OA
ATOM     19  H   UNL     1      27.579  24.763  43.068  1.00  0.00     0.293 HD
ENDBRANCH  15  18
BRANCH  17  20
ATOM     20  O   UNL     1      30.346  24.408  47.902  1.00  0.00    -0.507 OA
ATOM     21  H   UNL     1      30.986  25.194  47.904  1.00  0.00     0.293 HD
ENDBRANCH  17  20
ENDBRANCH   1  12
BRANCH   2  22
ATOM     22  O   UNL     1      25.862  22.385  48.911  1.00  0.00    -0.502 OA
ATOM     23  H   UNL     1      25.307  21.556  49.091  1.00  0.00     0.293 HD
ENDBRANCH   2  22
BRANCH   6  24
ATOM     24  O   UNL     1      27.256  21.738  54.013  1.00  0.00    -0.507 OA
ATOM     25  H   UNL     1      26.646  21.028  53.639  1.00  0.00     0.293 HD
ENDBRANCH   6  24
BRANCH   8  26
ATOM     26  O   UNL     1      31.446  24.079  54.049  1.00  0.00    -0.508 OA
ATOM     27  H   UNL     1      31.718  25.054  54.077  1.00  0.00     0.293 HD
ENDBRANCH   8  26
TORSDOF 6
ENDMDL
MODEL 4
REMARK VINA RESULT:    -6.232      1.484      2.631
REMARK INTER + INTRA:          -7.549
REMARK INTER:                  -7.178
REMARK INTRA:                  -0.371
REMARK UNBOUND:                -0.042
REMARK SMILES O=c1c(O)c(-c2ccc(O)cc2O)oc2cc(O)cc(O)c12
REMARK SMILES IDX 5 1 3 2 2 3 1 4 22 5 20 6 19 7 17 8 16 9 15 10 14 11 6 12
REMARK SMILES IDX 8 13 7 14 9 15 11 16 12 17 10 18 13 20 4 22 21 24 18 26
REMARK H PARENT 10 19 13 21 4 23 21 25 18 27
REMARK Flexibility Score: inf
ROOT
ATOM      1  C   UNL     1      29.084  23.863  49.132  1.00  0.00     0.184 A 
ATOM      2  C   UNL     1      28.729  24.693  50.208  1.00  0.00     0.208 A 
ATOM      3  C   UNL     1      29.142  24.343  51.503  1.00  0.00     0.238 A 
ATOM      4  O   UNL     1      28.758  25.053  52.470  1.00  0.00    -0.285 OA
ATOM      5  C   UNL     1      29.948  23.196  51.701  1.00  0.00     0.111 A 
ATOM      6  C   UNL     1      30.461  22.772  52.965  1.00  0.00     0.134 A 
ATOM      7  C   UNL     1      31.157  21.561  53.055  1.00  0.00     0.093 A 
ATOM      8  C   UNL     1      31.415  20.791  51.918  1.00  0.00     0.123 A 
ATOM      9  C   UNL     1      30.967  21.224  50.673  1.00  0.00     0.094 A 
ATOM     10  C   UNL     1      30.237  22.408  50.555  1.00  0.00     0.146 A 
ATOM     11  O   UNL     1      29.811  22.773  49.353  1.00  0.00    -0.451 OA
ENDROOT
BRANCH   1  12
ATOM     12  C   UNL     1      28.673  24.163  47.742  1.00  0.00     0.063 A 
ATOM     13  C   UNL     1      29.145  25.153  45.568  1.00  0.00     0.047 A 
ATOM     14  C   UNL     1      29.543  24.845  46.871  1.00  0.00     0.020 A 
ATOM     15  C   UNL     1      27.868  24.797  45.119  1.00  0.00     0.119 A 
ATOM     16  C   UNL     1      26.991  24.133  45.981  1.00  0.00     0.093 A 
ATOM     17  C   UNL     1      27.384  23.817  47.291  1.00  0.00     0.130 A 
BRANCH  15  18
ATOM     18  O   UNL     1      27.461  25.100  43.822  1.00  0.00    -0.508 OA
ATOM     19  H   UNL     1      26.752  24.552  43.349  1.00  0.00     0.293 HD
ENDBRANCH  15  18
BRANCH  17  20
ATOM     20  O   UNL     1      26.499  23.148  48.138  1.00  0.00    -0.507 OA
ATOM     21  H   UNL     1      26.245  22.179  47.984  1.00  0.00     0.293 HD
ENDBRANCH  17  20
ENDBRANCH   1  12
BRANCH   2  22
ATOM     22  O   UNL     1      27.990  25.857  49.979  1.00  0.00    -0.502 OA
ATOM     23  H   UNL     1      28.383  26.783  50.102  1.00  0.00     0.293 HD
ENDBRANCH   2  22
BRANCH   6  24
ATOM     24  O   UNL     1      30.338  23.509  54.146  1.00  0.00    -0.507 OA
ATOM     25  H   UNL     1      31.062  23.611  54.841  1.00  0.00     0.293 HD
ENDBRANCH   6  24
BRANCH   8  26
ATOM     26  O   UNL     1      32.125  19.596  52.016  1.00  0.00    -0.508 OA
ATOM     27  H   UNL     1      32.826  19.452  52.733  1.00  0.00     0.293 HD
ENDBRANCH   8  26
TORSDOF 6
ENDMDL
MODEL 5
REMARK VINA RESULT:    -6.136     11.572     13.208
REMARK INTER + INTRA:          -7.433
REMARK INTER:                  -7.141
REMARK INTRA:                  -0.292
REMARK UNBOUND:                -0.042
REMARK SMILES O=c1c(O)c(-c2ccc(O)cc2O)oc2cc(O)cc(O)c12
REMARK SMILES IDX 5 1 3 2 2 3 1 4 22 5 20 6 19 7 17 8 16 9 15 10 14 11 6 12
REMARK SMILES IDX 8 13 7 14 9 15 11 16 12 17 10 18 13 20 4 22 21 24 18 26
REMARK H PARENT 10 19 13 21 4 23 21 25 18 27
REMARK Flexibility Score: inf
ROOT
ATOM      1  C   UNL     1      16.361  26.750  51.368  1.00  0.00     0.184 A 
ATOM      2  C   UNL     1      17.099  27.603  52.205  1.00  0.00     0.208 A 
ATOM      3  C   UNL     1      18.032  27.046  53.095  1.00  0.00     0.238 A 
ATOM      4  O   UNL     1      18.636  27.812  53.891  1.00  0.00    -0.285 OA
ATOM      5  C   UNL     1      18.253  25.648  53.101  1.00  0.00     0.111 A 
ATOM      6  C   UNL     1      19.206  24.980  53.929  1.00  0.00     0.134 A 
ATOM      7  C   UNL     1      19.260  23.581  53.926  1.00  0.00     0.093 A 
ATOM      8  C   UNL     1      18.442  22.828  53.080  1.00  0.00     0.123 A 
ATOM      9  C   UNL     1      17.549  23.473  52.229  1.00  0.00     0.094 A 
ATOM     10  C   UNL     1      17.443  24.866  52.234  1.00  0.00     0.146 A 
ATOM     11  O   UNL     1      16.564  25.438  51.422  1.00  0.00    -0.451 OA
ENDROOT
BRANCH   1  12
ATOM     12  C   UNL     1      15.353  27.267  50.416  1.00  0.00     0.063 A 
ATOM     13  C   UNL     1      14.665  27.764  48.135  1.00  0.00     0.047 A 
ATOM     14  C   UNL     1      15.604  27.251  49.032  1.00  0.00     0.020 A 
ATOM     15  C   UNL     1      13.466  28.311  48.606  1.00  0.00     0.119 A 
ATOM     16  C   UNL     1      13.213  28.345  49.981  1.00  0.00     0.093 A 
ATOM     17  C   UNL     1      14.151  27.830  50.889  1.00  0.00     0.130 A 
BRANCH  15  18
ATOM     18  O   UNL     1      12.522  28.826  47.720  1.00  0.00    -0.508 OA
ATOM     19  H   UNL     1      12.379  28.418  46.805  1.00  0.00     0.293 HD
ENDBRANCH  15  18
BRANCH  17  20
ATOM     20  O   UNL     1      13.882  27.865  52.258  1.00  0.00    -0.507 OA
ATOM     21  H   UNL     1      14.439  27.342  52.923  1.00  0.00     0.293 HD
ENDBRANCH  17  20
ENDBRANCH   1  12
BRANCH   2  22
ATOM     22  O   UNL     1      16.913  28.987  52.134  1.00  0.00    -0.502 OA
ATOM     23  H   UNL     1      17.087  29.600  52.923  1.00  0.00     0.293 HD
ENDBRANCH   2  22
BRANCH   6  24
ATOM     24  O   UNL     1      20.131  25.637  54.745  1.00  0.00    -0.507 OA
ATOM     25  H   UNL     1      20.752  25.181  55.395  1.00  0.00     0.293 HD
ENDBRANCH   6  24
BRANCH   8  26
ATOM     26  O   UNL     1      18.517  21.437  53.072  1.00  0.00    -0.508 OA
ATOM     27  H   UNL     1      17.976  20.874  53.717  1.00  0.00     0.293 HD
ENDBRANCH   8  26
TORSDOF 6
ENDMDL
MODEL 6
REMARK VINA RESULT:    -6.105     12.590     14.212
REMARK INTER + INTRA:          -7.396
REMARK INTER:                  -6.922
REMARK INTRA:                  -0.475
REMARK UNBOUND:                -0.042
REMARK SMILES O=c1c(O)c(-c2ccc(O)cc2O)oc2cc(O)cc(O)c12
REMARK SMILES IDX 5 1 3 2 2 3 1 4 22 5 20 6 19 7 17 8 16 9 15 10 14 11 6 12
REMARK SMILES IDX 8 13 7 14 9 15 11 16 12 17 10 18 13 20 4 22 21 24 18 26
REMARK H PARENT 10 19 13 21 4 23 21 25 18 27
REMARK Flexibility Score: inf
ROOT
ATOM      1  C   UNL     1      15.735  27.838  51.060  1.00  0.00     0.184 A 
ATOM      2  C   UNL     1      16.190  26.599  51.541  1.00  0.00     0.208 A 
ATOM      3  C   UNL     1      17.158  26.577  52.557  1.00  0.00     0.238 A 
ATOM      4  O   UNL     1      17.613  25.464  52.931  1.00  0.00    -0.285 OA
ATOM      5  C   UNL     1      17.622  27.792  53.116  1.00  0.00     0.111 A 
ATOM      6  C   UNL     1      18.569  27.886  54.181  1.00  0.00     0.134 A 
ATOM      7  C   UNL     1      19.035  29.145  54.580  1.00  0.00     0.093 A 
ATOM      8  C   UNL     1      18.542  30.315  53.997  1.00  0.00     0.123 A 
ATOM      9  C   UNL     1      17.577  30.235  52.995  1.00  0.00     0.094 A 
ATOM     10  C   UNL     1      17.119  28.993  52.549  1.00  0.00     0.146 A 
ATOM     11  O   UNL     1      16.215  28.963  51.579  1.00  0.00    -0.451 OA
ENDROOT
BRANCH   1  12
ATOM     12  C   UNL     1      14.725  27.937  49.982  1.00  0.00     0.063 A 
ATOM     13  C   UNL     1      14.137  27.802  47.623  1.00  0.00     0.047 A 
ATOM     14  C   UNL     1      15.082  27.682  48.644  1.00  0.00     0.020 A 
ATOM     15  C   UNL     1      12.825  28.190  47.919  1.00  0.00     0.119 A 
ATOM     16  C   UNL     1      12.464  28.459  49.242  1.00  0.00     0.093 A 
ATOM     17  C   UNL     1      13.407  28.339  50.275  1.00  0.00     0.130 A 
BRANCH  15  18
ATOM     18  O   UNL     1      11.875  28.313  46.908  1.00  0.00    -0.508 OA
ATOM     19  H   UNL     1      11.807  29.152  46.346  1.00  0.00     0.293 HD
ENDBRANCH  15  18
BRANCH  17  20
ATOM     20  O   UNL     1      13.031  28.606  51.592  1.00  0.00    -0.507 OA
ATOM     21  H   UNL     1      13.717  28.711  52.330  1.00  0.00     0.293 HD
ENDBRANCH  17  20
ENDBRANCH   1  12
BRANCH   2  22
ATOM     22  O   UNL     1      15.667  25.412  51.020  1.00  0.00    -0.502 OA
ATOM     23  H   UNL     1      14.768  25.042  51.307  1.00  0.00     0.293 HD
ENDBRANCH   2  22
BRANCH   6  24
ATOM     24  O   UNL     1      19.060  26.788  54.892  1.00  0.00    -0.507 OA
ATOM     25  H   UNL     1      19.451  26.829  55.821  1.00  0.00     0.293 HD
ENDBRANCH   6  24
BRANCH   8  26
ATOM     26  O   UNL     1      18.999  31.563  54.413  1.00  0.00    -0.508 OA
ATOM     27  H   UNL     1      18.785  31.927  55.333  1.00  0.00     0.293 HD
ENDBRANCH   8  26
TORSDOF 6
ENDMDL
MODEL 7
REMARK VINA RESULT:    -6.079     13.520     16.055
REMARK INTER + INTRA:          -7.365
REMARK INTER:                  -7.163
REMARK INTRA:                  -0.202
REMARK UNBOUND:                -0.042
REMARK SMILES O=c1c(O)c(-c2ccc(O)cc2O)oc2cc(O)cc(O)c12
REMARK SMILES IDX 5 1 3 2 2 3 1 4 22 5 20 6 19 7 17 8 16 9 15 10 14 11 6 12
REMARK SMILES IDX 8 13 7 14 9 15 11 16 12 17 10 18 13 20 4 22 21 24 18 26
REMARK H PARENT 10 19 13 21 4 23 21 25 18 27
REMARK Flexibility Score: inf
ROOT
ATOM      1  C   UNL     1      15.870  21.882  43.114  1.00  0.00     0.184 A 
ATOM      2  C   UNL     1      17.206  22.194  42.809  1.00  0.00     0.208 A 
ATOM      3  C   UNL     1      17.472  23.217  41.884  1.00  0.00     0.238 A 
ATOM      4  O   UNL     1      18.668  23.441  41.562  1.00  0.00    -0.285 OA
ATOM      5  C   UNL     1      16.402  23.950  41.316  1.00  0.00     0.111 A 
ATOM      6  C   UNL     1      16.558  25.036  40.402  1.00  0.00     0.134 A 
ATOM      7  C   UNL     1      15.424  25.616  39.821  1.00  0.00     0.093 A 
ATOM      8  C   UNL     1      14.138  25.192  40.168  1.00  0.00     0.123 A 
ATOM      9  C   UNL     1      13.976  24.170  41.100  1.00  0.00     0.094 A 
ATOM     10  C   UNL     1      15.087  23.546  41.669  1.00  0.00     0.146 A 
ATOM     11  O   UNL     1      14.887  22.562  42.537  1.00  0.00    -0.451 OA
ENDROOT
BRANCH   1  12
ATOM     12  C   UNL     1      15.516  20.807  44.068  1.00  0.00     0.063 A 
ATOM     13  C   UNL     1      15.762  18.515  44.852  1.00  0.00     0.047 A 
ATOM     14  C   UNL     1      16.116  19.538  43.969  1.00  0.00     0.020 A 
ATOM     15  C   UNL     1      14.796  18.740  45.839  1.00  0.00     0.119 A 
ATOM     16  C   UNL     1      14.183  19.993  45.937  1.00  0.00     0.093 A 
ATOM     17  C   UNL     1      14.535  21.027  45.055  1.00  0.00     0.130 A 
BRANCH  15  18
ATOM     18  O   UNL     1      14.435  17.727  46.725  1.00  0.00    -0.508 OA
ATOM     19  H   UNL     1      15.021  17.482  47.514  1.00  0.00     0.293 HD
ENDBRANCH  15  18
BRANCH  17  20
ATOM     20  O   UNL     1      13.919  22.274  45.168  1.00  0.00    -0.507 OA
ATOM     21  H   UNL     1      14.105  23.020  44.510  1.00  0.00     0.293 HD
ENDBRANCH  17  20
ENDBRANCH   1  12
BRANCH   2  22
ATOM     22  O   UNL     1      18.247  21.502  43.434  1.00  0.00    -0.502 OA
ATOM     23  H   UNL     1      18.089  20.864  44.206  1.00  0.00     0.293 HD
ENDBRANCH   2  22
BRANCH   6  24
ATOM     24  O   UNL     1      17.790  25.597  40.055  1.00  0.00    -0.507 OA
ATOM     25  H   UNL     1      18.363  26.157  40.667  1.00  0.00     0.293 HD
ENDBRANCH   6  24
BRANCH   8  26
ATOM     26  O   UNL     1      13.016  25.788  39.598  1.00  0.00    -0.508 OA
ATOM     27  H   UNL     1      12.157  25.911  40.121  1.00  0.00     0.293 HD
ENDBRANCH   8  26
TORSDOF 6
ENDMDL
MODEL 8
REMARK VINA RESULT:    -5.894     11.199     13.601
REMARK INTER + INTRA:          -7.143
REMARK INTER:                  -6.891
REMARK INTRA:                  -0.251
REMARK UNBOUND:                -0.042
REMARK SMILES O=c1c(O)c(-c2ccc(O)cc2O)oc2cc(O)cc(O)c12
REMARK SMILES IDX 5 1 3 2 2 3 1 4 22 5 20 6 19 7 17 8 16 9 15 10 14 11 6 12
REMARK SMILES IDX 8 13 7 14 9 15 11 16 12 17 10 18 13 20 4 22 21 24 18 26
REMARK H PARENT 10 19 13 21 4 23 21 25 18 27
REMARK Flexibility Score: inf
ROOT
ATOM      1  C   UNL     1      17.495  25.960  53.309  1.00  0.00     0.184 A 
ATOM      2  C   UNL     1      16.192  26.242  53.751  1.00  0.00     0.208 A 
ATOM      3  C   UNL     1      15.885  27.544  54.178  1.00  0.00     0.238 A 
ATOM      4  O   UNL     1      14.736  27.771  54.642  1.00  0.00    -0.285 OA
ATOM      5  C   UNL     1      16.869  28.560  54.108  1.00  0.00     0.111 A 
ATOM      6  C   UNL     1      16.654  29.924  54.473  1.00  0.00     0.134 A 
ATOM      7  C   UNL     1      17.732  30.818  54.465  1.00  0.00     0.093 A 
ATOM      8  C   UNL     1      19.002  30.412  54.045  1.00  0.00     0.123 A 
ATOM      9  C   UNL     1      19.208  29.097  53.636  1.00  0.00     0.094 A 
ATOM     10  C   UNL     1      18.162  28.172  53.668  1.00  0.00     0.146 A 
ATOM     11  O   UNL     1      18.407  26.925  53.289  1.00  0.00    -0.451 OA
ENDROOT
BRANCH   1  12
ATOM     12  C   UNL     1      17.892  24.607  52.857  1.00  0.00     0.063 A 
ATOM     13  C   UNL     1      17.497  22.644  51.473  1.00  0.00     0.047 A 
ATOM     14  C   UNL     1      17.139  23.931  51.880  1.00  0.00     0.020 A 
ATOM     15  C   UNL     1      18.605  22.008  52.044  1.00  0.00     0.119 A 
ATOM     16  C   UNL     1      19.351  22.665  53.027  1.00  0.00     0.093 A 
ATOM     17  C   UNL     1      19.000  23.960  53.439  1.00  0.00     0.130 A 
BRANCH  15  18
ATOM     18  O   UNL     1      18.971  20.724  51.646  1.00  0.00    -0.508 OA
ATOM     19  H   UNL     1      19.168  19.997  52.323  1.00  0.00     0.293 HD
ENDBRANCH  15  18
BRANCH  17  20
ATOM     20  O   UNL     1      19.758  24.605  54.416  1.00  0.00    -0.507 OA
ATOM     21  H   UNL     1      19.521  25.534  54.745  1.00  0.00     0.293 HD
ENDBRANCH  17  20
ENDBRANCH   1  12
BRANCH   2  22
ATOM     22  O   UNL     1      15.218  25.239  53.748  1.00  0.00    -0.502 OA
ATOM     23  H   UNL     1      14.322  25.355  53.289  1.00  0.00     0.293 HD
ENDBRANCH   2  22
BRANCH   6  24
ATOM     24  O   UNL     1      15.409  30.455  54.821  1.00  0.00    -0.507 OA
ATOM     25  H   UNL     1      15.269  31.244  55.434  1.00  0.00     0.293 HD
ENDBRANCH   6  24
BRANCH   8  26
ATOM     26  O   UNL     1      20.064  31.313  54.024  1.00  0.00    -0.508 OA
ATOM     27  H   UNL     1      20.837  31.238  54.674  1.00  0.00     0.293 HD
ENDBRANCH   8  26
TORSDOF 6
ENDMDL
