MODEL 1
REMARK VINA RESULT:     0.000      0.000      0.000
REMARK INTER + INTRA:          -0.333
REMARK INTER:                   0.000
REMARK INTRA:                  -0.333
REMARK UNBOUND:                -0.333
REMARK SMILES O=c1c(O)c(-c2ccc(O)c(O)c2)oc2cc(O)cc(O)c12
REMARK SMILES IDX 5 1 3 2 2 3 1 4 22 5 20 6 19 7 17 8 16 9 15 10 14 11 6 12
REMARK SMILES IDX 7 13 8 14 9 15 13 16 11 17 10 18 12 20 4 22 21 24 18 26
REMARK H PARENT 10 19 12 21 4 23 21 25 18 27
REMARK Flexibility Score: inf
ROOT
ATOM      1  C   UNL     1     186.851 184.105 208.941  1.00  0.00     0.180 A 
ATOM      2  C   UNL     1     186.870 185.509 209.002  1.00  0.00     0.208 A 
ATOM      3  C   UNL     1     187.009 186.240 207.810  1.00  0.00     0.238 A 
ATOM      4  O   UNL     1     187.100 187.494 207.879  1.00  0.00    -0.285 OA
ATOM      5  C   UNL     1     187.071 185.561 206.569  1.00  0.00     0.111 A 
ATOM      6  C   UNL     1     187.168 186.202 205.297  1.00  0.00     0.134 A 
ATOM      7  C   UNL     1     187.329 185.425 204.143  1.00  0.00     0.093 A 
ATOM      8  C   UNL     1     187.334 184.032 204.206  1.00  0.00     0.123 A 
ATOM      9  C   UNL     1     187.185 183.395 205.439  1.00  0.00     0.094 A 
ATOM     10  C   UNL     1     187.061 184.143 206.612  1.00  0.00     0.146 A 
ATOM     11  O   UNL     1     186.944 183.495 207.766  1.00  0.00    -0.452 OA
ENDROOT
BRANCH   1  12
ATOM     12  C   UNL     1     186.722 183.266 210.154  1.00  0.00     0.025 A 
ATOM     13  C   UNL     1     185.454 182.805 210.542  1.00  0.00     0.016 A 
ATOM     14  C   UNL     1     185.311 181.993 211.671  1.00  0.00     0.051 A 
ATOM     15  C   UNL     1     186.434 181.619 212.419  1.00  0.00     0.157 A 
ATOM     16  C   UNL     1     187.850 182.870 210.895  1.00  0.00     0.062 A 
ATOM     17  C   UNL     1     187.710 182.056 212.025  1.00  0.00     0.158 A 
BRANCH  15  18
ATOM     18  O   UNL     1     186.288 180.811 213.546  1.00  0.00    -0.504 OA
ATOM     19  H   UNL     1     185.775 181.126 214.361  1.00  0.00     0.293 HD
ENDBRANCH  15  18
BRANCH  17  20
ATOM     20  O   UNL     1     188.850 181.688 212.740  1.00  0.00    -0.504 OA
ATOM     21  H   UNL     1     189.676 181.323 212.283  1.00  0.00     0.293 HD
ENDBRANCH  17  20
ENDBRANCH   1  12
BRANCH   2  22
ATOM     22  O   UNL     1     186.730 186.162 210.229  1.00  0.00    -0.502 OA
ATOM     23  H   UNL     1     187.067 187.105 210.385  1.00  0.00     0.293 HD
ENDBRANCH   2  22
BRANCH   6  24
ATOM     24  O   UNL     1     187.085 187.585 205.108  1.00  0.00    -0.507 OA
ATOM     25  H   UNL     1     186.559 188.217 205.691  1.00  0.00     0.293 HD
ENDBRANCH   6  24
BRANCH   8  26
ATOM     26  O   UNL     1     187.480 183.291 203.036  1.00  0.00    -0.508 OA
ATOM     27  H   UNL     1     186.724 182.723 202.670  1.00  0.00     0.293 HD
ENDBRANCH   8  26
TORSDOF 6
ENDMDL
MODEL 2
REMARK VINA RESULT:     0.000      8.135      9.418
REMARK INTER + INTRA:          -0.333
REMARK INTER:                   0.000
REMARK INTRA:                  -0.333
REMARK UNBOUND:                -0.333
REMARK SMILES O=c1c(O)c(-c2ccc(O)c(O)c2)oc2cc(O)cc(O)c12
REMARK SMILES IDX 5 1 3 2 2 3 1 4 22 5 20 6 19 7 17 8 16 9 15 10 14 11 6 12
REMARK SMILES IDX 7 13 8 14 9 15 13 16 11 17 10 18 12 20 4 22 21 24 18 26
REMARK H PARENT 10 19 12 21 4 23 21 25 18 27
REMARK Flexibility Score: inf
ROOT
ATOM      1  C   UNL     1     179.391 187.492 208.763  1.00  0.00     0.180 A 
ATOM      2  C   UNL     1     179.896 187.382 207.456  1.00  0.00     0.208 A 
ATOM      3  C   UNL     1     180.110 188.551 206.708  1.00  0.00     0.238 A 
ATOM      4  O   UNL     1     180.491 188.442 205.513  1.00  0.00    -0.285 OA
ATOM      5  C   UNL     1     179.870 189.818 207.294  1.00  0.00     0.111 A 
ATOM      6  C   UNL     1     180.094 191.070 206.644  1.00  0.00     0.134 A 
ATOM      7  C   UNL     1     179.720 192.257 207.286  1.00  0.00     0.093 A 
ATOM      8  C   UNL     1     179.190 192.244 208.575  1.00  0.00     0.123 A 
ATOM      9  C   UNL     1     179.018 191.030 209.241  1.00  0.00     0.094 A 
ATOM     10  C   UNL     1     179.346 189.826 208.613  1.00  0.00     0.146 A 
ATOM     11  O   UNL     1     179.144 188.692 209.275  1.00  0.00    -0.452 OA
ENDROOT
BRANCH   1  12
ATOM     12  C   UNL     1     179.126 186.306 209.608  1.00  0.00     0.025 A 
ATOM     13  C   UNL     1     180.104 185.875 210.518  1.00  0.00     0.016 A 
ATOM     14  C   UNL     1     179.867 184.770 211.341  1.00  0.00     0.051 A 
ATOM     15  C   UNL     1     178.644 184.090 211.278  1.00  0.00     0.157 A 
ATOM     16  C   UNL     1     177.890 185.635 209.562  1.00  0.00     0.062 A 
ATOM     17  C   UNL     1     177.650 184.529 210.387  1.00  0.00     0.158 A 
BRANCH  15  18
ATOM     18  O   UNL     1     178.411 182.988 212.098  1.00  0.00    -0.504 OA
ATOM     19  H   UNL     1     177.942 182.159 211.752  1.00  0.00     0.293 HD
ENDBRANCH  15  18
BRANCH  17  20
ATOM     20  O   UNL     1     176.416 183.883 210.310  1.00  0.00    -0.504 OA
ATOM     21  H   UNL     1     176.215 183.041 210.836  1.00  0.00     0.293 HD
ENDBRANCH  17  20
ENDBRANCH   1  12
BRANCH   2  22
ATOM     22  O   UNL     1     180.199 186.127 206.923  1.00  0.00    -0.502 OA
ATOM     23  H   UNL     1     179.698 185.735 206.133  1.00  0.00     0.293 HD
ENDBRANCH   2  22
BRANCH   6  24
ATOM     24  O   UNL     1     180.700 191.204 205.391  1.00  0.00    -0.507 OA
ATOM     25  H   UNL     1     181.244 191.999 205.095  1.00  0.00     0.293 HD
ENDBRANCH   6  24
BRANCH   8  26
ATOM     26  O   UNL     1     178.846 193.447 209.189  1.00  0.00    -0.508 OA
ATOM     27  H   UNL     1     178.769 194.308 208.662  1.00  0.00     0.293 HD
ENDBRANCH   8  26
TORSDOF 6
ENDMDL
MODEL 3
REMARK VINA RESULT:     0.000      8.073      9.661
REMARK INTER + INTRA:          -0.333
REMARK INTER:                   0.000
REMARK INTRA:                  -0.333
REMARK UNBOUND:                -0.333
REMARK SMILES O=c1c(O)c(-c2ccc(O)c(O)c2)oc2cc(O)cc(O)c12
REMARK SMILES IDX 5 1 3 2 2 3 1 4 22 5 20 6 19 7 17 8 16 9 15 10 14 11 6 12
REMARK SMILES IDX 7 13 8 14 9 15 13 16 11 17 10 18 12 20 4 22 21 24 18 26
REMARK H PARENT 10 19 12 21 4 23 21 25 18 27
REMARK Flexibility Score: inf
ROOT
ATOM      1  C   UNL     1     180.173 189.235 208.613  1.00  0.00     0.180 A 
ATOM      2  C   UNL     1     180.927 188.751 207.530  1.00  0.00     0.208 A 
ATOM      3  C   UNL     1     181.771 189.635 206.838  1.00  0.00     0.238 A 
ATOM      4  O   UNL     1     182.385 189.213 205.824  1.00  0.00    -0.285 OA
ATOM      5  C   UNL     1     181.893 190.977 207.271  1.00  0.00     0.111 A 
ATOM      6  C   UNL     1     182.752 191.949 206.672  1.00  0.00     0.134 A 
ATOM      7  C   UNL     1     182.711 193.276 207.120  1.00  0.00     0.093 A 
ATOM      8  C   UNL     1     181.892 193.653 208.184  1.00  0.00     0.123 A 
ATOM      9  C   UNL     1     181.090 192.700 208.812  1.00  0.00     0.094 A 
ATOM     10  C   UNL     1     181.080 191.377 208.364  1.00  0.00     0.146 A 
ATOM     11  O   UNL     1     180.284 190.507 208.976  1.00  0.00    -0.452 OA
ENDROOT
BRANCH   1  12
ATOM     12  C   UNL     1     179.252 188.369 209.382  1.00  0.00     0.025 A 
ATOM     13  C   UNL     1     179.702 187.762 210.565  1.00  0.00     0.016 A 
ATOM     14  C   UNL     1     178.843 186.957 211.319  1.00  0.00     0.051 A 
ATOM     15  C   UNL     1     177.518 186.759 210.909  1.00  0.00     0.157 A 
ATOM     16  C   UNL     1     177.915 188.186 208.985  1.00  0.00     0.062 A 
ATOM     17  C   UNL     1     177.051 187.382 209.740  1.00  0.00     0.158 A 
BRANCH  15  18
ATOM     18  O   UNL     1     176.664 185.955 211.662  1.00  0.00    -0.504 OA
ATOM     19  H   UNL     1     176.790 185.836 212.660  1.00  0.00     0.293 HD
ENDBRANCH  15  18
BRANCH  17  20
ATOM     20  O   UNL     1     175.733 187.218 209.312  1.00  0.00    -0.504 OA
ATOM     21  H   UNL     1     175.507 186.857 208.394  1.00  0.00     0.293 HD
ENDBRANCH  17  20
ENDBRANCH   1  12
BRANCH   2  22
ATOM     22  O   UNL     1     180.850 187.404 207.166  1.00  0.00    -0.502 OA
ATOM     23  H   UNL     1     181.604 186.750 207.340  1.00  0.00     0.293 HD
ENDBRANCH   2  22
BRANCH   6  24
ATOM     24  O   UNL     1     183.675 191.662 205.662  1.00  0.00    -0.507 OA
ATOM     25  H   UNL     1     183.552 190.959 204.951  1.00  0.00     0.293 HD
ENDBRANCH   6  24
BRANCH   8  26
ATOM     26  O   UNL     1     181.890 194.978 208.613  1.00  0.00    -0.508 OA
ATOM     27  H   UNL     1     181.184 195.328 209.251  1.00  0.00     0.293 HD
ENDBRANCH   8  26
TORSDOF 6
ENDMDL
MODEL 4
REMARK VINA RESULT:     0.000      5.393      9.951
REMARK INTER + INTRA:          -0.333
REMARK INTER:                   0.000
REMARK INTRA:                  -0.333
REMARK UNBOUND:                -0.333
REMARK SMILES O=c1c(O)c(-c2ccc(O)c(O)c2)oc2cc(O)cc(O)c12
REMARK SMILES IDX 5 1 3 2 2 3 1 4 22 5 20 6 19 7 17 8 16 9 15 10 14 11 6 12
REMARK SMILES IDX 7 13 8 14 9 15 13 16 11 17 10 18 12 20 4 22 21 24 18 26
REMARK H PARENT 10 19 12 21 4 23 21 25 18 27
REMARK Flexibility Score: inf
ROOT
ATOM      1  C   UNL     1     184.117 185.617 214.263  1.00  0.00     0.180 A 
ATOM      2  C   UNL     1     185.111 184.863 214.911  1.00  0.00     0.208 A 
ATOM      3  C   UNL     1     184.763 184.108 216.042  1.00  0.00     0.238 A 
ATOM      4  O   UNL     1     185.671 183.495 216.662  1.00  0.00    -0.285 OA
ATOM      5  C   UNL     1     183.416 184.071 216.479  1.00  0.00     0.111 A 
ATOM      6  C   UNL     1     182.942 183.305 217.587  1.00  0.00     0.134 A 
ATOM      7  C   UNL     1     181.607 183.429 217.991  1.00  0.00     0.093 A 
ATOM      8  C   UNL     1     180.714 184.241 217.293  1.00  0.00     0.123 A 
ATOM      9  C   UNL     1     181.154 184.952 216.175  1.00  0.00     0.094 A 
ATOM     10  C   UNL     1     182.489 184.878 215.770  1.00  0.00     0.146 A 
ATOM     11  O   UNL     1     182.870 185.589 214.715  1.00  0.00    -0.452 OA
ENDROOT
BRANCH   1  12
ATOM     12  C   UNL     1     184.410 186.449 213.073  1.00  0.00     0.025 A 
ATOM     13  C   UNL     1     184.192 185.920 211.791  1.00  0.00     0.016 A 
ATOM     14  C   UNL     1     184.441 186.694 210.654  1.00  0.00     0.051 A 
ATOM     15  C   UNL     1     184.895 188.013 210.783  1.00  0.00     0.157 A 
ATOM     16  C   UNL     1     184.846 187.780 213.199  1.00  0.00     0.062 A 
ATOM     17  C   UNL     1     185.094 188.559 212.062  1.00  0.00     0.158 A 
BRANCH  15  18
ATOM     18  O   UNL     1     185.144 188.782 209.648  1.00  0.00    -0.504 OA
ATOM     19  H   UNL     1     185.405 188.356 208.765  1.00  0.00     0.293 HD
ENDBRANCH  15  18
BRANCH  17  20
ATOM     20  O   UNL     1     185.531 189.874 212.224  1.00  0.00    -0.504 OA
ATOM     21  H   UNL     1     186.502 190.098 212.404  1.00  0.00     0.293 HD
ENDBRANCH  17  20
ENDBRANCH   1  12
BRANCH   2  22
ATOM     22  O   UNL     1     186.419 184.852 214.418  1.00  0.00    -0.502 OA
ATOM     23  H   UNL     1     187.156 185.419 214.820  1.00  0.00     0.293 HD
ENDBRANCH   2  22
BRANCH   6  24
ATOM     24  O   UNL     1     183.726 182.394 218.302  1.00  0.00    -0.507 OA
ATOM     25  H   UNL     1     184.018 182.511 219.259  1.00  0.00     0.293 HD
ENDBRANCH   6  24
BRANCH   8  26
ATOM     26  O   UNL     1     179.389 184.327 217.713  1.00  0.00    -0.508 OA
ATOM     27  H   UNL     1     179.150 184.600 218.659  1.00  0.00     0.293 HD
ENDBRANCH   8  26
TORSDOF 6
ENDMDL
MODEL 5
REMARK VINA RESULT:     0.000      6.879      9.351
REMARK INTER + INTRA:          -0.333
REMARK INTER:                   0.000
REMARK INTRA:                  -0.333
REMARK UNBOUND:                -0.333
REMARK SMILES O=c1c(O)c(-c2ccc(O)c(O)c2)oc2cc(O)cc(O)c12
REMARK SMILES IDX 5 1 3 2 2 3 1 4 22 5 20 6 19 7 17 8 16 9 15 10 14 11 6 12
REMARK SMILES IDX 7 13 8 14 9 15 13 16 11 17 10 18 12 20 4 22 21 24 18 26
REMARK H PARENT 10 19 12 21 4 23 21 25 18 27
REMARK Flexibility Score: inf
ROOT
ATOM      1  C   UNL     1     183.534 185.522 216.625  1.00  0.00     0.180 A 
ATOM      2  C   UNL     1     183.994 184.599 215.670  1.00  0.00     0.208 A 
ATOM      3  C   UNL     1     184.352 185.062 214.393  1.00  0.00     0.238 A 
ATOM      4  O   UNL     1     184.691 184.222 213.520  1.00  0.00    -0.285 OA
ATOM      5  C   UNL     1     184.298 186.448 214.105  1.00  0.00     0.111 A 
ATOM      6  C   UNL     1     184.679 187.033 212.859  1.00  0.00     0.134 A 
ATOM      7  C   UNL     1     184.483 188.405 212.653  1.00  0.00     0.093 A 
ATOM      8  C   UNL     1     183.981 189.222 213.665  1.00  0.00     0.123 A 
ATOM      9  C   UNL     1     183.657 188.669 214.904  1.00  0.00     0.094 A 
ATOM     10  C   UNL     1     183.805 187.298 215.128  1.00  0.00     0.146 A 
ATOM     11  O   UNL     1     183.463 186.811 216.315  1.00  0.00    -0.452 OA
ENDROOT
BRANCH   1  12
ATOM     12  C   UNL     1     183.125 185.109 217.987  1.00  0.00     0.025 A 
ATOM     13  C   UNL     1     184.052 185.185 219.038  1.00  0.00     0.016 A 
ATOM     14  C   UNL     1     183.682 184.821 220.336  1.00  0.00     0.051 A 
ATOM     15  C   UNL     1     182.377 184.390 220.605  1.00  0.00     0.157 A 
ATOM     16  C   UNL     1     181.809 184.696 218.264  1.00  0.00     0.062 A 
ATOM     17  C   UNL     1     181.435 184.333 219.564  1.00  0.00     0.158 A 
BRANCH  15  18
ATOM     18  O   UNL     1     182.011 184.025 221.899  1.00  0.00    -0.504 OA
ATOM     19  H   UNL     1     182.663 184.091 222.673  1.00  0.00     0.293 HD
ENDBRANCH  15  18
BRANCH  17  20
ATOM     20  O   UNL     1     180.123 183.922 219.800  1.00  0.00    -0.504 OA
ATOM     21  H   UNL     1     179.420 183.922 219.071  1.00  0.00     0.293 HD
ENDBRANCH  17  20
ENDBRANCH   1  12
BRANCH   2  22
ATOM     22  O   UNL     1     184.113 183.246 215.999  1.00  0.00    -0.502 OA
ATOM     23  H   UNL     1     183.438 182.552 215.699  1.00  0.00     0.293 HD
ENDBRANCH   2  22
BRANCH   6  24
ATOM     24  O   UNL     1     185.273 186.325 211.810  1.00  0.00    -0.507 OA
ATOM     25  H   UNL     1     185.869 186.730 211.105  1.00  0.00     0.293 HD
ENDBRANCH   6  24
BRANCH   8  26
ATOM     26  O   UNL     1     183.816 190.585 213.429  1.00  0.00    -0.508 OA
ATOM     27  H   UNL     1     182.992 191.082 213.747  1.00  0.00     0.293 HD
ENDBRANCH   8  26
TORSDOF 6
ENDMDL
MODEL 6
REMARK VINA RESULT:     0.000      5.887      7.786
REMARK INTER + INTRA:          -0.333
REMARK INTER:                   0.000
REMARK INTRA:                  -0.333
REMARK UNBOUND:                -0.333
REMARK SMILES O=c1c(O)c(-c2ccc(O)c(O)c2)oc2cc(O)cc(O)c12
REMARK SMILES IDX 5 1 3 2 2 3 1 4 22 5 20 6 19 7 17 8 16 9 15 10 14 11 6 12
REMARK SMILES IDX 7 13 8 14 9 15 13 16 11 17 10 18 12 20 4 22 21 24 18 26
REMARK H PARENT 10 19 12 21 4 23 21 25 18 27
REMARK Flexibility Score: inf
ROOT
ATOM      1  C   UNL     1     182.921 188.618 211.002  1.00  0.00     0.180 A 
ATOM      2  C   UNL     1     183.219 188.950 209.668  1.00  0.00     0.208 A 
ATOM      3  C   UNL     1     184.133 188.155 208.958  1.00  0.00     0.238 A 
ATOM      4  O   UNL     1     184.452 188.500 207.790  1.00  0.00    -0.285 OA
ATOM      5  C   UNL     1     184.696 187.008 209.569  1.00  0.00     0.111 A 
ATOM      6  C   UNL     1     185.600 186.107 208.928  1.00  0.00     0.134 A 
ATOM      7  C   UNL     1     186.174 185.065 209.667  1.00  0.00     0.093 A 
ATOM      8  C   UNL     1     185.832 184.853 211.002  1.00  0.00     0.123 A 
ATOM      9  C   UNL     1     184.908 185.695 211.622  1.00  0.00     0.094 A 
ATOM     10  C   UNL     1     184.347 186.766 210.923  1.00  0.00     0.146 A 
ATOM     11  O   UNL     1     183.489 187.556 211.559  1.00  0.00    -0.452 OA
ENDROOT
BRANCH   1  12
ATOM     12  C   UNL     1     181.979 189.415 211.819  1.00  0.00     0.025 A 
ATOM     13  C   UNL     1     180.635 189.018 211.907  1.00  0.00     0.016 A 
ATOM     14  C   UNL     1     179.732 189.743 212.690  1.00  0.00     0.051 A 
ATOM     15  C   UNL     1     180.163 190.865 213.410  1.00  0.00     0.157 A 
ATOM     16  C   UNL     1     182.412 190.530 212.560  1.00  0.00     0.062 A 
ATOM     17  C   UNL     1     181.510 191.256 213.347  1.00  0.00     0.158 A 
BRANCH  15  18
ATOM     18  O   UNL     1     179.260 191.587 214.188  1.00  0.00    -0.504 OA
ATOM     19  H   UNL     1     179.007 191.286 215.123  1.00  0.00     0.293 HD
ENDBRANCH  15  18
BRANCH  17  20
ATOM     20  O   UNL     1     181.974 192.360 214.063  1.00  0.00    -0.504 OA
ATOM     21  H   UNL     1     182.955 192.612 214.087  1.00  0.00     0.293 HD
ENDBRANCH  17  20
ENDBRANCH   1  12
BRANCH   2  22
ATOM     22  O   UNL     1     182.594 190.040 209.058  1.00  0.00    -0.502 OA
ATOM     23  H   UNL     1     182.638 190.977 209.442  1.00  0.00     0.293 HD
ENDBRANCH   2  22
BRANCH   6  24
ATOM     24  O   UNL     1     185.943 186.172 207.575  1.00  0.00    -0.507 OA
ATOM     25  H   UNL     1     185.771 186.962 206.973  1.00  0.00     0.293 HD
ENDBRANCH   6  24
BRANCH   8  26
ATOM     26  O   UNL     1     186.411 183.795 211.701  1.00  0.00    -0.508 OA
ATOM     27  H   UNL     1     186.167 183.600 212.664  1.00  0.00     0.293 HD
ENDBRANCH   8  26
TORSDOF 6
ENDMDL
MODEL 7
REMARK VINA RESULT:     0.000      4.545      7.000
REMARK INTER + INTRA:          -0.333
REMARK INTER:                   0.000
REMARK INTRA:                  -0.333
REMARK UNBOUND:                -0.333
REMARK SMILES O=c1c(O)c(-c2ccc(O)c(O)c2)oc2cc(O)cc(O)c12
REMARK SMILES IDX 5 1 3 2 2 3 1 4 22 5 20 6 19 7 17 8 16 9 15 10 14 11 6 12
REMARK SMILES IDX 7 13 8 14 9 15 13 16 11 17 10 18 12 20 4 22 21 24 18 26
REMARK H PARENT 10 19 12 21 4 23 21 25 18 27
REMARK Flexibility Score: inf
ROOT
ATOM      1  C   UNL     1     185.938 180.881 211.255  1.00  0.00     0.180 A 
ATOM      2  C   UNL     1     186.941 180.411 212.120  1.00  0.00     0.208 A 
ATOM      3  C   UNL     1     187.534 179.164 211.861  1.00  0.00     0.238 A 
ATOM      4  O   UNL     1     188.377 178.715 212.680  1.00  0.00    -0.285 OA
ATOM      5  C   UNL     1     187.156 178.429 210.711  1.00  0.00     0.111 A 
ATOM      6  C   UNL     1     187.723 177.175 210.327  1.00  0.00     0.134 A 
ATOM      7  C   UNL     1     187.195 176.489 209.225  1.00  0.00     0.093 A 
ATOM      8  C   UNL     1     186.168 177.036 208.458  1.00  0.00     0.123 A 
ATOM      9  C   UNL     1     185.645 178.286 208.792  1.00  0.00     0.094 A 
ATOM     10  C   UNL     1     186.124 178.978 209.907  1.00  0.00     0.146 A 
ATOM     11  O   UNL     1     185.582 180.154 210.203  1.00  0.00    -0.452 OA
ENDROOT
BRANCH   1  12
ATOM     12  C   UNL     1     185.257 182.177 211.469  1.00  0.00     0.025 A 
ATOM     13  C   UNL     1     185.723 183.320 210.801  1.00  0.00     0.016 A 
ATOM     14  C   UNL     1     185.082 184.551 210.972  1.00  0.00     0.051 A 
ATOM     15  C   UNL     1     183.958 184.654 211.801  1.00  0.00     0.157 A 
ATOM     16  C   UNL     1     184.114 182.280 212.284  1.00  0.00     0.062 A 
ATOM     17  C   UNL     1     183.469 183.511 212.455  1.00  0.00     0.158 A 
BRANCH  15  18
ATOM     18  O   UNL     1     183.322 185.882 211.971  1.00  0.00    -0.504 OA
ATOM     19  H   UNL     1     182.974 186.413 211.181  1.00  0.00     0.293 HD
ENDBRANCH  15  18
BRANCH  17  20
ATOM     20  O   UNL     1     182.343 183.576 213.276  1.00  0.00    -0.504 OA
ATOM     21  H   UNL     1     182.189 182.918 214.030  1.00  0.00     0.293 HD
ENDBRANCH  17  20
ENDBRANCH   1  12
BRANCH   2  22
ATOM     22  O   UNL     1     187.353 181.187 213.206  1.00  0.00    -0.502 OA
ATOM     23  H   UNL     1     186.805 181.271 214.054  1.00  0.00     0.293 HD
ENDBRANCH   2  22
BRANCH   6  24
ATOM     24  O   UNL     1     188.811 176.577 210.969  1.00  0.00    -0.507 OA
ATOM     25  H   UNL     1     189.275 175.738 210.659  1.00  0.00     0.293 HD
ENDBRANCH   6  24
BRANCH   8  26
ATOM     26  O   UNL     1     185.681 176.333 207.359  1.00  0.00    -0.508 OA
ATOM     27  H   UNL     1     184.846 176.629 206.868  1.00  0.00     0.293 HD
ENDBRANCH   8  26
TORSDOF 6
ENDMDL
MODEL 8
REMARK VINA RESULT:     0.000      9.116     10.923
REMARK INTER + INTRA:          -0.333
REMARK INTER:                   0.000
REMARK INTRA:                  -0.333
REMARK UNBOUND:                -0.333
REMARK SMILES O=c1c(O)c(-c2ccc(O)c(O)c2)oc2cc(O)cc(O)c12
REMARK SMILES IDX 5 1 3 2 2 3 1 4 22 5 20 6 19 7 17 8 16 9 15 10 14 11 6 12
REMARK SMILES IDX 7 13 8 14 9 15 13 16 11 17 10 18 12 20 4 22 21 24 18 26
REMARK H PARENT 10 19 12 21 4 23 21 25 18 27
REMARK Flexibility Score: inf
ROOT
ATOM      1  C   UNL     1     183.994 179.243 215.930  1.00  0.00     0.180 A 
ATOM      2  C   UNL     1     184.457 178.680 214.728  1.00  0.00     0.208 A 
ATOM      3  C   UNL     1     183.610 177.822 214.007  1.00  0.00     0.238 A 
ATOM      4  O   UNL     1     184.057 177.262 212.972  1.00  0.00    -0.285 OA
ATOM      5  C   UNL     1     182.292 177.583 214.467  1.00  0.00     0.111 A 
ATOM      6  C   UNL     1     181.333 176.766 213.793  1.00  0.00     0.134 A 
ATOM      7  C   UNL     1     180.094 176.517 214.397  1.00  0.00     0.093 A 
ATOM      8  C   UNL     1     179.755 177.102 215.616  1.00  0.00     0.123 A 
ATOM      9  C   UNL     1     180.664 177.945 216.257  1.00  0.00     0.094 A 
ATOM     10  C   UNL     1     181.922 178.183 215.698  1.00  0.00     0.146 A 
ATOM     11  O   UNL     1     182.765 178.974 216.352  1.00  0.00    -0.452 OA
ENDROOT
BRANCH   1  12
ATOM     12  C   UNL     1     184.833 180.144 216.752  1.00  0.00     0.025 A 
ATOM     13  C   UNL     1     184.712 181.534 216.593  1.00  0.00     0.016 A 
ATOM     14  C   UNL     1     185.479 182.404 217.374  1.00  0.00     0.051 A 
ATOM     15  C   UNL     1     186.364 181.899 218.334  1.00  0.00     0.157 A 
ATOM     16  C   UNL     1     185.707 179.641 217.732  1.00  0.00     0.062 A 
ATOM     17  C   UNL     1     186.475 180.511 218.517  1.00  0.00     0.158 A 
BRANCH  15  18
ATOM     18  O   UNL     1     187.128 182.769 219.110  1.00  0.00    -0.504 OA
ATOM     19  H   UNL     1     187.718 182.431 219.862  1.00  0.00     0.293 HD
ENDBRANCH  15  18
BRANCH  17  20
ATOM     20  O   UNL     1     187.336 179.976 219.475  1.00  0.00    -0.504 OA
ATOM     21  H   UNL     1     187.728 180.539 220.219  1.00  0.00     0.293 HD
ENDBRANCH  17  20
ENDBRANCH   1  12
BRANCH   2  22
ATOM     22  O   UNL     1     185.734 178.990 214.252  1.00  0.00    -0.502 OA
ATOM     23  H   UNL     1     185.987 179.921 213.941  1.00  0.00     0.293 HD
ENDBRANCH   2  22
BRANCH   6  24
ATOM     24  O   UNL     1     181.533 176.204 212.529  1.00  0.00    -0.507 OA
ATOM     25  H   UNL     1     181.147 176.562 211.670  1.00  0.00     0.293 HD
ENDBRANCH   6  24
BRANCH   8  26
ATOM     26  O   UNL     1     178.507 176.844 216.179  1.00  0.00    -0.508 OA
ATOM     27  H   UNL     1     178.197 175.899 216.371  1.00  0.00     0.293 HD
ENDBRANCH   8  26
TORSDOF 6
ENDMDL
MODEL 9
REMARK VINA RESULT:     0.000      3.740      4.140
REMARK INTER + INTRA:          -0.333
REMARK INTER:                   0.000
REMARK INTRA:                  -0.333
REMARK UNBOUND:                -0.333
REMARK SMILES O=c1c(O)c(-c2ccc(O)c(O)c2)oc2cc(O)cc(O)c12
REMARK SMILES IDX 5 1 3 2 2 3 1 4 22 5 20 6 19 7 17 8 16 9 15 10 14 11 6 12
REMARK SMILES IDX 7 13 8 14 9 15 13 16 11 17 10 18 12 20 4 22 21 24 18 26
REMARK H PARENT 10 19 12 21 4 23 21 25 18 27
REMARK Flexibility Score: inf
ROOT
ATOM      1  C   UNL     1     184.246 182.857 208.530  1.00  0.00     0.180 A 
ATOM      2  C   UNL     1     183.030 183.468 208.882  1.00  0.00     0.208 A 
ATOM      3  C   UNL     1     182.113 183.793 207.869  1.00  0.00     0.238 A 
ATOM      4  O   UNL     1     181.060 184.408 208.183  1.00  0.00    -0.285 OA
ATOM      5  C   UNL     1     182.398 183.455 206.524  1.00  0.00     0.111 A 
ATOM      6  C   UNL     1     181.522 183.698 205.422  1.00  0.00     0.134 A 
ATOM      7  C   UNL     1     181.957 183.416 204.121  1.00  0.00     0.093 A 
ATOM      8  C   UNL     1     183.205 182.842 203.885  1.00  0.00     0.123 A 
ATOM      9  C   UNL     1     184.047 182.550 204.959  1.00  0.00     0.094 A 
ATOM     10  C   UNL     1     183.658 182.855 206.266  1.00  0.00     0.146 A 
ATOM     11  O   UNL     1     184.499 182.581 207.256  1.00  0.00    -0.452 OA
ENDROOT
BRANCH   1  12
ATOM     12  C   UNL     1     185.267 182.496 209.538  1.00  0.00     0.025 A 
ATOM     13  C   UNL     1     185.295 181.192 210.056  1.00  0.00     0.016 A 
ATOM     14  C   UNL     1     186.264 180.823 210.994  1.00  0.00     0.051 A 
ATOM     15  C   UNL     1     187.229 181.748 211.415  1.00  0.00     0.157 A 
ATOM     16  C   UNL     1     186.250 183.416 209.947  1.00  0.00     0.062 A 
ATOM     17  C   UNL     1     187.223 183.049 210.885  1.00  0.00     0.158 A 
BRANCH  15  18
ATOM     18  O   UNL     1     188.192 181.378 212.351  1.00  0.00    -0.504 OA
ATOM     19  H   UNL     1     188.274 180.422 212.679  1.00  0.00     0.293 HD
ENDBRANCH  15  18
BRANCH  17  20
ATOM     20  O   UNL     1     188.179 183.989 211.272  1.00  0.00    -0.504 OA
ATOM     21  H   UNL     1     189.168 183.850 211.105  1.00  0.00     0.293 HD
ENDBRANCH  17  20
ENDBRANCH   1  12
BRANCH   2  22
ATOM     22  O   UNL     1     182.734 183.723 210.223  1.00  0.00    -0.502 OA
ATOM     23  H   UNL     1     183.182 184.466 210.747  1.00  0.00     0.293 HD
ENDBRANCH   2  22
BRANCH   6  24
ATOM     24  O   UNL     1     180.219 184.185 205.550  1.00  0.00    -0.507 OA
ATOM     25  H   UNL     1     179.939 184.930 206.169  1.00  0.00     0.293 HD
ENDBRANCH   6  24
BRANCH   8  26
ATOM     26  O   UNL     1     183.597 182.559 202.578  1.00  0.00    -0.508 OA
ATOM     27  H   UNL     1     182.986 182.740 201.791  1.00  0.00     0.293 HD
ENDBRANCH   8  26
TORSDOF 6
ENDMDL
