MODEL 1
REMARK VINA RESULT:     0.727      0.000      0.000
REMARK INTER + INTRA:           0.832
REMARK INTER:                   0.897
REMARK INTRA:                  -0.065
REMARK UNBOUND:                -0.065
REMARK SMILES Oc1cc(O)c2cc(O)c(-c3cc(O)c(O)c(O)c3)[o+]c2c1
REMARK SMILES IDX 10 1 20 2 21 3 22 4 2 5 3 6 4 7 6 8 7 9 8 10 11 11 12 12
REMARK SMILES IDX 13 13 19 14 15 15 17 16 14 17 16 19 18 21 9 23 1 25 5 27
REMARK H PARENT 14 18 16 20 18 22 9 24 1 26 5 28
REMARK Flexibility Score: inf
ROOT
ATOM      1  C   UNL     1      13.579  39.011 -11.228  1.00  0.00     0.402 A 
ATOM      2  O   UNL     1      14.357  40.041 -11.558  1.00  0.00    -0.202 OA
ATOM      3  C   UNL     1      15.441  39.920 -12.318  1.00  0.00     0.368 A 
ATOM      4  C   UNL     1      16.202  41.053 -12.623  1.00  0.00     0.162 A 
ATOM      5  C   UNL     1      17.345  40.939 -13.426  1.00  0.00     0.128 A 
ATOM      6  C   UNL     1      17.726  39.688 -13.924  1.00  0.00     0.093 A 
ATOM      7  C   UNL     1      16.974  38.543 -13.624  1.00  0.00     0.136 A 
ATOM      8  C   UNL     1      15.825  38.657 -12.818  1.00  0.00     0.125 A 
ATOM      9  C   UNL     1      15.041  37.548 -12.481  1.00  0.00     0.078 A 
ATOM     10  C   UNL     1      13.913  37.715 -11.671  1.00  0.00     0.223 A 
ENDROOT
BRANCH   1  11
ATOM     11  C   UNL     1      12.392  39.272 -10.382  1.00  0.00     0.091 A 
ATOM     12  C   UNL     1      12.513  40.105  -9.261  1.00  0.00     0.068 A 
ATOM     13  C   UNL     1      11.408  40.391  -8.451  1.00  0.00     0.162 A 
ATOM     14  C   UNL     1      11.132  38.748 -10.711  1.00  0.00     0.068 A 
ATOM     15  C   UNL     1      10.146  39.840  -8.775  1.00  0.00     0.200 A 
ATOM     16  C   UNL     1      10.017  39.026  -9.909  1.00  0.00     0.162 A 
BRANCH  13  17
ATOM     17  O   UNL     1      11.610  41.219  -7.346  1.00  0.00    -0.504 OA
ATOM     18  H   UNL     1      11.615  42.228  -7.387  1.00  0.00     0.293 HD
ENDBRANCH  13  17
BRANCH  15  19
ATOM     19  O   UNL     1       9.003  40.079  -8.007  1.00  0.00    -0.502 OA
ATOM     20  H   UNL     1       9.022  40.388  -7.046  1.00  0.00     0.293 HD
ENDBRANCH  15  19
BRANCH  16  21
ATOM     21  O   UNL     1       8.770  38.496 -10.237  1.00  0.00    -0.504 OA
ATOM     22  H   UNL     1       8.663  37.804 -10.970  1.00  0.00     0.293 HD
ENDBRANCH  16  21
ENDBRANCH   1  11
BRANCH  10  23
ATOM     23  O   UNL     1      13.156  36.607 -11.290  1.00  0.00    -0.500 OA
ATOM     24  H   UNL     1      13.555  35.676 -11.259  1.00  0.00     0.294 HD
ENDBRANCH  10  23
BRANCH   5  25
ATOM     25  O   UNL     1      18.108  42.062 -13.737  1.00  0.00    -0.507 OA
ATOM     26  H   UNL     1      18.931  42.309 -13.198  1.00  0.00     0.293 HD
ENDBRANCH   5  25
BRANCH   7  27
ATOM     27  O   UNL     1      17.366  37.301 -14.125  1.00  0.00    -0.507 OA
ATOM     28  H   UNL     1      17.536  36.512 -13.514  1.00  0.00     0.293 HD
ENDBRANCH   7  27
TORSDOF 7
ENDMDL
MODEL 2
REMARK VINA RESULT:     1.014      0.276      1.818
REMARK INTER + INTRA:           1.186
REMARK INTER:                   1.213
REMARK INTRA:                  -0.026
REMARK UNBOUND:                -0.065
REMARK SMILES Oc1cc(O)c2cc(O)c(-c3cc(O)c(O)c(O)c3)[o+]c2c1
REMARK SMILES IDX 10 1 20 2 21 3 22 4 2 5 3 6 4 7 6 8 7 9 8 10 11 11 12 12
REMARK SMILES IDX 13 13 19 14 15 15 17 16 14 17 16 19 18 21 9 23 1 25 5 27
REMARK H PARENT 14 18 16 20 18 22 9 24 1 26 5 28
REMARK Flexibility Score: inf
ROOT
ATOM      1  C   UNL     1      13.800  39.169 -11.281  1.00  0.00     0.402 A 
ATOM      2  O   UNL     1      14.529  40.210 -11.681  1.00  0.00    -0.202 OA
ATOM      3  C   UNL     1      15.610  40.090 -12.446  1.00  0.00     0.368 A 
ATOM      4  C   UNL     1      16.318  41.234 -12.826  1.00  0.00     0.162 A 
ATOM      5  C   UNL     1      17.457  41.122 -13.635  1.00  0.00     0.128 A 
ATOM      6  C   UNL     1      17.886  39.861 -14.064  1.00  0.00     0.093 A 
ATOM      7  C   UNL     1      17.187  38.705 -13.689  1.00  0.00     0.136 A 
ATOM      8  C   UNL     1      16.043  38.817 -12.877  1.00  0.00     0.125 A 
ATOM      9  C   UNL     1      15.310  37.698 -12.467  1.00  0.00     0.078 A 
ATOM     10  C   UNL     1      14.185  37.864 -11.653  1.00  0.00     0.223 A 
ENDROOT
BRANCH   1  11
ATOM     11  C   UNL     1      12.611  39.429 -10.438  1.00  0.00     0.091 A 
ATOM     12  C   UNL     1      11.394  38.809 -10.753  1.00  0.00     0.068 A 
ATOM     13  C   UNL     1      10.254  39.016  -9.966  1.00  0.00     0.162 A 
ATOM     14  C   UNL     1      12.690  40.239  -9.295  1.00  0.00     0.068 A 
ATOM     15  C   UNL     1      10.335  39.853  -8.828  1.00  0.00     0.200 A 
ATOM     16  C   UNL     1      11.557  40.455  -8.499  1.00  0.00     0.162 A 
BRANCH  13  17
ATOM     17  O   UNL     1       9.075  38.375 -10.350  1.00  0.00    -0.504 OA
ATOM     18  H   UNL     1       8.671  37.591  -9.857  1.00  0.00     0.293 HD
ENDBRANCH  13  17
BRANCH  15  19
ATOM     19  O   UNL     1       9.235  40.107  -8.004  1.00  0.00    -0.502 OA
ATOM     20  H   UNL     1       9.288  40.605  -7.127  1.00  0.00     0.293 HD
ENDBRANCH  15  19
BRANCH  16  21
ATOM     21  O   UNL     1      11.641  41.267  -7.369  1.00  0.00    -0.504 OA
ATOM     22  H   UNL     1      12.498  41.347  -6.834  1.00  0.00     0.293 HD
ENDBRANCH  16  21
ENDBRANCH   1  11
BRANCH  10  23
ATOM     23  O   UNL     1      13.480  36.750 -11.199  1.00  0.00    -0.500 OA
ATOM     24  H   UNL     1      13.890  35.823 -11.204  1.00  0.00     0.294 HD
ENDBRANCH  10  23
BRANCH   5  25
ATOM     25  O   UNL     1      18.168  42.256 -14.020  1.00  0.00    -0.507 OA
ATOM     26  H   UNL     1      19.182  42.266 -14.037  1.00  0.00     0.293 HD
ENDBRANCH   5  25
BRANCH   7  27
ATOM     27  O   UNL     1      17.627  37.454 -14.122  1.00  0.00    -0.507 OA
ATOM     28  H   UNL     1      18.070  37.330 -15.024  1.00  0.00     0.293 HD
ENDBRANCH   7  27
TORSDOF 7
ENDMDL
MODEL 3
REMARK VINA RESULT:     1.247      1.097      6.936
REMARK INTER + INTRA:           1.474
REMARK INTER:                   1.497
REMARK INTRA:                  -0.022
REMARK UNBOUND:                -0.065
REMARK SMILES Oc1cc(O)c2cc(O)c(-c3cc(O)c(O)c(O)c3)[o+]c2c1
REMARK SMILES IDX 10 1 20 2 21 3 22 4 2 5 3 6 4 7 6 8 7 9 8 10 11 11 12 12
REMARK SMILES IDX 13 13 19 14 15 15 17 16 14 17 16 19 18 21 9 23 1 25 5 27
REMARK H PARENT 14 18 16 20 18 22 9 24 1 26 5 28
REMARK Flexibility Score: inf
ROOT
ATOM      1  C   UNL     1      14.049  39.341 -11.673  1.00  0.00     0.402 A 
ATOM      2  O   UNL     1      13.849  39.935 -10.497  1.00  0.00    -0.202 OA
ATOM      3  C   UNL     1      12.707  39.843  -9.821  1.00  0.00     0.368 A 
ATOM      4  C   UNL     1      12.579  40.493  -8.590  1.00  0.00     0.162 A 
ATOM      5  C   UNL     1      11.382  40.401  -7.865  1.00  0.00     0.128 A 
ATOM      6  C   UNL     1      10.314  39.657  -8.376  1.00  0.00     0.093 A 
ATOM      7  C   UNL     1      10.427  39.002  -9.611  1.00  0.00     0.136 A 
ATOM      8  C   UNL     1      11.629  39.093 -10.339  1.00  0.00     0.125 A 
ATOM      9  C   UNL     1      11.796  38.466 -11.578  1.00  0.00     0.078 A 
ATOM     10  C   UNL     1      13.008  38.595 -12.264  1.00  0.00     0.223 A 
ENDROOT
BRANCH   1  11
ATOM     11  C   UNL     1      15.367  39.509 -12.327  1.00  0.00     0.091 A 
ATOM     12  C   UNL     1      15.989  40.765 -12.311  1.00  0.00     0.068 A 
ATOM     13  C   UNL     1      17.244  40.956 -12.901  1.00  0.00     0.162 A 
ATOM     14  C   UNL     1      16.034  38.423 -12.915  1.00  0.00     0.068 A 
ATOM     15  C   UNL     1      17.901  39.861 -13.512  1.00  0.00     0.200 A 
ATOM     16  C   UNL     1      17.290  38.600 -13.509  1.00  0.00     0.162 A 
BRANCH  13  17
ATOM     17  O   UNL     1      17.796  42.237 -12.856  1.00  0.00    -0.504 OA
ATOM     18  H   UNL     1      17.252  43.085 -12.778  1.00  0.00     0.293 HD
ENDBRANCH  13  17
BRANCH  15  19
ATOM     19  O   UNL     1      19.151  39.983 -14.125  1.00  0.00    -0.502 OA
ATOM     20  H   UNL     1      20.003  40.208 -13.632  1.00  0.00     0.293 HD
ENDBRANCH  15  19
BRANCH  16  21
ATOM     21  O   UNL     1      17.944  37.518 -14.097  1.00  0.00    -0.504 OA
ATOM     22  H   UNL     1      17.439  36.814 -14.624  1.00  0.00     0.293 HD
ENDBRANCH  16  21
ENDBRANCH   1  11
BRANCH  10  23
ATOM     23  O   UNL     1      13.165  38.015 -13.522  1.00  0.00    -0.500 OA
ATOM     24  H   UNL     1      12.436  37.449 -13.941  1.00  0.00     0.294 HD
ENDBRANCH  10  23
BRANCH   5  25
ATOM     25  O   UNL     1      11.246  41.044  -6.637  1.00  0.00    -0.507 OA
ATOM     26  H   UNL     1      10.524  41.738  -6.479  1.00  0.00     0.293 HD
ENDBRANCH   5  25
BRANCH   7  27
ATOM     27  O   UNL     1       9.353  38.265 -10.110  1.00  0.00    -0.507 OA
ATOM     28  H   UNL     1       8.695  38.665 -10.769  1.00  0.00     0.293 HD
ENDBRANCH   7  27
TORSDOF 7
ENDMDL
MODEL 4
REMARK VINA RESULT:     3.492      1.063      2.607
REMARK INTER + INTRA:           4.244
REMARK INTER:                   4.188
REMARK INTRA:                   0.056
REMARK UNBOUND:                -0.065
REMARK SMILES Oc1cc(O)c2cc(O)c(-c3cc(O)c(O)c(O)c3)[o+]c2c1
REMARK SMILES IDX 10 1 20 2 21 3 22 4 2 5 3 6 4 7 6 8 7 9 8 10 11 11 12 12
REMARK SMILES IDX 13 13 19 14 15 15 17 16 14 17 16 19 18 21 9 23 1 25 5 27
REMARK H PARENT 14 18 16 20 18 22 9 24 1 26 5 28
REMARK Flexibility Score: inf
ROOT
ATOM      1  C   UNL     1      13.843  39.641 -11.006  1.00  0.00     0.402 A 
ATOM      2  O   UNL     1      14.198  38.465 -11.523  1.00  0.00    -0.202 OA
ATOM      3  C   UNL     1      15.262  38.305 -12.304  1.00  0.00     0.368 A 
ATOM      4  C   UNL     1      15.569  37.035 -12.802  1.00  0.00     0.162 A 
ATOM      5  C   UNL     1      16.690  36.852 -13.624  1.00  0.00     0.128 A 
ATOM      6  C   UNL     1      17.504  37.943 -13.945  1.00  0.00     0.093 A 
ATOM      7  C   UNL     1      17.208  39.223 -13.453  1.00  0.00     0.136 A 
ATOM      8  C   UNL     1      16.082  39.407 -12.628  1.00  0.00     0.125 A 
ATOM      9  C   UNL     1      15.734  40.662 -12.115  1.00  0.00     0.078 A 
ATOM     10  C   UNL     1      14.601  40.792 -11.306  1.00  0.00     0.223 A 
ENDROOT
BRANCH   1  11
ATOM     11  C   UNL     1      12.642  39.693 -10.142  1.00  0.00     0.091 A 
ATOM     12  C   UNL     1      12.665  40.469  -8.975  1.00  0.00     0.068 A 
ATOM     13  C   UNL     1      11.541  40.557  -8.145  1.00  0.00     0.162 A 
ATOM     14  C   UNL     1      11.459  39.026 -10.496  1.00  0.00     0.068 A 
ATOM     15  C   UNL     1      10.359  39.863  -8.496  1.00  0.00     0.200 A 
ATOM     16  C   UNL     1      10.327  39.106  -9.675  1.00  0.00     0.162 A 
BRANCH  13  17
ATOM     17  O   UNL     1      11.644  41.340  -6.993  1.00  0.00    -0.504 OA
ATOM     18  H   UNL     1      12.301  42.098  -6.881  1.00  0.00     0.293 HD
ENDBRANCH  13  17
BRANCH  15  19
ATOM     19  O   UNL     1       9.204  39.903  -7.710  1.00  0.00    -0.502 OA
ATOM     20  H   UNL     1       8.915  39.159  -7.091  1.00  0.00     0.293 HD
ENDBRANCH  15  19
BRANCH  16  21
ATOM     21  O   UNL     1       9.157  38.435 -10.028  1.00  0.00    -0.504 OA
ATOM     22  H   UNL     1       8.909  38.273 -10.998  1.00  0.00     0.293 HD
ENDBRANCH  16  21
ENDBRANCH   1  11
BRANCH  10  23
ATOM     23  O   UNL     1      14.220  42.047 -10.833  1.00  0.00    -0.500 OA
ATOM     24  H   UNL     1      14.704  42.495 -10.064  1.00  0.00     0.294 HD
ENDBRANCH  10  23
BRANCH   5  25
ATOM     25  O   UNL     1      17.004  35.590 -14.124  1.00  0.00    -0.507 OA
ATOM     26  H   UNL     1      17.339  35.465 -15.072  1.00  0.00     0.293 HD
ENDBRANCH   5  25
BRANCH   7  27
ATOM     27  O   UNL     1      18.027  40.303 -13.784  1.00  0.00    -0.507 OA
ATOM     28  H   UNL     1      18.087  41.124 -13.193  1.00  0.00     0.293 HD
ENDBRANCH   7  27
TORSDOF 7
ENDMDL
