MODEL 1
REMARK VINA RESULT:    39.899      0.000      0.000
REMARK INTER + INTRA:          46.615
REMARK INTER:                  46.897
REMARK INTRA:                  -0.282
REMARK UNBOUND:                -0.282
REMARK SMILES O=c1cc(-c2ccc(O)c(O)c2)oc2cc(O)cc(O)c12
REMARK SMILES IDX 4 1 3 2 2 3 1 4 21 5 19 6 18 7 16 8 15 9 14 10 13 11 5 12
REMARK SMILES IDX 6 13 7 14 8 15 12 16 10 17 9 18 11 20 20 22 17 24
REMARK H PARENT 9 19 11 21 20 23 17 25
REMARK Flexibility Score: inf
ROOT
ATOM      1  C   UNL     1      11.926  13.025   4.629  1.00  0.00     0.138 A 
ATOM      2  C   UNL     1      11.715  11.746   4.096  1.00  0.00     0.100 A 
ATOM      3  C   UNL     1      11.225  11.612   2.796  1.00  0.00     0.197 A 
ATOM      4  O   UNL     1      11.100  10.452   2.326  1.00  0.00    -0.289 OA
ATOM      5  C   UNL     1      10.911  12.766   2.040  1.00  0.00     0.107 A 
ATOM      6  C   UNL     1      10.372  12.752   0.716  1.00  0.00     0.134 A 
ATOM      7  C   UNL     1      10.194  13.960   0.031  1.00  0.00     0.093 A 
ATOM      8  C   UNL     1      10.480  15.184   0.641  1.00  0.00     0.123 A 
ATOM      9  C   UNL     1      10.957  15.211   1.949  1.00  0.00     0.094 A 
ATOM     10  C   UNL     1      11.179  14.022   2.648  1.00  0.00     0.146 A 
ATOM     11  O   UNL     1      11.652  14.093   3.887  1.00  0.00    -0.456 OA
ENDROOT
BRANCH   1  12
ATOM     12  C   UNL     1      12.442  13.225   6.007  1.00  0.00     0.021 A 
ATOM     13  C   UNL     1      11.993  14.281   6.818  1.00  0.00     0.016 A 
ATOM     14  C   UNL     1      12.489  14.438   8.114  1.00  0.00     0.051 A 
ATOM     15  C   UNL     1      13.434  13.546   8.631  1.00  0.00     0.157 A 
ATOM     16  C   UNL     1      13.381  12.321   6.531  1.00  0.00     0.062 A 
ATOM     17  C   UNL     1      13.885  12.472   7.829  1.00  0.00     0.158 A 
BRANCH  15  18
ATOM     18  O   UNL     1      13.892  13.761   9.933  1.00  0.00    -0.504 OA
ATOM     19  H   UNL     1      13.460  14.401  10.584  1.00  0.00     0.293 HD
ENDBRANCH  15  18
BRANCH  17  20
ATOM     20  O   UNL     1      14.822  11.539   8.277  1.00  0.00    -0.504 OA
ATOM     21  H   UNL     1      15.578  11.181   7.711  1.00  0.00     0.293 HD
ENDBRANCH  17  20
ENDBRANCH   1  12
BRANCH   6  22
ATOM     22  O   UNL     1       9.979  11.592   0.043  1.00  0.00    -0.507 OA
ATOM     23  H   UNL     1      10.606  10.886  -0.311  1.00  0.00     0.293 HD
ENDBRANCH   6  22
BRANCH   8  24
ATOM     24  O   UNL     1      10.283  16.382  -0.044  1.00  0.00    -0.508 OA
ATOM     25  H   UNL     1      10.937  16.703  -0.748  1.00  0.00     0.293 HD
ENDBRANCH   8  24
TORSDOF 5
ENDMDL
MODEL 2
REMARK VINA RESULT:    40.263      1.231      2.605
REMARK INTER + INTRA:          47.042
REMARK INTER:                  47.359
REMARK INTRA:                  -0.317
REMARK UNBOUND:                -0.282
REMARK SMILES O=c1cc(-c2ccc(O)c(O)c2)oc2cc(O)cc(O)c12
REMARK SMILES IDX 4 1 3 2 2 3 1 4 21 5 19 6 18 7 16 8 15 9 14 10 13 11 5 12
REMARK SMILES IDX 6 13 7 14 8 15 12 16 10 17 9 18 11 20 20 22 17 24
REMARK H PARENT 9 19 11 21 20 23 17 25
REMARK Flexibility Score: inf
ROOT
ATOM      1  C   UNL     1      11.796  13.565   4.869  1.00  0.00     0.138 A 
ATOM      2  C   UNL     1      11.047  14.645   4.383  1.00  0.00     0.100 A 
ATOM      3  C   UNL     1      10.517  14.593   3.092  1.00  0.00     0.197 A 
ATOM      4  O   UNL     1       9.803  15.554   2.705  1.00  0.00    -0.289 OA
ATOM      5  C   UNL     1      10.771  13.468   2.272  1.00  0.00     0.107 A 
ATOM      6  C   UNL     1      10.312  13.320   0.928  1.00  0.00     0.134 A 
ATOM      7  C   UNL     1      10.542  12.116   0.249  1.00  0.00     0.093 A 
ATOM      8  C   UNL     1      11.265  11.080   0.844  1.00  0.00     0.123 A 
ATOM      9  C   UNL     1      11.760  11.234   2.136  1.00  0.00     0.094 A 
ATOM     10  C   UNL     1      11.517  12.408   2.854  1.00  0.00     0.146 A 
ATOM     11  O   UNL     1      11.993  12.506   4.090  1.00  0.00    -0.456 OA
ENDROOT
BRANCH   1  12
ATOM     12  C   UNL     1      12.385  13.569   6.232  1.00  0.00     0.021 A 
ATOM     13  C   UNL     1      12.016  14.524   7.195  1.00  0.00     0.016 A 
ATOM     14  C   UNL     1      12.579  14.495   8.472  1.00  0.00     0.051 A 
ATOM     15  C   UNL     1      13.514  13.515   8.820  1.00  0.00     0.157 A 
ATOM     16  C   UNL     1      13.313  12.574   6.586  1.00  0.00     0.062 A 
ATOM     17  C   UNL     1      13.884  12.540   7.864  1.00  0.00     0.158 A 
BRANCH  15  18
ATOM     18  O   UNL     1      14.040  13.545  10.113  1.00  0.00    -0.504 OA
ATOM     19  H   UNL     1      13.496  13.382  10.948  1.00  0.00     0.293 HD
ENDBRANCH  15  18
BRANCH  17  20
ATOM     20  O   UNL     1      14.805  11.527   8.140  1.00  0.00    -0.504 OA
ATOM     21  H   UNL     1      15.781  11.690   8.338  1.00  0.00     0.293 HD
ENDBRANCH  17  20
ENDBRANCH   1  12
BRANCH   6  22
ATOM     22  O   UNL     1       9.650  14.320   0.211  1.00  0.00    -0.507 OA
ATOM     23  H   UNL     1       9.474  14.302  -0.782  1.00  0.00     0.293 HD
ENDBRANCH   6  22
BRANCH   8  24
ATOM     24  O   UNL     1      11.503   9.892   0.154  1.00  0.00    -0.508 OA
ATOM     25  H   UNL     1      12.129   9.184   0.519  1.00  0.00     0.293 HD
ENDBRANCH   8  24
TORSDOF 5
ENDMDL
MODEL 3
REMARK VINA RESULT:    40.648      2.888      4.196
REMARK INTER + INTRA:          47.494
REMARK INTER:                  47.758
REMARK INTRA:                  -0.263
REMARK UNBOUND:                -0.282
REMARK SMILES O=c1cc(-c2ccc(O)c(O)c2)oc2cc(O)cc(O)c12
REMARK SMILES IDX 4 1 3 2 2 3 1 4 21 5 19 6 18 7 16 8 15 9 14 10 13 11 5 12
REMARK SMILES IDX 6 13 7 14 8 15 12 16 10 17 9 18 11 20 20 22 17 24
REMARK H PARENT 9 19 11 21 20 23 17 25
REMARK Flexibility Score: inf
ROOT
ATOM      1  C   UNL     1      10.180  13.443   4.677  1.00  0.00     0.138 A 
ATOM      2  C   UNL     1       9.965  14.479   3.757  1.00  0.00     0.100 A 
ATOM      3  C   UNL     1      10.414  14.339   2.443  1.00  0.00     0.197 A 
ATOM      4  O   UNL     1      10.157  15.262   1.627  1.00  0.00    -0.289 OA
ATOM      5  C   UNL     1      11.115  13.171   2.058  1.00  0.00     0.107 A 
ATOM      6  C   UNL     1      11.650  12.934   0.755  1.00  0.00     0.134 A 
ATOM      7  C   UNL     1      12.238  11.696   0.466  1.00  0.00     0.093 A 
ATOM      8  C   UNL     1      12.362  10.710   1.448  1.00  0.00     0.123 A 
ATOM      9  C   UNL     1      11.888  10.950   2.735  1.00  0.00     0.094 A 
ATOM     10  C   UNL     1      11.265  12.162   3.046  1.00  0.00     0.146 A 
ATOM     11  O   UNL     1      10.812  12.343   4.282  1.00  0.00    -0.456 OA
ENDROOT
BRANCH   1  12
ATOM     12  C   UNL     1       9.726  13.539   6.087  1.00  0.00     0.021 A 
ATOM     13  C   UNL     1      10.551  14.068   7.095  1.00  0.00     0.016 A 
ATOM     14  C   UNL     1      10.092  14.156   8.410  1.00  0.00     0.051 A 
ATOM     15  C   UNL     1       8.805  13.727   8.750  1.00  0.00     0.157 A 
ATOM     16  C   UNL     1       8.427  13.121   6.425  1.00  0.00     0.062 A 
ATOM     17  C   UNL     1       7.960  13.204   7.743  1.00  0.00     0.158 A 
BRANCH  15  18
ATOM     18  O   UNL     1       8.409  13.839  10.084  1.00  0.00    -0.504 OA
ATOM     19  H   UNL     1       7.448  13.922  10.383  1.00  0.00     0.293 HD
ENDBRANCH  15  18
BRANCH  17  20
ATOM     20  O   UNL     1       6.662  12.761   8.003  1.00  0.00    -0.504 OA
ATOM     21  H   UNL     1       6.112  13.059   8.795  1.00  0.00     0.293 HD
ENDBRANCH  17  20
ENDBRANCH   1  12
BRANCH   6  22
ATOM     22  O   UNL     1      11.650  13.878  -0.276  1.00  0.00    -0.507 OA
ATOM     23  H   UNL     1      12.443  14.098  -0.859  1.00  0.00     0.293 HD
ENDBRANCH   6  22
BRANCH   8  24
ATOM     24  O   UNL     1      12.963   9.487   1.154  1.00  0.00    -0.508 OA
ATOM     25  H   UNL     1      13.772   9.427   0.547  1.00  0.00     0.293 HD
ENDBRANCH   8  24
TORSDOF 5
ENDMDL
MODEL 4
REMARK VINA RESULT:    41.098      1.372      7.415
REMARK INTER + INTRA:          48.024
REMARK INTER:                  48.302
REMARK INTRA:                  -0.278
REMARK UNBOUND:                -0.282
REMARK SMILES O=c1cc(-c2ccc(O)c(O)c2)oc2cc(O)cc(O)c12
REMARK SMILES IDX 4 1 3 2 2 3 1 4 21 5 19 6 18 7 16 8 15 9 14 10 13 11 5 12
REMARK SMILES IDX 6 13 7 14 8 15 12 16 10 17 9 18 11 20 20 22 17 24
REMARK H PARENT 9 19 11 21 20 23 17 25
REMARK Flexibility Score: inf
ROOT
ATOM      1  C   UNL     1      11.826  13.333   4.898  1.00  0.00     0.138 A 
ATOM      2  C   UNL     1      11.213  14.218   5.796  1.00  0.00     0.100 A 
ATOM      3  C   UNL     1      11.711  14.339   7.094  1.00  0.00     0.197 A 
ATOM      4  O   UNL     1      11.174  15.183   7.859  1.00  0.00    -0.289 OA
ATOM      5  C   UNL     1      12.806  13.543   7.506  1.00  0.00     0.107 A 
ATOM      6  C   UNL     1      13.376  13.557   8.815  1.00  0.00     0.134 A 
ATOM      7  C   UNL     1      14.523  12.796   9.076  1.00  0.00     0.093 A 
ATOM      8  C   UNL     1      15.084  11.977   8.093  1.00  0.00     0.123 A 
ATOM      9  C   UNL     1      14.506  11.919   6.828  1.00  0.00     0.094 A 
ATOM     10  C   UNL     1      13.382  12.692   6.525  1.00  0.00     0.146 A 
ATOM     11  O   UNL     1      12.873  12.620   5.300  1.00  0.00    -0.456 OA
ENDROOT
BRANCH   1  12
ATOM     12  C   UNL     1      11.336  13.161   3.508  1.00  0.00     0.021 A 
ATOM     13  C   UNL     1      11.225  11.892   2.914  1.00  0.00     0.016 A 
ATOM     14  C   UNL     1      10.750  11.762   1.607  1.00  0.00     0.051 A 
ATOM     15  C   UNL     1      10.371  12.887   0.868  1.00  0.00     0.157 A 
ATOM     16  C   UNL     1      10.941  14.290   2.770  1.00  0.00     0.062 A 
ATOM     17  C   UNL     1      10.466  14.169   1.458  1.00  0.00     0.158 A 
BRANCH  15  18
ATOM     18  O   UNL     1       9.908  12.687  -0.434  1.00  0.00    -0.504 OA
ATOM     19  H   UNL     1      10.372  13.041  -1.259  1.00  0.00     0.293 HD
ENDBRANCH  15  18
BRANCH  17  20
ATOM     20  O   UNL     1      10.101  15.337   0.786  1.00  0.00    -0.504 OA
ATOM     21  H   UNL     1      10.414  15.574  -0.144  1.00  0.00     0.293 HD
ENDBRANCH  17  20
ENDBRANCH   1  12
BRANCH   6  22
ATOM     22  O   UNL     1      12.850  14.276   9.892  1.00  0.00    -0.507 OA
ATOM     23  H   UNL     1      12.216  13.905  10.583  1.00  0.00     0.293 HD
ENDBRANCH   6  22
BRANCH   8  24
ATOM     24  O   UNL     1      16.216  11.211   8.367  1.00  0.00    -0.508 OA
ATOM     25  H   UNL     1      16.148  10.223   8.579  1.00  0.00     0.293 HD
ENDBRANCH   8  24
TORSDOF 5
ENDMDL
MODEL 5
REMARK VINA RESULT:    42.194      2.768      3.249
REMARK INTER + INTRA:          49.312
REMARK INTER:                  49.575
REMARK INTRA:                  -0.263
REMARK UNBOUND:                -0.282
REMARK SMILES O=c1cc(-c2ccc(O)c(O)c2)oc2cc(O)cc(O)c12
REMARK SMILES IDX 4 1 3 2 2 3 1 4 21 5 19 6 18 7 16 8 15 9 14 10 13 11 5 12
REMARK SMILES IDX 6 13 7 14 8 15 12 16 10 17 9 18 11 20 20 22 17 24
REMARK H PARENT 9 19 11 21 20 23 17 25
REMARK Flexibility Score: inf
ROOT
ATOM      1  C   UNL     1      10.080  13.073   4.918  1.00  0.00     0.138 A 
ATOM      2  C   UNL     1      10.630  11.856   4.492  1.00  0.00     0.100 A 
ATOM      3  C   UNL     1      11.048  11.713   3.168  1.00  0.00     0.197 A 
ATOM      4  O   UNL     1      11.589  10.629   2.831  1.00  0.00    -0.289 OA
ATOM      5  C   UNL     1      10.879  12.783   2.257  1.00  0.00     0.107 A 
ATOM      6  C   UNL     1      11.235  12.739   0.875  1.00  0.00     0.134 A 
ATOM      7  C   UNL     1      11.112  13.896   0.094  1.00  0.00     0.093 A 
ATOM      8  C   UNL     1      10.591  15.076   0.631  1.00  0.00     0.123 A 
ATOM      9  C   UNL     1      10.194  15.114   1.964  1.00  0.00     0.094 A 
ATOM     10  C   UNL     1      10.336  13.988   2.779  1.00  0.00     0.146 A 
ATOM     11  O   UNL     1       9.961  14.072   4.051  1.00  0.00    -0.456 OA
ENDROOT
BRANCH   1  12
ATOM     12  C   UNL     1       9.616  13.279   6.314  1.00  0.00     0.021 A 
ATOM     13  C   UNL     1      10.466  13.796   7.306  1.00  0.00     0.016 A 
ATOM     14  C   UNL     1       9.999  13.989   8.608  1.00  0.00     0.051 A 
ATOM     15  C   UNL     1       8.678  13.679   8.947  1.00  0.00     0.157 A 
ATOM     16  C   UNL     1       8.285  12.981   6.651  1.00  0.00     0.062 A 
ATOM     17  C   UNL     1       7.809  13.169   7.954  1.00  0.00     0.158 A 
BRANCH  15  18
ATOM     18  O   UNL     1       8.275  13.892  10.267  1.00  0.00    -0.504 OA
ATOM     19  H   UNL     1       8.738  13.491  11.070  1.00  0.00     0.293 HD
ENDBRANCH  15  18
BRANCH  17  20
ATOM     20  O   UNL     1       6.476  12.842   8.215  1.00  0.00    -0.504 OA
ATOM     21  H   UNL     1       6.128  11.896   8.271  1.00  0.00     0.293 HD
ENDBRANCH  17  20
ENDBRANCH   1  12
BRANCH   6  22
ATOM     22  O   UNL     1      11.691  11.593   0.218  1.00  0.00    -0.507 OA
ATOM     23  H   UNL     1      12.461  11.018   0.523  1.00  0.00     0.293 HD
ENDBRANCH   6  22
BRANCH   8  24
ATOM     24  O   UNL     1      10.457  16.217  -0.159  1.00  0.00    -0.508 OA
ATOM     25  H   UNL     1      10.096  17.084   0.221  1.00  0.00     0.293 HD
ENDBRANCH   8  24
TORSDOF 5
ENDMDL
