MODEL 1
REMARK VINA RESULT:    -3.235      0.000      0.000
REMARK INTER + INTRA:         -10.849
REMARK INTER:                  -7.017
REMARK INTRA:                  -3.832
REMARK UNBOUND:                -3.832
REMARK SMILES CCCCCCCCCCCCCCCCCCCCCC(=O)[O-]
REMARK SMILES IDX 12 1 11 2 10 3 9 4 8 5 7 6 6 7 5 8 4 9 3 10 2 11 1 12 13 13
REMARK SMILES IDX 14 14 15 15 16 16 17 17 18 18 19 19 20 20 21 21 22 22 23 23
REMARK SMILES IDX 24 24
REMARK H PARENT
REMARK Flexibility Score: inf
ROOT
ATOM      1  C   UNL     1      26.469  44.566   6.735  1.00  0.00     0.000 C 
ENDROOT
BRANCH   1   2
ATOM      2  C   UNL     1      27.654  43.942   5.986  1.00  0.00     0.000 C 
BRANCH   2   3
ATOM      3  C   UNL     1      27.205  43.335   4.651  1.00  0.00     0.000 C 
BRANCH   3   4
ATOM      4  C   UNL     1      27.712  41.895   4.502  1.00  0.00    -0.000 C 
BRANCH   4   5
ATOM      5  C   UNL     1      26.662  41.008   3.822  1.00  0.00    -0.000 C 
BRANCH   5   6
ATOM      6  C   UNL     1      25.504  41.813   3.203  1.00  0.00    -0.000 C 
BRANCH   6   7
ATOM      7  C   UNL     1      24.253  40.987   2.848  1.00  0.00    -0.000 C 
BRANCH   7   8
ATOM      8  C   UNL     1      24.418  39.490   3.149  1.00  0.00    -0.000 C 
BRANCH   8   9
ATOM      9  C   UNL     1      24.554  38.676   1.857  1.00  0.00    -0.000 C 
BRANCH   9  10
ATOM     10  C   UNL     1      24.165  39.522   0.635  1.00  0.00    -0.000 C 
BRANCH  10  11
ATOM     11  C   UNL     1      25.272  39.572  -0.430  1.00  0.00    -0.003 C 
ATOM     12  C   UNL     1      26.675  39.498   0.172  1.00  0.00     0.004 C 
ENDBRANCH  10  11
ENDBRANCH   9  10
ENDBRANCH   8   9
ENDBRANCH   7   8
ENDBRANCH   6   7
ENDBRANCH   5   6
ENDBRANCH   4   5
ENDBRANCH   3   4
ENDBRANCH   2   3
ENDBRANCH   1   2
BRANCH   1  13
ATOM     13  C   UNL     1      25.255  44.820   5.824  1.00  0.00     0.000 C 
BRANCH  13  14
ATOM     14  C   UNL     1      23.934  44.178   6.298  1.00  0.00     0.000 C 
BRANCH  14  15
ATOM     15  C   UNL     1      24.090  42.963   7.231  1.00  0.00     0.000 C 
BRANCH  15  16
ATOM     16  C   UNL     1      23.989  41.622   6.485  1.00  0.00     0.000 C 
BRANCH  16  17
ATOM     17  C   UNL     1      24.832  40.512   7.135  1.00  0.00     0.000 C 
BRANCH  17  18
ATOM     18  C   UNL     1      26.125  41.024   7.804  1.00  0.00     0.000 C 
BRANCH  18  19
ATOM     19  C   UNL     1      26.265  40.524   9.252  1.00  0.00     0.000 C 
BRANCH  19  20
ATOM     20  C   UNL     1      26.916  41.566  10.175  1.00  0.00     0.006 C 
BRANCH  20  21
ATOM     21  C   UNL     1      26.134  42.886  10.211  1.00  0.00     0.053 C 
BRANCH  21  22
ATOM     22  C   UNL     1      27.070  44.047  10.329  1.00  0.00     0.041 C 
ATOM     23  O   UNL     1      26.665  45.141  10.805  1.00  0.00    -0.550 OA
ATOM     24  O   UNL     1      28.377  43.937   9.871  1.00  0.00    -0.550 OA
ENDBRANCH  21  22
ENDBRANCH  20  21
ENDBRANCH  19  20
ENDBRANCH  18  19
ENDBRANCH  17  18
ENDBRANCH  16  17
ENDBRANCH  15  16
ENDBRANCH  14  15
ENDBRANCH  13  14
ENDBRANCH   1  13
TORSDOF 20
ENDMDL
MODEL 2
REMARK VINA RESULT:    -3.036     17.685     19.565
REMARK INTER + INTRA:         -10.417
REMARK INTER:                  -7.495
REMARK INTRA:                  -2.921
REMARK UNBOUND:                -3.832
REMARK SMILES CCCCCCCCCCCCCCCCCCCCCC(=O)[O-]
REMARK SMILES IDX 12 1 11 2 10 3 9 4 8 5 7 6 6 7 5 8 4 9 3 10 2 11 1 12 13 13
REMARK SMILES IDX 14 14 15 15 16 16 17 17 18 18 19 19 20 20 21 21 22 22 23 23
REMARK SMILES IDX 24 24
REMARK H PARENT
REMARK Flexibility Score: inf
ROOT
ATOM      1  C   UNL     1      43.686  31.996   2.378  1.00  0.00     0.000 C 
ENDROOT
BRANCH   1   2
ATOM      2  C   UNL     1      43.780  33.437   1.857  1.00  0.00     0.000 C 
BRANCH   2   3
ATOM      3  C   UNL     1      43.352  33.520   0.387  1.00  0.00     0.000 C 
BRANCH   3   4
ATOM      4  C   UNL     1      42.307  32.448   0.056  1.00  0.00    -0.000 C 
BRANCH   4   5
ATOM      5  C   UNL     1      41.948  32.470  -1.436  1.00  0.00    -0.000 C 
BRANCH   5   6
ATOM      6  C   UNL     1      40.805  33.448  -1.765  1.00  0.00    -0.000 C 
BRANCH   6   7
ATOM      7  C   UNL     1      39.739  33.599  -0.664  1.00  0.00    -0.000 C 
BRANCH   7   8
ATOM      8  C   UNL     1      39.725  35.000  -0.032  1.00  0.00    -0.000 C 
BRANCH   8   9
ATOM      9  C   UNL     1      39.891  34.922   1.491  1.00  0.00    -0.000 C 
BRANCH   9  10
ATOM     10  C   UNL     1      39.347  33.591   2.032  1.00  0.00    -0.000 C 
BRANCH  10  11
ATOM     11  C   UNL     1      40.130  33.084   3.254  1.00  0.00    -0.003 C 
ATOM     12  C   UNL     1      40.906  34.195   3.962  1.00  0.00     0.004 C 
ENDBRANCH  10  11
ENDBRANCH   9  10
ENDBRANCH   8   9
ENDBRANCH   7   8
ENDBRANCH   6   7
ENDBRANCH   5   6
ENDBRANCH   4   5
ENDBRANCH   3   4
ENDBRANCH   2   3
ENDBRANCH   1   2
BRANCH   1  13
ATOM     13  C   UNL     1      44.095  31.867   3.856  1.00  0.00     0.000 C 
BRANCH  13  14
ATOM     14  C   UNL     1      43.411  30.719   4.627  1.00  0.00     0.000 C 
BRANCH  14  15
ATOM     15  C   UNL     1      42.065  30.246   4.048  1.00  0.00     0.000 C 
BRANCH  15  16
ATOM     16  C   UNL     1      41.430  29.110   4.865  1.00  0.00     0.000 C 
BRANCH  16  17
ATOM     17  C   UNL     1      42.433  28.414   5.802  1.00  0.00     0.000 C 
BRANCH  17  18
ATOM     18  C   UNL     1      41.848  27.190   6.538  1.00  0.00     0.000 C 
BRANCH  18  19
ATOM     19  C   UNL     1      40.739  27.586   7.527  1.00  0.00     0.000 C 
BRANCH  19  20
ATOM     20  C   UNL     1      41.288  27.934   8.920  1.00  0.00     0.006 C 
BRANCH  20  21
ATOM     21  C   UNL     1      40.918  29.359   9.355  1.00  0.00     0.053 C 
BRANCH  21  22
ATOM     22  C   UNL     1      41.865  30.351   8.758  1.00  0.00     0.041 C 
ATOM     23  O   UNL     1      43.058  30.408   9.161  1.00  0.00    -0.550 OA
ATOM     24  O   UNL     1      41.421  31.244   7.792  1.00  0.00    -0.550 OA
ENDBRANCH  21  22
ENDBRANCH  20  21
ENDBRANCH  19  20
ENDBRANCH  18  19
ENDBRANCH  17  18
ENDBRANCH  16  17
ENDBRANCH  15  16
ENDBRANCH  14  15
ENDBRANCH  13  14
ENDBRANCH   1  13
TORSDOF 20
ENDMDL
MODEL 3
REMARK VINA RESULT:    -3.033      1.258      1.839
REMARK INTER + INTRA:         -10.411
REMARK INTER:                  -7.379
REMARK INTRA:                  -3.032
REMARK UNBOUND:                -3.832
REMARK SMILES CCCCCCCCCCCCCCCCCCCCCC(=O)[O-]
REMARK SMILES IDX 12 1 11 2 10 3 9 4 8 5 7 6 6 7 5 8 4 9 3 10 2 11 1 12 13 13
REMARK SMILES IDX 14 14 15 15 16 16 17 17 18 18 19 19 20 20 21 21 22 22 23 23
REMARK SMILES IDX 24 24
REMARK H PARENT
REMARK Flexibility Score: inf
ROOT
ATOM      1  C   UNL     1      28.866  45.244   6.086  1.00  0.00     0.000 C 
ENDROOT
BRANCH   1   2
ATOM      2  C   UNL     1      28.885  43.715   5.949  1.00  0.00     0.000 C 
BRANCH   2   3
ATOM      3  C   UNL     1      29.045  43.295   4.483  1.00  0.00     0.000 C 
BRANCH   3   4
ATOM      4  C   UNL     1      27.717  42.790   3.906  1.00  0.00    -0.000 C 
BRANCH   4   5
ATOM      5  C   UNL     1      27.752  41.271   3.691  1.00  0.00    -0.000 C 
BRANCH   5   6
ATOM      6  C   UNL     1      26.348  40.641   3.626  1.00  0.00    -0.000 C 
BRANCH   6   7
ATOM      7  C   UNL     1      25.221  41.601   3.202  1.00  0.00    -0.000 C 
BRANCH   7   8
ATOM      8  C   UNL     1      24.096  40.900   2.426  1.00  0.00    -0.000 C 
BRANCH   8   9
ATOM      9  C   UNL     1      24.460  39.441   2.122  1.00  0.00    -0.000 C 
BRANCH   9  10
ATOM     10  C   UNL     1      24.533  39.201   0.606  1.00  0.00    -0.000 C 
BRANCH  10  11
ATOM     11  C   UNL     1      25.706  39.942  -0.055  1.00  0.00    -0.003 C 
ATOM     12  C   UNL     1      25.778  39.710  -1.564  1.00  0.00     0.004 C 
ENDBRANCH  10  11
ENDBRANCH   9  10
ENDBRANCH   8   9
ENDBRANCH   7   8
ENDBRANCH   6   7
ENDBRANCH   5   6
ENDBRANCH   4   5
ENDBRANCH   3   4
ENDBRANCH   2   3
ENDBRANCH   1   2
BRANCH   1  13
ATOM     13  C   UNL     1      27.621  45.762   6.826  1.00  0.00     0.000 C 
BRANCH  13  14
ATOM     14  C   UNL     1      26.424  46.123   5.921  1.00  0.00     0.000 C 
BRANCH  14  15
ATOM     15  C   UNL     1      25.363  45.020   5.759  1.00  0.00     0.000 C 
BRANCH  15  16
ATOM     16  C   UNL     1      25.266  44.101   6.988  1.00  0.00     0.000 C 
BRANCH  16  17
ATOM     17  C   UNL     1      25.067  42.622   6.615  1.00  0.00     0.000 C 
BRANCH  17  18
ATOM     18  C   UNL     1      25.975  41.655   7.404  1.00  0.00     0.000 C 
BRANCH  18  19
ATOM     19  C   UNL     1      26.743  42.372   8.528  1.00  0.00     0.000 C 
BRANCH  19  20
ATOM     20  C   UNL     1      26.077  42.197   9.901  1.00  0.00     0.006 C 
BRANCH  20  21
ATOM     21  C   UNL     1      25.899  43.531  10.639  1.00  0.00     0.053 C 
BRANCH  21  22
ATOM     22  C   UNL     1      27.136  43.873  11.409  1.00  0.00     0.041 C 
ATOM     23  O   UNL     1      27.794  44.908  11.121  1.00  0.00    -0.550 OA
ATOM     24  O   UNL     1      27.589  43.025  12.411  1.00  0.00    -0.550 OA
ENDBRANCH  21  22
ENDBRANCH  20  21
ENDBRANCH  19  20
ENDBRANCH  18  19
ENDBRANCH  17  18
ENDBRANCH  16  17
ENDBRANCH  15  16
ENDBRANCH  14  15
ENDBRANCH  13  14
ENDBRANCH   1  13
TORSDOF 20
ENDMDL
MODEL 4
REMARK VINA RESULT:    -2.961      2.277      3.932
REMARK INTER + INTRA:         -10.254
REMARK INTER:                  -7.585
REMARK INTRA:                  -2.669
REMARK UNBOUND:                -3.832
REMARK SMILES CCCCCCCCCCCCCCCCCCCCCC(=O)[O-]
REMARK SMILES IDX 12 1 11 2 10 3 9 4 8 5 7 6 6 7 5 8 4 9 3 10 2 11 1 12 13 13
REMARK SMILES IDX 14 14 15 15 16 16 17 17 18 18 19 19 20 20 21 21 22 22 23 23
REMARK SMILES IDX 24 24
REMARK H PARENT
REMARK Flexibility Score: inf
ROOT
ATOM      1  C   UNL     1      26.715  41.717   4.015  1.00  0.00     0.000 C 
ENDROOT
BRANCH   1   2
ATOM      2  C   UNL     1      25.591  40.685   4.177  1.00  0.00     0.000 C 
BRANCH   2   3
ATOM      3  C   UNL     1      24.258  41.235   3.654  1.00  0.00     0.000 C 
BRANCH   3   4
ATOM      4  C   UNL     1      23.985  40.751   2.225  1.00  0.00    -0.000 C 
BRANCH   4   5
ATOM      5  C   UNL     1      24.327  39.263   2.072  1.00  0.00    -0.000 C 
BRANCH   5   6
ATOM      6  C   UNL     1      24.726  38.881   0.635  1.00  0.00    -0.000 C 
BRANCH   6   7
ATOM      7  C   UNL     1      25.353  40.020  -0.192  1.00  0.00    -0.000 C 
BRANCH   7   8
ATOM      8  C   UNL     1      25.901  39.545  -1.546  1.00  0.00    -0.000 C 
BRANCH   8   9
ATOM      9  C   UNL     1      26.998  38.489  -1.360  1.00  0.00    -0.000 C 
BRANCH   9  10
ATOM     10  C   UNL     1      28.306  39.138  -0.884  1.00  0.00    -0.000 C 
BRANCH  10  11
ATOM     11  C   UNL     1      28.831  38.525   0.424  1.00  0.00    -0.003 C 
ATOM     12  C   UNL     1      28.321  39.256   1.666  1.00  0.00     0.004 C 
ENDBRANCH  10  11
ENDBRANCH   9  10
ENDBRANCH   8   9
ENDBRANCH   7   8
ENDBRANCH   6   7
ENDBRANCH   5   6
ENDBRANCH   4   5
ENDBRANCH   3   4
ENDBRANCH   2   3
ENDBRANCH   1   2
BRANCH   1  13
ATOM     13  C   UNL     1      26.192  43.162   3.937  1.00  0.00     0.000 C 
BRANCH  13  14
ATOM     14  C   UNL     1      26.882  44.161   4.889  1.00  0.00     0.000 C 
BRANCH  14  15
ATOM     15  C   UNL     1      26.011  44.672   6.051  1.00  0.00     0.000 C 
BRANCH  15  16
ATOM     16  C   UNL     1      24.519  44.355   5.863  1.00  0.00     0.000 C 
BRANCH  16  17
ATOM     17  C   UNL     1      24.024  43.234   6.792  1.00  0.00     0.000 C 
BRANCH  17  18
ATOM     18  C   UNL     1      25.007  42.893   7.932  1.00  0.00     0.000 C 
BRANCH  18  19
ATOM     19  C   UNL     1      25.431  41.415   7.907  1.00  0.00     0.000 C 
BRANCH  19  20
ATOM     20  C   UNL     1      25.172  40.704   9.245  1.00  0.00     0.006 C 
BRANCH  20  21
ATOM     21  C   UNL     1      26.467  40.219   9.910  1.00  0.00     0.053 C 
BRANCH  21  22
ATOM     22  C   UNL     1      26.497  38.725   9.970  1.00  0.00     0.041 C 
ATOM     23  O   UNL     1      27.407  38.136  10.612  1.00  0.00    -0.550 OA
ATOM     24  O   UNL     1      25.549  37.981   9.280  1.00  0.00    -0.550 OA
ENDBRANCH  21  22
ENDBRANCH  20  21
ENDBRANCH  19  20
ENDBRANCH  18  19
ENDBRANCH  17  18
ENDBRANCH  16  17
ENDBRANCH  15  16
ENDBRANCH  14  15
ENDBRANCH  13  14
ENDBRANCH   1  13
TORSDOF 20
ENDMDL
MODEL 5
REMARK VINA RESULT:    -2.934      3.287      7.291
REMARK INTER + INTRA:         -10.196
REMARK INTER:                  -6.390
REMARK INTRA:                  -3.806
REMARK UNBOUND:                -3.832
REMARK SMILES CCCCCCCCCCCCCCCCCCCCCC(=O)[O-]
REMARK SMILES IDX 12 1 11 2 10 3 9 4 8 5 7 6 6 7 5 8 4 9 3 10 2 11 1 12 13 13
REMARK SMILES IDX 14 14 15 15 16 16 17 17 18 18 19 19 20 20 21 21 22 22 23 23
REMARK SMILES IDX 24 24
REMARK H PARENT
REMARK Flexibility Score: inf
ROOT
ATOM      1  C   UNL     1      27.996  40.681   4.608  1.00  0.00     0.000 C 
ENDROOT
BRANCH   1   2
ATOM      2  C   UNL     1      27.727  41.853   3.654  1.00  0.00     0.000 C 
BRANCH   2   3
ATOM      3  C   UNL     1      27.660  43.181   4.418  1.00  0.00     0.000 C 
BRANCH   3   4
ATOM      4  C   UNL     1      26.269  43.815   4.299  1.00  0.00    -0.000 C 
BRANCH   4   5
ATOM      5  C   UNL     1      26.088  44.944   5.322  1.00  0.00    -0.000 C 
BRANCH   5   6
ATOM      6  C   UNL     1      25.333  44.495   6.587  1.00  0.00    -0.000 C 
BRANCH   6   7
ATOM      7  C   UNL     1      26.229  44.032   7.751  1.00  0.00    -0.000 C 
BRANCH   7   8
ATOM      8  C   UNL     1      25.484  43.972   9.093  1.00  0.00    -0.000 C 
BRANCH   8   9
ATOM      9  C   UNL     1      25.754  42.647   9.817  1.00  0.00    -0.000 C 
BRANCH   9  10
ATOM     10  C   UNL     1      27.170  42.137   9.513  1.00  0.00    -0.000 C 
BRANCH  10  11
ATOM     11  C   UNL     1      27.368  40.665   9.907  1.00  0.00    -0.003 C 
ATOM     12  C   UNL     1      28.479  40.472  10.939  1.00  0.00     0.004 C 
ENDBRANCH  10  11
ENDBRANCH   9  10
ENDBRANCH   8   9
ENDBRANCH   7   8
ENDBRANCH   6   7
ENDBRANCH   5   6
ENDBRANCH   4   5
ENDBRANCH   3   4
ENDBRANCH   2   3
ENDBRANCH   1   2
BRANCH   1  13
ATOM     13  C   UNL     1      27.352  40.877   5.991  1.00  0.00     0.000 C 
BRANCH  13  14
ATOM     14  C   UNL     1      26.085  40.036   6.249  1.00  0.00     0.000 C 
BRANCH  14  15
ATOM     15  C   UNL     1      24.832  40.838   6.647  1.00  0.00     0.000 C 
BRANCH  15  16
ATOM     16  C   UNL     1      23.960  41.220   5.440  1.00  0.00     0.000 C 
BRANCH  16  17
ATOM     17  C   UNL     1      24.236  40.349   4.203  1.00  0.00     0.000 C 
BRANCH  17  18
ATOM     18  C   UNL     1      24.165  41.124   2.870  1.00  0.00     0.000 C 
BRANCH  18  19
ATOM     19  C   UNL     1      24.513  40.233   1.665  1.00  0.00     0.000 C 
BRANCH  19  20
ATOM     20  C   UNL     1      25.700  39.299   1.947  1.00  0.00     0.006 C 
BRANCH  20  21
ATOM     21  C   UNL     1      26.864  39.522   0.972  1.00  0.00     0.053 C 
BRANCH  21  22
ATOM     22  C   UNL     1      27.858  38.409   1.079  1.00  0.00     0.041 C 
ATOM     23  O   UNL     1      28.127  37.702   0.071  1.00  0.00    -0.550 OA
ATOM     24  O   UNL     1      28.451  38.120   2.301  1.00  0.00    -0.550 OA
ENDBRANCH  21  22
ENDBRANCH  20  21
ENDBRANCH  19  20
ENDBRANCH  18  19
ENDBRANCH  17  18
ENDBRANCH  16  17
ENDBRANCH  15  16
ENDBRANCH  14  15
ENDBRANCH  13  14
ENDBRANCH   1  13
TORSDOF 20
ENDMDL
MODEL 6
REMARK VINA RESULT:    -2.924     17.953     19.718
REMARK INTER + INTRA:         -10.174
REMARK INTER:                  -6.682
REMARK INTRA:                  -3.492
REMARK UNBOUND:                -3.832
REMARK SMILES CCCCCCCCCCCCCCCCCCCCCC(=O)[O-]
REMARK SMILES IDX 12 1 11 2 10 3 9 4 8 5 7 6 6 7 5 8 4 9 3 10 2 11 1 12 13 13
REMARK SMILES IDX 14 14 15 15 16 16 17 17 18 18 19 19 20 20 21 21 22 22 23 23
REMARK SMILES IDX 24 24
REMARK H PARENT
REMARK Flexibility Score: inf
ROOT
ATOM      1  C   UNL     1      40.035  31.058   4.275  1.00  0.00     0.000 C 
ENDROOT
BRANCH   1   2
ATOM      2  C   UNL     1      41.248  31.584   3.497  1.00  0.00     0.000 C 
BRANCH   2   3
ATOM      3  C   UNL     1      41.910  32.755   4.233  1.00  0.00     0.000 C 
BRANCH   3   4
ATOM      4  C   UNL     1      43.314  33.030   3.682  1.00  0.00    -0.000 C 
BRANCH   4   5
ATOM      5  C   UNL     1      43.725  31.960   2.663  1.00  0.00    -0.000 C 
BRANCH   5   6
ATOM      6  C   UNL     1      44.039  32.543   1.272  1.00  0.00    -0.000 C 
BRANCH   6   7
ATOM      7  C   UNL     1      42.881  32.473   0.259  1.00  0.00    -0.000 C 
BRANCH   7   8
ATOM      8  C   UNL     1      41.931  33.676   0.352  1.00  0.00    -0.000 C 
BRANCH   8   9
ATOM      9  C   UNL     1      40.478  33.221   0.536  1.00  0.00    -0.000 C 
BRANCH   9  10
ATOM     10  C   UNL     1      39.618  34.359   1.106  1.00  0.00    -0.000 C 
BRANCH  10  11
ATOM     11  C   UNL     1      38.591  33.867   2.138  1.00  0.00    -0.003 C 
ATOM     12  C   UNL     1      38.577  34.714   3.410  1.00  0.00     0.004 C 
ENDBRANCH  10  11
ENDBRANCH   9  10
ENDBRANCH   8   9
ENDBRANCH   7   8
ENDBRANCH   6   7
ENDBRANCH   5   6
ENDBRANCH   4   5
ENDBRANCH   3   4
ENDBRANCH   2   3
ENDBRANCH   1   2
BRANCH   1  13
ATOM     13  C   UNL     1      40.395  29.918   5.244  1.00  0.00     0.000 C 
BRANCH  13  14
ATOM     14  C   UNL     1      41.677  29.136   4.887  1.00  0.00     0.000 C 
BRANCH  14  15
ATOM     15  C   UNL     1      42.225  28.225   6.001  1.00  0.00     0.000 C 
BRANCH  15  16
ATOM     16  C   UNL     1      43.597  28.681   6.523  1.00  0.00     0.000 C 
BRANCH  16  17
ATOM     17  C   UNL     1      44.033  30.040   5.951  1.00  0.00     0.000 C 
BRANCH  17  18
ATOM     18  C   UNL     1      44.125  31.159   7.010  1.00  0.00     0.000 C 
BRANCH  18  19
ATOM     19  C   UNL     1      42.764  31.447   7.666  1.00  0.00     0.000 C 
BRANCH  19  20
ATOM     20  C   UNL     1      42.830  31.410   9.201  1.00  0.00     0.006 C 
BRANCH  20  21
ATOM     21  C   UNL     1      43.031  29.989   9.744  1.00  0.00     0.053 C 
BRANCH  21  22
ATOM     22  C   UNL     1      41.755  29.463  10.322  1.00  0.00     0.041 C 
ATOM     23  O   UNL     1      40.827  30.257  10.631  1.00  0.00    -0.550 OA
ATOM     24  O   UNL     1      41.608  28.104  10.563  1.00  0.00    -0.550 OA
ENDBRANCH  21  22
ENDBRANCH  20  21
ENDBRANCH  19  20
ENDBRANCH  18  19
ENDBRANCH  17  18
ENDBRANCH  16  17
ENDBRANCH  15  16
ENDBRANCH  14  15
ENDBRANCH  13  14
ENDBRANCH   1  13
TORSDOF 20
ENDMDL
MODEL 7
REMARK VINA RESULT:    -2.894     18.771     21.214
REMARK INTER + INTRA:         -10.109
REMARK INTER:                  -6.992
REMARK INTRA:                  -3.117
REMARK UNBOUND:                -3.832
REMARK SMILES CCCCCCCCCCCCCCCCCCCCCC(=O)[O-]
REMARK SMILES IDX 12 1 11 2 10 3 9 4 8 5 7 6 6 7 5 8 4 9 3 10 2 11 1 12 13 13
REMARK SMILES IDX 14 14 15 15 16 16 17 17 18 18 19 19 20 20 21 21 22 22 23 23
REMARK SMILES IDX 24 24
REMARK H PARENT
REMARK Flexibility Score: inf
ROOT
ATOM      1  C   UNL     1      40.097  28.414   7.005  1.00  0.00     0.000 C 
ENDROOT
BRANCH   1   2
ATOM      2  C   UNL     1      41.384  27.593   6.851  1.00  0.00     0.000 C 
BRANCH   2   3
ATOM      3  C   UNL     1      42.349  28.261   5.864  1.00  0.00     0.000 C 
BRANCH   3   4
ATOM      4  C   UNL     1      43.568  28.841   6.593  1.00  0.00    -0.000 C 
BRANCH   4   5
ATOM      5  C   UNL     1      43.352  30.320   6.937  1.00  0.00    -0.000 C 
BRANCH   5   6
ATOM      6  C   UNL     1      43.349  30.591   8.454  1.00  0.00    -0.000 C 
BRANCH   6   7
ATOM      7  C   UNL     1      41.989  31.021   9.036  1.00  0.00    -0.000 C 
BRANCH   7   8
ATOM      8  C   UNL     1      42.028  31.225  10.558  1.00  0.00    -0.000 C 
BRANCH   8   9
ATOM      9  C   UNL     1      42.657  30.016  11.263  1.00  0.00    -0.000 C 
BRANCH   9  10
ATOM     10  C   UNL     1      41.707  29.451  12.330  1.00  0.00    -0.000 C 
BRANCH  10  11
ATOM     11  C   UNL     1      41.265  28.011  12.027  1.00  0.00    -0.003 C 
ATOM     12  C   UNL     1      41.490  27.617  10.567  1.00  0.00     0.004 C 
ENDBRANCH  10  11
ENDBRANCH   9  10
ENDBRANCH   8   9
ENDBRANCH   7   8
ENDBRANCH   6   7
ENDBRANCH   5   6
ENDBRANCH   4   5
ENDBRANCH   3   4
ENDBRANCH   2   3
ENDBRANCH   1   2
BRANCH   1  13
ATOM     13  C   UNL     1      39.833  29.342   5.807  1.00  0.00     0.000 C 
BRANCH  13  14
ATOM     14  C   UNL     1      39.712  30.841   6.153  1.00  0.00     0.000 C 
BRANCH  14  15
ATOM     15  C   UNL     1      40.422  31.801   5.181  1.00  0.00     0.000 C 
BRANCH  15  16
ATOM     16  C   UNL     1      40.733  31.153   3.823  1.00  0.00     0.000 C 
BRANCH  16  17
ATOM     17  C   UNL     1      42.236  31.132   3.500  1.00  0.00     0.000 C 
BRANCH  17  18
ATOM     18  C   UNL     1      42.990  32.396   3.967  1.00  0.00     0.000 C 
BRANCH  18  19
ATOM     19  C   UNL     1      43.596  33.175   2.787  1.00  0.00     0.000 C 
BRANCH  19  20
ATOM     20  C   UNL     1      43.893  32.276   1.577  1.00  0.00     0.006 C 
BRANCH  20  21
ATOM     21  C   UNL     1      43.873  33.052   0.253  1.00  0.00     0.053 C 
BRANCH  21  22
ATOM     22  C   UNL     1      42.504  33.022  -0.350  1.00  0.00     0.041 C 
ATOM     23  O   UNL     1      42.221  32.168  -1.232  1.00  0.00    -0.550 OA
ATOM     24  O   UNL     1      41.557  33.965   0.025  1.00  0.00    -0.550 OA
ENDBRANCH  21  22
ENDBRANCH  20  21
ENDBRANCH  19  20
ENDBRANCH  18  19
ENDBRANCH  17  18
ENDBRANCH  16  17
ENDBRANCH  15  16
ENDBRANCH  14  15
ENDBRANCH  13  14
ENDBRANCH   1  13
TORSDOF 20
ENDMDL
MODEL 8
REMARK VINA RESULT:    -2.889      3.866      6.875
REMARK INTER + INTRA:         -10.098
REMARK INTER:                  -6.692
REMARK INTRA:                  -3.406
REMARK UNBOUND:                -3.832
REMARK SMILES CCCCCCCCCCCCCCCCCCCCCC(=O)[O-]
REMARK SMILES IDX 12 1 11 2 10 3 9 4 8 5 7 6 6 7 5 8 4 9 3 10 2 11 1 12 13 13
REMARK SMILES IDX 14 14 15 15 16 16 17 17 18 18 19 19 20 20 21 21 22 22 23 23
REMARK SMILES IDX 24 24
REMARK H PARENT
REMARK Flexibility Score: inf
ROOT
ATOM      1  C   UNL     1      27.472  44.820   6.743  1.00  0.00     0.000 C 
ENDROOT
BRANCH   1   2
ATOM      2  C   UNL     1      27.436  45.601   8.063  1.00  0.00     0.000 C 
BRANCH   2   3
ATOM      3  C   UNL     1      26.445  44.971   9.050  1.00  0.00     0.000 C 
BRANCH   3   4
ATOM      4  C   UNL     1      27.173  44.101  10.081  1.00  0.00    -0.000 C 
BRANCH   4   5
ATOM      5  C   UNL     1      26.209  43.108  10.744  1.00  0.00    -0.000 C 
BRANCH   5   6
ATOM      6  C   UNL     1      25.757  41.983   9.795  1.00  0.00    -0.000 C 
BRANCH   6   7
ATOM      7  C   UNL     1      26.898  41.169   9.159  1.00  0.00    -0.000 C 
BRANCH   7   8
ATOM      8  C   UNL     1      27.005  41.371   7.640  1.00  0.00    -0.000 C 
BRANCH   8   9
ATOM      9  C   UNL     1      27.061  40.027   6.905  1.00  0.00    -0.000 C 
BRANCH   9  10
ATOM     10  C   UNL     1      27.777  40.173   5.553  1.00  0.00    -0.000 C 
BRANCH  10  11
ATOM     11  C   UNL     1      28.368  41.576   5.344  1.00  0.00    -0.003 C 
ATOM     12  C   UNL     1      28.377  42.002   3.877  1.00  0.00     0.004 C 
ENDBRANCH  10  11
ENDBRANCH   9  10
ENDBRANCH   8   9
ENDBRANCH   7   8
ENDBRANCH   6   7
ENDBRANCH   5   6
ENDBRANCH   4   5
ENDBRANCH   3   4
ENDBRANCH   2   3
ENDBRANCH   1   2
BRANCH   1  13
ATOM     13  C   UNL     1      26.310  45.183   5.802  1.00  0.00     0.000 C 
BRANCH  13  14
ATOM     14  C   UNL     1      25.507  43.982   5.259  1.00  0.00     0.000 C 
BRANCH  14  15
ATOM     15  C   UNL     1      24.458  43.401   6.225  1.00  0.00     0.000 C 
BRANCH  15  16
ATOM     16  C   UNL     1      23.913  42.040   5.764  1.00  0.00     0.000 C 
BRANCH  16  17
ATOM     17  C   UNL     1      23.921  41.879   4.234  1.00  0.00     0.000 C 
BRANCH  17  18
ATOM     18  C   UNL     1      24.657  40.613   3.747  1.00  0.00     0.000 C 
BRANCH  18  19
ATOM     19  C   UNL     1      25.236  40.790   2.333  1.00  0.00     0.000 C 
BRANCH  19  20
ATOM     20  C   UNL     1      25.755  39.471   1.739  1.00  0.00     0.006 C 
BRANCH  20  21
ATOM     21  C   UNL     1      25.036  39.092   0.438  1.00  0.00     0.053 C 
BRANCH  21  22
ATOM     22  C   UNL     1      25.939  39.292  -0.738  1.00  0.00     0.041 C 
ATOM     23  O   UNL     1      26.900  38.502  -0.938  1.00  0.00    -0.550 OA
ATOM     24  O   UNL     1      25.751  40.376  -1.585  1.00  0.00    -0.550 OA
ENDBRANCH  21  22
ENDBRANCH  20  21
ENDBRANCH  19  20
ENDBRANCH  18  19
ENDBRANCH  17  18
ENDBRANCH  16  17
ENDBRANCH  15  16
ENDBRANCH  14  15
ENDBRANCH  13  14
ENDBRANCH   1  13
TORSDOF 20
ENDMDL
MODEL 9
REMARK VINA RESULT:    -2.253      3.610      7.444
REMARK INTER + INTRA:          -8.719
REMARK INTER:                  -4.923
REMARK INTRA:                  -3.796
REMARK UNBOUND:                -3.832
REMARK SMILES CCCCCCCCCCCCCCCCCCCCCC(=O)[O-]
REMARK SMILES IDX 12 1 11 2 10 3 9 4 8 5 7 6 6 7 5 8 4 9 3 10 2 11 1 12 13 13
REMARK SMILES IDX 14 14 15 15 16 16 17 17 18 18 19 19 20 20 21 21 22 22 23 23
REMARK SMILES IDX 24 24
REMARK H PARENT
REMARK Flexibility Score: inf
ROOT
ATOM      1  C   UNL     1      26.179  43.331   3.958  1.00  0.00     0.000 C 
ENDROOT
BRANCH   1   2
ATOM      2  C   UNL     1      24.927  42.756   4.635  1.00  0.00     0.000 C 
BRANCH   2   3
ATOM      3  C   UNL     1      24.770  43.302   6.060  1.00  0.00     0.000 C 
BRANCH   3   4
ATOM      4  C   UNL     1      23.875  42.387   6.904  1.00  0.00    -0.000 C 
BRANCH   4   5
ATOM      5  C   UNL     1      24.178  40.909   6.626  1.00  0.00    -0.000 C 
BRANCH   5   6
ATOM      6  C   UNL     1      25.325  40.357   7.493  1.00  0.00    -0.000 C 
BRANCH   6   7
ATOM      7  C   UNL     1      25.024  40.281   9.001  1.00  0.00    -0.000 C 
BRANCH   7   8
ATOM      8  C   UNL     1      26.140  40.888   9.866  1.00  0.00    -0.000 C 
BRANCH   8   9
ATOM      9  C   UNL     1      26.114  42.420   9.809  1.00  0.00    -0.000 C 
BRANCH   9  10
ATOM     10  C   UNL     1      27.524  42.981   9.566  1.00  0.00    -0.000 C 
BRANCH  10  11
ATOM     11  C   UNL     1      27.933  42.936   8.086  1.00  0.00    -0.003 C 
ATOM     12  C   UNL     1      27.881  44.309   7.415  1.00  0.00     0.004 C 
ENDBRANCH  10  11
ENDBRANCH   9  10
ENDBRANCH   8   9
ENDBRANCH   7   8
ENDBRANCH   6   7
ENDBRANCH   5   6
ENDBRANCH   4   5
ENDBRANCH   3   4
ENDBRANCH   2   3
ENDBRANCH   1   2
BRANCH   1  13
ATOM     13  C   UNL     1      27.155  42.241   3.483  1.00  0.00     0.000 C 
BRANCH  13  14
ATOM     14  C   UNL     1      28.243  41.845   4.504  1.00  0.00     0.000 C 
BRANCH  14  15
ATOM     15  C   UNL     1      28.011  40.506   5.228  1.00  0.00     0.000 C 
BRANCH  15  16
ATOM     16  C   UNL     1      27.789  39.334   4.258  1.00  0.00     0.000 C 
BRANCH  16  17
ATOM     17  C   UNL     1      26.410  38.673   4.426  1.00  0.00     0.000 C 
BRANCH  17  18
ATOM     18  C   UNL     1      25.648  38.480   3.098  1.00  0.00     0.000 C 
BRANCH  18  19
ATOM     19  C   UNL     1      24.514  39.506   2.929  1.00  0.00     0.000 C 
BRANCH  19  20
ATOM     20  C   UNL     1      24.667  40.348   1.653  1.00  0.00     0.006 C 
BRANCH  20  21
ATOM     21  C   UNL     1      24.657  39.490   0.381  1.00  0.00     0.053 C 
BRANCH  21  22
ATOM     22  C   UNL     1      25.861  39.784  -0.458  1.00  0.00     0.041 C 
ATOM     23  O   UNL     1      27.017  39.625   0.018  1.00  0.00    -0.550 OA
ATOM     24  O   UNL     1      25.708  40.277  -1.747  1.00  0.00    -0.550 OA
ENDBRANCH  21  22
ENDBRANCH  20  21
ENDBRANCH  19  20
ENDBRANCH  18  19
ENDBRANCH  17  18
ENDBRANCH  16  17
ENDBRANCH  15  16
ENDBRANCH  14  15
ENDBRANCH  13  14
ENDBRANCH   1  13
TORSDOF 20
ENDMDL
