MODEL 1
REMARK VINA RESULT:    -4.175      0.000      0.000
REMARK INTER + INTRA:          -8.780
REMARK INTER:                  -7.105
REMARK INTRA:                  -1.675
REMARK UNBOUND:                -1.675
REMARK SMILES CCCCCCCCCCCCCC(=O)[O-]
REMARK SMILES IDX 8 1 9 2 10 3 11 4 12 5 13 6 14 7 15 8 16 9 7 10 6 11 5 12
REMARK SMILES IDX 4 13 3 14 2 15 1 16
REMARK H PARENT
REMARK Flexibility Score: inf
ROOT
ATOM      1  C   UNL     1      18.887   7.088   6.811  1.00  0.00     0.000 C 
ENDROOT
BRANCH   1   2
ATOM      2  C   UNL     1      17.461   6.607   6.473  1.00  0.00     0.000 C 
BRANCH   2   3
ATOM      3  C   UNL     1      17.285   6.013   5.061  1.00  0.00     0.000 C 
BRANCH   3   4
ATOM      4  C   UNL     1      15.947   6.347   4.377  1.00  0.00     0.000 C 
BRANCH   4   5
ATOM      5  C   UNL     1      16.084   6.540   2.860  1.00  0.00     0.006 C 
BRANCH   5   6
ATOM      6  C   UNL     1      17.550   6.444   2.426  1.00  0.00     0.053 C 
BRANCH   6   7
ATOM      7  C   UNL     1      17.645   6.083   0.978  1.00  0.00     0.041 C 
ATOM      8  O   UNL     1      17.246   6.889   0.096  1.00  0.00    -0.550 OA
ATOM      9  O   UNL     1      18.128   4.836   0.602  1.00  0.00    -0.550 OA
ENDBRANCH   6   7
ENDBRANCH   5   6
ENDBRANCH   4   5
ENDBRANCH   3   4
ENDBRANCH   2   3
ENDBRANCH   1   2
BRANCH   1  10
ATOM     10  C   UNL     1      18.955   8.367   7.666  1.00  0.00     0.000 C 
BRANCH  10  11
ATOM     11  C   UNL     1      20.191   9.251   7.411  1.00  0.00    -0.000 C 
BRANCH  11  12
ATOM     12  C   UNL     1      19.851  10.734   7.149  1.00  0.00    -0.000 C 
BRANCH  12  13
ATOM     13  C   UNL     1      18.580  10.904   6.298  1.00  0.00    -0.000 C 
BRANCH  13  14
ATOM     14  C   UNL     1      18.783  10.470   4.839  1.00  0.00    -0.000 C 
BRANCH  14  15
ATOM     15  C   UNL     1      17.559   9.739   4.266  1.00  0.00    -0.003 C 
ATOM     16  C   UNL     1      16.348   9.895   5.180  1.00  0.00     0.004 C 
ENDBRANCH  14  15
ENDBRANCH  13  14
ENDBRANCH  12  13
ENDBRANCH  11  12
ENDBRANCH  10  11
ENDBRANCH   1  10
TORSDOF 12
ENDMDL
MODEL 2
REMARK VINA RESULT:    -4.139      2.949      5.217
REMARK INTER + INTRA:          -8.718
REMARK INTER:                  -7.167
REMARK INTRA:                  -1.551
REMARK UNBOUND:                -1.675
REMARK SMILES CCCCCCCCCCCCCC(=O)[O-]
REMARK SMILES IDX 8 1 9 2 10 3 11 4 12 5 13 6 14 7 15 8 16 9 7 10 6 11 5 12
REMARK SMILES IDX 4 13 3 14 2 15 1 16
REMARK H PARENT
REMARK Flexibility Score: inf
ROOT
ATOM      1  C   UNL     1      17.313  10.300   6.388  1.00  0.00     0.000 C 
ENDROOT
BRANCH   1   2
ATOM      2  C   UNL     1      18.793  10.420   5.971  1.00  0.00     0.000 C 
BRANCH   2   3
ATOM      3  C   UNL     1      19.796  10.542   7.136  1.00  0.00     0.000 C 
BRANCH   3   4
ATOM      4  C   UNL     1      20.334   9.204   7.674  1.00  0.00     0.000 C 
BRANCH   4   5
ATOM      5  C   UNL     1      20.104   8.035   6.706  1.00  0.00     0.006 C 
BRANCH   5   6
ATOM      6  C   UNL     1      19.658   6.778   7.460  1.00  0.00     0.053 C 
BRANCH   6   7
ATOM      7  C   UNL     1      18.174   6.612   7.368  1.00  0.00     0.041 C 
ATOM      8  O   UNL     1      17.672   5.887   6.470  1.00  0.00    -0.550 OA
ATOM      9  O   UNL     1      17.342   7.297   8.245  1.00  0.00    -0.550 OA
ENDBRANCH   6   7
ENDBRANCH   5   6
ENDBRANCH   4   5
ENDBRANCH   3   4
ENDBRANCH   2   3
ENDBRANCH   1   2
BRANCH   1  10
ATOM     10  C   UNL     1      16.335  10.007   5.235  1.00  0.00     0.000 C 
BRANCH  10  11
ATOM     11  C   UNL     1      16.012   8.516   5.024  1.00  0.00    -0.000 C 
BRANCH  11  12
ATOM     12  C   UNL     1      16.429   7.979   3.638  1.00  0.00    -0.000 C 
BRANCH  12  13
ATOM     13  C   UNL     1      17.953   7.807   3.509  1.00  0.00    -0.000 C 
BRANCH  13  14
ATOM     14  C   UNL     1      18.594   8.872   2.607  1.00  0.00    -0.000 C 
BRANCH  14  15
ATOM     15  C   UNL     1      17.973   8.905   1.201  1.00  0.00    -0.003 C 
ATOM     16  C   UNL     1      17.241  10.221   0.954  1.00  0.00     0.004 C 
ENDBRANCH  14  15
ENDBRANCH  13  14
ENDBRANCH  12  13
ENDBRANCH  11  12
ENDBRANCH  10  11
ENDBRANCH   1  10
TORSDOF 12
ENDMDL
MODEL 3
REMARK VINA RESULT:    -4.138      3.034      5.367
REMARK INTER + INTRA:          -8.716
REMARK INTER:                  -6.658
REMARK INTRA:                  -2.058
REMARK UNBOUND:                -1.675
REMARK SMILES CCCCCCCCCCCCCC(=O)[O-]
REMARK SMILES IDX 8 1 9 2 10 3 11 4 12 5 13 6 14 7 15 8 16 9 7 10 6 11 5 12
REMARK SMILES IDX 4 13 3 14 2 15 1 16
REMARK H PARENT
REMARK Flexibility Score: inf
ROOT
ATOM      1  C   UNL     1      18.767  10.365   4.869  1.00  0.00     0.000 C 
ENDROOT
BRANCH   1   2
ATOM      2  C   UNL     1      19.032  10.801   6.325  1.00  0.00     0.000 C 
BRANCH   2   3
ATOM      3  C   UNL     1      19.880   9.821   7.160  1.00  0.00     0.000 C 
BRANCH   3   4
ATOM      4  C   UNL     1      19.076   8.759   7.932  1.00  0.00     0.000 C 
BRANCH   4   5
ATOM      5  C   UNL     1      19.373   7.328   7.461  1.00  0.00     0.006 C 
BRANCH   5   6
ATOM      6  C   UNL     1      20.484   7.317   6.406  1.00  0.00     0.053 C 
BRANCH   6   7
ATOM      7  C   UNL     1      21.676   6.567   6.908  1.00  0.00     0.041 C 
ATOM      8  O   UNL     1      21.771   6.272   8.129  1.00  0.00    -0.550 OA
ATOM      9  O   UNL     1      22.706   6.236   6.038  1.00  0.00    -0.550 OA
ENDBRANCH   6   7
ENDBRANCH   5   6
ENDBRANCH   4   5
ENDBRANCH   3   4
ENDBRANCH   2   3
ENDBRANCH   1   2
BRANCH   1  10
ATOM     10  C   UNL     1      17.282  10.174   4.508  1.00  0.00     0.000 C 
BRANCH  10  11
ATOM     11  C   UNL     1      16.401   9.642   5.655  1.00  0.00    -0.000 C 
BRANCH  11  12
ATOM     12  C   UNL     1      16.190   8.113   5.619  1.00  0.00    -0.000 C 
BRANCH  12  13
ATOM     13  C   UNL     1      16.498   7.510   4.237  1.00  0.00    -0.000 C 
BRANCH  13  14
ATOM     14  C   UNL     1      17.565   6.407   4.299  1.00  0.00    -0.000 C 
BRANCH  14  15
ATOM     15  C   UNL     1      18.694   6.620   3.279  1.00  0.00    -0.003 C 
ATOM     16  C   UNL     1      18.240   7.529   2.140  1.00  0.00     0.004 C 
ENDBRANCH  14  15
ENDBRANCH  13  14
ENDBRANCH  12  13
ENDBRANCH  11  12
ENDBRANCH  10  11
ENDBRANCH   1  10
TORSDOF 12
ENDMDL
MODEL 4
REMARK VINA RESULT:    -4.085      1.378      3.121
REMARK INTER + INTRA:          -8.627
REMARK INTER:                  -6.792
REMARK INTRA:                  -1.835
REMARK UNBOUND:                -1.675
REMARK SMILES CCCCCCCCCCCCCC(=O)[O-]
REMARK SMILES IDX 8 1 9 2 10 3 11 4 12 5 13 6 14 7 15 8 16 9 7 10 6 11 5 12
REMARK SMILES IDX 4 13 3 14 2 15 1 16
REMARK H PARENT
REMARK Flexibility Score: inf
ROOT
ATOM      1  C   UNL     1      18.837  10.394   5.268  1.00  0.00     0.000 C 
ENDROOT
BRANCH   1   2
ATOM      2  C   UNL     1      17.443  10.723   4.696  1.00  0.00     0.000 C 
BRANCH   2   3
ATOM      3  C   UNL     1      16.265  10.002   5.381  1.00  0.00     0.000 C 
BRANCH   3   4
ATOM      4  C   UNL     1      15.888   8.642   4.768  1.00  0.00     0.000 C 
BRANCH   4   5
ATOM      5  C   UNL     1      16.164   8.570   3.260  1.00  0.00     0.006 C 
BRANCH   5   6
ATOM      6  C   UNL     1      16.610   7.163   2.850  1.00  0.00     0.053 C 
BRANCH   6   7
ATOM      7  C   UNL     1      18.086   7.130   2.609  1.00  0.00     0.041 C 
ATOM      8  O   UNL     1      18.737   8.205   2.523  1.00  0.00    -0.550 OA
ATOM      9  O   UNL     1      18.734   5.915   2.431  1.00  0.00    -0.550 OA
ENDBRANCH   6   7
ENDBRANCH   5   6
ENDBRANCH   4   5
ENDBRANCH   3   4
ENDBRANCH   2   3
ENDBRANCH   1   2
BRANCH   1  10
ATOM     10  C   UNL     1      19.132  11.006   6.650  1.00  0.00     0.000 C 
BRANCH  10  11
ATOM     11  C   UNL     1      19.519   9.987   7.739  1.00  0.00    -0.000 C 
BRANCH  11  12
ATOM     12  C   UNL     1      20.475   8.881   7.245  1.00  0.00    -0.000 C 
BRANCH  12  13
ATOM     13  C   UNL     1      19.893   7.470   7.440  1.00  0.00    -0.000 C 
BRANCH  13  14
ATOM     14  C   UNL     1      19.060   7.003   6.237  1.00  0.00    -0.000 C 
BRANCH  14  15
ATOM     15  C   UNL     1      17.732   6.353   6.655  1.00  0.00    -0.003 C 
ATOM     16  C   UNL     1      17.167   7.014   7.908  1.00  0.00     0.004 C 
ENDBRANCH  14  15
ENDBRANCH  13  14
ENDBRANCH  12  13
ENDBRANCH  11  12
ENDBRANCH  10  11
ENDBRANCH   1  10
TORSDOF 12
ENDMDL
MODEL 5
REMARK VINA RESULT:    -4.072      1.549      3.284
REMARK INTER + INTRA:          -8.604
REMARK INTER:                  -7.048
REMARK INTRA:                  -1.556
REMARK UNBOUND:                -1.675
REMARK SMILES CCCCCCCCCCCCCC(=O)[O-]
REMARK SMILES IDX 8 1 9 2 10 3 11 4 12 5 13 6 14 7 15 8 16 9 7 10 6 11 5 12
REMARK SMILES IDX 4 13 3 14 2 15 1 16
REMARK H PARENT
REMARK Flexibility Score: inf
ROOT
ATOM      1  C   UNL     1      17.846  10.062   4.877  1.00  0.00     0.000 C 
ENDROOT
BRANCH   1   2
ATOM      2  C   UNL     1      16.690   9.633   5.804  1.00  0.00     0.000 C 
BRANCH   2   3
ATOM      3  C   UNL     1      16.630   8.126   6.124  1.00  0.00     0.000 C 
BRANCH   3   4
ATOM      4  C   UNL     1      16.345   7.215   4.917  1.00  0.00     0.000 C 
BRANCH   4   5
ATOM      5  C   UNL     1      17.400   6.114   4.737  1.00  0.00     0.006 C 
BRANCH   5   6
ATOM      6  C   UNL     1      18.572   6.612   3.885  1.00  0.00     0.053 C 
BRANCH   6   7
ATOM      7  C   UNL     1      18.111   6.930   2.498  1.00  0.00     0.041 C 
ATOM      8  O   UNL     1      18.358   8.057   1.992  1.00  0.00    -0.550 OA
ATOM      9  O   UNL     1      17.368   6.001   1.782  1.00  0.00    -0.550 OA
ENDBRANCH   6   7
ENDBRANCH   5   6
ENDBRANCH   4   5
ENDBRANCH   3   4
ENDBRANCH   2   3
ENDBRANCH   1   2
BRANCH   1  10
ATOM     10  C   UNL     1      18.854  11.041   5.506  1.00  0.00     0.000 C 
BRANCH  10  11
ATOM     11  C   UNL     1      18.946  10.975   7.043  1.00  0.00    -0.000 C 
BRANCH  11  12
ATOM     12  C   UNL     1      20.291  10.425   7.563  1.00  0.00    -0.000 C 
BRANCH  12  13
ATOM     13  C   UNL     1      20.177   8.978   8.074  1.00  0.00    -0.000 C 
BRANCH  13  14
ATOM     14  C   UNL     1      20.215   7.945   6.938  1.00  0.00    -0.000 C 
BRANCH  14  15
ATOM     15  C   UNL     1      21.495   7.095   6.957  1.00  0.00    -0.003 C 
ATOM     16  C   UNL     1      22.330   7.386   8.200  1.00  0.00     0.004 C 
ENDBRANCH  14  15
ENDBRANCH  13  14
ENDBRANCH  12  13
ENDBRANCH  11  12
ENDBRANCH  10  11
ENDBRANCH   1  10
TORSDOF 12
ENDMDL
MODEL 6
REMARK VINA RESULT:    -4.060      1.825      4.007
REMARK INTER + INTRA:          -8.583
REMARK INTER:                  -6.705
REMARK INTRA:                  -1.878
REMARK UNBOUND:                -1.675
REMARK SMILES CCCCCCCCCCCCCC(=O)[O-]
REMARK SMILES IDX 8 1 9 2 10 3 11 4 12 5 13 6 14 7 15 8 16 9 7 10 6 11 5 12
REMARK SMILES IDX 4 13 3 14 2 15 1 16
REMARK H PARENT
REMARK Flexibility Score: inf
ROOT
ATOM      1  C   UNL     1      18.587   9.775   4.588  1.00  0.00     0.000 C 
ENDROOT
BRANCH   1   2
ATOM      2  C   UNL     1      18.607  10.325   3.147  1.00  0.00     0.000 C 
BRANCH   2   3
ATOM      3  C   UNL     1      17.298  10.992   2.680  1.00  0.00     0.000 C 
BRANCH   3   4
ATOM      4  C   UNL     1      16.697  10.412   1.386  1.00  0.00     0.000 C 
BRANCH   4   5
ATOM      5  C   UNL     1      15.955   9.088   1.614  1.00  0.00     0.006 C 
BRANCH   5   6
ATOM      6  C   UNL     1      16.728   7.914   1.005  1.00  0.00     0.053 C 
BRANCH   6   7
ATOM      7  C   UNL     1      17.064   6.906   2.058  1.00  0.00     0.041 C 
ATOM      8  O   UNL     1      18.238   6.826   2.507  1.00  0.00    -0.550 OA
ATOM      9  O   UNL     1      16.093   6.022   2.510  1.00  0.00    -0.550 OA
ENDBRANCH   6   7
ENDBRANCH   5   6
ENDBRANCH   4   5
ENDBRANCH   3   4
ENDBRANCH   2   3
ENDBRANCH   1   2
BRANCH   1  10
ATOM     10  C   UNL     1      17.635  10.511   5.549  1.00  0.00     0.000 C 
BRANCH  10  11
ATOM     11  C   UNL     1      16.487   9.649   6.107  1.00  0.00    -0.000 C 
BRANCH  11  12
ATOM     12  C   UNL     1      16.163   8.410   5.245  1.00  0.00    -0.000 C 
BRANCH  12  13
ATOM     13  C   UNL     1      16.146   7.109   6.067  1.00  0.00    -0.000 C 
BRANCH  13  14
ATOM     14  C   UNL     1      17.506   6.393   6.067  1.00  0.00    -0.000 C 
BRANCH  14  15
ATOM     15  C   UNL     1      18.259   6.558   7.396  1.00  0.00    -0.003 C 
ATOM     16  C   UNL     1      19.581   7.293   7.191  1.00  0.00     0.004 C 
ENDBRANCH  14  15
ENDBRANCH  13  14
ENDBRANCH  12  13
ENDBRANCH  11  12
ENDBRANCH  10  11
ENDBRANCH   1  10
TORSDOF 12
ENDMDL
MODEL 7
REMARK VINA RESULT:    -4.044      3.744      5.887
REMARK INTER + INTRA:          -8.556
REMARK INTER:                  -7.051
REMARK INTRA:                  -1.505
REMARK UNBOUND:                -1.675
REMARK SMILES CCCCCCCCCCCCCC(=O)[O-]
REMARK SMILES IDX 8 1 9 2 10 3 11 4 12 5 13 6 14 7 15 8 16 9 7 10 6 11 5 12
REMARK SMILES IDX 4 13 3 14 2 15 1 16
REMARK H PARENT
REMARK Flexibility Score: inf
ROOT
ATOM      1  C   UNL     1      18.851  10.570   6.945  1.00  0.00     0.000 C 
ENDROOT
BRANCH   1   2
ATOM      2  C   UNL     1      20.244  10.612   7.606  1.00  0.00     0.000 C 
BRANCH   2   3
ATOM      3  C   UNL     1      20.770   9.256   8.117  1.00  0.00     0.000 C 
BRANCH   3   4
ATOM      4  C   UNL     1      20.611   8.083   7.133  1.00  0.00     0.000 C 
BRANCH   4   5
ATOM      5  C   UNL     1      21.380   6.829   7.571  1.00  0.00     0.006 C 
BRANCH   5   6
ATOM      6  C   UNL     1      22.356   6.376   6.481  1.00  0.00     0.053 C 
BRANCH   6   7
ATOM      7  C   UNL     1      23.763   6.701   6.870  1.00  0.00     0.041 C 
ATOM      8  O   UNL     1      24.710   6.479   6.069  1.00  0.00    -0.550 OA
ATOM      9  O   UNL     1      24.036   7.205   8.135  1.00  0.00    -0.550 OA
ENDBRANCH   6   7
ENDBRANCH   5   6
ENDBRANCH   4   5
ENDBRANCH   3   4
ENDBRANCH   2   3
ENDBRANCH   1   2
BRANCH   1  10
ATOM     10  C   UNL     1      18.858  10.683   5.409  1.00  0.00     0.000 C 
BRANCH  10  11
ATOM     11  C   UNL     1      18.102   9.559   4.674  1.00  0.00    -0.000 C 
BRANCH  11  12
ATOM     12  C   UNL     1      16.603   9.481   5.031  1.00  0.00    -0.000 C 
BRANCH  12  13
ATOM     13  C   UNL     1      16.238   8.173   5.755  1.00  0.00    -0.000 C 
BRANCH  13  14
ATOM     14  C   UNL     1      17.269   7.059   5.517  1.00  0.00    -0.000 C 
BRANCH  14  15
ATOM     15  C   UNL     1      17.637   6.310   6.807  1.00  0.00    -0.003 C 
ATOM     16  C   UNL     1      17.154   7.069   8.040  1.00  0.00     0.004 C 
ENDBRANCH  14  15
ENDBRANCH  13  14
ENDBRANCH  12  13
ENDBRANCH  11  12
ENDBRANCH  10  11
ENDBRANCH   1  10
TORSDOF 12
ENDMDL
MODEL 8
REMARK VINA RESULT:    -4.027      1.882      3.932
REMARK INTER + INTRA:          -8.527
REMARK INTER:                  -6.621
REMARK INTRA:                  -1.906
REMARK UNBOUND:                -1.675
REMARK SMILES CCCCCCCCCCCCCC(=O)[O-]
REMARK SMILES IDX 8 1 9 2 10 3 11 4 12 5 13 6 14 7 15 8 16 9 7 10 6 11 5 12
REMARK SMILES IDX 4 13 3 14 2 15 1 16
REMARK H PARENT
REMARK Flexibility Score: inf
ROOT
ATOM      1  C   UNL     1      19.411   9.858   6.698  1.00  0.00     0.000 C 
ENDROOT
BRANCH   1   2
ATOM      2  C   UNL     1      18.899  10.521   5.403  1.00  0.00     0.000 C 
BRANCH   2   3
ATOM      3  C   UNL     1      17.422  10.965   5.432  1.00  0.00     0.000 C 
BRANCH   3   4
ATOM      4  C   UNL     1      16.692  10.885   4.079  1.00  0.00     0.000 C 
BRANCH   4   5
ATOM      5  C   UNL     1      17.651  10.718   2.892  1.00  0.00     0.006 C 
BRANCH   5   6
ATOM      6  C   UNL     1      16.888  10.727   1.564  1.00  0.00     0.053 C 
BRANCH   6   7
ATOM      7  C   UNL     1      17.518   9.782   0.592  1.00  0.00     0.041 C 
ATOM      8  O   UNL     1      18.446   9.015   0.964  1.00  0.00    -0.550 OA
ATOM      9  O   UNL     1      17.116   9.781  -0.738  1.00  0.00    -0.550 OA
ENDBRANCH   6   7
ENDBRANCH   5   6
ENDBRANCH   4   5
ENDBRANCH   3   4
ENDBRANCH   2   3
ENDBRANCH   1   2
BRANCH   1  10
ATOM     10  C   UNL     1      18.337   9.116   7.515  1.00  0.00     0.000 C 
BRANCH  10  11
ATOM     11  C   UNL     1      18.535   7.591   7.610  1.00  0.00    -0.000 C 
BRANCH  11  12
ATOM     12  C   UNL     1      17.284   6.776   7.217  1.00  0.00    -0.000 C 
BRANCH  12  13
ATOM     13  C   UNL     1      16.421   7.495   6.165  1.00  0.00    -0.000 C 
BRANCH  13  14
ATOM     14  C   UNL     1      16.202   6.650   4.902  1.00  0.00    -0.000 C 
BRANCH  14  15
ATOM     15  C   UNL     1      16.973   7.191   3.688  1.00  0.00    -0.003 C 
ATOM     16  C   UNL     1      18.480   7.076   3.900  1.00  0.00     0.004 C 
ENDBRANCH  14  15
ENDBRANCH  13  14
ENDBRANCH  12  13
ENDBRANCH  11  12
ENDBRANCH  10  11
ENDBRANCH   1  10
TORSDOF 12
ENDMDL
MODEL 9
REMARK VINA RESULT:    -3.939      3.124      5.740
REMARK INTER + INTRA:          -8.379
REMARK INTER:                  -6.680
REMARK INTRA:                  -1.699
REMARK UNBOUND:                -1.675
REMARK SMILES CCCCCCCCCCCCCC(=O)[O-]
REMARK SMILES IDX 8 1 9 2 10 3 11 4 12 5 13 6 14 7 15 8 16 9 7 10 6 11 5 12
REMARK SMILES IDX 4 13 3 14 2 15 1 16
REMARK H PARENT
REMARK Flexibility Score: inf
ROOT
ATOM      1  C   UNL     1      18.873  10.570   5.645  1.00  0.00     0.000 C 
ENDROOT
BRANCH   1   2
ATOM      2  C   UNL     1      18.120  10.559   6.991  1.00  0.00     0.000 C 
BRANCH   2   3
ATOM      3  C   UNL     1      19.011  10.419   8.242  1.00  0.00     0.000 C 
BRANCH   3   4
ATOM      4  C   UNL     1      20.515  10.256   7.954  1.00  0.00     0.000 C 
BRANCH   4   5
ATOM      5  C   UNL     1      21.043   8.860   8.316  1.00  0.00     0.006 C 
BRANCH   5   6
ATOM      6  C   UNL     1      20.780   7.863   7.183  1.00  0.00     0.053 C 
BRANCH   6   7
ATOM      7  C   UNL     1      21.840   6.809   7.158  1.00  0.00     0.041 C 
ATOM      8  O   UNL     1      22.405   6.452   8.225  1.00  0.00    -0.550 OA
ATOM      9  O   UNL     1      22.240   6.254   5.948  1.00  0.00    -0.550 OA
ENDBRANCH   6   7
ENDBRANCH   5   6
ENDBRANCH   4   5
ENDBRANCH   3   4
ENDBRANCH   2   3
ENDBRANCH   1   2
BRANCH   1  10
ATOM     10  C   UNL     1      17.978  10.430   4.400  1.00  0.00     0.000 C 
BRANCH  10  11
ATOM     11  C   UNL     1      18.465   9.396   3.367  1.00  0.00    -0.000 C 
BRANCH  11  12
ATOM     12  C   UNL     1      17.782   8.017   3.497  1.00  0.00    -0.000 C 
BRANCH  12  13
ATOM     13  C   UNL     1      18.567   7.056   4.407  1.00  0.00    -0.000 C 
BRANCH  13  14
ATOM     14  C   UNL     1      17.656   6.272   5.364  1.00  0.00    -0.000 C 
BRANCH  14  15
ATOM     15  C   UNL     1      16.819   7.191   6.267  1.00  0.00    -0.003 C 
ATOM     16  C   UNL     1      17.203   7.018   7.734  1.00  0.00     0.004 C 
ENDBRANCH  14  15
ENDBRANCH  13  14
ENDBRANCH  12  13
ENDBRANCH  11  12
ENDBRANCH  10  11
ENDBRANCH   1  10
TORSDOF 12
ENDMDL
