MODEL 1
REMARK VINA RESULT:    -4.148      0.000      0.000
REMARK INTER + INTRA:         -15.251
REMARK INTER:                 -10.454
REMARK INTRA:                  -4.797
REMARK UNBOUND:                -4.797
REMARK SMILES CCCCCCCCCCCCCCCCCCCCCCCCCCCC(=O)[O-]
REMARK SMILES IDX 15 1 16 2 17 3 18 4 19 5 20 6 21 7 22 8 23 9 24 10 25 11
REMARK SMILES IDX 26 12 27 13 28 14 29 15 30 16 14 17 13 18 12 19 11 20 10 21
REMARK SMILES IDX 9 22 8 23 7 24 6 25 5 26 4 27 3 28 2 29 1 30
REMARK H PARENT
REMARK Flexibility Score: inf
ROOT
ATOM      1  C   UNL     1      97.798  82.112  79.123  1.00  0.00     0.000 C 
ENDROOT
BRANCH   1   2
ATOM      2  C   UNL     1      98.385  82.003  80.539  1.00  0.00     0.000 C 
BRANCH   2   3
ATOM      3  C   UNL     1      99.834  82.516  80.625  1.00  0.00     0.000 C 
BRANCH   3   4
ATOM      4  C   UNL     1     100.159  83.102  82.015  1.00  0.00     0.000 C 
BRANCH   4   5
ATOM      5  C   UNL     1     100.862  84.467  81.961  1.00  0.00     0.000 C 
BRANCH   5   6
ATOM      6  C   UNL     1     101.244  84.889  80.532  1.00  0.00     0.000 C 
BRANCH   6   7
ATOM      7  C   UNL     1     100.567  86.207  80.118  1.00  0.00     0.000 C 
BRANCH   7   8
ATOM      8  C   UNL     1      99.133  85.985  79.612  1.00  0.00     0.000 C 
BRANCH   8   9
ATOM      9  C   UNL     1      98.066  86.552  80.566  1.00  0.00     0.000 C 
BRANCH   9  10
ATOM     10  C   UNL     1      97.323  85.503  81.419  1.00  0.00     0.000 C 
BRANCH  10  11
ATOM     11  C   UNL     1      95.941  85.941  81.938  1.00  0.00     0.000 C 
BRANCH  11  12
ATOM     12  C   UNL     1      95.047  84.754  82.335  1.00  0.00     0.006 C 
BRANCH  12  13
ATOM     13  C   UNL     1      95.869  83.519  82.727  1.00  0.00     0.053 C 
BRANCH  13  14
ATOM     14  C   UNL     1      96.222  83.529  84.183  1.00  0.00     0.041 C 
ATOM     15  O   UNL     1      97.394  83.258  84.554  1.00  0.00    -0.550 OA
ATOM     16  O   UNL     1      95.246  83.804  85.134  1.00  0.00    -0.550 OA
ENDBRANCH  13  14
ENDBRANCH  12  13
ENDBRANCH  11  12
ENDBRANCH  10  11
ENDBRANCH   9  10
ENDBRANCH   8   9
ENDBRANCH   7   8
ENDBRANCH   6   7
ENDBRANCH   5   6
ENDBRANCH   4   5
ENDBRANCH   3   4
ENDBRANCH   2   3
ENDBRANCH   1   2
BRANCH   1  17
ATOM     17  C   UNL     1      96.281  81.875  79.091  1.00  0.00     0.000 C 
BRANCH  17  18
ATOM     18  C   UNL     1      95.514  83.205  79.033  1.00  0.00     0.000 C 
BRANCH  18  19
ATOM     19  C   UNL     1      96.203  84.237  78.113  1.00  0.00     0.000 C 
BRANCH  19  20
ATOM     20  C   UNL     1      95.237  85.265  77.500  1.00  0.00     0.000 C 
BRANCH  20  21
ATOM     21  C   UNL     1      93.768  84.998  77.864  1.00  0.00     0.000 C 
BRANCH  21  22
ATOM     22  C   UNL     1      92.946  84.451  76.683  1.00  0.00    -0.000 C 
BRANCH  22  23
ATOM     23  C   UNL     1      92.296  83.075  76.920  1.00  0.00    -0.000 C 
BRANCH  23  24
ATOM     24  C   UNL     1      91.766  82.902  78.355  1.00  0.00    -0.000 C 
BRANCH  24  25
ATOM     25  C   UNL     1      90.353  83.477  78.537  1.00  0.00    -0.000 C 
BRANCH  25  26
ATOM     26  C   UNL     1      90.237  84.397  79.764  1.00  0.00    -0.000 C 
BRANCH  26  27
ATOM     27  C   UNL     1      91.531  84.448  80.596  1.00  0.00    -0.000 C 
BRANCH  27  28
ATOM     28  C   UNL     1      91.547  85.515  81.705  1.00  0.00    -0.000 C 
BRANCH  28  29
ATOM     29  C   UNL     1      90.760  85.094  82.953  1.00  0.00    -0.003 C 
ATOM     30  C   UNL     1      90.846  83.586  83.175  1.00  0.00     0.004 C 
ENDBRANCH  28  29
ENDBRANCH  27  28
ENDBRANCH  26  27
ENDBRANCH  25  26
ENDBRANCH  24  25
ENDBRANCH  23  24
ENDBRANCH  22  23
ENDBRANCH  21  22
ENDBRANCH  20  21
ENDBRANCH  19  20
ENDBRANCH  18  19
ENDBRANCH  17  18
ENDBRANCH   1  17
TORSDOF 26
ENDMDL
MODEL 2
REMARK VINA RESULT:    -4.017      1.546      2.870
REMARK INTER + INTRA:         -14.918
REMARK INTER:                 -10.195
REMARK INTRA:                  -4.723
REMARK UNBOUND:                -4.797
REMARK SMILES CCCCCCCCCCCCCCCCCCCCCCCCCCCC(=O)[O-]
REMARK SMILES IDX 15 1 16 2 17 3 18 4 19 5 20 6 21 7 22 8 23 9 24 10 25 11
REMARK SMILES IDX 26 12 27 13 28 14 29 15 30 16 14 17 13 18 12 19 11 20 10 21
REMARK SMILES IDX 9 22 8 23 7 24 6 25 5 26 4 27 3 28 2 29 1 30
REMARK H PARENT
REMARK Flexibility Score: inf
ROOT
ATOM      1  C   UNL     1      95.606  83.487  79.143  1.00  0.00     0.000 C 
ENDROOT
BRANCH   1   2
ATOM      2  C   UNL     1      96.076  82.033  78.982  1.00  0.00     0.000 C 
BRANCH   2   3
ATOM      3  C   UNL     1      97.129  81.626  80.028  1.00  0.00     0.000 C 
BRANCH   3   4
ATOM      4  C   UNL     1      98.542  82.116  79.647  1.00  0.00     0.000 C 
BRANCH   4   5
ATOM      5  C   UNL     1      99.445  82.400  80.858  1.00  0.00     0.000 C 
BRANCH   5   6
ATOM      6  C   UNL     1      99.993  83.837  80.873  1.00  0.00     0.000 C 
BRANCH   6   7
ATOM      7  C   UNL     1      99.054  84.822  80.155  1.00  0.00     0.000 C 
BRANCH   7   8
ATOM      8  C   UNL     1      98.538  85.919  81.100  1.00  0.00     0.000 C 
BRANCH   8   9
ATOM      9  C   UNL     1      97.085  85.685  81.552  1.00  0.00     0.000 C 
BRANCH   9  10
ATOM     10  C   UNL     1      96.921  85.173  82.998  1.00  0.00     0.000 C 
BRANCH  10  11
ATOM     11  C   UNL     1      97.012  83.645  83.166  1.00  0.00     0.000 C 
BRANCH  11  12
ATOM     12  C   UNL     1      97.442  83.223  84.581  1.00  0.00     0.006 C 
BRANCH  12  13
ATOM     13  C   UNL     1      98.568  84.108  85.130  1.00  0.00     0.053 C 
BRANCH  13  14
ATOM     14  C   UNL     1      99.898  83.733  84.551  1.00  0.00     0.041 C 
ATOM     15  O   UNL     1     100.708  84.626  84.189  1.00  0.00    -0.550 OA
ATOM     16  O   UNL     1     100.230  82.394  84.378  1.00  0.00    -0.550 OA
ENDBRANCH  13  14
ENDBRANCH  12  13
ENDBRANCH  11  12
ENDBRANCH  10  11
ENDBRANCH   9  10
ENDBRANCH   8   9
ENDBRANCH   7   8
ENDBRANCH   6   7
ENDBRANCH   5   6
ENDBRANCH   4   5
ENDBRANCH   3   4
ENDBRANCH   2   3
ENDBRANCH   1   2
BRANCH   1  17
ATOM     17  C   UNL     1      96.126  84.404  78.027  1.00  0.00     0.000 C 
BRANCH  17  18
ATOM     18  C   UNL     1      95.024  85.353  77.533  1.00  0.00     0.000 C 
BRANCH  18  19
ATOM     19  C   UNL     1      93.613  84.867  77.930  1.00  0.00     0.000 C 
BRANCH  19  20
ATOM     20  C   UNL     1      92.676  84.633  76.733  1.00  0.00     0.000 C 
BRANCH  20  21
ATOM     21  C   UNL     1      91.677  83.488  76.969  1.00  0.00     0.000 C 
BRANCH  21  22
ATOM     22  C   UNL     1      90.400  83.947  77.696  1.00  0.00    -0.000 C 
BRANCH  22  23
ATOM     23  C   UNL     1      89.986  83.080  78.901  1.00  0.00    -0.000 C 
BRANCH  23  24
ATOM     24  C   UNL     1      89.939  83.870  80.221  1.00  0.00    -0.000 C 
BRANCH  24  25
ATOM     25  C   UNL     1      90.532  85.282  80.085  1.00  0.00    -0.000 C 
BRANCH  25  26
ATOM     26  C   UNL     1      91.762  85.500  80.982  1.00  0.00    -0.000 C 
BRANCH  26  27
ATOM     27  C   UNL     1      91.908  84.419  82.069  1.00  0.00    -0.000 C 
BRANCH  27  28
ATOM     28  C   UNL     1      93.325  84.273  82.651  1.00  0.00    -0.000 C 
BRANCH  28  29
ATOM     29  C   UNL     1      93.359  83.441  83.941  1.00  0.00    -0.003 C 
ATOM     30  C   UNL     1      93.835  84.279  85.124  1.00  0.00     0.004 C 
ENDBRANCH  28  29
ENDBRANCH  27  28
ENDBRANCH  26  27
ENDBRANCH  25  26
ENDBRANCH  24  25
ENDBRANCH  23  24
ENDBRANCH  22  23
ENDBRANCH  21  22
ENDBRANCH  20  21
ENDBRANCH  19  20
ENDBRANCH  18  19
ENDBRANCH  17  18
ENDBRANCH   1  17
TORSDOF 26
ENDMDL
MODEL 3
REMARK VINA RESULT:    -4.014      1.626      5.735
REMARK INTER + INTRA:         -14.912
REMARK INTER:                 -10.229
REMARK INTRA:                  -4.683
REMARK UNBOUND:                -4.797
REMARK SMILES CCCCCCCCCCCCCCCCCCCCCCCCCCCC(=O)[O-]
REMARK SMILES IDX 15 1 16 2 17 3 18 4 19 5 20 6 21 7 22 8 23 9 24 10 25 11
REMARK SMILES IDX 26 12 27 13 28 14 29 15 30 16 14 17 13 18 12 19 11 20 10 21
REMARK SMILES IDX 9 22 8 23 7 24 6 25 5 26 4 27 3 28 2 29 1 30
REMARK H PARENT
REMARK Flexibility Score: inf
ROOT
ATOM      1  C   UNL     1      89.999  83.930  77.660  1.00  0.00     0.000 C 
ENDROOT
BRANCH   1   2
ATOM      2  C   UNL     1      91.072  84.106  76.575  1.00  0.00     0.000 C 
BRANCH   2   3
ATOM      3  C   UNL     1      92.503  84.084  77.142  1.00  0.00     0.000 C 
BRANCH   3   4
ATOM      4  C   UNL     1      93.473  84.940  76.300  1.00  0.00     0.000 C 
BRANCH   4   5
ATOM      5  C   UNL     1      94.505  85.709  77.139  1.00  0.00     0.000 C 
BRANCH   5   6
ATOM      6  C   UNL     1      94.710  85.106  78.539  1.00  0.00     0.000 C 
BRANCH   6   7
ATOM      7  C   UNL     1      95.850  84.072  78.562  1.00  0.00     0.000 C 
BRANCH   7   8
ATOM      8  C   UNL     1      95.345  82.665  78.920  1.00  0.00     0.000 C 
BRANCH   8   9
ATOM      9  C   UNL     1      96.477  81.714  79.351  1.00  0.00     0.000 C 
BRANCH   9  10
ATOM     10  C   UNL     1      97.905  82.215  79.052  1.00  0.00     0.000 C 
BRANCH  10  11
ATOM     11  C   UNL     1      98.913  82.047  80.204  1.00  0.00     0.000 C 
BRANCH  11  12
ATOM     12  C   UNL     1      99.514  83.383  80.673  1.00  0.00     0.006 C 
BRANCH  12  13
ATOM     13  C   UNL     1     100.337  83.224  81.959  1.00  0.00     0.053 C 
BRANCH  13  14
ATOM     14  C   UNL     1      99.501  82.706  83.090  1.00  0.00     0.041 C 
ATOM     15  O   UNL     1      99.915  81.753  83.800  1.00  0.00    -0.550 OA
ATOM     16  O   UNL     1      98.248  83.255  83.337  1.00  0.00    -0.550 OA
ENDBRANCH  13  14
ENDBRANCH  12  13
ENDBRANCH  11  12
ENDBRANCH  10  11
ENDBRANCH   9  10
ENDBRANCH   8   9
ENDBRANCH   7   8
ENDBRANCH   6   7
ENDBRANCH   5   6
ENDBRANCH   4   5
ENDBRANCH   3   4
ENDBRANCH   2   3
ENDBRANCH   1   2
BRANCH   1  17
ATOM     17  C   UNL     1      90.494  83.103  78.855  1.00  0.00     0.000 C 
BRANCH  17  18
ATOM     18  C   UNL     1      90.300  83.867  80.174  1.00  0.00     0.000 C 
BRANCH  18  19
ATOM     19  C   UNL     1      91.642  84.315  80.792  1.00  0.00     0.000 C 
BRANCH  19  20
ATOM     20  C   UNL     1      91.907  85.825  80.675  1.00  0.00     0.000 C 
BRANCH  20  21
ATOM     21  C   UNL     1      91.563  86.596  81.960  1.00  0.00     0.000 C 
BRANCH  21  22
ATOM     22  C   UNL     1      92.807  87.148  82.680  1.00  0.00    -0.000 C 
BRANCH  22  23
ATOM     23  C   UNL     1      94.149  86.862  81.979  1.00  0.00    -0.000 C 
BRANCH  23  24
ATOM     24  C   UNL     1      95.114  86.034  82.847  1.00  0.00    -0.000 C 
BRANCH  24  25
ATOM     25  C   UNL     1      95.600  84.760  82.137  1.00  0.00    -0.000 C 
BRANCH  25  26
ATOM     26  C   UNL     1      94.826  83.504  82.572  1.00  0.00    -0.000 C 
BRANCH  26  27
ATOM     27  C   UNL     1      94.302  83.596  84.017  1.00  0.00    -0.000 C 
BRANCH  27  28
ATOM     28  C   UNL     1      92.785  83.388  84.170  1.00  0.00    -0.000 C 
BRANCH  28  29
ATOM     29  C   UNL     1      92.124  84.444  85.067  1.00  0.00    -0.003 C 
ATOM     30  C   UNL     1      90.612  84.472  84.861  1.00  0.00     0.004 C 
ENDBRANCH  28  29
ENDBRANCH  27  28
ENDBRANCH  26  27
ENDBRANCH  25  26
ENDBRANCH  24  25
ENDBRANCH  23  24
ENDBRANCH  22  23
ENDBRANCH  21  22
ENDBRANCH  20  21
ENDBRANCH  19  20
ENDBRANCH  18  19
ENDBRANCH  17  18
ENDBRANCH   1  17
TORSDOF 26
ENDMDL
MODEL 4
REMARK VINA RESULT:    -4.010      2.308      7.148
REMARK INTER + INTRA:         -14.903
REMARK INTER:                  -9.382
REMARK INTRA:                  -5.521
REMARK UNBOUND:                -4.797
REMARK SMILES CCCCCCCCCCCCCCCCCCCCCCCCCCCC(=O)[O-]
REMARK SMILES IDX 15 1 16 2 17 3 18 4 19 5 20 6 21 7 22 8 23 9 24 10 25 11
REMARK SMILES IDX 26 12 27 13 28 14 29 15 30 16 14 17 13 18 12 19 11 20 10 21
REMARK SMILES IDX 9 22 8 23 7 24 6 25 5 26 4 27 3 28 2 29 1 30
REMARK H PARENT
REMARK Flexibility Score: inf
ROOT
ATOM      1  C   UNL     1      95.864  82.144  79.215  1.00  0.00     0.000 C 
ENDROOT
BRANCH   1   2
ATOM      2  C   UNL     1      95.246  83.407  78.596  1.00  0.00     0.000 C 
BRANCH   2   3
ATOM      3  C   UNL     1      96.279  84.277  77.858  1.00  0.00     0.000 C 
BRANCH   3   4
ATOM      4  C   UNL     1      96.469  85.650  78.536  1.00  0.00     0.000 C 
BRANCH   4   5
ATOM      5  C   UNL     1      97.589  85.670  79.588  1.00  0.00     0.000 C 
BRANCH   5   6
ATOM      6  C   UNL     1      97.133  86.244  80.940  1.00  0.00     0.000 C 
BRANCH   6   7
ATOM      7  C   UNL     1      97.090  85.169  82.040  1.00  0.00     0.000 C 
BRANCH   7   8
ATOM      8  C   UNL     1      95.749  84.417  82.059  1.00  0.00     0.000 C 
BRANCH   8   9
ATOM      9  C   UNL     1      95.640  83.416  83.223  1.00  0.00     0.000 C 
BRANCH   9  10
ATOM     10  C   UNL     1      95.551  84.049  84.628  1.00  0.00     0.000 C 
BRANCH  10  11
ATOM     11  C   UNL     1      94.146  84.049  85.258  1.00  0.00     0.000 C 
BRANCH  11  12
ATOM     12  C   UNL     1      93.189  83.048  84.588  1.00  0.00     0.006 C 
BRANCH  12  13
ATOM     13  C   UNL     1      91.803  83.657  84.336  1.00  0.00     0.053 C 
BRANCH  13  14
ATOM     14  C   UNL     1      91.830  84.647  83.211  1.00  0.00     0.041 C 
ATOM     15  O   UNL     1      92.284  84.315  82.085  1.00  0.00    -0.550 OA
ATOM     16  O   UNL     1      91.387  85.948  83.418  1.00  0.00    -0.550 OA
ENDBRANCH  13  14
ENDBRANCH  12  13
ENDBRANCH  11  12
ENDBRANCH  10  11
ENDBRANCH   9  10
ENDBRANCH   8   9
ENDBRANCH   7   8
ENDBRANCH   6   7
ENDBRANCH   5   6
ENDBRANCH   4   5
ENDBRANCH   3   4
ENDBRANCH   2   3
ENDBRANCH   1   2
BRANCH   1  17
ATOM     17  C   UNL     1      97.381  82.057  78.994  1.00  0.00     0.000 C 
BRANCH  17  18
ATOM     18  C   UNL     1      98.124  81.865  80.325  1.00  0.00     0.000 C 
BRANCH  18  19
ATOM     19  C   UNL     1      99.495  82.574  80.336  1.00  0.00     0.000 C 
BRANCH  19  20
ATOM     20  C   UNL     1     100.104  82.730  81.740  1.00  0.00     0.000 C 
BRANCH  20  21
ATOM     21  C   UNL     1      99.164  82.247  82.857  1.00  0.00     0.000 C 
BRANCH  21  22
ATOM     22  C   UNL     1      99.792  82.355  84.259  1.00  0.00    -0.000 C 
BRANCH  22  23
ATOM     23  C   UNL     1      99.143  83.397  85.188  1.00  0.00    -0.000 C 
BRANCH  23  24
ATOM     24  C   UNL     1      99.568  84.840  84.861  1.00  0.00    -0.000 C 
BRANCH  24  25
ATOM     25  C   UNL     1     101.086  84.977  84.660  1.00  0.00    -0.000 C 
BRANCH  25  26
ATOM     26  C   UNL     1     101.458  86.082  83.658  1.00  0.00    -0.000 C 
BRANCH  26  27
ATOM     27  C   UNL     1     100.344  86.354  82.629  1.00  0.00    -0.000 C 
BRANCH  27  28
ATOM     28  C   UNL     1     100.833  86.891  81.272  1.00  0.00    -0.000 C 
BRANCH  28  29
ATOM     29  C   UNL     1     101.331  85.782  80.334  1.00  0.00    -0.003 C 
ATOM     30  C   UNL     1     102.613  86.201  79.619  1.00  0.00     0.004 C 
ENDBRANCH  28  29
ENDBRANCH  27  28
ENDBRANCH  26  27
ENDBRANCH  25  26
ENDBRANCH  24  25
ENDBRANCH  23  24
ENDBRANCH  22  23
ENDBRANCH  21  22
ENDBRANCH  20  21
ENDBRANCH  19  20
ENDBRANCH  18  19
ENDBRANCH  17  18
ENDBRANCH   1  17
TORSDOF 26
ENDMDL
MODEL 5
REMARK VINA RESULT:    -4.004      1.415      2.856
REMARK INTER + INTRA:         -14.887
REMARK INTER:                  -9.816
REMARK INTRA:                  -5.071
REMARK UNBOUND:                -4.797
REMARK SMILES CCCCCCCCCCCCCCCCCCCCCCCCCCCC(=O)[O-]
REMARK SMILES IDX 15 1 16 2 17 3 18 4 19 5 20 6 21 7 22 8 23 9 24 10 25 11
REMARK SMILES IDX 26 12 27 13 28 14 29 15 30 16 14 17 13 18 12 19 11 20 10 21
REMARK SMILES IDX 9 22 8 23 7 24 6 25 5 26 4 27 3 28 2 29 1 30
REMARK H PARENT
REMARK Flexibility Score: inf
ROOT
ATOM      1  C   UNL     1      98.852  81.998  79.796  1.00  0.00     0.000 C 
ENDROOT
BRANCH   1   2
ATOM      2  C   UNL     1      98.869  82.138  81.326  1.00  0.00     0.000 C 
BRANCH   2   3
ATOM      3  C   UNL     1     100.055  82.977  81.835  1.00  0.00     0.000 C 
BRANCH   3   4
ATOM      4  C   UNL     1     101.096  83.240  80.726  1.00  0.00     0.000 C 
BRANCH   4   5
ATOM      5  C   UNL     1     101.432  84.727  80.535  1.00  0.00     0.000 C 
BRANCH   5   6
ATOM      6  C   UNL     1     101.921  85.403  81.827  1.00  0.00     0.000 C 
BRANCH   6   7
ATOM      7  C   UNL     1     101.331  86.814  82.000  1.00  0.00     0.000 C 
BRANCH   7   8
ATOM      8  C   UNL     1     100.281  87.136  80.923  1.00  0.00     0.000 C 
BRANCH   8   9
ATOM      9  C   UNL     1      99.140  88.026  81.448  1.00  0.00     0.000 C 
BRANCH   9  10
ATOM     10  C   UNL     1      97.753  87.352  81.501  1.00  0.00     0.000 C 
BRANCH  10  11
ATOM     11  C   UNL     1      97.729  85.868  81.091  1.00  0.00     0.000 C 
BRANCH  11  12
ATOM     12  C   UNL     1      96.866  85.003  82.026  1.00  0.00     0.006 C 
BRANCH  12  13
ATOM     13  C   UNL     1      97.423  84.968  83.456  1.00  0.00     0.053 C 
BRANCH  13  14
ATOM     14  C   UNL     1      97.006  83.725  84.181  1.00  0.00     0.041 C 
ATOM     15  O   UNL     1      95.812  83.329  84.126  1.00  0.00    -0.550 OA
ATOM     16  O   UNL     1      97.929  83.023  84.947  1.00  0.00    -0.550 OA
ENDBRANCH  13  14
ENDBRANCH  12  13
ENDBRANCH  11  12
ENDBRANCH  10  11
ENDBRANCH   9  10
ENDBRANCH   8   9
ENDBRANCH   7   8
ENDBRANCH   6   7
ENDBRANCH   5   6
ENDBRANCH   4   5
ENDBRANCH   3   4
ENDBRANCH   2   3
ENDBRANCH   1   2
BRANCH   1  17
ATOM     17  C   UNL     1      97.432  82.041  79.214  1.00  0.00     0.000 C 
BRANCH  17  18
ATOM     18  C   UNL     1      97.145  83.398  78.554  1.00  0.00     0.000 C 
BRANCH  18  19
ATOM     19  C   UNL     1      95.671  83.829  78.721  1.00  0.00     0.000 C 
BRANCH  19  20
ATOM     20  C   UNL     1      95.000  84.270  77.409  1.00  0.00     0.000 C 
BRANCH  20  21
ATOM     21  C   UNL     1      94.573  85.746  77.421  1.00  0.00     0.000 C 
BRANCH  21  22
ATOM     22  C   UNL     1      95.286  86.568  78.510  1.00  0.00    -0.000 C 
BRANCH  22  23
ATOM     23  C   UNL     1      94.356  87.389  79.424  1.00  0.00    -0.000 C 
BRANCH  23  24
ATOM     24  C   UNL     1      93.845  86.587  80.635  1.00  0.00    -0.000 C 
BRANCH  24  25
ATOM     25  C   UNL     1      92.416  86.059  80.432  1.00  0.00    -0.000 C 
BRANCH  25  26
ATOM     26  C   UNL     1      92.359  84.527  80.308  1.00  0.00    -0.000 C 
BRANCH  26  27
ATOM     27  C   UNL     1      91.236  84.046  79.371  1.00  0.00    -0.000 C 
BRANCH  27  28
ATOM     28  C   UNL     1      91.694  83.115  78.235  1.00  0.00    -0.000 C 
BRANCH  28  29
ATOM     29  C   UNL     1      91.353  83.659  76.841  1.00  0.00    -0.003 C 
ATOM     30  C   UNL     1      90.069  84.483  76.872  1.00  0.00     0.004 C 
ENDBRANCH  28  29
ENDBRANCH  27  28
ENDBRANCH  26  27
ENDBRANCH  25  26
ENDBRANCH  24  25
ENDBRANCH  23  24
ENDBRANCH  22  23
ENDBRANCH  21  22
ENDBRANCH  20  21
ENDBRANCH  19  20
ENDBRANCH  18  19
ENDBRANCH  17  18
ENDBRANCH   1  17
TORSDOF 26
ENDMDL
MODEL 6
REMARK VINA RESULT:    -3.963      2.879      7.065
REMARK INTER + INTRA:         -14.783
REMARK INTER:                  -9.679
REMARK INTRA:                  -5.104
REMARK UNBOUND:                -4.797
REMARK SMILES CCCCCCCCCCCCCCCCCCCCCCCCCCCC(=O)[O-]
REMARK SMILES IDX 15 1 16 2 17 3 18 4 19 5 20 6 21 7 22 8 23 9 24 10 25 11
REMARK SMILES IDX 26 12 27 13 28 14 29 15 30 16 14 17 13 18 12 19 11 20 10 21
REMARK SMILES IDX 9 22 8 23 7 24 6 25 5 26 4 27 3 28 2 29 1 30
REMARK H PARENT
REMARK Flexibility Score: inf
ROOT
ATOM      1  C   UNL     1      97.983  83.618  83.718  1.00  0.00     0.000 C 
ENDROOT
BRANCH   1   2
ATOM      2  C   UNL     1      97.523  84.853  82.928  1.00  0.00     0.000 C 
BRANCH   2   3
ATOM      3  C   UNL     1      96.061  84.751  82.458  1.00  0.00     0.000 C 
BRANCH   3   4
ATOM      4  C   UNL     1      95.515  83.312  82.574  1.00  0.00     0.000 C 
BRANCH   4   5
ATOM      5  C   UNL     1      94.381  83.164  83.600  1.00  0.00     0.000 C 
BRANCH   5   6
ATOM      6  C   UNL     1      94.022  84.489  84.294  1.00  0.00     0.000 C 
BRANCH   6   7
ATOM      7  C   UNL     1      92.568  84.909  84.022  1.00  0.00     0.000 C 
BRANCH   7   8
ATOM      8  C   UNL     1      91.741  83.764  83.412  1.00  0.00     0.000 C 
BRANCH   8   9
ATOM      9  C   UNL     1      91.008  84.176  82.123  1.00  0.00     0.000 C 
BRANCH   9  10
ATOM     10  C   UNL     1      91.774  85.164  81.218  1.00  0.00     0.000 C 
BRANCH  10  11
ATOM     11  C   UNL     1      92.838  84.527  80.306  1.00  0.00     0.000 C 
BRANCH  11  12
ATOM     12  C   UNL     1      92.436  84.535  78.821  1.00  0.00     0.006 C 
BRANCH  12  13
ATOM     13  C   UNL     1      91.534  83.347  78.461  1.00  0.00     0.053 C 
BRANCH  13  14
ATOM     14  C   UNL     1      90.491  83.729  77.455  1.00  0.00     0.041 C 
ATOM     15  O   UNL     1      89.290  83.394  77.628  1.00  0.00    -0.550 OA
ATOM     16  O   UNL     1      90.852  84.427  76.308  1.00  0.00    -0.550 OA
ENDBRANCH  13  14
ENDBRANCH  12  13
ENDBRANCH  11  12
ENDBRANCH  10  11
ENDBRANCH   9  10
ENDBRANCH   8   9
ENDBRANCH   7   8
ENDBRANCH   6   7
ENDBRANCH   5   6
ENDBRANCH   4   5
ENDBRANCH   3   4
ENDBRANCH   2   3
ENDBRANCH   1   2
BRANCH   1  17
ATOM     17  C   UNL     1      99.325  83.063  83.221  1.00  0.00     0.000 C 
BRANCH  17  18
ATOM     18  C   UNL     1      99.426  83.144  81.691  1.00  0.00     0.000 C 
BRANCH  18  19
ATOM     19  C   UNL     1      98.832  81.898  80.999  1.00  0.00     0.000 C 
BRANCH  19  20
ATOM     20  C   UNL     1      98.203  82.189  79.627  1.00  0.00     0.000 C 
BRANCH  20  21
ATOM     21  C   UNL     1      96.738  81.734  79.531  1.00  0.00     0.000 C 
BRANCH  21  22
ATOM     22  C   UNL     1      95.827  82.779  78.860  1.00  0.00    -0.000 C 
BRANCH  22  23
ATOM     23  C   UNL     1      96.562  83.969  78.215  1.00  0.00    -0.000 C 
BRANCH  23  24
ATOM     24  C   UNL     1      96.010  85.333  78.669  1.00  0.00    -0.000 C 
BRANCH  24  25
ATOM     25  C   UNL     1      97.123  86.349  78.969  1.00  0.00    -0.000 C 
BRANCH  25  26
ATOM     26  C   UNL     1      98.409  85.688  79.494  1.00  0.00    -0.000 C 
BRANCH  26  27
ATOM     27  C   UNL     1      99.625  86.631  79.453  1.00  0.00    -0.000 C 
BRANCH  27  28
ATOM     28  C   UNL     1     100.108  87.126  80.828  1.00  0.00    -0.000 C 
BRANCH  28  29
ATOM     29  C   UNL     1     101.279  86.303  81.382  1.00  0.00    -0.003 C 
ATOM     30  C   UNL     1     101.991  85.539  80.268  1.00  0.00     0.004 C 
ENDBRANCH  28  29
ENDBRANCH  27  28
ENDBRANCH  26  27
ENDBRANCH  25  26
ENDBRANCH  24  25
ENDBRANCH  23  24
ENDBRANCH  22  23
ENDBRANCH  21  22
ENDBRANCH  20  21
ENDBRANCH  19  20
ENDBRANCH  18  19
ENDBRANCH  17  18
ENDBRANCH   1  17
TORSDOF 26
ENDMDL
MODEL 7
REMARK VINA RESULT:    -3.953      2.033      3.443
REMARK INTER + INTRA:         -14.757
REMARK INTER:                  -9.965
REMARK INTRA:                  -4.792
REMARK UNBOUND:                -4.797
REMARK SMILES CCCCCCCCCCCCCCCCCCCCCCCCCCCC(=O)[O-]
REMARK SMILES IDX 15 1 16 2 17 3 18 4 19 5 20 6 21 7 22 8 23 9 24 10 25 11
REMARK SMILES IDX 26 12 27 13 28 14 29 15 30 16 14 17 13 18 12 19 11 20 10 21
REMARK SMILES IDX 9 22 8 23 7 24 6 25 5 26 4 27 3 28 2 29 1 30
REMARK H PARENT
REMARK Flexibility Score: inf
ROOT
ATOM      1  C   UNL     1      98.190  82.657  79.497  1.00  0.00     0.000 C 
ENDROOT
BRANCH   1   2
ATOM      2  C   UNL     1      99.409  82.361  80.383  1.00  0.00     0.000 C 
BRANCH   2   3
ATOM      3  C   UNL     1      99.043  82.214  81.871  1.00  0.00     0.000 C 
BRANCH   3   4
ATOM      4  C   UNL     1     100.113  82.835  82.794  1.00  0.00     0.000 C 
BRANCH   4   5
ATOM      5  C   UNL     1      99.538  83.445  84.082  1.00  0.00     0.000 C 
BRANCH   5   6
ATOM      6  C   UNL     1      98.164  82.865  84.460  1.00  0.00     0.000 C 
BRANCH   6   7
ATOM      7  C   UNL     1      97.070  83.946  84.498  1.00  0.00     0.000 C 
BRANCH   7   8
ATOM      8  C   UNL     1      95.868  83.581  83.612  1.00  0.00     0.000 C 
BRANCH   8   9
ATOM      9  C   UNL     1      95.733  84.496  82.381  1.00  0.00     0.000 C 
BRANCH   9  10
ATOM     10  C   UNL     1      97.033  85.203  81.941  1.00  0.00     0.000 C 
BRANCH  10  11
ATOM     11  C   UNL     1      96.916  86.052  80.662  1.00  0.00     0.000 C 
BRANCH  11  12
ATOM     12  C   UNL     1      98.280  86.357  80.020  1.00  0.00     0.006 C 
BRANCH  12  13
ATOM     13  C   UNL     1      99.445  86.057  80.973  1.00  0.00     0.053 C 
BRANCH  13  14
ATOM     14  C   UNL     1     100.742  85.921  80.234  1.00  0.00     0.041 C 
ATOM     15  O   UNL     1     100.924  86.538  79.152  1.00  0.00    -0.550 OA
ATOM     16  O   UNL     1     101.738  85.084  80.724  1.00  0.00    -0.550 OA
ENDBRANCH  13  14
ENDBRANCH  12  13
ENDBRANCH  11  12
ENDBRANCH  10  11
ENDBRANCH   9  10
ENDBRANCH   8   9
ENDBRANCH   7   8
ENDBRANCH   6   7
ENDBRANCH   5   6
ENDBRANCH   4   5
ENDBRANCH   3   4
ENDBRANCH   2   3
ENDBRANCH   1   2
BRANCH   1  17
ATOM     17  C   UNL     1      96.930  81.905  79.949  1.00  0.00     0.000 C 
BRANCH  17  18
ATOM     18  C   UNL     1      95.812  82.016  78.902  1.00  0.00     0.000 C 
BRANCH  18  19
ATOM     19  C   UNL     1      95.045  83.352  79.007  1.00  0.00     0.000 C 
BRANCH  19  20
ATOM     20  C   UNL     1      95.214  84.264  77.780  1.00  0.00     0.000 C 
BRANCH  20  21
ATOM     21  C   UNL     1      93.873  84.688  77.159  1.00  0.00     0.000 C 
BRANCH  21  22
ATOM     22  C   UNL     1      92.874  83.523  77.037  1.00  0.00    -0.000 C 
BRANCH  22  23
ATOM     23  C   UNL     1      91.437  83.844  77.489  1.00  0.00    -0.000 C 
BRANCH  23  24
ATOM     24  C   UNL     1      91.133  83.354  78.916  1.00  0.00    -0.000 C 
BRANCH  24  25
ATOM     25  C   UNL     1      90.850  84.509  79.890  1.00  0.00    -0.000 C 
BRANCH  25  26
ATOM     26  C   UNL     1      92.073  84.881  80.744  1.00  0.00    -0.000 C 
BRANCH  26  27
ATOM     27  C   UNL     1      92.048  84.230  82.139  1.00  0.00    -0.000 C 
BRANCH  27  28
ATOM     28  C   UNL     1      90.654  83.795  82.626  1.00  0.00    -0.000 C 
BRANCH  28  29
ATOM     29  C   UNL     1      89.957  84.865  83.478  1.00  0.00    -0.003 C 
ATOM     30  C   UNL     1      90.160  84.600  84.967  1.00  0.00     0.004 C 
ENDBRANCH  28  29
ENDBRANCH  27  28
ENDBRANCH  26  27
ENDBRANCH  25  26
ENDBRANCH  24  25
ENDBRANCH  23  24
ENDBRANCH  22  23
ENDBRANCH  21  22
ENDBRANCH  20  21
ENDBRANCH  19  20
ENDBRANCH  18  19
ENDBRANCH  17  18
ENDBRANCH   1  17
TORSDOF 26
ENDMDL
MODEL 8
REMARK VINA RESULT:    -3.948      2.622      6.808
REMARK INTER + INTRA:         -14.745
REMARK INTER:                  -9.312
REMARK INTRA:                  -5.433
REMARK UNBOUND:                -4.797
REMARK SMILES CCCCCCCCCCCCCCCCCCCCCCCCCCCC(=O)[O-]
REMARK SMILES IDX 15 1 16 2 17 3 18 4 19 5 20 6 21 7 22 8 23 9 24 10 25 11
REMARK SMILES IDX 26 12 27 13 28 14 29 15 30 16 14 17 13 18 12 19 11 20 10 21
REMARK SMILES IDX 9 22 8 23 7 24 6 25 5 26 4 27 3 28 2 29 1 30
REMARK H PARENT
REMARK Flexibility Score: inf
ROOT
ATOM      1  C   UNL     1      98.865  86.046  82.584  1.00  0.00     0.000 C 
ENDROOT
BRANCH   1   2
ATOM      2  C   UNL     1      99.349  86.344  84.011  1.00  0.00     0.000 C 
BRANCH   2   3
ATOM      3  C   UNL     1     100.600  85.535  84.398  1.00  0.00     0.000 C 
BRANCH   3   4
ATOM      4  C   UNL     1     100.288  84.460  85.461  1.00  0.00     0.000 C 
BRANCH   4   5
ATOM      5  C   UNL     1     100.061  83.058  84.873  1.00  0.00     0.000 C 
BRANCH   5   6
ATOM      6  C   UNL     1      98.585  82.777  84.545  1.00  0.00     0.000 C 
BRANCH   6   7
ATOM      7  C   UNL     1      97.633  83.406  85.578  1.00  0.00     0.000 C 
BRANCH   7   8
ATOM      8  C   UNL     1      96.362  83.969  84.922  1.00  0.00     0.000 C 
BRANCH   8   9
ATOM      9  C   UNL     1      96.336  83.769  83.396  1.00  0.00     0.000 C 
BRANCH   9  10
ATOM     10  C   UNL     1      95.022  83.191  82.831  1.00  0.00     0.000 C 
BRANCH  10  11
ATOM     11  C   UNL     1      93.938  84.232  82.497  1.00  0.00     0.000 C 
BRANCH  11  12
ATOM     12  C   UNL     1      94.364  85.204  81.384  1.00  0.00     0.006 C 
BRANCH  12  13
ATOM     13  C   UNL     1      94.435  84.516  80.014  1.00  0.00     0.053 C 
BRANCH  13  14
ATOM     14  C   UNL     1      93.226  84.817  79.181  1.00  0.00     0.041 C 
ATOM     15  O   UNL     1      92.097  84.941  79.723  1.00  0.00    -0.550 OA
ATOM     16  O   UNL     1      93.341  84.925  77.800  1.00  0.00    -0.550 OA
ENDBRANCH  13  14
ENDBRANCH  12  13
ENDBRANCH  11  12
ENDBRANCH  10  11
ENDBRANCH   9  10
ENDBRANCH   8   9
ENDBRANCH   7   8
ENDBRANCH   6   7
ENDBRANCH   5   6
ENDBRANCH   4   5
ENDBRANCH   3   4
ENDBRANCH   2   3
ENDBRANCH   1   2
BRANCH   1  17
ATOM     17  C   UNL     1      98.175  87.251  81.928  1.00  0.00     0.000 C 
BRANCH  17  18
ATOM     18  C   UNL     1      97.496  86.850  80.610  1.00  0.00     0.000 C 
BRANCH  18  19
ATOM     19  C   UNL     1      98.486  86.210  79.614  1.00  0.00     0.000 C 
BRANCH  19  20
ATOM     20  C   UNL     1      99.037  87.193  78.567  1.00  0.00     0.000 C 
BRANCH  20  21
ATOM     21  C   UNL     1     100.380  87.817  78.979  1.00  0.00     0.000 C 
BRANCH  21  22
ATOM     22  C   UNL     1     101.472  86.767  79.251  1.00  0.00    -0.000 C 
BRANCH  22  23
ATOM     23  C   UNL     1     102.076  86.802  80.668  1.00  0.00    -0.000 C 
BRANCH  23  24
ATOM     24  C   UNL     1     102.200  85.405  81.302  1.00  0.00    -0.000 C 
BRANCH  24  25
ATOM     25  C   UNL     1     101.540  84.310  80.451  1.00  0.00    -0.000 C 
BRANCH  25  26
ATOM     26  C   UNL     1     100.745  83.298  81.294  1.00  0.00    -0.000 C 
BRANCH  26  27
ATOM     27  C   UNL     1      99.931  82.314  80.434  1.00  0.00    -0.000 C 
BRANCH  27  28
ATOM     28  C   UNL     1      98.419  82.298  80.723  1.00  0.00    -0.000 C 
BRANCH  28  29
ATOM     29  C   UNL     1      97.567  82.511  79.464  1.00  0.00    -0.003 C 
ATOM     30  C   UNL     1      96.434  81.491  79.388  1.00  0.00     0.004 C 
ENDBRANCH  28  29
ENDBRANCH  27  28
ENDBRANCH  26  27
ENDBRANCH  25  26
ENDBRANCH  24  25
ENDBRANCH  23  24
ENDBRANCH  22  23
ENDBRANCH  21  22
ENDBRANCH  20  21
ENDBRANCH  19  20
ENDBRANCH  18  19
ENDBRANCH  17  18
ENDBRANCH   1  17
TORSDOF 26
ENDMDL
MODEL 9
REMARK VINA RESULT:    -3.932      1.517      7.149
REMARK INTER + INTRA:         -14.706
REMARK INTER:                  -9.882
REMARK INTRA:                  -4.824
REMARK UNBOUND:                -4.797
REMARK SMILES CCCCCCCCCCCCCCCCCCCCCCCCCCCC(=O)[O-]
REMARK SMILES IDX 15 1 16 2 17 3 18 4 19 5 20 6 21 7 22 8 23 9 24 10 25 11
REMARK SMILES IDX 26 12 27 13 28 14 29 15 30 16 14 17 13 18 12 19 11 20 10 21
REMARK SMILES IDX 9 22 8 23 7 24 6 25 5 26 4 27 3 28 2 29 1 30
REMARK H PARENT
REMARK Flexibility Score: inf
ROOT
ATOM      1  C   UNL     1      97.167  81.973  79.951  1.00  0.00     0.000 C 
ENDROOT
BRANCH   1   2
ATOM      2  C   UNL     1      96.010  82.726  79.277  1.00  0.00     0.000 C 
BRANCH   2   3
ATOM      3  C   UNL     1      96.493  83.873  78.371  1.00  0.00     0.000 C 
BRANCH   3   4
ATOM      4  C   UNL     1      95.629  85.142  78.533  1.00  0.00     0.000 C 
BRANCH   4   5
ATOM      5  C   UNL     1      94.980  85.618  77.224  1.00  0.00     0.000 C 
BRANCH   5   6
ATOM      6  C   UNL     1      94.053  84.563  76.596  1.00  0.00     0.000 C 
BRANCH   6   7
ATOM      7  C   UNL     1      92.665  84.545  77.259  1.00  0.00     0.000 C 
BRANCH   7   8
ATOM      8  C   UNL     1      92.476  83.320  78.168  1.00  0.00     0.000 C 
BRANCH   8   9
ATOM      9  C   UNL     1      91.008  83.096  78.573  1.00  0.00     0.000 C 
BRANCH   9  10
ATOM     10  C   UNL     1      90.139  84.370  78.630  1.00  0.00     0.000 C 
BRANCH  10  11
ATOM     11  C   UNL     1      89.821  84.883  80.046  1.00  0.00     0.000 C 
BRANCH  11  12
ATOM     12  C   UNL     1      90.246  83.899  81.149  1.00  0.00     0.006 C 
BRANCH  12  13
ATOM     13  C   UNL     1      90.969  84.605  82.304  1.00  0.00     0.053 C 
BRANCH  13  14
ATOM     14  C   UNL     1      92.452  84.410  82.228  1.00  0.00     0.041 C 
ATOM     15  O   UNL     1      93.055  83.768  83.129  1.00  0.00    -0.550 OA
ATOM     16  O   UNL     1      93.176  84.967  81.181  1.00  0.00    -0.550 OA
ENDBRANCH  13  14
ENDBRANCH  12  13
ENDBRANCH  11  12
ENDBRANCH  10  11
ENDBRANCH   9  10
ENDBRANCH   8   9
ENDBRANCH   7   8
ENDBRANCH   6   7
ENDBRANCH   5   6
ENDBRANCH   4   5
ENDBRANCH   3   4
ENDBRANCH   2   3
ENDBRANCH   1   2
BRANCH   1  17
ATOM     17  C   UNL     1      98.542  82.394  79.414  1.00  0.00     0.000 C 
BRANCH  17  18
ATOM     18  C   UNL     1      99.614  82.308  80.511  1.00  0.00     0.000 C 
BRANCH  18  19
ATOM     19  C   UNL     1      99.004  82.054  81.906  1.00  0.00     0.000 C 
BRANCH  19  20
ATOM     20  C   UNL     1      99.889  82.535  83.069  1.00  0.00     0.000 C 
BRANCH  20  21
ATOM     21  C   UNL     1      99.078  83.122  84.235  1.00  0.00     0.000 C 
BRANCH  21  22
ATOM     22  C   UNL     1      97.561  83.121  83.973  1.00  0.00    -0.000 C 
BRANCH  22  23
ATOM     23  C   UNL     1      96.930  84.514  83.786  1.00  0.00    -0.000 C 
BRANCH  23  24
ATOM     24  C   UNL     1      96.541  84.805  82.326  1.00  0.00    -0.000 C 
BRANCH  24  25
ATOM     25  C   UNL     1      97.308  86.000  81.738  1.00  0.00    -0.000 C 
BRANCH  25  26
ATOM     26  C   UNL     1      98.818  85.736  81.614  1.00  0.00    -0.000 C 
BRANCH  26  27
ATOM     27  C   UNL     1      99.373  86.085  80.221  1.00  0.00    -0.000 C 
BRANCH  27  28
ATOM     28  C   UNL     1     100.847  85.704  79.996  1.00  0.00    -0.000 C 
BRANCH  28  29
ATOM     29  C   UNL     1     101.576  85.340  81.297  1.00  0.00    -0.003 C 
ATOM     30  C   UNL     1     102.459  86.490  81.774  1.00  0.00     0.004 C 
ENDBRANCH  28  29
ENDBRANCH  27  28
ENDBRANCH  26  27
ENDBRANCH  25  26
ENDBRANCH  24  25
ENDBRANCH  23  24
ENDBRANCH  22  23
ENDBRANCH  21  22
ENDBRANCH  20  21
ENDBRANCH  19  20
ENDBRANCH  18  19
ENDBRANCH  17  18
ENDBRANCH   1  17
TORSDOF 26
ENDMDL
