MODEL 1
REMARK VINA RESULT:    -8.117      0.000      0.000
REMARK INTER + INTRA:          -9.818
REMARK INTER:                  -9.540
REMARK INTRA:                  -0.278
REMARK UNBOUND:                -0.278
REMARK SMILES O=c1c(O)c(-c2ccc(O)cc2)oc2cc(O)cc(O)c12
REMARK SMILES IDX 5 1 3 2 2 3 1 4 21 5 19 6 18 7 16 8 15 9 14 10 13 11 6 12
REMARK SMILES IDX 7 13 8 14 9 15 12 16 11 17 10 18 4 20 20 22 17 24
REMARK H PARENT 10 19 4 21 20 23 17 25
REMARK Flexibility Score: inf
ROOT
ATOM      1  C   UNL     1      -2.692   0.202  10.205  1.00  0.00     0.180 A 
ATOM      2  C   UNL     1      -2.076  -0.217  11.397  1.00  0.00     0.208 A 
ATOM      3  C   UNL     1      -2.780  -1.066  12.266  1.00  0.00     0.238 A 
ATOM      4  O   UNL     1      -2.245  -1.395  13.356  1.00  0.00    -0.285 OA
ATOM      5  C   UNL     1      -4.085  -1.498  11.924  1.00  0.00     0.111 A 
ATOM      6  C   UNL     1      -4.875  -2.391  12.709  1.00  0.00     0.134 A 
ATOM      7  C   UNL     1      -6.201  -2.646  12.340  1.00  0.00     0.093 A 
ATOM      8  C   UNL     1      -6.744  -2.093  11.178  1.00  0.00     0.123 A 
ATOM      9  C   UNL     1      -5.962  -1.268  10.373  1.00  0.00     0.094 A 
ATOM     10  C   UNL     1      -4.647  -0.965  10.734  1.00  0.00     0.146 A 
ATOM     11  O   UNL     1      -3.940  -0.166   9.944  1.00  0.00    -0.452 OA
ENDROOT
BRANCH   1  12
ATOM     12  C   UNL     1      -2.003   1.077   9.228  1.00  0.00     0.021 A 
ATOM     13  C   UNL     1      -1.354   0.546   8.099  1.00  0.00     0.016 A 
ATOM     14  C   UNL     1      -0.732   1.394   7.177  1.00  0.00     0.047 A 
ATOM     15  C   UNL     1      -0.763   2.782   7.365  1.00  0.00     0.115 A 
ATOM     16  C   UNL     1      -2.046   2.471   9.398  1.00  0.00     0.016 A 
ATOM     17  C   UNL     1      -1.422   3.317   8.475  1.00  0.00     0.047 A 
BRANCH  15  18
ATOM     18  O   UNL     1      -0.145   3.636   6.454  1.00  0.00    -0.508 OA
ATOM     19  H   UNL     1      -0.581   4.502   6.160  1.00  0.00     0.293 HD
ENDBRANCH  15  18
ENDBRANCH   1  12
BRANCH   2  20
ATOM     20  O   UNL     1      -0.796   0.239  11.726  1.00  0.00    -0.502 OA
ATOM     21  H   UNL     1      -0.499   1.192  11.562  1.00  0.00     0.293 HD
ENDBRANCH   2  20
BRANCH   6  22
ATOM     22  O   UNL     1      -4.399  -3.068  13.836  1.00  0.00    -0.507 OA
ATOM     23  H   UNL     1      -4.270  -4.066  13.895  1.00  0.00     0.293 HD
ENDBRANCH   6  22
BRANCH   8  24
ATOM     24  O   UNL     1      -8.061  -2.365  10.810  1.00  0.00    -0.508 OA
ATOM     25  H   UNL     1      -8.608  -3.073  11.284  1.00  0.00     0.293 HD
ENDBRANCH   8  24
TORSDOF 5
ENDMDL
MODEL 2
REMARK VINA RESULT:    -8.067      1.744      2.913
REMARK INTER + INTRA:          -9.759
REMARK INTER:                  -9.504
REMARK INTRA:                  -0.255
REMARK UNBOUND:                -0.278
REMARK SMILES O=c1c(O)c(-c2ccc(O)cc2)oc2cc(O)cc(O)c12
REMARK SMILES IDX 5 1 3 2 2 3 1 4 21 5 19 6 18 7 16 8 15 9 14 10 13 11 6 12
REMARK SMILES IDX 7 13 8 14 9 15 12 16 11 17 10 18 4 20 20 22 17 24
REMARK H PARENT 10 19 4 21 20 23 17 25
REMARK Flexibility Score: inf
ROOT
ATOM      1  C   UNL     1      -3.493   0.419   9.904  1.00  0.00     0.180 A 
ATOM      2  C   UNL     1      -4.750   0.620  10.501  1.00  0.00     0.208 A 
ATOM      3  C   UNL     1      -5.263  -0.366  11.358  1.00  0.00     0.238 A 
ATOM      4  O   UNL     1      -6.411  -0.205  11.848  1.00  0.00    -0.285 OA
ATOM      5  C   UNL     1      -4.506  -1.533  11.622  1.00  0.00     0.111 A 
ATOM      6  C   UNL     1      -4.909  -2.579  12.506  1.00  0.00     0.134 A 
ATOM      7  C   UNL     1      -4.143  -3.748  12.589  1.00  0.00     0.093 A 
ATOM      8  C   UNL     1      -2.952  -3.880  11.870  1.00  0.00     0.123 A 
ATOM      9  C   UNL     1      -2.519  -2.841  11.049  1.00  0.00     0.094 A 
ATOM     10  C   UNL     1      -3.281  -1.677  10.918  1.00  0.00     0.146 A 
ATOM     11  O   UNL     1      -2.838  -0.716  10.118  1.00  0.00    -0.452 OA
ENDROOT
BRANCH   1  12
ATOM     12  C   UNL     1      -2.877   1.424   9.008  1.00  0.00     0.021 A 
ATOM     13  C   UNL     1      -1.851   2.275   9.457  1.00  0.00     0.016 A 
ATOM     14  C   UNL     1      -1.267   3.200   8.585  1.00  0.00     0.047 A 
ATOM     15  C   UNL     1      -1.690   3.275   7.252  1.00  0.00     0.115 A 
ATOM     16  C   UNL     1      -3.281   1.493   7.664  1.00  0.00     0.016 A 
ATOM     17  C   UNL     1      -2.696   2.419   6.795  1.00  0.00     0.047 A 
BRANCH  15  18
ATOM     18  O   UNL     1      -1.116   4.193   6.376  1.00  0.00    -0.508 OA
ATOM     19  H   UNL     1      -0.683   5.045   6.710  1.00  0.00     0.293 HD
ENDBRANCH  15  18
ENDBRANCH   1  12
BRANCH   2  20
ATOM     20  O   UNL     1      -5.491   1.770  10.211  1.00  0.00    -0.502 OA
ATOM     21  H   UNL     1      -6.286   2.060  10.767  1.00  0.00     0.293 HD
ENDBRANCH   2  20
BRANCH   6  22
ATOM     22  O   UNL     1      -6.031  -2.508  13.337  1.00  0.00    -0.507 OA
ATOM     23  H   UNL     1      -6.001  -2.520  14.345  1.00  0.00     0.293 HD
ENDBRANCH   6  22
BRANCH   8  24
ATOM     24  O   UNL     1      -2.187  -5.041  11.970  1.00  0.00    -0.508 OA
ATOM     25  H   UNL     1      -1.653  -5.393  11.185  1.00  0.00     0.293 HD
ENDBRANCH   8  24
TORSDOF 5
ENDMDL
MODEL 3
REMARK VINA RESULT:    -8.037      1.820      2.808
REMARK INTER + INTRA:          -9.725
REMARK INTER:                  -9.432
REMARK INTRA:                  -0.293
REMARK UNBOUND:                -0.278
REMARK SMILES O=c1c(O)c(-c2ccc(O)cc2)oc2cc(O)cc(O)c12
REMARK SMILES IDX 5 1 3 2 2 3 1 4 21 5 19 6 18 7 16 8 15 9 14 10 13 11 6 12
REMARK SMILES IDX 7 13 8 14 9 15 12 16 11 17 10 18 4 20 20 22 17 24
REMARK H PARENT 10 19 4 21 20 23 17 25
REMARK Flexibility Score: inf
ROOT
ATOM      1  C   UNL     1      -2.751   0.004   9.519  1.00  0.00     0.180 A 
ATOM      2  C   UNL     1      -3.005  -1.340   9.192  1.00  0.00     0.208 A 
ATOM      3  C   UNL     1      -3.490  -2.203  10.187  1.00  0.00     0.238 A 
ATOM      4  O   UNL     1      -3.664  -3.416   9.903  1.00  0.00    -0.285 OA
ATOM      5  C   UNL     1      -3.729  -1.709  11.492  1.00  0.00     0.111 A 
ATOM      6  C   UNL     1      -4.257  -2.484  12.569  1.00  0.00     0.134 A 
ATOM      7  C   UNL     1      -4.330  -1.927  13.851  1.00  0.00     0.093 A 
ATOM      8  C   UNL     1      -3.955  -0.601  14.082  1.00  0.00     0.123 A 
ATOM      9  C   UNL     1      -3.494   0.182  13.026  1.00  0.00     0.094 A 
ATOM     10  C   UNL     1      -3.377  -0.357  11.743  1.00  0.00     0.146 A 
ATOM     11  O   UNL     1      -2.923   0.421  10.767  1.00  0.00    -0.452 OA
ENDROOT
BRANCH   1  12
ATOM     12  C   UNL     1      -2.263   0.979   8.517  1.00  0.00     0.021 A 
ATOM     13  C   UNL     1      -3.153   1.784   7.783  1.00  0.00     0.016 A 
ATOM     14  C   UNL     1      -2.668   2.716   6.860  1.00  0.00     0.047 A 
ATOM     15  C   UNL     1      -1.288   2.865   6.670  1.00  0.00     0.115 A 
ATOM     16  C   UNL     1      -0.881   1.150   8.334  1.00  0.00     0.016 A 
ATOM     17  C   UNL     1      -0.398   2.082   7.410  1.00  0.00     0.047 A 
BRANCH  15  18
ATOM     18  O   UNL     1      -0.793   3.789   5.753  1.00  0.00    -0.508 OA
ATOM     19  H   UNL     1      -0.387   4.667   6.052  1.00  0.00     0.293 HD
ENDBRANCH  15  18
ENDBRANCH   1  12
BRANCH   2  20
ATOM     20  O   UNL     1      -2.742  -1.812   7.903  1.00  0.00    -0.502 OA
ATOM     21  H   UNL     1      -2.881  -1.245   7.076  1.00  0.00     0.293 HD
ENDBRANCH   2  20
BRANCH   6  22
ATOM     22  O   UNL     1      -4.746  -3.786  12.426  1.00  0.00    -0.507 OA
ATOM     23  H   UNL     1      -5.358  -4.246  13.082  1.00  0.00     0.293 HD
ENDBRANCH   6  22
BRANCH   8  24
ATOM     24  O   UNL     1      -4.045  -0.049  15.359  1.00  0.00    -0.508 OA
ATOM     25  H   UNL     1      -4.422   0.879  15.509  1.00  0.00     0.293 HD
ENDBRANCH   8  24
TORSDOF 5
ENDMDL
MODEL 4
REMARK VINA RESULT:    -7.456      1.797      1.842
REMARK INTER + INTRA:          -9.041
REMARK INTER:                  -8.748
REMARK INTRA:                  -0.294
REMARK UNBOUND:                -0.278
REMARK SMILES O=c1c(O)c(-c2ccc(O)cc2)oc2cc(O)cc(O)c12
REMARK SMILES IDX 5 1 3 2 2 3 1 4 21 5 19 6 18 7 16 8 15 9 14 10 13 11 6 12
REMARK SMILES IDX 7 13 8 14 9 15 12 16 11 17 10 18 4 20 20 22 17 24
REMARK H PARENT 10 19 4 21 20 23 17 25
REMARK Flexibility Score: inf
ROOT
ATOM      1  C   UNL     1      -2.253   0.427   9.504  1.00  0.00     0.180 A 
ATOM      2  C   UNL     1      -2.166   0.660  10.887  1.00  0.00     0.208 A 
ATOM      3  C   UNL     1      -2.617  -0.330  11.775  1.00  0.00     0.238 A 
ATOM      4  O   UNL     1      -2.586  -0.094  13.011  1.00  0.00    -0.285 OA
ATOM      5  C   UNL     1      -3.133  -1.547  11.269  1.00  0.00     0.111 A 
ATOM      6  C   UNL     1      -3.582  -2.636  12.076  1.00  0.00     0.134 A 
ATOM      7  C   UNL     1      -4.195  -3.739  11.470  1.00  0.00     0.093 A 
ATOM      8  C   UNL     1      -4.317  -3.821  10.081  1.00  0.00     0.123 A 
ATOM      9  C   UNL     1      -3.830  -2.791   9.281  1.00  0.00     0.094 A 
ATOM     10  C   UNL     1      -3.245  -1.661   9.858  1.00  0.00     0.146 A 
ATOM     11  O   UNL     1      -2.803  -0.697   9.060  1.00  0.00    -0.452 OA
ENDROOT
BRANCH   1  12
ATOM     12  C   UNL     1      -1.775   1.413   8.507  1.00  0.00     0.021 A 
ATOM     13  C   UNL     1      -0.464   1.366   8.000  1.00  0.00     0.016 A 
ATOM     14  C   UNL     1      -0.043   2.293   7.041  1.00  0.00     0.047 A 
ATOM     15  C   UNL     1      -0.932   3.267   6.567  1.00  0.00     0.115 A 
ATOM     16  C   UNL     1      -2.665   2.380   8.011  1.00  0.00     0.016 A 
ATOM     17  C   UNL     1      -2.241   3.306   7.052  1.00  0.00     0.047 A 
BRANCH  15  18
ATOM     18  O   UNL     1      -0.523   4.196   5.612  1.00  0.00    -0.508 OA
ATOM     19  H   UNL     1      -1.028   5.061   5.465  1.00  0.00     0.293 HD
ENDBRANCH  15  18
ENDBRANCH   1  12
BRANCH   2  20
ATOM     20  O   UNL     1      -1.673   1.877  11.366  1.00  0.00    -0.502 OA
ATOM     21  H   UNL     1      -1.028   1.935  12.144  1.00  0.00     0.293 HD
ENDBRANCH   2  20
BRANCH   6  22
ATOM     22  O   UNL     1      -3.423  -2.694  13.464  1.00  0.00    -0.507 OA
ATOM     23  H   UNL     1      -3.369  -3.546  14.002  1.00  0.00     0.293 HD
ENDBRANCH   6  22
BRANCH   8  24
ATOM     24  O   UNL     1      -4.915  -4.930   9.485  1.00  0.00    -0.508 OA
ATOM     25  H   UNL     1      -5.907  -4.950   9.279  1.00  0.00     0.293 HD
ENDBRANCH   8  24
TORSDOF 5
ENDMDL
MODEL 5
REMARK VINA RESULT:    -7.335      1.654      3.260
REMARK INTER + INTRA:          -8.899
REMARK INTER:                  -8.673
REMARK INTRA:                  -0.227
REMARK UNBOUND:                -0.278
REMARK SMILES O=c1c(O)c(-c2ccc(O)cc2)oc2cc(O)cc(O)c12
REMARK SMILES IDX 5 1 3 2 2 3 1 4 21 5 19 6 18 7 16 8 15 9 14 10 13 11 6 12
REMARK SMILES IDX 7 13 8 14 9 15 12 16 11 17 10 18 4 20 20 22 17 24
REMARK H PARENT 10 19 4 21 20 23 17 25
REMARK Flexibility Score: inf
ROOT
ATOM      1  C   UNL     1      -4.047  -0.422   9.218  1.00  0.00     0.180 A 
ATOM      2  C   UNL     1      -5.030  -1.285   8.701  1.00  0.00     0.208 A 
ATOM      3  C   UNL     1      -5.771  -2.082   9.587  1.00  0.00     0.238 A 
ATOM      4  O   UNL     1      -6.612  -2.891   9.115  1.00  0.00    -0.285 OA
ATOM      5  C   UNL     1      -5.532  -1.996  10.980  1.00  0.00     0.111 A 
ATOM      6  C   UNL     1      -6.251  -2.728  11.973  1.00  0.00     0.134 A 
ATOM      7  C   UNL     1      -5.842  -2.663  13.311  1.00  0.00     0.093 A 
ATOM      8  C   UNL     1      -4.782  -1.842  13.700  1.00  0.00     0.123 A 
ATOM      9  C   UNL     1      -4.111  -1.078  12.747  1.00  0.00     0.094 A 
ATOM     10  C   UNL     1      -4.473  -1.149  11.400  1.00  0.00     0.146 A 
ATOM     11  O   UNL     1      -3.801  -0.413  10.523  1.00  0.00    -0.452 OA
ENDROOT
BRANCH   1  12
ATOM     12  C   UNL     1      -3.243   0.466   8.349  1.00  0.00     0.021 A 
ATOM     13  C   UNL     1      -3.807   1.602   7.740  1.00  0.00     0.016 A 
ATOM     14  C   UNL     1      -3.021   2.440   6.942  1.00  0.00     0.047 A 
ATOM     15  C   UNL     1      -1.660   2.163   6.757  1.00  0.00     0.115 A 
ATOM     16  C   UNL     1      -1.873   0.207   8.173  1.00  0.00     0.016 A 
ATOM     17  C   UNL     1      -1.090   1.047   7.375  1.00  0.00     0.047 A 
BRANCH  15  18
ATOM     18  O   UNL     1      -0.869   2.991   5.964  1.00  0.00    -0.508 OA
ATOM     19  H   UNL     1      -0.026   3.422   6.325  1.00  0.00     0.293 HD
ENDBRANCH  15  18
ENDBRANCH   1  12
BRANCH   2  20
ATOM     20  O   UNL     1      -5.235  -1.370   7.321  1.00  0.00    -0.502 OA
ATOM     21  H   UNL     1      -4.776  -0.753   6.663  1.00  0.00     0.293 HD
ENDBRANCH   2  20
BRANCH   6  22
ATOM     22  O   UNL     1      -7.382  -3.505  11.703  1.00  0.00    -0.507 OA
ATOM     23  H   UNL     1      -7.430  -4.223  10.997  1.00  0.00     0.293 HD
ENDBRANCH   6  22
BRANCH   8  24
ATOM     24  O   UNL     1      -4.391  -1.771  15.036  1.00  0.00    -0.508 OA
ATOM     25  H   UNL     1      -4.457  -2.574  15.650  1.00  0.00     0.293 HD
ENDBRANCH   8  24
TORSDOF 5
ENDMDL
MODEL 6
REMARK VINA RESULT:    -7.274      2.007      7.060
REMARK INTER + INTRA:          -8.827
REMARK INTER:                  -8.592
REMARK INTRA:                  -0.236
REMARK UNBOUND:                -0.278
REMARK SMILES O=c1c(O)c(-c2ccc(O)cc2)oc2cc(O)cc(O)c12
REMARK SMILES IDX 5 1 3 2 2 3 1 4 21 5 19 6 18 7 16 8 15 9 14 10 13 11 6 12
REMARK SMILES IDX 7 13 8 14 9 15 12 16 11 17 10 18 4 20 20 22 17 24
REMARK H PARENT 10 19 4 21 20 23 17 25
REMARK Flexibility Score: inf
ROOT
ATOM      1  C   UNL     1      -4.332  -0.755  10.198  1.00  0.00     0.180 A 
ATOM      2  C   UNL     1      -5.151  -0.728   9.055  1.00  0.00     0.208 A 
ATOM      3  C   UNL     1      -4.901   0.231   8.060  1.00  0.00     0.238 A 
ATOM      4  O   UNL     1      -5.669   0.284   7.065  1.00  0.00    -0.285 OA
ATOM      5  C   UNL     1      -3.826   1.139   8.213  1.00  0.00     0.111 A 
ATOM      6  C   UNL     1      -3.455   2.126   7.249  1.00  0.00     0.134 A 
ATOM      7  C   UNL     1      -2.458   3.058   7.563  1.00  0.00     0.093 A 
ATOM      8  C   UNL     1      -1.773   2.996   8.778  1.00  0.00     0.123 A 
ATOM      9  C   UNL     1      -2.086   2.001   9.701  1.00  0.00     0.094 A 
ATOM     10  C   UNL     1      -3.101   1.079   9.432  1.00  0.00     0.146 A 
ATOM     11  O   UNL     1      -3.374   0.153  10.342  1.00  0.00    -0.452 OA
ENDROOT
BRANCH   1  12
ATOM     12  C   UNL     1      -4.520  -1.751  11.277  1.00  0.00     0.021 A 
ATOM     13  C   UNL     1      -5.567  -1.635  12.208  1.00  0.00     0.016 A 
ATOM     14  C   UNL     1      -5.739  -2.602  13.204  1.00  0.00     0.047 A 
ATOM     15  C   UNL     1      -4.876  -3.703  13.272  1.00  0.00     0.115 A 
ATOM     16  C   UNL     1      -3.671  -2.869  11.342  1.00  0.00     0.016 A 
ATOM     17  C   UNL     1      -3.844  -3.834  12.339  1.00  0.00     0.047 A 
BRANCH  15  18
ATOM     18  O   UNL     1      -5.037  -4.671  14.261  1.00  0.00    -0.508 OA
ATOM     19  H   UNL     1      -4.396  -5.451  14.348  1.00  0.00     0.293 HD
ENDBRANCH  15  18
ENDBRANCH   1  12
BRANCH   2  20
ATOM     20  O   UNL     1      -6.220  -1.620   8.934  1.00  0.00    -0.502 OA
ATOM     21  H   UNL     1      -7.041  -1.414   8.379  1.00  0.00     0.293 HD
ENDBRANCH   2  20
BRANCH   6  22
ATOM     22  O   UNL     1      -4.013   2.215   5.970  1.00  0.00    -0.507 OA
ATOM     23  H   UNL     1      -3.854   2.974   5.325  1.00  0.00     0.293 HD
ENDBRANCH   6  22
BRANCH   8  24
ATOM     24  O   UNL     1      -0.770   3.918   9.076  1.00  0.00    -0.508 OA
ATOM     25  H   UNL     1      -0.631   4.749   8.513  1.00  0.00     0.293 HD
ENDBRANCH   8  24
TORSDOF 5
ENDMDL
MODEL 7
REMARK VINA RESULT:    -7.243      1.812      6.707
REMARK INTER + INTRA:          -8.791
REMARK INTER:                  -8.539
REMARK INTRA:                  -0.252
REMARK UNBOUND:                -0.278
REMARK SMILES O=c1c(O)c(-c2ccc(O)cc2)oc2cc(O)cc(O)c12
REMARK SMILES IDX 5 1 3 2 2 3 1 4 21 5 19 6 18 7 16 8 15 9 14 10 13 11 6 12
REMARK SMILES IDX 7 13 8 14 9 15 12 16 11 17 10 18 4 20 20 22 17 24
REMARK H PARENT 10 19 4 21 20 23 17 25
REMARK Flexibility Score: inf
ROOT
ATOM      1  C   UNL     1      -3.121  -1.040  10.310  1.00  0.00     0.180 A 
ATOM      2  C   UNL     1      -2.091  -1.769   9.690  1.00  0.00     0.208 A 
ATOM      3  C   UNL     1      -1.213  -1.102   8.821  1.00  0.00     0.238 A 
ATOM      4  O   UNL     1      -0.327  -1.770   8.227  1.00  0.00    -0.285 OA
ATOM      5  C   UNL     1      -1.365   0.287   8.595  1.00  0.00     0.111 A 
ATOM      6  C   UNL     1      -0.508   1.072   7.766  1.00  0.00     0.134 A 
ATOM      7  C   UNL     1      -0.830   2.411   7.510  1.00  0.00     0.093 A 
ATOM      8  C   UNL     1      -1.942   3.009   8.108  1.00  0.00     0.123 A 
ATOM      9  C   UNL     1      -2.751   2.268   8.966  1.00  0.00     0.094 A 
ATOM     10  C   UNL     1      -2.476   0.921   9.211  1.00  0.00     0.146 A 
ATOM     11  O   UNL     1      -3.278   0.248  10.027  1.00  0.00    -0.452 OA
ENDROOT
BRANCH   1  12
ATOM     12  C   UNL     1      -4.070  -1.668  11.258  1.00  0.00     0.021 A 
ATOM     13  C   UNL     1      -5.361  -2.055  10.853  1.00  0.00     0.016 A 
ATOM     14  C   UNL     1      -6.231  -2.669  11.760  1.00  0.00     0.047 A 
ATOM     15  C   UNL     1      -5.818  -2.917  13.075  1.00  0.00     0.115 A 
ATOM     16  C   UNL     1      -3.658  -1.939  12.573  1.00  0.00     0.016 A 
ATOM     17  C   UNL     1      -4.530  -2.552  13.477  1.00  0.00     0.047 A 
BRANCH  15  18
ATOM     18  O   UNL     1      -6.677  -3.527  13.986  1.00  0.00    -0.508 OA
ATOM     19  H   UNL     1      -6.445  -3.595  14.969  1.00  0.00     0.293 HD
ENDBRANCH  15  18
ENDBRANCH   1  12
BRANCH   2  20
ATOM     20  O   UNL     1      -1.972  -3.144   9.910  1.00  0.00    -0.502 OA
ATOM     21  H   UNL     1      -1.089  -3.584  10.139  1.00  0.00     0.293 HD
ENDBRANCH   2  20
BRANCH   6  22
ATOM     22  O   UNL     1       0.676   0.596   7.196  1.00  0.00    -0.507 OA
ATOM     23  H   UNL     1       1.598   0.947   7.407  1.00  0.00     0.293 HD
ENDBRANCH   6  22
BRANCH   8  24
ATOM     24  O   UNL     1      -2.247   4.347   7.861  1.00  0.00    -0.508 OA
ATOM     25  H   UNL     1      -2.537   4.971   8.604  1.00  0.00     0.293 HD
ENDBRANCH   8  24
TORSDOF 5
ENDMDL
MODEL 8
REMARK VINA RESULT:    -7.184      1.838      6.526
REMARK INTER + INTRA:          -8.721
REMARK INTER:                  -8.457
REMARK INTRA:                  -0.264
REMARK UNBOUND:                -0.278
REMARK SMILES O=c1c(O)c(-c2ccc(O)cc2)oc2cc(O)cc(O)c12
REMARK SMILES IDX 5 1 3 2 2 3 1 4 21 5 19 6 18 7 16 8 15 9 14 10 13 11 6 12
REMARK SMILES IDX 7 13 8 14 9 15 12 16 11 17 10 18 4 20 20 22 17 24
REMARK H PARENT 10 19 4 21 20 23 17 25
REMARK Flexibility Score: inf
ROOT
ATOM      1  C   UNL     1      -3.212  -0.096  11.213  1.00  0.00     0.180 A 
ATOM      2  C   UNL     1      -2.770   1.013  11.955  1.00  0.00     0.208 A 
ATOM      3  C   UNL     1      -2.304   2.148  11.271  1.00  0.00     0.238 A 
ATOM      4  O   UNL     1      -1.859   3.117  11.939  1.00  0.00    -0.285 OA
ATOM      5  C   UNL     1      -2.301   2.165   9.855  1.00  0.00     0.111 A 
ATOM      6  C   UNL     1      -1.889   3.275   9.058  1.00  0.00     0.134 A 
ATOM      7  C   UNL     1      -1.804   3.134   7.668  1.00  0.00     0.093 A 
ATOM      8  C   UNL     1      -2.179   1.944   7.041  1.00  0.00     0.123 A 
ATOM      9  C   UNL     1      -2.639   0.874   7.805  1.00  0.00     0.094 A 
ATOM     10  C   UNL     1      -2.701   0.972   9.197  1.00  0.00     0.146 A 
ATOM     11  O   UNL     1      -3.136  -0.075   9.888  1.00  0.00    -0.452 OA
ENDROOT
BRANCH   1  12
ATOM     12  C   UNL     1      -3.740  -1.318  11.863  1.00  0.00     0.021 A 
ATOM     13  C   UNL     1      -2.926  -2.445  12.075  1.00  0.00     0.016 A 
ATOM     14  C   UNL     1      -3.439  -3.578  12.714  1.00  0.00     0.047 A 
ATOM     15  C   UNL     1      -4.767  -3.593  13.160  1.00  0.00     0.115 A 
ATOM     16  C   UNL     1      -5.064  -1.335  12.332  1.00  0.00     0.016 A 
ATOM     17  C   UNL     1      -5.575  -2.470  12.970  1.00  0.00     0.047 A 
BRANCH  15  18
ATOM     18  O   UNL     1      -5.290  -4.717  13.796  1.00  0.00    -0.508 OA
ATOM     19  H   UNL     1      -5.935  -5.340  13.326  1.00  0.00     0.293 HD
ENDBRANCH  15  18
ENDBRANCH   1  12
BRANCH   2  20
ATOM     20  O   UNL     1      -2.760   0.968  13.351  1.00  0.00    -0.502 OA
ATOM     21  H   UNL     1      -1.908   0.855  13.887  1.00  0.00     0.293 HD
ENDBRANCH   2  20
BRANCH   6  22
ATOM     22  O   UNL     1      -1.581   4.536   9.578  1.00  0.00    -0.507 OA
ATOM     23  H   UNL     1      -1.706   5.407   9.085  1.00  0.00     0.293 HD
ENDBRANCH   6  22
BRANCH   8  24
ATOM     24  O   UNL     1      -2.106   1.817   5.655  1.00  0.00    -0.508 OA
ATOM     25  H   UNL     1      -2.917   1.563   5.102  1.00  0.00     0.293 HD
ENDBRANCH   8  24
TORSDOF 5
ENDMDL
MODEL 9
REMARK VINA RESULT:    -6.853      3.086      8.363
REMARK INTER + INTRA:          -8.332
REMARK INTER:                  -8.038
REMARK INTRA:                  -0.294
REMARK UNBOUND:                -0.278
REMARK SMILES O=c1c(O)c(-c2ccc(O)cc2)oc2cc(O)cc(O)c12
REMARK SMILES IDX 5 1 3 2 2 3 1 4 21 5 19 6 18 7 16 8 15 9 14 10 13 11 6 12
REMARK SMILES IDX 7 13 8 14 9 15 12 16 11 17 10 18 4 20 20 22 17 24
REMARK H PARENT 10 19 4 21 20 23 17 25
REMARK Flexibility Score: inf
ROOT
ATOM      1  C   UNL     1      -5.599  -3.265  13.986  1.00  0.00     0.180 A 
ATOM      2  C   UNL     1      -6.337  -3.182  12.792  1.00  0.00     0.208 A 
ATOM      3  C   UNL     1      -5.978  -2.220  11.835  1.00  0.00     0.238 A 
ATOM      4  O   UNL     1      -6.675  -2.114  10.792  1.00  0.00    -0.285 OA
ATOM      5  C   UNL     1      -4.876  -1.363  12.076  1.00  0.00     0.111 A 
ATOM      6  C   UNL     1      -4.398  -0.378  11.160  1.00  0.00     0.134 A 
ATOM      7  C   UNL     1      -3.384   0.501  11.557  1.00  0.00     0.093 A 
ATOM      8  C   UNL     1      -2.785   0.388  12.814  1.00  0.00     0.123 A 
ATOM      9  C   UNL     1      -3.204  -0.608  13.693  1.00  0.00     0.094 A 
ATOM     10  C   UNL     1      -4.238  -1.477  13.339  1.00  0.00     0.146 A 
ATOM     11  O   UNL     1      -4.613  -2.405  14.212  1.00  0.00    -0.452 OA
ENDROOT
BRANCH   1  12
ATOM     12  C   UNL     1      -5.902  -4.270  15.031  1.00  0.00     0.021 A 
ATOM     13  C   UNL     1      -5.383  -5.576  14.964  1.00  0.00     0.016 A 
ATOM     14  C   UNL     1      -5.662  -6.500  15.976  1.00  0.00     0.047 A 
ATOM     15  C   UNL     1      -6.452  -6.127  17.071  1.00  0.00     0.115 A 
ATOM     16  C   UNL     1      -6.676  -3.900  16.143  1.00  0.00     0.016 A 
ATOM     17  C   UNL     1      -6.955  -4.826  17.152  1.00  0.00     0.047 A 
BRANCH  15  18
ATOM     18  O   UNL     1      -6.738  -7.041  18.084  1.00  0.00    -0.508 OA
ATOM     19  H   UNL     1      -6.258  -7.930  18.146  1.00  0.00     0.293 HD
ENDBRANCH  15  18
ENDBRANCH   1  12
BRANCH   2  20
ATOM     20  O   UNL     1      -7.434  -4.022  12.583  1.00  0.00    -0.502 OA
ATOM     21  H   UNL     1      -7.416  -5.009  12.811  1.00  0.00     0.293 HD
ENDBRANCH   2  20
BRANCH   6  22
ATOM     22  O   UNL     1      -4.865  -0.243   9.848  1.00  0.00    -0.507 OA
ATOM     23  H   UNL     1      -4.294  -0.335   9.023  1.00  0.00     0.293 HD
ENDBRANCH   6  22
BRANCH   8  24
ATOM     24  O   UNL     1      -1.765   1.258  13.195  1.00  0.00    -0.508 OA
ATOM     25  H   UNL     1      -0.790   1.036  13.031  1.00  0.00     0.293 HD
ENDBRANCH   8  24
TORSDOF 5
ENDMDL
