MODEL 1
REMARK VINA RESULT:    -3.919      0.000      0.000
REMARK INTER + INTRA:         -11.850
REMARK INTER:                  -8.502
REMARK INTRA:                  -3.348
REMARK UNBOUND:                -3.348
REMARK SMILES CCCCCCCCCCCCCCCCCCCCCC(=O)[O-]
REMARK SMILES IDX 12 1 11 2 10 3 9 4 8 5 7 6 6 7 5 8 4 9 3 10 2 11 1 12 13 13
REMARK SMILES IDX 14 14 15 15 16 16 17 17 18 18 19 19 20 20 21 21 22 22 23 23
REMARK SMILES IDX 24 24
REMARK H PARENT
REMARK Flexibility Score: inf
ROOT
ATOM      1  C   UNL     1      21.929  11.523  35.628  1.00  0.00     0.000 C 
ENDROOT
BRANCH   1   2
ATOM      2  C   UNL     1      20.654  10.690  35.827  1.00  0.00     0.000 C 
BRANCH   2   3
ATOM      3  C   UNL     1      19.393  11.561  35.953  1.00  0.00     0.000 C 
BRANCH   3   4
ATOM      4  C   UNL     1      18.432  11.394  34.763  1.00  0.00    -0.000 C 
BRANCH   4   5
ATOM      5  C   UNL     1      18.438   9.974  34.160  1.00  0.00    -0.000 C 
BRANCH   5   6
ATOM      6  C   UNL     1      18.938   9.961  32.707  1.00  0.00    -0.000 C 
BRANCH   6   7
ATOM      7  C   UNL     1      19.968   8.842  32.489  1.00  0.00    -0.000 C 
BRANCH   7   8
ATOM      8  C   UNL     1      19.462   7.463  32.952  1.00  0.00    -0.000 C 
BRANCH   8   9
ATOM      9  C   UNL     1      20.519   6.582  33.639  1.00  0.00    -0.000 C 
BRANCH   9  10
ATOM     10  C   UNL     1      20.708   6.923  35.127  1.00  0.00    -0.000 C 
BRANCH  10  11
ATOM     11  C   UNL     1      19.462   6.606  35.967  1.00  0.00    -0.003 C 
ATOM     12  C   UNL     1      19.271   7.579  37.129  1.00  0.00     0.004 C 
ENDBRANCH  10  11
ENDBRANCH   9  10
ENDBRANCH   8   9
ENDBRANCH   7   8
ENDBRANCH   6   7
ENDBRANCH   5   6
ENDBRANCH   4   5
ENDBRANCH   3   4
ENDBRANCH   2   3
ENDBRANCH   1   2
BRANCH   1  13
ATOM     13  C   UNL     1      22.687  11.144  34.344  1.00  0.00     0.000 C 
BRANCH  13  14
ATOM     14  C   UNL     1      22.057  11.746  33.077  1.00  0.00     0.000 C 
BRANCH  14  15
ATOM     15  C   UNL     1      21.383  13.115  33.310  1.00  0.00     0.000 C 
BRANCH  15  16
ATOM     16  C   UNL     1      20.337  13.438  32.229  1.00  0.00     0.000 C 
BRANCH  16  17
ATOM     17  C   UNL     1      20.754  12.949  30.831  1.00  0.00     0.000 C 
BRANCH  17  18
ATOM     18  C   UNL     1      20.992  14.068  29.800  1.00  0.00     0.000 C 
BRANCH  18  19
ATOM     19  C   UNL     1      22.433  14.105  29.246  1.00  0.00     0.000 C 
BRANCH  19  20
ATOM     20  C   UNL     1      23.286  15.193  29.915  1.00  0.00     0.006 C 
BRANCH  20  21
ATOM     21  C   UNL     1      22.408  16.204  30.657  1.00  0.00     0.053 C 
BRANCH  21  22
ATOM     22  C   UNL     1      23.105  17.522  30.766  1.00  0.00     0.041 C 
ATOM     23  O   UNL     1      24.362  17.572  30.813  1.00  0.00    -0.550 OA
ATOM     24  O   UNL     1      22.369  18.700  30.768  1.00  0.00    -0.550 OA
ENDBRANCH  21  22
ENDBRANCH  20  21
ENDBRANCH  19  20
ENDBRANCH  18  19
ENDBRANCH  17  18
ENDBRANCH  16  17
ENDBRANCH  15  16
ENDBRANCH  14  15
ENDBRANCH  13  14
ENDBRANCH   1  13
TORSDOF 20
ENDMDL
MODEL 2
REMARK VINA RESULT:    -3.871      1.175      2.240
REMARK INTER + INTRA:         -11.744
REMARK INTER:                  -8.062
REMARK INTRA:                  -3.683
REMARK UNBOUND:                -3.348
REMARK SMILES CCCCCCCCCCCCCCCCCCCCCC(=O)[O-]
REMARK SMILES IDX 12 1 11 2 10 3 9 4 8 5 7 6 6 7 5 8 4 9 3 10 2 11 1 12 13 13
REMARK SMILES IDX 14 14 15 15 16 16 17 17 18 18 19 19 20 20 21 21 22 22 23 23
REMARK SMILES IDX 24 24
REMARK H PARENT
REMARK Flexibility Score: inf
ROOT
ATOM      1  C   UNL     1      22.071  11.824  35.527  1.00  0.00     0.000 C 
ENDROOT
BRANCH   1   2
ATOM      2  C   UNL     1      21.252  13.096  35.260  1.00  0.00     0.000 C 
BRANCH   2   3
ATOM      3  C   UNL     1      19.809  12.990  35.780  1.00  0.00     0.000 C 
BRANCH   3   4
ATOM      4  C   UNL     1      19.349  11.534  35.969  1.00  0.00    -0.000 C 
BRANCH   4   5
ATOM      5  C   UNL     1      18.524  10.988  34.786  1.00  0.00    -0.000 C 
BRANCH   5   6
ATOM      6  C   UNL     1      18.751   9.484  34.564  1.00  0.00    -0.000 C 
BRANCH   6   7
ATOM      7  C   UNL     1      19.837   8.946  35.507  1.00  0.00    -0.000 C 
BRANCH   7   8
ATOM      8  C   UNL     1      20.473   7.637  35.002  1.00  0.00    -0.000 C 
BRANCH   8   9
ATOM      9  C   UNL     1      19.534   6.732  34.185  1.00  0.00    -0.000 C 
BRANCH   9  10
ATOM     10  C   UNL     1      20.149   6.286  32.848  1.00  0.00    -0.000 C 
BRANCH  10  11
ATOM     11  C   UNL     1      19.890   7.291  31.716  1.00  0.00    -0.003 C 
ATOM     12  C   UNL     1      18.402   7.556  31.492  1.00  0.00     0.004 C 
ENDBRANCH  10  11
ENDBRANCH   9  10
ENDBRANCH   8   9
ENDBRANCH   7   8
ENDBRANCH   6   7
ENDBRANCH   5   6
ENDBRANCH   4   5
ENDBRANCH   3   4
ENDBRANCH   2   3
ENDBRANCH   1   2
BRANCH   1  13
ATOM     13  C   UNL     1      22.546  11.145  34.232  1.00  0.00     0.000 C 
BRANCH  13  14
ATOM     14  C   UNL     1      21.957  11.791  32.966  1.00  0.00     0.000 C 
BRANCH  14  15
ATOM     15  C   UNL     1      21.085  10.831  32.128  1.00  0.00     0.000 C 
BRANCH  15  16
ATOM     16  C   UNL     1      19.919  11.560  31.438  1.00  0.00     0.000 C 
BRANCH  16  17
ATOM     17  C   UNL     1      19.775  13.021  31.896  1.00  0.00     0.000 C 
BRANCH  17  18
ATOM     18  C   UNL     1      19.819  14.061  30.760  1.00  0.00     0.000 C 
BRANCH  18  19
ATOM     19  C   UNL     1      21.138  14.045  29.957  1.00  0.00     0.000 C 
BRANCH  19  20
ATOM     20  C   UNL     1      22.276  14.769  30.691  1.00  0.00     0.006 C 
BRANCH  20  21
ATOM     21  C   UNL     1      21.997  16.270  30.798  1.00  0.00     0.053 C 
BRANCH  21  22
ATOM     22  C   UNL     1      23.268  17.049  30.679  1.00  0.00     0.041 C 
ATOM     23  O   UNL     1      23.298  18.265  31.005  1.00  0.00    -0.550 OA
ATOM     24  O   UNL     1      24.431  16.422  30.251  1.00  0.00    -0.550 OA
ENDBRANCH  21  22
ENDBRANCH  20  21
ENDBRANCH  19  20
ENDBRANCH  18  19
ENDBRANCH  17  18
ENDBRANCH  16  17
ENDBRANCH  15  16
ENDBRANCH  14  15
ENDBRANCH  13  14
ENDBRANCH   1  13
TORSDOF 20
ENDMDL
MODEL 3
REMARK VINA RESULT:    -3.863     18.699     21.268
REMARK INTER + INTRA:         -11.729
REMARK INTER:                  -9.752
REMARK INTRA:                  -1.977
REMARK UNBOUND:                -3.348
REMARK SMILES CCCCCCCCCCCCCCCCCCCCCC(=O)[O-]
REMARK SMILES IDX 12 1 11 2 10 3 9 4 8 5 7 6 6 7 5 8 4 9 3 10 2 11 1 12 13 13
REMARK SMILES IDX 14 14 15 15 16 16 17 17 18 18 19 19 20 20 21 21 22 22 23 23
REMARK SMILES IDX 24 24
REMARK H PARENT
REMARK Flexibility Score: inf
ROOT
ATOM      1  C   UNL     1      34.018   9.489  46.024  1.00  0.00     0.000 C 
ENDROOT
BRANCH   1   2
ATOM      2  C   UNL     1      34.872  10.529  45.283  1.00  0.00     0.000 C 
BRANCH   2   3
ATOM      3  C   UNL     1      35.931  11.179  46.189  1.00  0.00     0.000 C 
BRANCH   3   4
ATOM      4  C   UNL     1      35.803  12.711  46.251  1.00  0.00    -0.000 C 
BRANCH   4   5
ATOM      5  C   UNL     1      36.726  13.366  47.299  1.00  0.00    -0.000 C 
BRANCH   5   6
ATOM      6  C   UNL     1      37.575  14.498  46.701  1.00  0.00    -0.000 C 
BRANCH   6   7
ATOM      7  C   UNL     1      37.058  14.899  45.311  1.00  0.00    -0.000 C 
BRANCH   7   8
ATOM      8  C   UNL     1      37.679  16.211  44.796  1.00  0.00    -0.000 C 
BRANCH   8   9
ATOM      9  C   UNL     1      37.218  17.480  45.533  1.00  0.00    -0.000 C 
BRANCH   9  10
ATOM     10  C   UNL     1      35.729  17.442  45.917  1.00  0.00    -0.000 C 
BRANCH  10  11
ATOM     11  C   UNL     1      35.513  17.423  47.437  1.00  0.00    -0.003 C 
ATOM     12  C   UNL     1      34.175  16.801  47.834  1.00  0.00     0.004 C 
ENDBRANCH  10  11
ENDBRANCH   9  10
ENDBRANCH   8   9
ENDBRANCH   7   8
ENDBRANCH   6   7
ENDBRANCH   5   6
ENDBRANCH   4   5
ENDBRANCH   3   4
ENDBRANCH   2   3
ENDBRANCH   1   2
BRANCH   1  13
ATOM     13  C   UNL     1      33.970   9.737  47.541  1.00  0.00     0.000 C 
BRANCH  13  14
ATOM     14  C   UNL     1      32.543   9.970  48.065  1.00  0.00     0.000 C 
BRANCH  14  15
ATOM     15  C   UNL     1      32.039   8.856  49.008  1.00  0.00     0.000 C 
BRANCH  15  16
ATOM     16  C   UNL     1      30.555   8.524  48.773  1.00  0.00     0.000 C 
BRANCH  16  17
ATOM     17  C   UNL     1      30.323   7.040  48.441  1.00  0.00     0.000 C 
BRANCH  17  18
ATOM     18  C   UNL     1      31.281   6.456  47.385  1.00  0.00     0.000 C 
BRANCH  18  19
ATOM     19  C   UNL     1      32.267   5.412  47.953  1.00  0.00     0.000 C 
BRANCH  19  20
ATOM     20  C   UNL     1      33.732   5.822  47.746  1.00  0.00     0.006 C 
BRANCH  20  21
ATOM     21  C   UNL     1      34.546   4.674  47.143  1.00  0.00     0.053 C 
BRANCH  21  22
ATOM     22  C   UNL     1      34.734   4.880  45.674  1.00  0.00     0.041 C 
ATOM     23  O   UNL     1      35.328   4.010  44.983  1.00  0.00    -0.550 OA
ATOM     24  O   UNL     1      34.213   6.011  45.057  1.00  0.00    -0.550 OA
ENDBRANCH  21  22
ENDBRANCH  20  21
ENDBRANCH  19  20
ENDBRANCH  18  19
ENDBRANCH  17  18
ENDBRANCH  16  17
ENDBRANCH  15  16
ENDBRANCH  14  15
ENDBRANCH  13  14
ENDBRANCH   1  13
TORSDOF 20
ENDMDL
MODEL 4
REMARK VINA RESULT:    -3.859      3.714      6.970
REMARK INTER + INTRA:         -11.719
REMARK INTER:                  -7.482
REMARK INTRA:                  -4.237
REMARK UNBOUND:                -3.348
REMARK SMILES CCCCCCCCCCCCCCCCCCCCCC(=O)[O-]
REMARK SMILES IDX 12 1 11 2 10 3 9 4 8 5 7 6 6 7 5 8 4 9 3 10 2 11 1 12 13 13
REMARK SMILES IDX 14 14 15 15 16 16 17 17 18 18 19 19 20 20 21 21 22 22 23 23
REMARK SMILES IDX 24 24
REMARK H PARENT
REMARK Flexibility Score: inf
ROOT
ATOM      1  C   UNL     1      22.138  11.864  34.625  1.00  0.00     0.000 C 
ENDROOT
BRANCH   1   2
ATOM      2  C   UNL     1      21.139  13.008  34.388  1.00  0.00     0.000 C 
BRANCH   2   3
ATOM      3  C   UNL     1      20.100  13.128  35.515  1.00  0.00     0.000 C 
BRANCH   3   4
ATOM      4  C   UNL     1      18.704  12.639  35.092  1.00  0.00    -0.000 C 
BRANCH   4   5
ATOM      5  C   UNL     1      18.629  12.182  33.621  1.00  0.00    -0.000 C 
BRANCH   5   6
ATOM      6  C   UNL     1      18.145  10.730  33.486  1.00  0.00    -0.000 C 
BRANCH   6   7
ATOM      7  C   UNL     1      18.649  10.100  32.179  1.00  0.00    -0.000 C 
BRANCH   7   8
ATOM      8  C   UNL     1      20.173   9.875  32.171  1.00  0.00    -0.000 C 
BRANCH   8   9
ATOM      9  C   UNL     1      20.884  10.294  30.872  1.00  0.00    -0.000 C 
BRANCH   9  10
ATOM     10  C   UNL     1      21.456  11.720  30.937  1.00  0.00    -0.000 C 
BRANCH  10  11
ATOM     11  C   UNL     1      20.467  12.776  30.424  1.00  0.00    -0.003 C 
ATOM     12  C   UNL     1      20.728  14.163  31.012  1.00  0.00     0.004 C 
ENDBRANCH  10  11
ENDBRANCH   9  10
ENDBRANCH   8   9
ENDBRANCH   7   8
ENDBRANCH   6   7
ENDBRANCH   5   6
ENDBRANCH   4   5
ENDBRANCH   3   4
ENDBRANCH   2   3
ENDBRANCH   1   2
BRANCH   1  13
ATOM     13  C   UNL     1      21.785  11.018  35.860  1.00  0.00     0.000 C 
BRANCH  13  14
ATOM     14  C   UNL     1      21.297   9.605  35.498  1.00  0.00     0.000 C 
BRANCH  14  15
ATOM     15  C   UNL     1      19.920   9.251  36.099  1.00  0.00     0.000 C 
BRANCH  15  16
ATOM     16  C   UNL     1      19.565   7.767  35.901  1.00  0.00     0.000 C 
BRANCH  16  17
ATOM     17  C   UNL     1      20.693   6.970  35.224  1.00  0.00     0.000 C 
BRANCH  17  18
ATOM     18  C   UNL     1      20.427   6.598  33.752  1.00  0.00     0.000 C 
BRANCH  18  19
ATOM     19  C   UNL     1      18.928   6.453  33.411  1.00  0.00     0.000 C 
BRANCH  19  20
ATOM     20  C   UNL     1      18.703   5.902  31.995  1.00  0.00     0.006 C 
BRANCH  20  21
ATOM     21  C   UNL     1      19.992   5.957  31.171  1.00  0.00     0.053 C 
BRANCH  21  22
ATOM     22  C   UNL     1      19.808   6.822  29.966  1.00  0.00     0.041 C 
ATOM     23  O   UNL     1      20.706   6.880  29.085  1.00  0.00    -0.550 OA
ATOM     24  O   UNL     1      18.625   7.529  29.791  1.00  0.00    -0.550 OA
ENDBRANCH  21  22
ENDBRANCH  20  21
ENDBRANCH  19  20
ENDBRANCH  18  19
ENDBRANCH  17  18
ENDBRANCH  16  17
ENDBRANCH  15  16
ENDBRANCH  14  15
ENDBRANCH  13  14
ENDBRANCH   1  13
TORSDOF 20
ENDMDL
MODEL 5
REMARK VINA RESULT:    -3.834      3.855      8.245
REMARK INTER + INTRA:         -11.665
REMARK INTER:                  -8.543
REMARK INTRA:                  -3.122
REMARK UNBOUND:                -3.348
REMARK SMILES CCCCCCCCCCCCCCCCCCCCCC(=O)[O-]
REMARK SMILES IDX 12 1 11 2 10 3 9 4 8 5 7 6 6 7 5 8 4 9 3 10 2 11 1 12 13 13
REMARK SMILES IDX 14 14 15 15 16 16 17 17 18 18 19 19 20 20 21 21 22 22 23 23
REMARK SMILES IDX 24 24
REMARK H PARENT
REMARK Flexibility Score: inf
ROOT
ATOM      1  C   UNL     1      17.941  13.005  35.061  1.00  0.00     0.000 C 
ENDROOT
BRANCH   1   2
ATOM      2  C   UNL     1      18.086  11.943  33.960  1.00  0.00     0.000 C 
BRANCH   2   3
ATOM      3  C   UNL     1      18.162  12.557  32.552  1.00  0.00     0.000 C 
BRANCH   3   4
ATOM      4  C   UNL     1      19.044  11.739  31.593  1.00  0.00    -0.000 C 
BRANCH   4   5
ATOM      5  C   UNL     1      20.345  12.462  31.183  1.00  0.00    -0.000 C 
BRANCH   5   6
ATOM      6  C   UNL     1      20.232  13.988  31.323  1.00  0.00    -0.000 C 
BRANCH   6   7
ATOM      7  C   UNL     1      21.584  14.608  31.706  1.00  0.00    -0.000 C 
BRANCH   7   8
ATOM      8  C   UNL     1      22.419  15.026  30.481  1.00  0.00    -0.000 C 
BRANCH   8   9
ATOM      9  C   UNL     1      23.012  16.444  30.554  1.00  0.00    -0.000 C 
BRANCH   9  10
ATOM     10  C   UNL     1      22.090  17.441  31.275  1.00  0.00    -0.000 C 
BRANCH  10  11
ATOM     11  C   UNL     1      21.322  18.344  30.299  1.00  0.00    -0.003 C 
ATOM     12  C   UNL     1      19.807  18.160  30.395  1.00  0.00     0.004 C 
ENDBRANCH  10  11
ENDBRANCH   9  10
ENDBRANCH   8   9
ENDBRANCH   7   8
ENDBRANCH   6   7
ENDBRANCH   5   6
ENDBRANCH   4   5
ENDBRANCH   3   4
ENDBRANCH   2   3
ENDBRANCH   1   2
BRANCH   1  13
ATOM     13  C   UNL     1      19.175  13.080  35.975  1.00  0.00     0.000 C 
BRANCH  13  14
ATOM     14  C   UNL     1      20.457  13.469  35.220  1.00  0.00     0.000 C 
BRANCH  14  15
ATOM     15  C   UNL     1      21.662  12.555  35.530  1.00  0.00     0.000 C 
BRANCH  15  16
ATOM     16  C   UNL     1      22.113  11.753  34.297  1.00  0.00     0.000 C 
BRANCH  16  17
ATOM     17  C   UNL     1      21.360  10.420  34.145  1.00  0.00     0.000 C 
BRANCH  17  18
ATOM     18  C   UNL     1      21.330   9.547  35.414  1.00  0.00     0.000 C 
BRANCH  18  19
ATOM     19  C   UNL     1      19.921   9.395  36.027  1.00  0.00     0.000 C 
BRANCH  19  20
ATOM     20  C   UNL     1      19.481   7.926  36.118  1.00  0.00     0.006 C 
BRANCH  20  21
ATOM     21  C   UNL     1      20.403   7.022  35.295  1.00  0.00     0.053 C 
BRANCH  21  22
ATOM     22  C   UNL     1      19.779   6.699  33.976  1.00  0.00     0.041 C 
ATOM     23  O   UNL     1      18.748   5.977  33.923  1.00  0.00    -0.550 OA
ATOM     24  O   UNL     1      20.307   7.233  32.807  1.00  0.00    -0.550 OA
ENDBRANCH  21  22
ENDBRANCH  20  21
ENDBRANCH  19  20
ENDBRANCH  18  19
ENDBRANCH  17  18
ENDBRANCH  16  17
ENDBRANCH  15  16
ENDBRANCH  14  15
ENDBRANCH  13  14
ENDBRANCH   1  13
TORSDOF 20
ENDMDL
MODEL 6
REMARK VINA RESULT:    -3.829      2.759      4.300
REMARK INTER + INTRA:         -11.653
REMARK INTER:                  -8.189
REMARK INTRA:                  -3.464
REMARK UNBOUND:                -3.348
REMARK SMILES CCCCCCCCCCCCCCCCCCCCCC(=O)[O-]
REMARK SMILES IDX 12 1 11 2 10 3 9 4 8 5 7 6 6 7 5 8 4 9 3 10 2 11 1 12 13 13
REMARK SMILES IDX 14 14 15 15 16 16 17 17 18 18 19 19 20 20 21 21 22 22 23 23
REMARK SMILES IDX 24 24
REMARK H PARENT
REMARK Flexibility Score: inf
ROOT
ATOM      1  C   UNL     1      22.009  11.359  34.772  1.00  0.00     0.000 C 
ENDROOT
BRANCH   1   2
ATOM      2  C   UNL     1      22.072  10.079  35.619  1.00  0.00     0.000 C 
BRANCH   2   3
ATOM      3  C   UNL     1      20.919   9.108  35.311  1.00  0.00     0.000 C 
BRANCH   3   4
ATOM      4  C   UNL     1      19.728   9.276  36.271  1.00  0.00    -0.000 C 
BRANCH   4   5
ATOM      5  C   UNL     1      19.423   8.013  37.103  1.00  0.00    -0.000 C 
BRANCH   5   6
ATOM      6  C   UNL     1      19.652   6.720  36.304  1.00  0.00    -0.000 C 
BRANCH   6   7
ATOM      7  C   UNL     1      18.316   6.055  35.940  1.00  0.00    -0.000 C 
BRANCH   7   8
ATOM      8  C   UNL     1      18.036   6.064  34.425  1.00  0.00    -0.000 C 
BRANCH   8   9
ATOM      9  C   UNL     1      19.283   6.207  33.536  1.00  0.00    -0.000 C 
BRANCH   9  10
ATOM     10  C   UNL     1      19.185   7.388  32.555  1.00  0.00    -0.000 C 
BRANCH  10  11
ATOM     11  C   UNL     1      19.723   7.041  31.159  1.00  0.00    -0.003 C 
ATOM     12  C   UNL     1      18.823   6.062  30.407  1.00  0.00     0.004 C 
ENDBRANCH  10  11
ENDBRANCH   9  10
ENDBRANCH   8   9
ENDBRANCH   7   8
ENDBRANCH   6   7
ENDBRANCH   5   6
ENDBRANCH   4   5
ENDBRANCH   3   4
ENDBRANCH   2   3
ENDBRANCH   1   2
BRANCH   1  13
ATOM     13  C   UNL     1      21.744  12.615  35.618  1.00  0.00     0.000 C 
BRANCH  13  14
ATOM     14  C   UNL     1      20.455  13.350  35.211  1.00  0.00     0.000 C 
BRANCH  14  15
ATOM     15  C   UNL     1      19.200  12.867  35.969  1.00  0.00     0.000 C 
BRANCH  15  16
ATOM     16  C   UNL     1      18.070  12.449  35.012  1.00  0.00     0.000 C 
BRANCH  16  17
ATOM     17  C   UNL     1      18.508  12.446  33.538  1.00  0.00     0.000 C 
BRANCH  17  18
ATOM     18  C   UNL     1      18.816  11.052  32.959  1.00  0.00     0.000 C 
BRANCH  18  19
ATOM     19  C   UNL     1      19.348  11.087  31.509  1.00  0.00     0.000 C 
BRANCH  19  20
ATOM     20  C   UNL     1      20.794  10.579  31.406  1.00  0.00     0.006 C 
BRANCH  20  21
ATOM     21  C   UNL     1      21.770  11.737  31.181  1.00  0.00     0.053 C 
BRANCH  21  22
ATOM     22  C   UNL     1      22.269  11.735  29.772  1.00  0.00     0.041 C 
ATOM     23  O   UNL     1      22.676  10.665  29.246  1.00  0.00    -0.550 OA
ATOM     24  O   UNL     1      22.243  12.904  29.022  1.00  0.00    -0.550 OA
ENDBRANCH  21  22
ENDBRANCH  20  21
ENDBRANCH  19  20
ENDBRANCH  18  19
ENDBRANCH  17  18
ENDBRANCH  16  17
ENDBRANCH  15  16
ENDBRANCH  14  15
ENDBRANCH  13  14
ENDBRANCH   1  13
TORSDOF 20
ENDMDL
MODEL 7
REMARK VINA RESULT:    -3.767      3.563      7.791
REMARK INTER + INTRA:         -11.520
REMARK INTER:                  -8.420
REMARK INTRA:                  -3.100
REMARK UNBOUND:                -3.348
REMARK SMILES CCCCCCCCCCCCCCCCCCCCCC(=O)[O-]
REMARK SMILES IDX 12 1 11 2 10 3 9 4 8 5 7 6 6 7 5 8 4 9 3 10 2 11 1 12 13 13
REMARK SMILES IDX 14 14 15 15 16 16 17 17 18 18 19 19 20 20 21 21 22 22 23 23
REMARK SMILES IDX 24 24
REMARK H PARENT
REMARK Flexibility Score: inf
ROOT
ATOM      1  C   UNL     1      21.626  12.265  35.621  1.00  0.00     0.000 C 
ENDROOT
BRANCH   1   2
ATOM      2  C   UNL     1      20.526  13.271  35.249  1.00  0.00     0.000 C 
BRANCH   2   3
ATOM      3  C   UNL     1      19.195  12.982  35.964  1.00  0.00     0.000 C 
BRANCH   3   4
ATOM      4  C   UNL     1      18.006  12.886  34.993  1.00  0.00    -0.000 C 
BRANCH   4   5
ATOM      5  C   UNL     1      18.166  11.783  33.927  1.00  0.00    -0.000 C 
BRANCH   5   6
ATOM      6  C   UNL     1      18.087  12.340  32.497  1.00  0.00    -0.000 C 
BRANCH   6   7
ATOM      7  C   UNL     1      19.464  12.309  31.817  1.00  0.00    -0.000 C 
BRANCH   7   8
ATOM      8  C   UNL     1      20.049  13.714  31.585  1.00  0.00    -0.000 C 
BRANCH   8   9
ATOM      9  C   UNL     1      21.586  13.791  31.620  1.00  0.00    -0.000 C 
BRANCH   9  10
ATOM     10  C   UNL     1      22.190  14.283  30.294  1.00  0.00    -0.000 C 
BRANCH  10  11
ATOM     11  C   UNL     1      22.986  15.586  30.457  1.00  0.00    -0.003 C 
ATOM     12  C   UNL     1      22.092  16.788  30.764  1.00  0.00     0.004 C 
ENDBRANCH  10  11
ENDBRANCH   9  10
ENDBRANCH   8   9
ENDBRANCH   7   8
ENDBRANCH   6   7
ENDBRANCH   5   6
ENDBRANCH   4   5
ENDBRANCH   3   4
ENDBRANCH   2   3
ENDBRANCH   1   2
BRANCH   1  13
ATOM     13  C   UNL     1      22.086  11.422  34.420  1.00  0.00     0.000 C 
BRANCH  13  14
ATOM     14  C   UNL     1      21.259  10.137  34.239  1.00  0.00     0.000 C 
BRANCH  14  15
ATOM     15  C   UNL     1      21.136   9.292  35.525  1.00  0.00     0.000 C 
BRANCH  15  16
ATOM     16  C   UNL     1      19.689   9.233  36.045  1.00  0.00     0.000 C 
BRANCH  16  17
ATOM     17  C   UNL     1      19.478   8.130  37.095  1.00  0.00     0.000 C 
BRANCH  17  18
ATOM     18  C   UNL     1      19.500   6.694  36.537  1.00  0.00     0.000 C 
BRANCH  18  19
ATOM     19  C   UNL     1      18.148   6.240  35.943  1.00  0.00     0.000 C 
BRANCH  19  20
ATOM     20  C   UNL     1      18.144   6.279  34.408  1.00  0.00     0.006 C 
BRANCH  20  21
ATOM     21  C   UNL     1      19.570   6.301  33.852  1.00  0.00     0.053 C 
BRANCH  21  22
ATOM     22  C   UNL     1      19.596   6.939  32.500  1.00  0.00     0.041 C 
ATOM     23  O   UNL     1      20.056   6.309  31.512  1.00  0.00    -0.550 OA
ATOM     24  O   UNL     1      19.070   8.212  32.321  1.00  0.00    -0.550 OA
ENDBRANCH  21  22
ENDBRANCH  20  21
ENDBRANCH  19  20
ENDBRANCH  18  19
ENDBRANCH  17  18
ENDBRANCH  16  17
ENDBRANCH  15  16
ENDBRANCH  14  15
ENDBRANCH  13  14
ENDBRANCH   1  13
TORSDOF 20
ENDMDL
MODEL 8
REMARK VINA RESULT:    -3.743      1.145      2.797
REMARK INTER + INTRA:         -11.467
REMARK INTER:                  -8.698
REMARK INTRA:                  -2.769
REMARK UNBOUND:                -3.348
REMARK SMILES CCCCCCCCCCCCCCCCCCCCCC(=O)[O-]
REMARK SMILES IDX 12 1 11 2 10 3 9 4 8 5 7 6 6 7 5 8 4 9 3 10 2 11 1 12 13 13
REMARK SMILES IDX 14 14 15 15 16 16 17 17 18 18 19 19 20 20 21 21 22 22 23 23
REMARK SMILES IDX 24 24
REMARK H PARENT
REMARK Flexibility Score: inf
ROOT
ATOM      1  C   UNL     1      21.572   9.963  35.613  1.00  0.00     0.000 C 
ENDROOT
BRANCH   1   2
ATOM      2  C   UNL     1      20.091   9.809  35.988  1.00  0.00     0.000 C 
BRANCH   2   3
ATOM      3  C   UNL     1      19.748   8.390  36.474  1.00  0.00     0.000 C 
BRANCH   3   4
ATOM      4  C   UNL     1      20.048   7.311  35.420  1.00  0.00    -0.000 C 
BRANCH   4   5
ATOM      5  C   UNL     1      18.783   6.640  34.846  1.00  0.00    -0.000 C 
BRANCH   5   6
ATOM      6  C   UNL     1      19.006   6.097  33.425  1.00  0.00    -0.000 C 
BRANCH   6   7
ATOM      7  C   UNL     1      20.144   6.851  32.720  1.00  0.00    -0.000 C 
BRANCH   7   8
ATOM      8  C   UNL     1      19.784   7.270  31.282  1.00  0.00    -0.000 C 
BRANCH   8   9
ATOM      9  C   UNL     1      19.901   8.778  30.998  1.00  0.00    -0.000 C 
BRANCH   9  10
ATOM     10  C   UNL     1      20.026   9.620  32.279  1.00  0.00    -0.000 C 
BRANCH  10  11
ATOM     11  C   UNL     1      18.680  10.200  32.736  1.00  0.00    -0.003 C 
ATOM     12  C   UNL     1      18.380  11.560  32.107  1.00  0.00     0.004 C 
ENDBRANCH  10  11
ENDBRANCH   9  10
ENDBRANCH   8   9
ENDBRANCH   7   8
ENDBRANCH   6   7
ENDBRANCH   5   6
ENDBRANCH   4   5
ENDBRANCH   3   4
ENDBRANCH   2   3
ENDBRANCH   1   2
BRANCH   1  13
ATOM     13  C   UNL     1      21.993  11.434  35.462  1.00  0.00     0.000 C 
BRANCH  13  14
ATOM     14  C   UNL     1      20.820  12.414  35.636  1.00  0.00     0.000 C 
BRANCH  14  15
ATOM     15  C   UNL     1      20.727  13.475  34.519  1.00  0.00     0.000 C 
BRANCH  15  16
ATOM     16  C   UNL     1      21.402  13.009  33.218  1.00  0.00     0.000 C 
BRANCH  16  17
ATOM     17  C   UNL     1      21.566  14.145  32.193  1.00  0.00     0.000 C 
BRANCH  17  18
ATOM     18  C   UNL     1      21.574  13.689  30.721  1.00  0.00     0.000 C 
BRANCH  18  19
ATOM     19  C   UNL     1      21.959  14.808  29.728  1.00  0.00     0.000 C 
BRANCH  19  20
ATOM     20  C   UNL     1      23.341  15.406  30.032  1.00  0.00     0.006 C 
BRANCH  20  21
ATOM     21  C   UNL     1      23.404  16.882  29.629  1.00  0.00     0.053 C 
BRANCH  21  22
ATOM     22  C   UNL     1      23.293  17.760  30.834  1.00  0.00     0.041 C 
ATOM     23  O   UNL     1      24.268  18.474  31.188  1.00  0.00    -0.550 OA
ATOM     24  O   UNL     1      22.099  17.825  31.540  1.00  0.00    -0.550 OA
ENDBRANCH  21  22
ENDBRANCH  20  21
ENDBRANCH  19  20
ENDBRANCH  18  19
ENDBRANCH  17  18
ENDBRANCH  16  17
ENDBRANCH  15  16
ENDBRANCH  14  15
ENDBRANCH  13  14
ENDBRANCH   1  13
TORSDOF 20
ENDMDL
MODEL 9
REMARK VINA RESULT:    -3.738      1.564      3.371
REMARK INTER + INTRA:         -11.457
REMARK INTER:                  -7.729
REMARK INTRA:                  -3.728
REMARK UNBOUND:                -3.348
REMARK SMILES CCCCCCCCCCCCCCCCCCCCCC(=O)[O-]
REMARK SMILES IDX 12 1 11 2 10 3 9 4 8 5 7 6 6 7 5 8 4 9 3 10 2 11 1 12 13 13
REMARK SMILES IDX 14 14 15 15 16 16 17 17 18 18 19 19 20 20 21 21 22 22 23 23
REMARK SMILES IDX 24 24
REMARK H PARENT
REMARK Flexibility Score: inf
ROOT
ATOM      1  C   UNL     1      20.227  12.627  35.606  1.00  0.00     0.000 C 
ENDROOT
BRANCH   1   2
ATOM      2  C   UNL     1      21.448  12.643  34.673  1.00  0.00     0.000 C 
BRANCH   2   3
ATOM      3  C   UNL     1      22.414  11.477  34.944  1.00  0.00     0.000 C 
BRANCH   3   4
ATOM      4  C   UNL     1      21.869  10.482  35.983  1.00  0.00    -0.000 C 
BRANCH   4   5
ATOM      5  C   UNL     1      21.160   9.263  35.358  1.00  0.00    -0.000 C 
BRANCH   5   6
ATOM      6  C   UNL     1      19.878   8.884  36.117  1.00  0.00    -0.000 C 
BRANCH   6   7
ATOM      7  C   UNL     1      19.553   7.393  35.939  1.00  0.00    -0.000 C 
BRANCH   7   8
ATOM      8  C   UNL     1      18.316   7.151  35.053  1.00  0.00    -0.000 C 
BRANCH   8   9
ATOM      9  C   UNL     1      18.560   6.249  33.831  1.00  0.00    -0.000 C 
BRANCH   9  10
ATOM     10  C   UNL     1      20.011   6.304  33.326  1.00  0.00    -0.000 C 
BRANCH  10  11
ATOM     11  C   UNL     1      20.102   6.307  31.793  1.00  0.00    -0.003 C 
ATOM     12  C   UNL     1      18.734   6.424  31.122  1.00  0.00     0.004 C 
ENDBRANCH  10  11
ENDBRANCH   9  10
ENDBRANCH   8   9
ENDBRANCH   7   8
ENDBRANCH   6   7
ENDBRANCH   5   6
ENDBRANCH   4   5
ENDBRANCH   3   4
ENDBRANCH   2   3
ENDBRANCH   1   2
BRANCH   1  13
ATOM     13  C   UNL     1      18.919  12.971  34.873  1.00  0.00     0.000 C 
BRANCH  13  14
ATOM     14  C   UNL     1      18.175  11.726  34.363  1.00  0.00     0.000 C 
BRANCH  14  15
ATOM     15  C   UNL     1      18.414  11.429  32.867  1.00  0.00     0.000 C 
BRANCH  15  16
ATOM     16  C   UNL     1      18.901   9.989  32.630  1.00  0.00     0.000 C 
BRANCH  16  17
ATOM     17  C   UNL     1      20.407   9.913  32.327  1.00  0.00     0.000 C 
BRANCH  17  18
ATOM     18  C   UNL     1      20.826  10.528  30.978  1.00  0.00     0.000 C 
BRANCH  18  19
ATOM     19  C   UNL     1      21.755  11.753  31.118  1.00  0.00     0.000 C 
BRANCH  19  20
ATOM     20  C   UNL     1      21.171  13.006  30.448  1.00  0.00     0.006 C 
BRANCH  20  21
ATOM     21  C   UNL     1      21.110  14.179  31.431  1.00  0.00     0.053 C 
BRANCH  21  22
ATOM     22  C   UNL     1      22.041  15.269  31.004  1.00  0.00     0.041 C 
ATOM     23  O   UNL     1      22.964  15.027  30.182  1.00  0.00    -0.550 OA
ATOM     24  O   UNL     1      21.862  16.562  31.479  1.00  0.00    -0.550 OA
ENDBRANCH  21  22
ENDBRANCH  20  21
ENDBRANCH  19  20
ENDBRANCH  18  19
ENDBRANCH  17  18
ENDBRANCH  16  17
ENDBRANCH  15  16
ENDBRANCH  14  15
ENDBRANCH  13  14
ENDBRANCH   1  13
TORSDOF 20
ENDMDL
