MODEL 1
REMARK VINA RESULT:    -5.037      0.000      0.000
REMARK INTER + INTRA:         -18.949
REMARK INTER:                 -13.282
REMARK INTRA:                  -5.667
REMARK UNBOUND:                -5.667
REMARK SMILES CCCCCCCCCCCCCCCCCCCCCCCCCCCCCC(=O)[O-]
REMARK SMILES IDX 16 1 17 2 18 3 19 4 20 5 21 6 22 7 23 8 24 9 25 10 26 11
REMARK SMILES IDX 27 12 28 13 29 14 30 15 31 16 32 17 15 18 14 19 13 20 12 21
REMARK SMILES IDX 11 22 10 23 9 24 8 25 7 26 6 27 5 28 4 29 3 30 2 31 1 32
REMARK H PARENT
REMARK Flexibility Score: inf
ROOT
ATOM      1  C   UNL     1      27.751  34.300 148.013  1.00  0.00     0.000 C 
ENDROOT
BRANCH   1   2
ATOM      2  C   UNL     1      27.332  34.602 149.456  1.00  0.00     0.000 C 
BRANCH   2   3
ATOM      3  C   UNL     1      25.824  34.376 149.647  1.00  0.00     0.000 C 
BRANCH   3   4
ATOM      4  C   UNL     1      25.335  33.073 148.995  1.00  0.00     0.000 C 
BRANCH   4   5
ATOM      5  C   UNL     1      23.967  33.230 148.312  1.00  0.00     0.000 C 
BRANCH   5   6
ATOM      6  C   UNL     1      24.081  34.097 147.050  1.00  0.00     0.000 C 
BRANCH   6   7
ATOM      7  C   UNL     1      23.184  35.349 147.096  1.00  0.00     0.000 C 
BRANCH   7   8
ATOM      8  C   UNL     1      23.916  36.666 147.419  1.00  0.00     0.000 C 
BRANCH   8   9
ATOM      9  C   UNL     1      23.684  37.215 148.839  1.00  0.00     0.000 C 
BRANCH   9  10
ATOM     10  C   UNL     1      23.360  38.723 148.881  1.00  0.00     0.000 C 
BRANCH  10  11
ATOM     11  C   UNL     1      23.745  39.445 147.580  1.00  0.00     0.000 C 
BRANCH  11  12
ATOM     12  C   UNL     1      24.855  40.475 147.830  1.00  0.00     0.000 C 
BRANCH  12  13
ATOM     13  C   UNL     1      24.388  41.924 147.597  1.00  0.00     0.006 C 
BRANCH  13  14
ATOM     14  C   UNL     1      24.040  42.695 148.881  1.00  0.00     0.053 C 
BRANCH  14  15
ATOM     15  C   UNL     1      24.764  44.003 148.974  1.00  0.00     0.041 C 
ATOM     16  O   UNL     1      25.230  44.544 147.937  1.00  0.00    -0.550 OA
ATOM     17  O   UNL     1      24.947  44.611 150.210  1.00  0.00    -0.550 OA
ENDBRANCH  14  15
ENDBRANCH  13  14
ENDBRANCH  12  13
ENDBRANCH  11  12
ENDBRANCH  10  11
ENDBRANCH   9  10
ENDBRANCH   8   9
ENDBRANCH   7   8
ENDBRANCH   6   7
ENDBRANCH   5   6
ENDBRANCH   4   5
ENDBRANCH   3   4
ENDBRANCH   2   3
ENDBRANCH   1   2
BRANCH   1  18
ATOM     18  C   UNL     1      27.249  35.390 147.053  1.00  0.00     0.000 C 
BRANCH  18  19
ATOM     19  C   UNL     1      28.118  36.657 147.095  1.00  0.00     0.000 C 
BRANCH  19  20
ATOM     20  C   UNL     1      27.362  37.869 147.675  1.00  0.00     0.000 C 
BRANCH  20  21
ATOM     21  C   UNL     1      27.887  38.287 149.061  1.00  0.00     0.000 C 
BRANCH  21  22
ATOM     22  C   UNL     1      26.864  38.125 150.202  1.00  0.00     0.000 C 
BRANCH  22  23
ATOM     23  C   UNL     1      26.655  39.427 150.996  1.00  0.00     0.000 C 
BRANCH  23  24
ATOM     24  C   UNL     1      27.802  40.431 150.798  1.00  0.00    -0.000 C 
BRANCH  24  25
ATOM     25  C   UNL     1      27.312  41.805 150.317  1.00  0.00    -0.000 C 
BRANCH  25  26
ATOM     26  C   UNL     1      28.382  42.505 149.471  1.00  0.00    -0.000 C 
BRANCH  26  27
ATOM     27  C   UNL     1      28.148  42.261 147.972  1.00  0.00    -0.000 C 
BRANCH  27  28
ATOM     28  C   UNL     1      29.415  41.745 147.257  1.00  0.00    -0.000 C 
BRANCH  28  29
ATOM     29  C   UNL     1      29.175  40.487 146.401  1.00  0.00    -0.000 C 
BRANCH  29  30
ATOM     30  C   UNL     1      28.124  40.654 145.290  1.00  0.00    -0.000 C 
BRANCH  30  31
ATOM     31  C   UNL     1      28.745  40.691 143.887  1.00  0.00    -0.003 C 
ATOM     32  C   UNL     1      29.558  39.429 143.612  1.00  0.00     0.004 C 
ENDBRANCH  30  31
ENDBRANCH  29  30
ENDBRANCH  28  29
ENDBRANCH  27  28
ENDBRANCH  26  27
ENDBRANCH  25  26
ENDBRANCH  24  25
ENDBRANCH  23  24
ENDBRANCH  22  23
ENDBRANCH  21  22
ENDBRANCH  20  21
ENDBRANCH  19  20
ENDBRANCH  18  19
ENDBRANCH   1  18
TORSDOF 28
ENDMDL
MODEL 2
REMARK VINA RESULT:    -5.029      3.276      5.749
REMARK INTER + INTRA:         -18.928
REMARK INTER:                 -12.558
REMARK INTRA:                  -6.370
REMARK UNBOUND:                -5.667
REMARK SMILES CCCCCCCCCCCCCCCCCCCCCCCCCCCCCC(=O)[O-]
REMARK SMILES IDX 16 1 17 2 18 3 19 4 20 5 21 6 22 7 23 8 24 9 25 10 26 11
REMARK SMILES IDX 27 12 28 13 29 14 30 15 31 16 32 17 15 18 14 19 13 20 12 21
REMARK SMILES IDX 11 22 10 23 9 24 8 25 7 26 6 27 5 28 4 29 3 30 2 31 1 32
REMARK H PARENT
REMARK Flexibility Score: inf
ROOT
ATOM      1  C   UNL     1      26.960  38.255 149.183  1.00  0.00     0.000 C 
ENDROOT
BRANCH   1   2
ATOM      2  C   UNL     1      26.536  38.914 150.501  1.00  0.00     0.000 C 
BRANCH   2   3
ATOM      3  C   UNL     1      27.491  40.059 150.873  1.00  0.00     0.000 C 
BRANCH   3   4
ATOM      4  C   UNL     1      26.803  41.433 150.849  1.00  0.00     0.000 C 
BRANCH   4   5
ATOM      5  C   UNL     1      25.310  41.343 150.501  1.00  0.00     0.000 C 
BRANCH   5   6
ATOM      6  C   UNL     1      24.922  42.411 149.468  1.00  0.00     0.000 C 
BRANCH   6   7
ATOM      7  C   UNL     1      24.019  41.864 148.346  1.00  0.00     0.000 C 
BRANCH   7   8
ATOM      8  C   UNL     1      24.497  40.548 147.705  1.00  0.00     0.000 C 
BRANCH   8   9
ATOM      9  C   UNL     1      23.437  39.431 147.631  1.00  0.00     0.000 C 
BRANCH   9  10
ATOM     10  C   UNL     1      23.220  38.688 148.966  1.00  0.00     0.000 C 
BRANCH  10  11
ATOM     11  C   UNL     1      23.405  37.169 148.833  1.00  0.00     0.000 C 
BRANCH  11  12
ATOM     12  C   UNL     1      23.988  36.805 147.459  1.00  0.00     0.000 C 
BRANCH  12  13
ATOM     13  C   UNL     1      24.423  35.330 147.368  1.00  0.00     0.006 C 
BRANCH  13  14
ATOM     14  C   UNL     1      24.332  34.557 148.695  1.00  0.00     0.053 C 
BRANCH  14  15
ATOM     15  C   UNL     1      25.054  33.246 148.640  1.00  0.00     0.041 C 
ATOM     16  O   UNL     1      26.295  33.213 148.429  1.00  0.00    -0.550 OA
ATOM     17  O   UNL     1      24.350  32.057 148.795  1.00  0.00    -0.550 OA
ENDBRANCH  14  15
ENDBRANCH  13  14
ENDBRANCH  12  13
ENDBRANCH  11  12
ENDBRANCH  10  11
ENDBRANCH   9  10
ENDBRANCH   8   9
ENDBRANCH   7   8
ENDBRANCH   6   7
ENDBRANCH   5   6
ENDBRANCH   4   5
ENDBRANCH   3   4
ENDBRANCH   2   3
ENDBRANCH   1   2
BRANCH   1  18
ATOM     18  C   UNL     1      27.343  36.783 149.400  1.00  0.00     0.000 C 
BRANCH  18  19
ATOM     19  C   UNL     1      28.143  36.203 148.223  1.00  0.00     0.000 C 
BRANCH  19  20
ATOM     20  C   UNL     1      27.756  36.845 146.876  1.00  0.00     0.000 C 
BRANCH  20  21
ATOM     21  C   UNL     1      28.957  37.487 146.158  1.00  0.00     0.000 C 
BRANCH  21  22
ATOM     22  C   UNL     1      30.307  37.276 146.869  1.00  0.00     0.000 C 
BRANCH  22  23
ATOM     23  C   UNL     1      31.004  38.603 147.218  1.00  0.00     0.000 C 
BRANCH  23  24
ATOM     24  C   UNL     1      30.120  39.530 148.069  1.00  0.00    -0.000 C 
BRANCH  24  25
ATOM     25  C   UNL     1      29.846  40.879 147.387  1.00  0.00    -0.000 C 
BRANCH  25  26
ATOM     26  C   UNL     1      28.360  41.248 147.477  1.00  0.00    -0.000 C 
BRANCH  26  27
ATOM     27  C   UNL     1      27.594  40.753 146.241  1.00  0.00    -0.000 C 
BRANCH  27  28
ATOM     28  C   UNL     1      28.137  41.362 144.930  1.00  0.00    -0.000 C 
BRANCH  28  29
ATOM     29  C   UNL     1      28.583  40.311 143.896  1.00  0.00    -0.000 C 
BRANCH  29  30
ATOM     30  C   UNL     1      30.102  40.237 143.666  1.00  0.00    -0.000 C 
BRANCH  30  31
ATOM     31  C   UNL     1      30.801  41.586 143.887  1.00  0.00    -0.003 C 
ATOM     32  C   UNL     1      30.901  42.374 142.584  1.00  0.00     0.004 C 
ENDBRANCH  30  31
ENDBRANCH  29  30
ENDBRANCH  28  29
ENDBRANCH  27  28
ENDBRANCH  26  27
ENDBRANCH  25  26
ENDBRANCH  24  25
ENDBRANCH  23  24
ENDBRANCH  22  23
ENDBRANCH  21  22
ENDBRANCH  20  21
ENDBRANCH  19  20
ENDBRANCH  18  19
ENDBRANCH   1  18
TORSDOF 28
ENDMDL
MODEL 3
REMARK VINA RESULT:    -5.016      2.187      5.103
REMARK INTER + INTRA:         -18.893
REMARK INTER:                 -13.194
REMARK INTRA:                  -5.699
REMARK UNBOUND:                -5.667
REMARK SMILES CCCCCCCCCCCCCCCCCCCCCCCCCCCCCC(=O)[O-]
REMARK SMILES IDX 16 1 17 2 18 3 19 4 20 5 21 6 22 7 23 8 24 9 25 10 26 11
REMARK SMILES IDX 27 12 28 13 29 14 30 15 31 16 32 17 15 18 14 19 13 20 12 21
REMARK SMILES IDX 11 22 10 23 9 24 8 25 7 26 6 27 5 28 4 29 3 30 2 31 1 32
REMARK H PARENT
REMARK Flexibility Score: inf
ROOT
ATOM      1  C   UNL     1      23.947  37.181 148.052  1.00  0.00     0.000 C 
ENDROOT
BRANCH   1   2
ATOM      2  C   UNL     1      23.389  36.026 147.213  1.00  0.00     0.000 C 
BRANCH   2   3
ATOM      3  C   UNL     1      24.379  34.852 147.170  1.00  0.00     0.000 C 
BRANCH   3   4
ATOM      4  C   UNL     1      23.787  33.558 147.751  1.00  0.00     0.000 C 
BRANCH   4   5
ATOM      5  C   UNL     1      24.607  33.006 148.926  1.00  0.00     0.000 C 
BRANCH   5   6
ATOM      6  C   UNL     1      25.236  34.148 149.739  1.00  0.00     0.000 C 
BRANCH   6   7
ATOM      7  C   UNL     1      26.771  34.197 149.623  1.00  0.00     0.000 C 
BRANCH   7   8
ATOM      8  C   UNL     1      27.429  35.469 150.191  1.00  0.00     0.000 C 
BRANCH   8   9
ATOM      9  C   UNL     1      27.560  36.640 149.197  1.00  0.00     0.000 C 
BRANCH   9  10
ATOM     10  C   UNL     1      27.822  36.197 147.742  1.00  0.00     0.000 C 
BRANCH  10  11
ATOM     11  C   UNL     1      27.756  37.367 146.749  1.00  0.00     0.000 C 
BRANCH  11  12
ATOM     12  C   UNL     1      29.045  37.458 145.920  1.00  0.00     0.000 C 
BRANCH  12  13
ATOM     13  C   UNL     1      29.344  38.889 145.438  1.00  0.00     0.006 C 
BRANCH  13  14
ATOM     14  C   UNL     1      29.410  39.045 143.909  1.00  0.00     0.053 C 
BRANCH  14  15
ATOM     15  C   UNL     1      29.811  40.428 143.495  1.00  0.00     0.041 C 
ATOM     16  O   UNL     1      31.014  40.686 143.229  1.00  0.00    -0.550 OA
ATOM     17  O   UNL     1      28.859  41.437 143.427  1.00  0.00    -0.550 OA
ENDBRANCH  14  15
ENDBRANCH  13  14
ENDBRANCH  12  13
ENDBRANCH  11  12
ENDBRANCH  10  11
ENDBRANCH   9  10
ENDBRANCH   8   9
ENDBRANCH   7   8
ENDBRANCH   6   7
ENDBRANCH   5   6
ENDBRANCH   4   5
ENDBRANCH   3   4
ENDBRANCH   2   3
ENDBRANCH   1   2
BRANCH   1  18
ATOM     18  C   UNL     1      22.834  37.864 148.861  1.00  0.00     0.000 C 
BRANCH  18  19
ATOM     19  C   UNL     1      23.385  38.760 149.982  1.00  0.00     0.000 C 
BRANCH  19  20
ATOM     20  C   UNL     1      24.920  38.684 150.093  1.00  0.00     0.000 C 
BRANCH  20  21
ATOM     21  C   UNL     1      25.491  39.687 151.112  1.00  0.00     0.000 C 
BRANCH  21  22
ATOM     22  C   UNL     1      27.018  39.872 151.032  1.00  0.00     0.000 C 
BRANCH  22  23
ATOM     23  C   UNL     1      27.424  41.340 150.812  1.00  0.00     0.000 C 
BRANCH  23  24
ATOM     24  C   UNL     1      28.556  41.492 149.782  1.00  0.00    -0.000 C 
BRANCH  24  25
ATOM     25  C   UNL     1      28.264  40.757 148.466  1.00  0.00    -0.000 C 
BRANCH  25  26
ATOM     26  C   UNL     1      28.160  41.744 147.297  1.00  0.00    -0.000 C 
BRANCH  26  27
ATOM     27  C   UNL     1      26.922  41.451 146.435  1.00  0.00    -0.000 C 
BRANCH  27  28
ATOM     28  C   UNL     1      25.961  40.449 147.110  1.00  0.00    -0.000 C 
BRANCH  28  29
ATOM     29  C   UNL     1      24.559  41.023 147.385  1.00  0.00    -0.000 C 
BRANCH  29  30
ATOM     30  C   UNL     1      24.548  42.456 147.944  1.00  0.00    -0.000 C 
BRANCH  30  31
ATOM     31  C   UNL     1      24.086  42.518 149.407  1.00  0.00    -0.003 C 
ATOM     32  C   UNL     1      24.689  43.723 150.124  1.00  0.00     0.004 C 
ENDBRANCH  30  31
ENDBRANCH  29  30
ENDBRANCH  28  29
ENDBRANCH  27  28
ENDBRANCH  26  27
ENDBRANCH  25  26
ENDBRANCH  24  25
ENDBRANCH  23  24
ENDBRANCH  22  23
ENDBRANCH  21  22
ENDBRANCH  20  21
ENDBRANCH  19  20
ENDBRANCH  18  19
ENDBRANCH   1  18
TORSDOF 28
ENDMDL
MODEL 4
REMARK VINA RESULT:    -4.869      2.036      5.707
REMARK INTER + INTRA:         -18.507
REMARK INTER:                 -12.355
REMARK INTRA:                  -6.153
REMARK UNBOUND:                -5.667
REMARK SMILES CCCCCCCCCCCCCCCCCCCCCCCCCCCCCC(=O)[O-]
REMARK SMILES IDX 16 1 17 2 18 3 19 4 20 5 21 6 22 7 23 8 24 9 25 10 26 11
REMARK SMILES IDX 27 12 28 13 29 14 30 15 31 16 32 17 15 18 14 19 13 20 12 21
REMARK SMILES IDX 11 22 10 23 9 24 8 25 7 26 6 27 5 28 4 29 3 30 2 31 1 32
REMARK H PARENT
REMARK Flexibility Score: inf
ROOT
ATOM      1  C   UNL     1      23.484  36.666 148.817  1.00  0.00     0.000 C 
ENDROOT
BRANCH   1   2
ATOM      2  C   UNL     1      23.135  38.158 148.886  1.00  0.00     0.000 C 
BRANCH   2   3
ATOM      3  C   UNL     1      23.683  38.906 147.662  1.00  0.00     0.000 C 
BRANCH   3   4
ATOM      4  C   UNL     1      24.446  40.184 148.043  1.00  0.00     0.000 C 
BRANCH   4   5
ATOM      5  C   UNL     1      24.661  40.317 149.558  1.00  0.00     0.000 C 
BRANCH   5   6
ATOM      6  C   UNL     1      24.457  41.768 150.016  1.00  0.00     0.000 C 
BRANCH   6   7
ATOM      7  C   UNL     1      25.770  42.464 150.420  1.00  0.00     0.000 C 
BRANCH   7   8
ATOM      8  C   UNL     1      26.974  41.523 150.618  1.00  0.00     0.000 C 
BRANCH   8   9
ATOM      9  C   UNL     1      28.198  41.827 149.733  1.00  0.00     0.000 C 
BRANCH   9  10
ATOM     10  C   UNL     1      28.035  43.084 148.852  1.00  0.00     0.000 C 
BRANCH  10  11
ATOM     11  C   UNL     1      27.537  42.752 147.437  1.00  0.00     0.000 C 
BRANCH  11  12
ATOM     12  C   UNL     1      28.181  41.458 146.917  1.00  0.00     0.000 C 
BRANCH  12  13
ATOM     13  C   UNL     1      27.528  40.947 145.620  1.00  0.00     0.006 C 
BRANCH  13  14
ATOM     14  C   UNL     1      28.527  40.509 144.535  1.00  0.00     0.053 C 
BRANCH  14  15
ATOM     15  C   UNL     1      29.079  41.671 143.768  1.00  0.00     0.041 C 
ATOM     16  O   UNL     1      28.411  42.733 143.658  1.00  0.00    -0.550 OA
ATOM     17  O   UNL     1      30.321  41.571 143.152  1.00  0.00    -0.550 OA
ENDBRANCH  14  15
ENDBRANCH  13  14
ENDBRANCH  12  13
ENDBRANCH  11  12
ENDBRANCH  10  11
ENDBRANCH   9  10
ENDBRANCH   8   9
ENDBRANCH   7   8
ENDBRANCH   6   7
ENDBRANCH   5   6
ENDBRANCH   4   5
ENDBRANCH   3   4
ENDBRANCH   2   3
ENDBRANCH   1   2
BRANCH   1  18
ATOM     18  C   UNL     1      23.748  36.229 147.368  1.00  0.00     0.000 C 
BRANCH  18  19
ATOM     19  C   UNL     1      24.182  34.757 147.268  1.00  0.00     0.000 C 
BRANCH  19  20
ATOM     20  C   UNL     1      24.060  34.015 148.613  1.00  0.00     0.000 C 
BRANCH  20  21
ATOM     21  C   UNL     1      25.408  33.456 149.106  1.00  0.00     0.000 C 
BRANCH  21  22
ATOM     22  C   UNL     1      26.617  33.868 148.246  1.00  0.00     0.000 C 
BRANCH  22  23
ATOM     23  C   UNL     1      27.835  34.272 149.096  1.00  0.00     0.000 C 
BRANCH  23  24
ATOM     24  C   UNL     1      27.464  35.219 150.249  1.00  0.00    -0.000 C 
BRANCH  24  25
ATOM     25  C   UNL     1      26.674  36.448 149.776  1.00  0.00    -0.000 C 
BRANCH  25  26
ATOM     26  C   UNL     1      27.509  37.726 149.918  1.00  0.00    -0.000 C 
BRANCH  26  27
ATOM     27  C   UNL     1      27.706  38.411 148.557  1.00  0.00    -0.000 C 
BRANCH  27  28
ATOM     28  C   UNL     1      27.141  37.573 147.391  1.00  0.00    -0.000 C 
BRANCH  28  29
ATOM     29  C   UNL     1      28.203  37.151 146.358  1.00  0.00    -0.000 C 
BRANCH  29  30
ATOM     30  C   UNL     1      29.629  37.014 146.919  1.00  0.00    -0.000 C 
BRANCH  30  31
ATOM     31  C   UNL     1      30.619  37.989 146.266  1.00  0.00    -0.003 C 
ATOM     32  C   UNL     1      31.150  38.997 147.282  1.00  0.00     0.004 C 
ENDBRANCH  30  31
ENDBRANCH  29  30
ENDBRANCH  28  29
ENDBRANCH  27  28
ENDBRANCH  26  27
ENDBRANCH  25  26
ENDBRANCH  24  25
ENDBRANCH  23  24
ENDBRANCH  22  23
ENDBRANCH  21  22
ENDBRANCH  20  21
ENDBRANCH  19  20
ENDBRANCH  18  19
ENDBRANCH   1  18
TORSDOF 28
ENDMDL
MODEL 5
REMARK VINA RESULT:    -4.868      3.206      6.325
REMARK INTER + INTRA:         -18.504
REMARK INTER:                 -12.665
REMARK INTRA:                  -5.840
REMARK UNBOUND:                -5.667
REMARK SMILES CCCCCCCCCCCCCCCCCCCCCCCCCCCCCC(=O)[O-]
REMARK SMILES IDX 16 1 17 2 18 3 19 4 20 5 21 6 22 7 23 8 24 9 25 10 26 11
REMARK SMILES IDX 27 12 28 13 29 14 30 15 31 16 32 17 15 18 14 19 13 20 12 21
REMARK SMILES IDX 11 22 10 23 9 24 8 25 7 26 6 27 5 28 4 29 3 30 2 31 1 32
REMARK H PARENT
REMARK Flexibility Score: inf
ROOT
ATOM      1  C   UNL     1      26.853  38.345 150.222  1.00  0.00     0.000 C 
ENDROOT
BRANCH   1   2
ATOM      2  C   UNL     1      27.224  39.607 151.009  1.00  0.00     0.000 C 
BRANCH   2   3
ATOM      3  C   UNL     1      26.127  40.674 150.882  1.00  0.00     0.000 C 
BRANCH   3   4
ATOM      4  C   UNL     1      26.693  42.103 150.840  1.00  0.00     0.000 C 
BRANCH   4   5
ATOM      5  C   UNL     1      26.450  42.797 149.491  1.00  0.00     0.000 C 
BRANCH   5   6
ATOM      6  C   UNL     1      24.961  42.758 149.116  1.00  0.00     0.000 C 
BRANCH   6   7
ATOM      7  C   UNL     1      24.713  42.251 147.683  1.00  0.00     0.000 C 
BRANCH   7   8
ATOM      8  C   UNL     1      25.680  41.152 147.201  1.00  0.00     0.000 C 
BRANCH   8   9
ATOM      9  C   UNL     1      25.150  39.711 147.324  1.00  0.00     0.000 C 
BRANCH   9  10
ATOM     10  C   UNL     1      23.659  39.625 147.714  1.00  0.00     0.000 C 
BRANCH  10  11
ATOM     11  C   UNL     1      23.221  38.194 148.060  1.00  0.00     0.000 C 
BRANCH  11  12
ATOM     12  C   UNL     1      24.256  37.169 147.573  1.00  0.00     0.000 C 
BRANCH  12  13
ATOM     13  C   UNL     1      24.114  35.803 148.267  1.00  0.00     0.006 C 
BRANCH  13  14
ATOM     14  C   UNL     1      24.380  34.594 147.354  1.00  0.00     0.053 C 
BRANCH  14  15
ATOM     15  C   UNL     1      24.964  33.434 148.100  1.00  0.00     0.041 C 
ATOM     16  O   UNL     1      26.188  33.422 148.395  1.00  0.00    -0.550 OA
ATOM     17  O   UNL     1      24.161  32.354 148.445  1.00  0.00    -0.550 OA
ENDBRANCH  14  15
ENDBRANCH  13  14
ENDBRANCH  12  13
ENDBRANCH  11  12
ENDBRANCH  10  11
ENDBRANCH   9  10
ENDBRANCH   8   9
ENDBRANCH   7   8
ENDBRANCH   6   7
ENDBRANCH   5   6
ENDBRANCH   4   5
ENDBRANCH   3   4
ENDBRANCH   2   3
ENDBRANCH   1   2
BRANCH   1  18
ATOM     18  C   UNL     1      27.879  38.063 149.114  1.00  0.00     0.000 C 
BRANCH  18  19
ATOM     19  C   UNL     1      27.771  36.633 148.561  1.00  0.00     0.000 C 
BRANCH  19  20
ATOM     20  C   UNL     1      27.679  36.603 147.023  1.00  0.00     0.000 C 
BRANCH  20  21
ATOM     21  C   UNL     1      28.328  37.835 146.366  1.00  0.00     0.000 C 
BRANCH  21  22
ATOM     22  C   UNL     1      29.850  37.715 146.160  1.00  0.00     0.000 C 
BRANCH  22  23
ATOM     23  C   UNL     1      30.340  38.478 144.917  1.00  0.00     0.000 C 
BRANCH  23  24
ATOM     24  C   UNL     1      29.188  38.898 143.989  1.00  0.00    -0.000 C 
BRANCH  24  25
ATOM     25  C   UNL     1      29.148  40.414 143.741  1.00  0.00    -0.000 C 
BRANCH  25  26
ATOM     26  C   UNL     1      28.159  41.100 144.692  1.00  0.00    -0.000 C 
BRANCH  26  27
ATOM     27  C   UNL     1      28.597  42.540 144.998  1.00  0.00    -0.000 C 
BRANCH  27  28
ATOM     28  C   UNL     1      29.014  42.726 146.473  1.00  0.00    -0.000 C 
BRANCH  28  29
ATOM     29  C   UNL     1      29.880  41.577 147.022  1.00  0.00    -0.000 C 
BRANCH  29  30
ATOM     30  C   UNL     1      29.487  41.088 148.427  1.00  0.00    -0.000 C 
BRANCH  30  31
ATOM     31  C   UNL     1      30.571  40.215 149.076  1.00  0.00    -0.003 C 
ATOM     32  C   UNL     1      31.554  41.064 149.878  1.00  0.00     0.004 C 
ENDBRANCH  30  31
ENDBRANCH  29  30
ENDBRANCH  28  29
ENDBRANCH  27  28
ENDBRANCH  26  27
ENDBRANCH  25  26
ENDBRANCH  24  25
ENDBRANCH  23  24
ENDBRANCH  22  23
ENDBRANCH  21  22
ENDBRANCH  20  21
ENDBRANCH  19  20
ENDBRANCH  18  19
ENDBRANCH   1  18
TORSDOF 28
ENDMDL
MODEL 6
REMARK VINA RESULT:    -4.861      2.385      4.937
REMARK INTER + INTRA:         -18.486
REMARK INTER:                 -12.828
REMARK INTRA:                  -5.658
REMARK UNBOUND:                -5.667
REMARK SMILES CCCCCCCCCCCCCCCCCCCCCCCCCCCCCC(=O)[O-]
REMARK SMILES IDX 16 1 17 2 18 3 19 4 20 5 21 6 22 7 23 8 24 9 25 10 26 11
REMARK SMILES IDX 27 12 28 13 29 14 30 15 31 16 32 17 15 18 14 19 13 20 12 21
REMARK SMILES IDX 11 22 10 23 9 24 8 25 7 26 6 27 5 28 4 29 3 30 2 31 1 32
REMARK H PARENT
REMARK Flexibility Score: inf
ROOT
ATOM      1  C   UNL     1      24.389  37.113 147.497  1.00  0.00     0.000 C 
ENDROOT
BRANCH   1   2
ATOM      2  C   UNL     1      23.432  35.926 147.340  1.00  0.00     0.000 C 
BRANCH   2   3
ATOM      3  C   UNL     1      24.208  34.601 147.276  1.00  0.00     0.000 C 
BRANCH   3   4
ATOM      4  C   UNL     1      24.013  33.740 148.534  1.00  0.00     0.000 C 
BRANCH   4   5
ATOM      5  C   UNL     1      25.149  33.914 149.554  1.00  0.00     0.000 C 
BRANCH   5   6
ATOM      6  C   UNL     1      26.519  33.756 148.880  1.00  0.00     0.000 C 
BRANCH   6   7
ATOM      7  C   UNL     1      27.637  34.538 149.594  1.00  0.00     0.000 C 
BRANCH   7   8
ATOM      8  C   UNL     1      27.257  35.963 150.038  1.00  0.00     0.000 C 
BRANCH   8   9
ATOM      9  C   UNL     1      27.908  37.099 149.226  1.00  0.00     0.000 C 
BRANCH   9  10
ATOM     10  C   UNL     1      27.967  36.827 147.708  1.00  0.00     0.000 C 
BRANCH  10  11
ATOM     11  C   UNL     1      29.344  37.147 147.105  1.00  0.00     0.000 C 
BRANCH  11  12
ATOM     12  C   UNL     1      29.200  37.876 145.762  1.00  0.00     0.000 C 
BRANCH  12  13
ATOM     13  C   UNL     1      29.356  39.402 145.892  1.00  0.00     0.006 C 
BRANCH  13  14
ATOM     14  C   UNL     1      28.636  40.211 144.799  1.00  0.00     0.053 C 
BRANCH  14  15
ATOM     15  C   UNL     1      29.568  40.657 143.715  1.00  0.00     0.041 C 
ATOM     16  O   UNL     1      29.197  41.519 142.875  1.00  0.00    -0.550 OA
ATOM     17  O   UNL     1      30.838  40.101 143.616  1.00  0.00    -0.550 OA
ENDBRANCH  14  15
ENDBRANCH  13  14
ENDBRANCH  12  13
ENDBRANCH  11  12
ENDBRANCH  10  11
ENDBRANCH   9  10
ENDBRANCH   8   9
ENDBRANCH   7   8
ENDBRANCH   6   7
ENDBRANCH   5   6
ENDBRANCH   4   5
ENDBRANCH   3   4
ENDBRANCH   2   3
ENDBRANCH   1   2
BRANCH   1  18
ATOM     18  C   UNL     1      24.161  37.831 148.836  1.00  0.00     0.000 C 
BRANCH  18  19
ATOM     19  C   UNL     1      24.807  39.226 148.872  1.00  0.00     0.000 C 
BRANCH  19  20
ATOM     20  C   UNL     1      25.643  39.520 147.611  1.00  0.00     0.000 C 
BRANCH  20  21
ATOM     21  C   UNL     1      25.416  40.943 147.068  1.00  0.00     0.000 C 
BRANCH  21  22
ATOM     22  C   UNL     1      24.131  41.620 147.580  1.00  0.00     0.000 C 
BRANCH  22  23
ATOM     23  C   UNL     1      24.401  42.992 148.222  1.00  0.00     0.000 C 
BRANCH  23  24
ATOM     24  C   UNL     1      25.884  43.198 148.575  1.00  0.00    -0.000 C 
BRANCH  24  25
ATOM     25  C   UNL     1      26.083  43.790 149.978  1.00  0.00    -0.000 C 
BRANCH  25  26
ATOM     26  C   UNL     1      27.121  42.987 150.771  1.00  0.00    -0.000 C 
BRANCH  26  27
ATOM     27  C   UNL     1      26.717  41.507 150.868  1.00  0.00    -0.000 C 
BRANCH  27  28
ATOM     28  C   UNL     1      27.906  40.556 150.616  1.00  0.00    -0.000 C 
BRANCH  28  29
ATOM     29  C   UNL     1      28.564  40.737 149.235  1.00  0.00    -0.000 C 
BRANCH  29  30
ATOM     30  C   UNL     1      29.946  41.412 149.264  1.00  0.00    -0.000 C 
BRANCH  30  31
ATOM     31  C   UNL     1      31.000  40.574 150.002  1.00  0.00    -0.003 C 
ATOM     32  C   UNL     1      31.449  39.386 149.155  1.00  0.00     0.004 C 
ENDBRANCH  30  31
ENDBRANCH  29  30
ENDBRANCH  28  29
ENDBRANCH  27  28
ENDBRANCH  26  27
ENDBRANCH  25  26
ENDBRANCH  24  25
ENDBRANCH  23  24
ENDBRANCH  22  23
ENDBRANCH  21  22
ENDBRANCH  20  21
ENDBRANCH  19  20
ENDBRANCH  18  19
ENDBRANCH   1  18
TORSDOF 28
ENDMDL
MODEL 7
REMARK VINA RESULT:    -4.857      1.373      5.093
REMARK INTER + INTRA:         -18.475
REMARK INTER:                 -13.377
REMARK INTRA:                  -5.098
REMARK UNBOUND:                -5.667
REMARK SMILES CCCCCCCCCCCCCCCCCCCCCCCCCCCCCC(=O)[O-]
REMARK SMILES IDX 16 1 17 2 18 3 19 4 20 5 21 6 22 7 23 8 24 9 25 10 26 11
REMARK SMILES IDX 27 12 28 13 29 14 30 15 31 16 32 17 15 18 14 19 13 20 12 21
REMARK SMILES IDX 11 22 10 23 9 24 8 25 7 26 6 27 5 28 4 29 3 30 2 31 1 32
REMARK H PARENT
REMARK Flexibility Score: inf
ROOT
ATOM      1  C   UNL     1      23.308  38.619 147.879  1.00  0.00     0.000 C 
ENDROOT
BRANCH   1   2
ATOM      2  C   UNL     1      23.623  39.030 149.322  1.00  0.00     0.000 C 
BRANCH   2   3
ATOM      3  C   UNL     1      25.063  38.648 149.698  1.00  0.00     0.000 C 
BRANCH   3   4
ATOM      4  C   UNL     1      25.568  39.397 150.941  1.00  0.00     0.000 C 
BRANCH   4   5
ATOM      5  C   UNL     1      25.847  40.882 150.665  1.00  0.00     0.000 C 
BRANCH   5   6
ATOM      6  C   UNL     1      27.348  41.188 150.780  1.00  0.00     0.000 C 
BRANCH   6   7
ATOM      7  C   UNL     1      28.020  41.434 149.416  1.00  0.00     0.000 C 
BRANCH   7   8
ATOM      8  C   UNL     1      28.008  40.230 148.455  1.00  0.00     0.000 C 
BRANCH   8   9
ATOM      9  C   UNL     1      27.406  40.507 147.064  1.00  0.00     0.000 C 
BRANCH   9  10
ATOM     10  C   UNL     1      26.535  41.779 147.002  1.00  0.00     0.000 C 
BRANCH  10  11
ATOM     11  C   UNL     1      25.038  41.478 147.175  1.00  0.00     0.000 C 
BRANCH  11  12
ATOM     12  C   UNL     1      24.292  42.698 147.733  1.00  0.00     0.000 C 
BRANCH  12  13
ATOM     13  C   UNL     1      25.222  43.680 148.469  1.00  0.00     0.006 C 
BRANCH  13  14
ATOM     14  C   UNL     1      24.743  45.142 148.453  1.00  0.00     0.053 C 
BRANCH  14  15
ATOM     15  C   UNL     1      23.342  45.288 148.962  1.00  0.00     0.041 C 
ATOM     16  O   UNL     1      23.071  45.008 150.160  1.00  0.00    -0.550 OA
ATOM     17  O   UNL     1      22.331  45.708 148.107  1.00  0.00    -0.550 OA
ENDBRANCH  14  15
ENDBRANCH  13  14
ENDBRANCH  12  13
ENDBRANCH  11  12
ENDBRANCH  10  11
ENDBRANCH   9  10
ENDBRANCH   8   9
ENDBRANCH   7   8
ENDBRANCH   6   7
ENDBRANCH   5   6
ENDBRANCH   4   5
ENDBRANCH   3   4
ENDBRANCH   2   3
ENDBRANCH   1   2
BRANCH   1  18
ATOM     18  C   UNL     1      24.101  37.366 147.476  1.00  0.00     0.000 C 
BRANCH  18  19
ATOM     19  C   UNL     1      23.277  36.076 147.618  1.00  0.00     0.000 C 
BRANCH  19  20
ATOM     20  C   UNL     1      23.999  34.849 147.028  1.00  0.00     0.000 C 
BRANCH  20  21
ATOM     21  C   UNL     1      23.855  33.595 147.911  1.00  0.00     0.000 C 
BRANCH  21  22
ATOM     22  C   UNL     1      25.152  33.168 148.622  1.00  0.00     0.000 C 
BRANCH  22  23
ATOM     23  C   UNL     1      25.578  34.159 149.719  1.00  0.00     0.000 C 
BRANCH  23  24
ATOM     24  C   UNL     1      27.056  34.565 149.609  1.00  0.00    -0.000 C 
BRANCH  24  25
ATOM     25  C   UNL     1      27.255  35.879 148.838  1.00  0.00    -0.000 C 
BRANCH  25  26
ATOM     26  C   UNL     1      27.407  35.617 147.335  1.00  0.00    -0.000 C 
BRANCH  26  27
ATOM     27  C   UNL     1      27.990  36.843 146.616  1.00  0.00    -0.000 C 
BRANCH  27  28
ATOM     28  C   UNL     1      29.475  37.078 146.968  1.00  0.00    -0.000 C 
BRANCH  28  29
ATOM     29  C   UNL     1      30.206  38.007 145.980  1.00  0.00    -0.000 C 
BRANCH  29  30
ATOM     30  C   UNL     1      29.374  38.432 144.758  1.00  0.00    -0.000 C 
BRANCH  30  31
ATOM     31  C   UNL     1      29.954  39.661 144.045  1.00  0.00    -0.003 C 
ATOM     32  C   UNL     1      28.853  40.652 143.675  1.00  0.00     0.004 C 
ENDBRANCH  30  31
ENDBRANCH  29  30
ENDBRANCH  28  29
ENDBRANCH  27  28
ENDBRANCH  26  27
ENDBRANCH  25  26
ENDBRANCH  24  25
ENDBRANCH  23  24
ENDBRANCH  22  23
ENDBRANCH  21  22
ENDBRANCH  20  21
ENDBRANCH  19  20
ENDBRANCH  18  19
ENDBRANCH   1  18
TORSDOF 28
ENDMDL
MODEL 8
REMARK VINA RESULT:    -4.839      3.021      5.884
REMARK INTER + INTRA:         -18.428
REMARK INTER:                 -11.840
REMARK INTRA:                  -6.588
REMARK UNBOUND:                -5.667
REMARK SMILES CCCCCCCCCCCCCCCCCCCCCCCCCCCCCC(=O)[O-]
REMARK SMILES IDX 16 1 17 2 18 3 19 4 20 5 21 6 22 7 23 8 24 9 25 10 26 11
REMARK SMILES IDX 27 12 28 13 29 14 30 15 31 16 32 17 15 18 14 19 13 20 12 21
REMARK SMILES IDX 11 22 10 23 9 24 8 25 7 26 6 27 5 28 4 29 3 30 2 31 1 32
REMARK H PARENT
REMARK Flexibility Score: inf
ROOT
ATOM      1  C   UNL     1      24.429  38.285 149.177  1.00  0.00     0.000 C 
ENDROOT
BRANCH   1   2
ATOM      2  C   UNL     1      23.981  39.177 150.341  1.00  0.00     0.000 C 
BRANCH   2   3
ATOM      3  C   UNL     1      25.194  39.723 151.110  1.00  0.00     0.000 C 
BRANCH   3   4
ATOM      4  C   UNL     1      26.495  38.978 150.770  1.00  0.00     0.000 C 
BRANCH   4   5
ATOM      5  C   UNL     1      27.689  39.926 150.582  1.00  0.00     0.000 C 
BRANCH   5   6
ATOM      6  C   UNL     1      28.089  40.018 149.103  1.00  0.00     0.000 C 
BRANCH   6   7
ATOM      7  C   UNL     1      29.332  39.176 148.760  1.00  0.00     0.000 C 
BRANCH   7   8
ATOM      8  C   UNL     1      29.112  38.092 147.687  1.00  0.00     0.000 C 
BRANCH   8   9
ATOM      9  C   UNL     1      27.667  37.965 147.169  1.00  0.00     0.000 C 
BRANCH   9  10
ATOM     10  C   UNL     1      27.052  36.564 147.371  1.00  0.00     0.000 C 
BRANCH  10  11
ATOM     11  C   UNL     1      27.796  35.741 148.434  1.00  0.00     0.000 C 
BRANCH  11  12
ATOM     12  C   UNL     1      26.911  35.505 149.666  1.00  0.00     0.000 C 
BRANCH  12  13
ATOM     13  C   UNL     1      25.963  34.304 149.498  1.00  0.00     0.006 C 
BRANCH  13  14
ATOM     14  C   UNL     1      24.504  34.683 149.188  1.00  0.00     0.053 C 
BRANCH  14  15
ATOM     15  C   UNL     1      24.028  34.102 147.892  1.00  0.00     0.041 C 
ATOM     16  O   UNL     1      23.917  34.834 146.873  1.00  0.00    -0.550 OA
ATOM     17  O   UNL     1      23.682  32.759 147.816  1.00  0.00    -0.550 OA
ENDBRANCH  14  15
ENDBRANCH  13  14
ENDBRANCH  12  13
ENDBRANCH  11  12
ENDBRANCH  10  11
ENDBRANCH   9  10
ENDBRANCH   8   9
ENDBRANCH   7   8
ENDBRANCH   6   7
ENDBRANCH   5   6
ENDBRANCH   4   5
ENDBRANCH   3   4
ENDBRANCH   2   3
ENDBRANCH   1   2
BRANCH   1  18
ATOM     18  C   UNL     1      23.590  38.559 147.919  1.00  0.00     0.000 C 
BRANCH  18  19
ATOM     19  C   UNL     1      23.622  40.038 147.501  1.00  0.00     0.000 C 
BRANCH  19  20
ATOM     20  C   UNL     1      25.057  40.559 147.290  1.00  0.00     0.000 C 
BRANCH  20  21
ATOM     21  C   UNL     1      25.258  41.982 147.841  1.00  0.00     0.000 C 
BRANCH  21  22
ATOM     22  C   UNL     1      24.046  42.543 148.608  1.00  0.00     0.000 C 
BRANCH  22  23
ATOM     23  C   UNL     1      24.457  43.421 149.802  1.00  0.00     0.000 C 
BRANCH  23  24
ATOM     24  C   UNL     1      25.850  43.064 150.348  1.00  0.00    -0.000 C 
BRANCH  24  25
ATOM     25  C   UNL     1      26.796  44.273 150.398  1.00  0.00    -0.000 C 
BRANCH  25  26
ATOM     26  C   UNL     1      28.262  43.823 150.403  1.00  0.00    -0.000 C 
BRANCH  26  27
ATOM     27  C   UNL     1      28.699  43.351 149.007  1.00  0.00    -0.000 C 
BRANCH  27  28
ATOM     28  C   UNL     1      28.413  44.405 147.915  1.00  0.00    -0.000 C 
BRANCH  28  29
ATOM     29  C   UNL     1      28.356  43.823 146.491  1.00  0.00    -0.000 C 
BRANCH  29  30
ATOM     30  C   UNL     1      28.708  42.328 146.391  1.00  0.00    -0.000 C 
BRANCH  30  31
ATOM     31  C   UNL     1      27.913  41.604 145.295  1.00  0.00    -0.003 C 
ATOM     32  C   UNL     1      28.728  40.468 144.684  1.00  0.00     0.004 C 
ENDBRANCH  30  31
ENDBRANCH  29  30
ENDBRANCH  28  29
ENDBRANCH  27  28
ENDBRANCH  26  27
ENDBRANCH  25  26
ENDBRANCH  24  25
ENDBRANCH  23  24
ENDBRANCH  22  23
ENDBRANCH  21  22
ENDBRANCH  20  21
ENDBRANCH  19  20
ENDBRANCH  18  19
ENDBRANCH   1  18
TORSDOF 28
ENDMDL
MODEL 9
REMARK VINA RESULT:    -4.783      3.044      6.158
REMARK INTER + INTRA:         -18.279
REMARK INTER:                 -12.594
REMARK INTRA:                  -5.685
REMARK UNBOUND:                -5.667
REMARK SMILES CCCCCCCCCCCCCCCCCCCCCCCCCCCCCC(=O)[O-]
REMARK SMILES IDX 16 1 17 2 18 3 19 4 20 5 21 6 22 7 23 8 24 9 25 10 26 11
REMARK SMILES IDX 27 12 28 13 29 14 30 15 31 16 32 17 15 18 14 19 13 20 12 21
REMARK SMILES IDX 11 22 10 23 9 24 8 25 7 26 6 27 5 28 4 29 3 30 2 31 1 32
REMARK H PARENT
REMARK Flexibility Score: inf
ROOT
ATOM      1  C   UNL     1      26.400  39.206 150.769  1.00  0.00     0.000 C 
ENDROOT
BRANCH   1   2
ATOM      2  C   UNL     1      25.111  39.964 151.106  1.00  0.00     0.000 C 
BRANCH   2   3
ATOM      3  C   UNL     1      25.332  41.482 151.029  1.00  0.00     0.000 C 
BRANCH   3   4
ATOM      4  C   UNL     1      24.289  42.188 150.149  1.00  0.00     0.000 C 
BRANCH   4   5
ATOM      5  C   UNL     1      24.896  42.773 148.864  1.00  0.00     0.000 C 
BRANCH   5   6
ATOM      6  C   UNL     1      24.487  41.944 147.638  1.00  0.00     0.000 C 
BRANCH   6   7
ATOM      7  C   UNL     1      25.500  40.836 147.294  1.00  0.00     0.000 C 
BRANCH   7   8
ATOM      8  C   UNL     1      24.951  39.399 147.379  1.00  0.00     0.000 C 
BRANCH   8   9
ATOM      9  C   UNL     1      23.464  39.286 147.766  1.00  0.00     0.000 C 
BRANCH   9  10
ATOM     10  C   UNL     1      23.125  38.018 148.578  1.00  0.00     0.000 C 
BRANCH  10  11
ATOM     11  C   UNL     1      24.165  36.902 148.390  1.00  0.00     0.000 C 
BRANCH  11  12
ATOM     12  C   UNL     1      23.641  35.817 147.438  1.00  0.00     0.000 C 
BRANCH  12  13
ATOM     13  C   UNL     1      24.090  34.401 147.844  1.00  0.00     0.006 C 
BRANCH  13  14
ATOM     14  C   UNL     1      24.658  34.298 149.269  1.00  0.00     0.053 C 
BRANCH  14  15
ATOM     15  C   UNL     1      26.148  34.147 149.278  1.00  0.00     0.041 C 
ATOM     16  O   UNL     1      26.709  33.341 148.489  1.00  0.00    -0.550 OA
ATOM     17  O   UNL     1      26.916  34.878 150.177  1.00  0.00    -0.550 OA
ENDBRANCH  14  15
ENDBRANCH  13  14
ENDBRANCH  12  13
ENDBRANCH  11  12
ENDBRANCH  10  11
ENDBRANCH   9  10
ENDBRANCH   8   9
ENDBRANCH   7   8
ENDBRANCH   6   7
ENDBRANCH   5   6
ENDBRANCH   4   5
ENDBRANCH   3   4
ENDBRANCH   2   3
ENDBRANCH   1   2
BRANCH   1  18
ATOM     18  C   UNL     1      27.568  40.178 150.543  1.00  0.00     0.000 C 
BRANCH  18  19
ATOM     19  C   UNL     1      28.463  39.759 149.365  1.00  0.00     0.000 C 
BRANCH  19  20
ATOM     20  C   UNL     1      28.167  38.325 148.883  1.00  0.00     0.000 C 
BRANCH  20  21
ATOM     21  C   UNL     1      28.511  38.117 147.396  1.00  0.00     0.000 C 
BRANCH  21  22
ATOM     22  C   UNL     1      29.968  37.690 147.137  1.00  0.00     0.000 C 
BRANCH  22  23
ATOM     23  C   UNL     1      30.356  37.787 145.651  1.00  0.00     0.000 C 
BRANCH  23  24
ATOM     24  C   UNL     1      29.241  38.399 144.787  1.00  0.00    -0.000 C 
BRANCH  24  25
ATOM     25  C   UNL     1      29.774  39.402 143.753  1.00  0.00    -0.000 C 
BRANCH  25  26
ATOM     26  C   UNL     1      28.824  40.598 143.607  1.00  0.00    -0.000 C 
BRANCH  26  27
ATOM     27  C   UNL     1      28.142  40.926 144.945  1.00  0.00    -0.000 C 
BRANCH  27  28
ATOM     28  C   UNL     1      28.867  42.052 145.713  1.00  0.00    -0.000 C 
BRANCH  28  29
ATOM     29  C   UNL     1      29.977  41.546 146.654  1.00  0.00    -0.000 C 
BRANCH  29  30
ATOM     30  C   UNL     1      31.388  42.059 146.320  1.00  0.00    -0.000 C 
BRANCH  30  31
ATOM     31  C   UNL     1      32.340  40.936 145.884  1.00  0.00    -0.003 C 
ATOM     32  C   UNL     1      32.919  41.213 144.500  1.00  0.00     0.004 C 
ENDBRANCH  30  31
ENDBRANCH  29  30
ENDBRANCH  28  29
ENDBRANCH  27  28
ENDBRANCH  26  27
ENDBRANCH  25  26
ENDBRANCH  24  25
ENDBRANCH  23  24
ENDBRANCH  22  23
ENDBRANCH  21  22
ENDBRANCH  20  21
ENDBRANCH  19  20
ENDBRANCH  18  19
ENDBRANCH   1  18
TORSDOF 28
ENDMDL
