MODEL 1
REMARK VINA RESULT:    -3.280      0.000      0.000
REMARK INTER + INTRA:         -13.956
REMARK INTER:                  -8.649
REMARK INTRA:                  -5.307
REMARK UNBOUND:                -5.307
REMARK SMILES CCCCCCCCCCCCCCCCCCCCCCCCCCCCCC(=O)[O-]
REMARK SMILES IDX 16 1 17 2 18 3 19 4 20 5 21 6 22 7 23 8 24 9 25 10 26 11
REMARK SMILES IDX 27 12 28 13 29 14 30 15 31 16 32 17 15 18 14 19 13 20 12 21
REMARK SMILES IDX 11 22 10 23 9 24 8 25 7 26 6 27 5 28 4 29 3 30 2 31 1 32
REMARK H PARENT
REMARK Flexibility Score: inf
ROOT
ATOM      1  C   UNL     1    -107.705  32.768 -37.413  1.00  0.00     0.000 C 
ENDROOT
BRANCH   1   2
ATOM      2  C   UNL     1    -107.620  32.903 -35.880  1.00  0.00     0.000 C 
BRANCH   2   3
ATOM      3  C   UNL     1    -107.381  31.559 -35.173  1.00  0.00     0.000 C 
BRANCH   3   4
ATOM      4  C   UNL     1    -106.307  31.594 -34.070  1.00  0.00     0.000 C 
BRANCH   4   5
ATOM      5  C   UNL     1    -105.725  33.002 -33.839  1.00  0.00     0.000 C 
BRANCH   5   6
ATOM      6  C   UNL     1    -105.066  33.138 -32.457  1.00  0.00     0.000 C 
BRANCH   6   7
ATOM      7  C   UNL     1    -105.180  31.849 -31.624  1.00  0.00     0.000 C 
BRANCH   7   8
ATOM      8  C   UNL     1    -106.090  32.004 -30.392  1.00  0.00     0.000 C 
BRANCH   8   9
ATOM      9  C   UNL     1    -107.195  33.074 -30.519  1.00  0.00     0.000 C 
BRANCH   9  10
ATOM     10  C   UNL     1    -108.488  32.538 -31.154  1.00  0.00     0.000 C 
BRANCH  10  11
ATOM     11  C   UNL     1    -109.471  33.656 -31.548  1.00  0.00     0.000 C 
BRANCH  11  12
ATOM     12  C   UNL     1    -109.730  33.797 -33.060  1.00  0.00     0.000 C 
BRANCH  12  13
ATOM     13  C   UNL     1    -109.364  35.191 -33.598  1.00  0.00     0.006 C 
BRANCH  13  14
ATOM     14  C   UNL     1    -108.128  35.758 -32.875  1.00  0.00     0.053 C 
BRANCH  14  15
ATOM     15  C   UNL     1    -108.366  37.172 -32.450  1.00  0.00     0.041 C 
ATOM     16  O   UNL     1    -108.507  38.081 -33.315  1.00  0.00    -0.550 OA
ATOM     17  O   UNL     1    -108.403  37.494 -31.101  1.00  0.00    -0.550 OA
ENDBRANCH  14  15
ENDBRANCH  13  14
ENDBRANCH  12  13
ENDBRANCH  11  12
ENDBRANCH  10  11
ENDBRANCH   9  10
ENDBRANCH   8   9
ENDBRANCH   7   8
ENDBRANCH   6   7
ENDBRANCH   5   6
ENDBRANCH   4   5
ENDBRANCH   3   4
ENDBRANCH   2   3
ENDBRANCH   1   2
BRANCH   1  18
ATOM     18  C   UNL     1    -106.324  32.652 -38.090  1.00  0.00     0.000 C 
BRANCH  18  19
ATOM     19  C   UNL     1    -105.888  31.208 -38.415  1.00  0.00     0.000 C 
BRANCH  19  20
ATOM     20  C   UNL     1    -104.652  30.695 -37.656  1.00  0.00     0.000 C 
BRANCH  20  21
ATOM     21  C   UNL     1    -103.536  31.749 -37.540  1.00  0.00     0.000 C 
BRANCH  21  22
ATOM     22  C   UNL     1    -103.001  31.812 -36.101  1.00  0.00     0.000 C 
BRANCH  22  23
ATOM     23  C   UNL     1    -103.156  30.477 -35.344  1.00  0.00     0.000 C 
BRANCH  23  24
ATOM     24  C   UNL     1    -102.679  30.501 -33.882  1.00  0.00    -0.000 C 
BRANCH  24  25
ATOM     25  C   UNL     1    -101.398  31.339 -33.669  1.00  0.00    -0.000 C 
BRANCH  25  26
ATOM     26  C   UNL     1    -100.094  30.543 -33.936  1.00  0.00    -0.000 C 
BRANCH  26  27
ATOM     27  C   UNL     1     -99.274  31.099 -35.119  1.00  0.00    -0.000 C 
BRANCH  27  28
ATOM     28  C   UNL     1     -99.615  30.494 -36.493  1.00  0.00    -0.000 C 
BRANCH  28  29
ATOM     29  C   UNL     1     -99.520  31.468 -37.679  1.00  0.00    -0.000 C 
BRANCH  29  30
ATOM     30  C   UNL     1     -99.249  32.914 -37.248  1.00  0.00    -0.000 C 
BRANCH  30  31
ATOM     31  C   UNL     1     -98.396  33.655 -38.282  1.00  0.00    -0.003 C 
ATOM     32  C   UNL     1     -97.607  32.668 -39.142  1.00  0.00     0.004 C 
ENDBRANCH  30  31
ENDBRANCH  29  30
ENDBRANCH  28  29
ENDBRANCH  27  28
ENDBRANCH  26  27
ENDBRANCH  25  26
ENDBRANCH  24  25
ENDBRANCH  23  24
ENDBRANCH  22  23
ENDBRANCH  21  22
ENDBRANCH  20  21
ENDBRANCH  19  20
ENDBRANCH  18  19
ENDBRANCH   1  18
TORSDOF 28
ENDMDL
MODEL 2
REMARK VINA RESULT:    -3.125     11.615     15.033
REMARK INTER + INTRA:         -13.548
REMARK INTER:                  -8.055
REMARK INTRA:                  -5.492
REMARK UNBOUND:                -5.307
REMARK SMILES CCCCCCCCCCCCCCCCCCCCCCCCCCCCCC(=O)[O-]
REMARK SMILES IDX 16 1 17 2 18 3 19 4 20 5 21 6 22 7 23 8 24 9 25 10 26 11
REMARK SMILES IDX 27 12 28 13 29 14 30 15 31 16 32 17 15 18 14 19 13 20 12 21
REMARK SMILES IDX 11 22 10 23 9 24 8 25 7 26 6 27 5 28 4 29 3 30 2 31 1 32
REMARK H PARENT
REMARK Flexibility Score: inf
ROOT
ATOM      1  C   UNL     1    -108.351  45.421 -40.670  1.00  0.00     0.000 C 
ENDROOT
BRANCH   1   2
ATOM      2  C   UNL     1    -107.752  44.095 -40.161  1.00  0.00     0.000 C 
BRANCH   2   3
ATOM      3  C   UNL     1    -107.711  43.002 -41.241  1.00  0.00     0.000 C 
BRANCH   3   4
ATOM      4  C   UNL     1    -108.524  41.738 -40.909  1.00  0.00     0.000 C 
BRANCH   4   5
ATOM      5  C   UNL     1    -110.019  42.026 -40.674  1.00  0.00     0.000 C 
BRANCH   5   6
ATOM      6  C   UNL     1    -110.516  41.454 -39.336  1.00  0.00     0.000 C 
BRANCH   6   7
ATOM      7  C   UNL     1    -109.360  41.044 -38.407  1.00  0.00     0.000 C 
BRANCH   7   8
ATOM      8  C   UNL     1    -109.227  41.950 -37.170  1.00  0.00     0.000 C 
BRANCH   8   9
ATOM      9  C   UNL     1    -110.034  43.264 -37.226  1.00  0.00     0.000 C 
BRANCH   9  10
ATOM     10  C   UNL     1    -109.541  44.321 -36.226  1.00  0.00     0.000 C 
BRANCH  10  11
ATOM     11  C   UNL     1    -108.309  45.097 -36.730  1.00  0.00     0.000 C 
BRANCH  11  12
ATOM     12  C   UNL     1    -107.029  44.906 -35.896  1.00  0.00     0.000 C 
BRANCH  12  13
ATOM     13  C   UNL     1    -107.230  43.944 -34.711  1.00  0.00     0.006 C 
BRANCH  13  14
ATOM     14  C   UNL     1    -105.988  43.919 -33.801  1.00  0.00     0.053 C 
BRANCH  14  15
ATOM     15  C   UNL     1    -106.389  43.894 -32.361  1.00  0.00     0.041 C 
ATOM     16  O   UNL     1    -106.473  42.797 -31.742  1.00  0.00    -0.550 OA
ATOM     17  O   UNL     1    -106.698  45.079 -31.706  1.00  0.00    -0.550 OA
ENDBRANCH  14  15
ENDBRANCH  13  14
ENDBRANCH  12  13
ENDBRANCH  11  12
ENDBRANCH  10  11
ENDBRANCH   9  10
ENDBRANCH   8   9
ENDBRANCH   7   8
ENDBRANCH   6   7
ENDBRANCH   5   6
ENDBRANCH   4   5
ENDBRANCH   3   4
ENDBRANCH   2   3
ENDBRANCH   1   2
BRANCH   1  18
ATOM     18  C   UNL     1    -109.722  45.749 -40.042  1.00  0.00     0.000 C 
BRANCH  18  19
ATOM     19  C   UNL     1    -110.907  45.702 -41.030  1.00  0.00     0.000 C 
BRANCH  19  20
ATOM     20  C   UNL     1    -110.566  45.255 -42.463  1.00  0.00     0.000 C 
BRANCH  20  21
ATOM     21  C   UNL     1    -111.643  44.347 -43.083  1.00  0.00     0.000 C 
BRANCH  21  22
ATOM     22  C   UNL     1    -111.002  43.309 -44.017  1.00  0.00     0.000 C 
BRANCH  22  23
ATOM     23  C   UNL     1    -109.519  43.609 -44.318  1.00  0.00     0.000 C 
BRANCH  23  24
ATOM     24  C   UNL     1    -109.123  43.496 -45.800  1.00  0.00    -0.000 C 
BRANCH  24  25
ATOM     25  C   UNL     1    -108.805  44.859 -46.455  1.00  0.00    -0.000 C 
BRANCH  25  26
ATOM     26  C   UNL     1    -109.987  45.860 -46.390  1.00  0.00    -0.000 C 
BRANCH  26  27
ATOM     27  C   UNL     1    -109.650  47.151 -45.616  1.00  0.00    -0.000 C 
BRANCH  27  28
ATOM     28  C   UNL     1    -108.382  47.080 -44.747  1.00  0.00    -0.000 C 
BRANCH  28  29
ATOM     29  C   UNL     1    -108.062  48.356 -43.950  1.00  0.00    -0.000 C 
BRANCH  29  30
ATOM     30  C   UNL     1    -108.903  48.495 -42.676  1.00  0.00    -0.000 C 
BRANCH  30  31
ATOM     31  C   UNL     1    -108.063  49.010 -41.505  1.00  0.00    -0.003 C 
ATOM     32  C   UNL     1    -106.613  48.542 -41.628  1.00  0.00     0.004 C 
ENDBRANCH  30  31
ENDBRANCH  29  30
ENDBRANCH  28  29
ENDBRANCH  27  28
ENDBRANCH  26  27
ENDBRANCH  25  26
ENDBRANCH  24  25
ENDBRANCH  23  24
ENDBRANCH  22  23
ENDBRANCH  21  22
ENDBRANCH  20  21
ENDBRANCH  19  20
ENDBRANCH  18  19
ENDBRANCH   1  18
TORSDOF 28
ENDMDL
MODEL 3
REMARK VINA RESULT:    -3.115     10.781     14.238
REMARK INTER + INTRA:         -13.521
REMARK INTER:                  -8.364
REMARK INTRA:                  -5.156
REMARK UNBOUND:                -5.307
REMARK SMILES CCCCCCCCCCCCCCCCCCCCCCCCCCCCCC(=O)[O-]
REMARK SMILES IDX 16 1 17 2 18 3 19 4 20 5 21 6 22 7 23 8 24 9 25 10 26 11
REMARK SMILES IDX 27 12 28 13 29 14 30 15 31 16 32 17 15 18 14 19 13 20 12 21
REMARK SMILES IDX 11 22 10 23 9 24 8 25 7 26 6 27 5 28 4 29 3 30 2 31 1 32
REMARK H PARENT
REMARK Flexibility Score: inf
ROOT
ATOM      1  C   UNL     1    -108.505  41.934 -40.978  1.00  0.00     0.000 C 
ENDROOT
BRANCH   1   2
ATOM      2  C   UNL     1    -108.919  41.243 -39.664  1.00  0.00     0.000 C 
BRANCH   2   3
ATOM      3  C   UNL     1    -110.428  41.341 -39.384  1.00  0.00     0.000 C 
BRANCH   3   4
ATOM      4  C   UNL     1    -110.790  41.775 -37.952  1.00  0.00     0.000 C 
BRANCH   4   5
ATOM      5  C   UNL     1    -110.340  43.212 -37.625  1.00  0.00     0.000 C 
BRANCH   5   6
ATOM      6  C   UNL     1    -109.303  43.251 -36.490  1.00  0.00     0.000 C 
BRANCH   6   7
ATOM      7  C   UNL     1    -109.517  44.443 -35.541  1.00  0.00     0.000 C 
BRANCH   7   8
ATOM      8  C   UNL     1    -108.390  45.490 -35.622  1.00  0.00     0.000 C 
BRANCH   8   9
ATOM      9  C   UNL     1    -106.963  44.914 -35.733  1.00  0.00     0.000 C 
BRANCH   9  10
ATOM     10  C   UNL     1    -105.969  45.566 -34.758  1.00  0.00     0.000 C 
BRANCH  10  11
ATOM     11  C   UNL     1    -106.656  46.197 -33.532  1.00  0.00     0.000 C 
BRANCH  11  12
ATOM     12  C   UNL     1    -106.940  45.227 -32.371  1.00  0.00     0.000 C 
BRANCH  12  13
ATOM     13  C   UNL     1    -105.897  44.099 -32.270  1.00  0.00     0.006 C 
BRANCH  13  14
ATOM     14  C   UNL     1    -106.560  42.764 -31.884  1.00  0.00     0.053 C 
BRANCH  14  15
ATOM     15  C   UNL     1    -107.443  42.275 -32.987  1.00  0.00     0.041 C 
ATOM     16  O   UNL     1    -108.694  42.215 -32.823  1.00  0.00    -0.550 OA
ATOM     17  O   UNL     1    -106.886  41.854 -34.187  1.00  0.00    -0.550 OA
ENDBRANCH  14  15
ENDBRANCH  13  14
ENDBRANCH  12  13
ENDBRANCH  11  12
ENDBRANCH  10  11
ENDBRANCH   9  10
ENDBRANCH   8   9
ENDBRANCH   7   8
ENDBRANCH   6   7
ENDBRANCH   5   6
ENDBRANCH   4   5
ENDBRANCH   3   4
ENDBRANCH   2   3
ENDBRANCH   1   2
BRANCH   1  18
ATOM     18  C   UNL     1    -107.433  43.025 -40.778  1.00  0.00     0.000 C 
BRANCH  18  19
ATOM     19  C   UNL     1    -107.980  44.468 -40.771  1.00  0.00     0.000 C 
BRANCH  19  20
ATOM     20  C   UNL     1    -107.964  45.182 -39.407  1.00  0.00     0.000 C 
BRANCH  20  21
ATOM     21  C   UNL     1    -109.026  46.290 -39.295  1.00  0.00     0.000 C 
BRANCH  21  22
ATOM     22  C   UNL     1    -109.425  46.800 -40.688  1.00  0.00     0.000 C 
BRANCH  22  23
ATOM     23  C   UNL     1    -110.947  46.753 -40.930  1.00  0.00     0.000 C 
BRANCH  23  24
ATOM     24  C   UNL     1    -111.669  45.555 -40.289  1.00  0.00    -0.000 C 
BRANCH  24  25
ATOM     25  C   UNL     1    -111.708  44.306 -41.198  1.00  0.00    -0.000 C 
BRANCH  25  26
ATOM     26  C   UNL     1    -111.284  44.599 -42.660  1.00  0.00    -0.000 C 
BRANCH  26  27
ATOM     27  C   UNL     1    -110.685  43.373 -43.378  1.00  0.00    -0.000 C 
BRANCH  27  28
ATOM     28  C   UNL     1    -109.378  43.638 -44.147  1.00  0.00    -0.000 C 
BRANCH  28  29
ATOM     29  C   UNL     1    -108.948  45.112 -44.219  1.00  0.00    -0.000 C 
BRANCH  29  30
ATOM     30  C   UNL     1    -108.949  45.668 -45.647  1.00  0.00    -0.000 C 
BRANCH  30  31
ATOM     31  C   UNL     1    -108.924  44.543 -46.686  1.00  0.00    -0.003 C 
ATOM     32  C   UNL     1    -108.764  45.109 -48.096  1.00  0.00     0.004 C 
ENDBRANCH  30  31
ENDBRANCH  29  30
ENDBRANCH  28  29
ENDBRANCH  27  28
ENDBRANCH  26  27
ENDBRANCH  25  26
ENDBRANCH  24  25
ENDBRANCH  23  24
ENDBRANCH  22  23
ENDBRANCH  21  22
ENDBRANCH  20  21
ENDBRANCH  19  20
ENDBRANCH  18  19
ENDBRANCH   1  18
TORSDOF 28
ENDMDL
MODEL 4
REMARK VINA RESULT:    -3.094     11.801     15.294
REMARK INTER + INTRA:         -13.466
REMARK INTER:                  -7.977
REMARK INTRA:                  -5.489
REMARK UNBOUND:                -5.307
REMARK SMILES CCCCCCCCCCCCCCCCCCCCCCCCCCCCCC(=O)[O-]
REMARK SMILES IDX 16 1 17 2 18 3 19 4 20 5 21 6 22 7 23 8 24 9 25 10 26 11
REMARK SMILES IDX 27 12 28 13 29 14 30 15 31 16 32 17 15 18 14 19 13 20 12 21
REMARK SMILES IDX 11 22 10 23 9 24 8 25 7 26 6 27 5 28 4 29 3 30 2 31 1 32
REMARK H PARENT
REMARK Flexibility Score: inf
ROOT
ATOM      1  C   UNL     1    -109.800  46.735 -45.368  1.00  0.00     0.000 C 
ENDROOT
BRANCH   1   2
ATOM      2  C   UNL     1    -109.235  47.662 -44.273  1.00  0.00     0.000 C 
BRANCH   2   3
ATOM      3  C   UNL     1    -107.743  47.981 -44.470  1.00  0.00     0.000 C 
BRANCH   3   4
ATOM      4  C   UNL     1    -107.069  48.670 -43.270  1.00  0.00     0.000 C 
BRANCH   4   5
ATOM      5  C   UNL     1    -108.060  49.029 -42.145  1.00  0.00     0.000 C 
BRANCH   5   6
ATOM      6  C   UNL     1    -107.805  48.214 -40.866  1.00  0.00     0.000 C 
BRANCH   6   7
ATOM      7  C   UNL     1    -109.084  48.016 -40.033  1.00  0.00     0.000 C 
BRANCH   7   8
ATOM      8  C   UNL     1    -108.818  47.363 -38.664  1.00  0.00     0.000 C 
BRANCH   8   9
ATOM      9  C   UNL     1    -109.997  46.560 -38.077  1.00  0.00     0.000 C 
BRANCH   9  10
ATOM     10  C   UNL     1    -109.571  45.214 -37.469  1.00  0.00     0.000 C 
BRANCH  10  11
ATOM     11  C   UNL     1    -108.045  45.086 -37.303  1.00  0.00     0.000 C 
BRANCH  11  12
ATOM     12  C   UNL     1    -107.587  44.201 -36.129  1.00  0.00     0.000 C 
BRANCH  12  13
ATOM     13  C   UNL     1    -107.697  44.914 -34.769  1.00  0.00     0.006 C 
BRANCH  13  14
ATOM     14  C   UNL     1    -106.304  45.271 -34.217  1.00  0.00     0.053 C 
BRANCH  14  15
ATOM     15  C   UNL     1    -106.011  44.488 -32.977  1.00  0.00     0.041 C 
ATOM     16  O   UNL     1    -105.220  43.505 -33.017  1.00  0.00    -0.550 OA
ATOM     17  O   UNL     1    -106.634  44.822 -31.782  1.00  0.00    -0.550 OA
ENDBRANCH  14  15
ENDBRANCH  13  14
ENDBRANCH  12  13
ENDBRANCH  11  12
ENDBRANCH  10  11
ENDBRANCH   9  10
ENDBRANCH   8   9
ENDBRANCH   7   8
ENDBRANCH   6   7
ENDBRANCH   5   6
ENDBRANCH   4   5
ENDBRANCH   3   4
ENDBRANCH   2   3
ENDBRANCH   1   2
BRANCH   1  18
ATOM     18  C   UNL     1    -108.760  45.735 -45.912  1.00  0.00     0.000 C 
BRANCH  18  19
ATOM     19  C   UNL     1    -109.359  44.426 -46.469  1.00  0.00     0.000 C 
BRANCH  19  20
ATOM     20  C   UNL     1    -109.603  43.310 -45.437  1.00  0.00     0.000 C 
BRANCH  20  21
ATOM     21  C   UNL     1    -111.047  43.287 -44.905  1.00  0.00     0.000 C 
BRANCH  21  22
ATOM     22  C   UNL     1    -111.056  43.185 -43.372  1.00  0.00     0.000 C 
BRANCH  22  23
ATOM     23  C   UNL     1    -111.420  44.517 -42.685  1.00  0.00     0.000 C 
BRANCH  23  24
ATOM     24  C   UNL     1    -110.301  45.129 -41.824  1.00  0.00    -0.000 C 
BRANCH  24  25
ATOM     25  C   UNL     1    -108.886  44.663 -42.236  1.00  0.00    -0.000 C 
BRANCH  25  26
ATOM     26  C   UNL     1    -107.884  44.634 -41.053  1.00  0.00    -0.000 C 
BRANCH  26  27
ATOM     27  C   UNL     1    -107.863  43.284 -40.307  1.00  0.00    -0.000 C 
BRANCH  27  28
ATOM     28  C   UNL     1    -108.372  42.079 -41.119  1.00  0.00    -0.000 C 
BRANCH  28  29
ATOM     29  C   UNL     1    -109.522  41.291 -40.472  1.00  0.00    -0.000 C 
BRANCH  29  30
ATOM     30  C   UNL     1    -110.408  42.156 -39.568  1.00  0.00    -0.000 C 
BRANCH  30  31
ATOM     31  C   UNL     1    -110.554  41.541 -38.173  1.00  0.00    -0.003 C 
ATOM     32  C   UNL     1    -109.204  41.044 -37.655  1.00  0.00     0.004 C 
ENDBRANCH  30  31
ENDBRANCH  29  30
ENDBRANCH  28  29
ENDBRANCH  27  28
ENDBRANCH  26  27
ENDBRANCH  25  26
ENDBRANCH  24  25
ENDBRANCH  23  24
ENDBRANCH  22  23
ENDBRANCH  21  22
ENDBRANCH  20  21
ENDBRANCH  19  20
ENDBRANCH  18  19
ENDBRANCH   1  18
TORSDOF 28
ENDMDL
MODEL 5
REMARK VINA RESULT:    -3.081      2.185      3.048
REMARK INTER + INTRA:         -13.432
REMARK INTER:                  -9.848
REMARK INTRA:                  -3.584
REMARK UNBOUND:                -5.307
REMARK SMILES CCCCCCCCCCCCCCCCCCCCCCCCCCCCCC(=O)[O-]
REMARK SMILES IDX 16 1 17 2 18 3 19 4 20 5 21 6 22 7 23 8 24 9 25 10 26 11
REMARK SMILES IDX 27 12 28 13 29 14 30 15 31 16 32 17 15 18 14 19 13 20 12 21
REMARK SMILES IDX 11 22 10 23 9 24 8 25 7 26 6 27 5 28 4 29 3 30 2 31 1 32
REMARK H PARENT
REMARK Flexibility Score: inf
ROOT
ATOM      1  C   UNL     1    -106.909  33.226 -37.725  1.00  0.00     0.000 C 
ENDROOT
BRANCH   1   2
ATOM      2  C   UNL     1    -107.376  32.227 -36.648  1.00  0.00     0.000 C 
BRANCH   2   3
ATOM      3  C   UNL     1    -107.769  32.909 -35.327  1.00  0.00     0.000 C 
BRANCH   3   4
ATOM      4  C   UNL     1    -107.058  32.354 -34.080  1.00  0.00     0.000 C 
BRANCH   4   5
ATOM      5  C   UNL     1    -105.995  33.316 -33.513  1.00  0.00     0.000 C 
BRANCH   5   6
ATOM      6  C   UNL     1    -106.589  34.296 -32.488  1.00  0.00     0.000 C 
BRANCH   6   7
ATOM      7  C   UNL     1    -105.592  35.397 -32.084  1.00  0.00     0.000 C 
BRANCH   7   8
ATOM      8  C   UNL     1    -106.276  36.649 -31.506  1.00  0.00     0.000 C 
BRANCH   8   9
ATOM      9  C   UNL     1    -107.819  36.624 -31.521  1.00  0.00     0.000 C 
BRANCH   9  10
ATOM     10  C   UNL     1    -108.426  37.395 -32.704  1.00  0.00     0.000 C 
BRANCH  10  11
ATOM     11  C   UNL     1    -109.216  36.491 -33.669  1.00  0.00     0.000 C 
BRANCH  11  12
ATOM     12  C   UNL     1    -110.477  37.129 -34.279  1.00  0.00     0.000 C 
BRANCH  12  13
ATOM     13  C   UNL     1    -111.345  36.114 -35.044  1.00  0.00     0.006 C 
BRANCH  13  14
ATOM     14  C   UNL     1    -110.859  35.950 -36.496  1.00  0.00     0.053 C 
BRANCH  14  15
ATOM     15  C   UNL     1    -110.787  34.504 -36.869  1.00  0.00     0.041 C 
ATOM     16  O   UNL     1    -111.179  33.617 -36.061  1.00  0.00    -0.550 OA
ATOM     17  O   UNL     1    -110.259  34.130 -38.097  1.00  0.00    -0.550 OA
ENDBRANCH  14  15
ENDBRANCH  13  14
ENDBRANCH  12  13
ENDBRANCH  11  12
ENDBRANCH  10  11
ENDBRANCH   9  10
ENDBRANCH   8   9
ENDBRANCH   7   8
ENDBRANCH   6   7
ENDBRANCH   5   6
ENDBRANCH   4   5
ENDBRANCH   3   4
ENDBRANCH   2   3
ENDBRANCH   1   2
BRANCH   1  18
ATOM     18  C   UNL     1    -105.373  33.340 -37.822  1.00  0.00     0.000 C 
BRANCH  18  19
ATOM     19  C   UNL     1    -104.667  32.067 -38.333  1.00  0.00     0.000 C 
BRANCH  19  20
ATOM     20  C   UNL     1    -103.493  31.563 -37.473  1.00  0.00     0.000 C 
BRANCH  20  21
ATOM     21  C   UNL     1    -103.645  31.912 -35.982  1.00  0.00     0.000 C 
BRANCH  21  22
ATOM     22  C   UNL     1    -103.960  30.651 -35.162  1.00  0.00     0.000 C 
BRANCH  22  23
ATOM     23  C   UNL     1    -103.488  30.757 -33.697  1.00  0.00     0.000 C 
BRANCH  23  24
ATOM     24  C   UNL     1    -102.117  31.430 -33.504  1.00  0.00    -0.000 C 
BRANCH  24  25
ATOM     25  C   UNL     1    -100.962  30.422 -33.309  1.00  0.00    -0.000 C 
BRANCH  25  26
ATOM     26  C   UNL     1     -99.786  30.641 -34.295  1.00  0.00    -0.000 C 
BRANCH  26  27
ATOM     27  C   UNL     1    -100.236  30.741 -35.767  1.00  0.00    -0.000 C 
BRANCH  27  28
ATOM     28  C   UNL     1     -99.949  32.091 -36.449  1.00  0.00    -0.000 C 
BRANCH  28  29
ATOM     29  C   UNL     1     -99.204  32.002 -37.791  1.00  0.00    -0.000 C 
BRANCH  29  30
ATOM     30  C   UNL     1     -98.217  33.156 -38.007  1.00  0.00    -0.000 C 
BRANCH  30  31
ATOM     31  C   UNL     1     -97.281  32.877 -39.186  1.00  0.00    -0.003 C 
ATOM     32  C   UNL     1     -97.930  33.295 -40.505  1.00  0.00     0.004 C 
ENDBRANCH  30  31
ENDBRANCH  29  30
ENDBRANCH  28  29
ENDBRANCH  27  28
ENDBRANCH  26  27
ENDBRANCH  25  26
ENDBRANCH  24  25
ENDBRANCH  23  24
ENDBRANCH  22  23
ENDBRANCH  21  22
ENDBRANCH  20  21
ENDBRANCH  19  20
ENDBRANCH  18  19
ENDBRANCH   1  18
TORSDOF 28
ENDMDL
MODEL 6
REMARK VINA RESULT:    -3.044     12.794     16.036
REMARK INTER + INTRA:         -13.334
REMARK INTER:                  -8.804
REMARK INTRA:                  -4.530
REMARK UNBOUND:                -5.307
REMARK SMILES CCCCCCCCCCCCCCCCCCCCCCCCCCCCCC(=O)[O-]
REMARK SMILES IDX 16 1 17 2 18 3 19 4 20 5 21 6 22 7 23 8 24 9 25 10 26 11
REMARK SMILES IDX 27 12 28 13 29 14 30 15 31 16 32 17 15 18 14 19 13 20 12 21
REMARK SMILES IDX 11 22 10 23 9 24 8 25 7 26 6 27 5 28 4 29 3 30 2 31 1 32
REMARK H PARENT
REMARK Flexibility Score: inf
ROOT
ATOM      1  C   UNL     1    -109.899  44.118 -43.948  1.00  0.00     0.000 C 
ENDROOT
BRANCH   1   2
ATOM      2  C   UNL     1    -108.858  44.230 -42.816  1.00  0.00     0.000 C 
BRANCH   2   3
ATOM      3  C   UNL     1    -108.345  42.861 -42.336  1.00  0.00     0.000 C 
BRANCH   3   4
ATOM      4  C   UNL     1    -107.746  42.860 -40.918  1.00  0.00     0.000 C 
BRANCH   4   5
ATOM      5  C   UNL     1    -107.676  44.266 -40.291  1.00  0.00     0.000 C 
BRANCH   5   6
ATOM      6  C   UNL     1    -108.384  44.329 -38.928  1.00  0.00     0.000 C 
BRANCH   6   7
ATOM      7  C   UNL     1    -109.901  44.550 -39.065  1.00  0.00     0.000 C 
BRANCH   7   8
ATOM      8  C   UNL     1    -110.469  45.517 -38.010  1.00  0.00     0.000 C 
BRANCH   8   9
ATOM      9  C   UNL     1    -109.426  46.142 -37.060  1.00  0.00     0.000 C 
BRANCH   9  10
ATOM     10  C   UNL     1    -109.577  45.674 -35.604  1.00  0.00     0.000 C 
BRANCH  10  11
ATOM     11  C   UNL     1    -109.006  44.264 -35.364  1.00  0.00     0.000 C 
BRANCH  11  12
ATOM     12  C   UNL     1    -107.482  44.136 -35.539  1.00  0.00     0.000 C 
BRANCH  12  13
ATOM     13  C   UNL     1    -106.718  44.268 -34.209  1.00  0.00     0.006 C 
BRANCH  13  14
ATOM     14  C   UNL     1    -105.762  45.474 -34.235  1.00  0.00     0.053 C 
BRANCH  14  15
ATOM     15  C   UNL     1    -106.450  46.705 -33.740  1.00  0.00     0.041 C 
ATOM     16  O   UNL     1    -106.078  47.846 -34.133  1.00  0.00    -0.550 OA
ATOM     17  O   UNL     1    -107.485  46.599 -32.820  1.00  0.00    -0.550 OA
ENDBRANCH  14  15
ENDBRANCH  13  14
ENDBRANCH  12  13
ENDBRANCH  11  12
ENDBRANCH  10  11
ENDBRANCH   9  10
ENDBRANCH   8   9
ENDBRANCH   7   8
ENDBRANCH   6   7
ENDBRANCH   5   6
ENDBRANCH   4   5
ENDBRANCH   3   4
ENDBRANCH   2   3
ENDBRANCH   1   2
BRANCH   1  18
ATOM     18  C   UNL     1    -109.273  43.777 -45.316  1.00  0.00     0.000 C 
BRANCH  18  19
ATOM     19  C   UNL     1    -108.886  45.005 -46.168  1.00  0.00     0.000 C 
BRANCH  19  20
ATOM     20  C   UNL     1    -109.370  46.367 -45.636  1.00  0.00     0.000 C 
BRANCH  20  21
ATOM     21  C   UNL     1    -108.219  47.274 -45.167  1.00  0.00     0.000 C 
BRANCH  21  22
ATOM     22  C   UNL     1    -107.768  48.206 -46.302  1.00  0.00     0.000 C 
BRANCH  22  23
ATOM     23  C   UNL     1    -106.491  48.998 -45.955  1.00  0.00     0.000 C 
BRANCH  23  24
ATOM     24  C   UNL     1    -106.364  49.407 -44.477  1.00  0.00    -0.000 C 
BRANCH  24  25
ATOM     25  C   UNL     1    -105.074  48.884 -43.806  1.00  0.00    -0.000 C 
BRANCH  25  26
ATOM     26  C   UNL     1    -105.144  48.892 -42.257  1.00  0.00    -0.000 C 
BRANCH  26  27
ATOM     27  C   UNL     1    -106.578  49.063 -41.714  1.00  0.00    -0.000 C 
BRANCH  27  28
ATOM     28  C   UNL     1    -107.281  47.757 -41.301  1.00  0.00    -0.000 C 
BRANCH  28  29
ATOM     29  C   UNL     1    -108.242  47.879 -40.108  1.00  0.00    -0.000 C 
BRANCH  29  30
ATOM     30  C   UNL     1    -109.679  48.210 -40.525  1.00  0.00    -0.000 C 
BRANCH  30  31
ATOM     31  C   UNL     1    -110.057  47.509 -41.834  1.00  0.00    -0.003 C 
ATOM     32  C   UNL     1    -111.351  46.714 -41.671  1.00  0.00     0.004 C 
ENDBRANCH  30  31
ENDBRANCH  29  30
ENDBRANCH  28  29
ENDBRANCH  27  28
ENDBRANCH  26  27
ENDBRANCH  25  26
ENDBRANCH  24  25
ENDBRANCH  23  24
ENDBRANCH  22  23
ENDBRANCH  21  22
ENDBRANCH  20  21
ENDBRANCH  19  20
ENDBRANCH  18  19
ENDBRANCH   1  18
TORSDOF 28
ENDMDL
MODEL 7
REMARK VINA RESULT:    -3.033     11.931     15.326
REMARK INTER + INTRA:         -13.304
REMARK INTER:                  -8.151
REMARK INTRA:                  -5.153
REMARK UNBOUND:                -5.307
REMARK SMILES CCCCCCCCCCCCCCCCCCCCCCCCCCCCCC(=O)[O-]
REMARK SMILES IDX 16 1 17 2 18 3 19 4 20 5 21 6 22 7 23 8 24 9 25 10 26 11
REMARK SMILES IDX 27 12 28 13 29 14 30 15 31 16 32 17 15 18 14 19 13 20 12 21
REMARK SMILES IDX 11 22 10 23 9 24 8 25 7 26 6 27 5 28 4 29 3 30 2 31 1 32
REMARK H PARENT
REMARK Flexibility Score: inf
ROOT
ATOM      1  C   UNL     1    -108.778  43.567 -42.978  1.00  0.00     0.000 C 
ENDROOT
BRANCH   1   2
ATOM      2  C   UNL     1    -108.207  42.609 -41.913  1.00  0.00     0.000 C 
BRANCH   2   3
ATOM      3  C   UNL     1    -107.434  43.340 -40.803  1.00  0.00     0.000 C 
BRANCH   3   4
ATOM      4  C   UNL     1    -108.246  43.612 -39.524  1.00  0.00     0.000 C 
BRANCH   4   5
ATOM      5  C   UNL     1    -109.417  42.628 -39.332  1.00  0.00     0.000 C 
BRANCH   5   6
ATOM      6  C   UNL     1    -110.716  43.343 -38.929  1.00  0.00     0.000 C 
BRANCH   6   7
ATOM      7  C   UNL     1    -110.483  44.425 -37.859  1.00  0.00     0.000 C 
BRANCH   7   8
ATOM      8  C   UNL     1    -110.772  43.933 -36.429  1.00  0.00     0.000 C 
BRANCH   8   9
ATOM      9  C   UNL     1    -109.692  44.276 -35.382  1.00  0.00     0.000 C 
BRANCH   9  10
ATOM     10  C   UNL     1    -108.265  43.963 -35.860  1.00  0.00     0.000 C 
BRANCH  10  11
ATOM     11  C   UNL     1    -107.354  45.206 -35.884  1.00  0.00     0.000 C 
BRANCH  11  12
ATOM     12  C   UNL     1    -106.212  45.200 -34.851  1.00  0.00     0.000 C 
BRANCH  12  13
ATOM     13  C   UNL     1    -106.682  45.608 -33.443  1.00  0.00     0.006 C 
BRANCH  13  14
ATOM     14  C   UNL     1    -106.270  44.559 -32.395  1.00  0.00     0.053 C 
BRANCH  14  15
ATOM     15  C   UNL     1    -107.141  43.347 -32.488  1.00  0.00     0.041 C 
ATOM     16  O   UNL     1    -106.665  42.251 -32.896  1.00  0.00    -0.550 OA
ATOM     17  O   UNL     1    -108.485  43.432 -32.154  1.00  0.00    -0.550 OA
ENDBRANCH  14  15
ENDBRANCH  13  14
ENDBRANCH  12  13
ENDBRANCH  11  12
ENDBRANCH  10  11
ENDBRANCH   9  10
ENDBRANCH   8   9
ENDBRANCH   7   8
ENDBRANCH   6   7
ENDBRANCH   5   6
ENDBRANCH   4   5
ENDBRANCH   3   4
ENDBRANCH   2   3
ENDBRANCH   1   2
BRANCH   1  18
ATOM     18  C   UNL     1    -110.320  43.592 -43.007  1.00  0.00     0.000 C 
BRANCH  18  19
ATOM     19  C   UNL     1    -110.951  44.886 -42.451  1.00  0.00     0.000 C 
BRANCH  19  20
ATOM     20  C   UNL     1    -109.965  46.022 -42.121  1.00  0.00     0.000 C 
BRANCH  20  21
ATOM     21  C   UNL     1    -110.255  46.696 -40.768  1.00  0.00     0.000 C 
BRANCH  21  22
ATOM     22  C   UNL     1    -108.946  47.128 -40.089  1.00  0.00     0.000 C 
BRANCH  22  23
ATOM     23  C   UNL     1    -107.721  47.009 -41.018  1.00  0.00     0.000 C 
BRANCH  23  24
ATOM     24  C   UNL     1    -107.018  48.340 -41.338  1.00  0.00    -0.000 C 
BRANCH  24  25
ATOM     25  C   UNL     1    -108.000  49.509 -41.579  1.00  0.00    -0.000 C 
BRANCH  25  26
ATOM     26  C   UNL     1    -108.657  49.476 -42.984  1.00  0.00    -0.000 C 
BRANCH  26  27
ATOM     27  C   UNL     1    -107.651  49.201 -44.120  1.00  0.00    -0.000 C 
BRANCH  27  28
ATOM     28  C   UNL     1    -107.827  47.850 -44.837  1.00  0.00    -0.000 C 
BRANCH  28  29
ATOM     29  C   UNL     1    -107.973  47.934 -46.365  1.00  0.00    -0.000 C 
BRANCH  29  30
ATOM     30  C   UNL     1    -108.647  46.698 -46.972  1.00  0.00    -0.000 C 
BRANCH  30  31
ATOM     31  C   UNL     1    -108.883  45.614 -45.915  1.00  0.00    -0.003 C 
ATOM     32  C   UNL     1    -109.001  44.237 -46.567  1.00  0.00     0.004 C 
ENDBRANCH  30  31
ENDBRANCH  29  30
ENDBRANCH  28  29
ENDBRANCH  27  28
ENDBRANCH  26  27
ENDBRANCH  25  26
ENDBRANCH  24  25
ENDBRANCH  23  24
ENDBRANCH  22  23
ENDBRANCH  21  22
ENDBRANCH  20  21
ENDBRANCH  19  20
ENDBRANCH  18  19
ENDBRANCH   1  18
TORSDOF 28
ENDMDL
MODEL 8
REMARK VINA RESULT:    -3.025     10.464     14.695
REMARK INTER + INTRA:         -13.284
REMARK INTER:                  -6.776
REMARK INTRA:                  -6.508
REMARK UNBOUND:                -5.307
REMARK SMILES CCCCCCCCCCCCCCCCCCCCCCCCCCCCCC(=O)[O-]
REMARK SMILES IDX 16 1 17 2 18 3 19 4 20 5 21 6 22 7 23 8 24 9 25 10 26 11
REMARK SMILES IDX 27 12 28 13 29 14 30 15 31 16 32 17 15 18 14 19 13 20 12 21
REMARK SMILES IDX 11 22 10 23 9 24 8 25 7 26 6 27 5 28 4 29 3 30 2 31 1 32
REMARK H PARENT
REMARK Flexibility Score: inf
ROOT
ATOM      1  C   UNL     1    -108.265  45.192 -38.294  1.00  0.00     0.000 C 
ENDROOT
BRANCH   1   2
ATOM      2  C   UNL     1    -109.192  46.421 -38.369  1.00  0.00     0.000 C 
BRANCH   2   3
ATOM      3  C   UNL     1    -110.318  46.261 -39.404  1.00  0.00     0.000 C 
BRANCH   3   4
ATOM      4  C   UNL     1    -111.673  45.824 -38.819  1.00  0.00     0.000 C 
BRANCH   4   5
ATOM      5  C   UNL     1    -111.892  44.300 -38.878  1.00  0.00     0.000 C 
BRANCH   5   6
ATOM      6  C   UNL     1    -111.907  43.771 -40.321  1.00  0.00     0.000 C 
BRANCH   6   7
ATOM      7  C   UNL     1    -111.218  42.402 -40.452  1.00  0.00     0.000 C 
BRANCH   7   8
ATOM      8  C   UNL     1    -110.227  42.112 -39.310  1.00  0.00     0.000 C 
BRANCH   8   9
ATOM      9  C   UNL     1    -108.823  41.654 -39.755  1.00  0.00     0.000 C 
BRANCH   9  10
ATOM     10  C   UNL     1    -108.546  41.910 -41.245  1.00  0.00     0.000 C 
BRANCH  10  11
ATOM     11  C   UNL     1    -107.708  43.180 -41.490  1.00  0.00     0.000 C 
BRANCH  11  12
ATOM     12  C   UNL     1    -108.514  44.425 -41.904  1.00  0.00     0.000 C 
BRANCH  12  13
ATOM     13  C   UNL     1    -108.920  44.403 -43.389  1.00  0.00     0.006 C 
BRANCH  13  14
ATOM     14  C   UNL     1    -110.450  44.455 -43.546  1.00  0.00     0.053 C 
BRANCH  14  15
ATOM     15  C   UNL     1    -110.929  43.346 -44.427  1.00  0.00     0.041 C 
ATOM     16  O   UNL     1    -110.242  42.980 -45.421  1.00  0.00    -0.550 OA
ATOM     17  O   UNL     1    -112.148  42.733 -44.170  1.00  0.00    -0.550 OA
ENDBRANCH  14  15
ENDBRANCH  13  14
ENDBRANCH  12  13
ENDBRANCH  11  12
ENDBRANCH  10  11
ENDBRANCH   9  10
ENDBRANCH   8   9
ENDBRANCH   7   8
ENDBRANCH   6   7
ENDBRANCH   5   6
ENDBRANCH   4   5
ENDBRANCH   3   4
ENDBRANCH   2   3
ENDBRANCH   1   2
BRANCH   1  18
ATOM     18  C   UNL     1    -107.846  44.835 -36.853  1.00  0.00     0.000 C 
BRANCH  18  19
ATOM     19  C   UNL     1    -108.400  43.489 -36.339  1.00  0.00     0.000 C 
BRANCH  19  20
ATOM     20  C   UNL     1    -109.897  43.475 -35.980  1.00  0.00     0.000 C 
BRANCH  20  21
ATOM     21  C   UNL     1    -110.231  44.345 -34.756  1.00  0.00     0.000 C 
BRANCH  21  22
ATOM     22  C   UNL     1    -111.073  45.561 -35.171  1.00  0.00     0.000 C 
BRANCH  22  23
ATOM     23  C   UNL     1    -110.371  46.904 -34.880  1.00  0.00     0.000 C 
BRANCH  23  24
ATOM     24  C   UNL     1    -109.188  46.817 -33.900  1.00  0.00    -0.000 C 
BRANCH  24  25
ATOM     25  C   UNL     1    -108.038  47.791 -34.241  1.00  0.00    -0.000 C 
BRANCH  25  26
ATOM     26  C   UNL     1    -106.640  47.121 -34.213  1.00  0.00    -0.000 C 
BRANCH  26  27
ATOM     27  C   UNL     1    -106.591  45.853 -33.336  1.00  0.00    -0.000 C 
BRANCH  27  28
ATOM     28  C   UNL     1    -105.788  44.679 -33.927  1.00  0.00    -0.000 C 
BRANCH  28  29
ATOM     29  C   UNL     1    -106.085  43.304 -33.308  1.00  0.00    -0.000 C 
BRANCH  29  30
ATOM     30  C   UNL     1    -107.435  43.252 -32.583  1.00  0.00    -0.000 C 
BRANCH  30  31
ATOM     31  C   UNL     1    -108.188  41.955 -32.896  1.00  0.00    -0.003 C 
ATOM     32  C   UNL     1    -107.333  41.025 -33.755  1.00  0.00     0.004 C 
ENDBRANCH  30  31
ENDBRANCH  29  30
ENDBRANCH  28  29
ENDBRANCH  27  28
ENDBRANCH  26  27
ENDBRANCH  25  26
ENDBRANCH  24  25
ENDBRANCH  23  24
ENDBRANCH  22  23
ENDBRANCH  21  22
ENDBRANCH  20  21
ENDBRANCH  19  20
ENDBRANCH  18  19
ENDBRANCH   1  18
TORSDOF 28
ENDMDL
MODEL 9
REMARK VINA RESULT:    -3.024     12.297     15.784
REMARK INTER + INTRA:         -13.282
REMARK INTER:                  -7.373
REMARK INTRA:                  -5.910
REMARK UNBOUND:                -5.307
REMARK SMILES CCCCCCCCCCCCCCCCCCCCCCCCCCCCCC(=O)[O-]
REMARK SMILES IDX 16 1 17 2 18 3 19 4 20 5 21 6 22 7 23 8 24 9 25 10 26 11
REMARK SMILES IDX 27 12 28 13 29 14 30 15 31 16 32 17 15 18 14 19 13 20 12 21
REMARK SMILES IDX 11 22 10 23 9 24 8 25 7 26 6 27 5 28 4 29 3 30 2 31 1 32
REMARK H PARENT
REMARK Flexibility Score: inf
ROOT
ATOM      1  C   UNL     1    -111.037  42.896 -39.387  1.00  0.00     0.000 C 
ENDROOT
BRANCH   1   2
ATOM      2  C   UNL     1    -109.638  42.466 -38.904  1.00  0.00     0.000 C 
BRANCH   2   3
ATOM      3  C   UNL     1    -108.713  42.033 -40.054  1.00  0.00     0.000 C 
BRANCH   3   4
ATOM      4  C   UNL     1    -107.746  43.124 -40.548  1.00  0.00     0.000 C 
BRANCH   4   5
ATOM      5  C   UNL     1    -108.038  43.581 -41.990  1.00  0.00     0.000 C 
BRANCH   5   6
ATOM      6  C   UNL     1    -108.606  45.009 -42.043  1.00  0.00     0.000 C 
BRANCH   6   7
ATOM      7  C   UNL     1    -108.594  45.695 -40.665  1.00  0.00     0.000 C 
BRANCH   7   8
ATOM      8  C   UNL     1    -109.957  46.299 -40.280  1.00  0.00     0.000 C 
BRANCH   8   9
ATOM      9  C   UNL     1    -110.211  46.439 -38.765  1.00  0.00     0.000 C 
BRANCH   9  10
ATOM     10  C   UNL     1    -108.941  46.769 -37.965  1.00  0.00     0.000 C 
BRANCH  10  11
ATOM     11  C   UNL     1    -109.077  46.453 -36.464  1.00  0.00     0.000 C 
BRANCH  11  12
ATOM     12  C   UNL     1    -108.982  44.960 -36.099  1.00  0.00     0.000 C 
BRANCH  12  13
ATOM     13  C   UNL     1    -107.566  44.389 -36.297  1.00  0.00     0.006 C 
BRANCH  13  14
ATOM     14  C   UNL     1    -106.576  45.000 -35.289  1.00  0.00     0.053 C 
BRANCH  14  15
ATOM     15  C   UNL     1    -106.287  44.037 -34.182  1.00  0.00     0.041 C 
ATOM     16  O   UNL     1    -106.427  42.796 -34.364  1.00  0.00    -0.550 OA
ATOM     17  O   UNL     1    -105.890  44.508 -32.938  1.00  0.00    -0.550 OA
ENDBRANCH  14  15
ENDBRANCH  13  14
ENDBRANCH  12  13
ENDBRANCH  11  12
ENDBRANCH  10  11
ENDBRANCH   9  10
ENDBRANCH   8   9
ENDBRANCH   7   8
ENDBRANCH   6   7
ENDBRANCH   5   6
ENDBRANCH   4   5
ENDBRANCH   3   4
ENDBRANCH   2   3
ENDBRANCH   1   2
BRANCH   1  18
ATOM     18  C   UNL     1    -111.365  42.401 -40.811  1.00  0.00     0.000 C 
BRANCH  18  19
ATOM     19  C   UNL     1    -112.031  43.457 -41.718  1.00  0.00     0.000 C 
BRANCH  19  20
ATOM     20  C   UNL     1    -111.771  43.301 -43.228  1.00  0.00     0.000 C 
BRANCH  20  21
ATOM     21  C   UNL     1    -112.003  44.601 -44.017  1.00  0.00     0.000 C 
BRANCH  21  22
ATOM     22  C   UNL     1    -112.095  45.802 -43.063  1.00  0.00     0.000 C 
BRANCH  22  23
ATOM     23  C   UNL     1    -112.094  47.156 -43.803  1.00  0.00     0.000 C 
BRANCH  23  24
ATOM     24  C   UNL     1    -111.525  48.335 -42.996  1.00  0.00    -0.000 C 
BRANCH  24  25
ATOM     25  C   UNL     1    -110.327  49.028 -43.683  1.00  0.00    -0.000 C 
BRANCH  25  26
ATOM     26  C   UNL     1    -108.954  48.562 -43.135  1.00  0.00    -0.000 C 
BRANCH  26  27
ATOM     27  C   UNL     1    -108.038  47.959 -44.220  1.00  0.00    -0.000 C 
BRANCH  27  28
ATOM     28  C   UNL     1    -108.764  47.438 -45.474  1.00  0.00    -0.000 C 
BRANCH  28  29
ATOM     29  C   UNL     1    -108.891  45.909 -45.569  1.00  0.00    -0.000 C 
BRANCH  29  30
ATOM     30  C   UNL     1    -108.898  45.397 -47.014  1.00  0.00    -0.000 C 
BRANCH  30  31
ATOM     31  C   UNL     1    -109.268  43.912 -47.079  1.00  0.00    -0.003 C 
ATOM     32  C   UNL     1    -109.141  43.260 -45.702  1.00  0.00     0.004 C 
ENDBRANCH  30  31
ENDBRANCH  29  30
ENDBRANCH  28  29
ENDBRANCH  27  28
ENDBRANCH  26  27
ENDBRANCH  25  26
ENDBRANCH  24  25
ENDBRANCH  23  24
ENDBRANCH  22  23
ENDBRANCH  21  22
ENDBRANCH  20  21
ENDBRANCH  19  20
ENDBRANCH  18  19
ENDBRANCH   1  18
TORSDOF 28
ENDMDL
