MODEL 1
REMARK VINA RESULT:     5.596      0.000      0.000
REMARK INTER + INTRA:          11.486
REMARK INTER:                   8.049
REMARK INTRA:                   3.437
REMARK UNBOUND:                 3.437
REMARK SMILES O=c1c(O[C@H]2O[C@@H](CO)[C@@H](O)[C@@H](O)[C@H]2O)c(-c2ccc(O)cc2)oc2cc(O)cc(O)c12
REMARK SMILES IDX 4 1 3 2 16 3 24 4 2 5 25 6 1 7 32 8 26 9 30 10 27 11 29 12
REMARK SMILES IDX 17 13 18 14 19 15 20 16 23 17 22 18 21 19 31 21 28 23 5 25
REMARK SMILES IDX 14 26 6 27 12 28 7 29 10 30 15 31 13 33 8 35 9 36 11 38
REMARK H PARENT 21 20 31 22 28 24 15 32 13 34 9 37 11 39
REMARK Flexibility Score: inf
ROOT
ATOM      1  O   UNL     1      34.943 -32.275   9.671  1.00  0.00    -0.454 OA
ENDROOT
BRANCH   1   2
ATOM      2  C   UNL     1      35.608 -32.281   8.437  1.00  0.00     0.214 A 
ATOM      3  C   UNL     1      36.994 -32.029   8.331  1.00  0.00     0.180 A 
ATOM      4  O   UNL     1      37.594 -32.139   7.149  1.00  0.00    -0.452 OA
ATOM      5  C   UNL     1      34.878 -32.541   7.272  1.00  0.00     0.239 A 
ATOM      6  C   UNL     1      36.948 -32.432   6.027  1.00  0.00     0.146 A 
ATOM      7  O   UNL     1      33.630 -32.704   7.350  1.00  0.00    -0.285 OA
ATOM      8  C   UNL     1      35.547 -32.631   6.034  1.00  0.00     0.111 A 
ATOM      9  C   UNL     1      37.666 -32.528   4.832  1.00  0.00     0.094 A 
ATOM     10  C   UNL     1      34.885 -32.922   4.816  1.00  0.00     0.134 A 
ATOM     11  C   UNL     1      37.011 -32.818   3.635  1.00  0.00     0.123 A 
ATOM     12  C   UNL     1      35.625 -33.011   3.628  1.00  0.00     0.093 A 
BRANCH   3  13
ATOM     13  C   UNL     1      37.817 -31.618   9.491  1.00  0.00     0.021 A 
ATOM     14  C   UNL     1      37.583 -30.376  10.105  1.00  0.00     0.016 A 
ATOM     15  C   UNL     1      38.348 -29.977  11.206  1.00  0.00     0.047 A 
ATOM     16  C   UNL     1      39.344 -30.820  11.714  1.00  0.00     0.115 A 
ATOM     17  C   UNL     1      38.801 -32.470  10.024  1.00  0.00     0.016 A 
ATOM     18  C   UNL     1      39.566 -32.067  11.122  1.00  0.00     0.047 A 
BRANCH  16  19
ATOM     19  O   UNL     1      40.115 -30.430  12.807  1.00  0.00    -0.508 OA
ATOM     20  H   UNL     1      39.877 -30.714  13.751  1.00  0.00     0.293 HD
ENDBRANCH  16  19
ENDBRANCH   3  13
BRANCH  10  21
ATOM     21  O   UNL     1      33.505 -33.124   4.780  1.00  0.00    -0.507 OA
ATOM     22  H   UNL     1      33.023 -33.642   5.505  1.00  0.00     0.293 HD
ENDBRANCH  10  21
BRANCH  11  23
ATOM     23  O   UNL     1      37.746 -32.910   2.455  1.00  0.00    -0.508 OA
ATOM     24  H   UNL     1      38.701 -32.575   2.398  1.00  0.00     0.293 HD
ENDBRANCH  11  23
ENDBRANCH   1   2
BRANCH   1  25
ATOM     25  C   UNL     1      33.793 -31.463   9.939  1.00  0.00     0.339 C 
ATOM     26  C   UNL     1      34.182 -29.978  10.186  1.00  0.00     0.214 C 
ATOM     27  O   UNL     1      33.014 -32.051  10.976  1.00  0.00    -0.332 OA
ATOM     28  C   UNL     1      33.277 -29.392  11.279  1.00  0.00     0.180 C 
ATOM     29  C   UNL     1      33.460 -31.737  12.290  1.00  0.00     0.179 C 
ATOM     30  C   UNL     1      33.401 -30.203  12.586  1.00  0.00     0.177 C 
BRANCH  26  31
ATOM     31  O   UNL     1      35.534 -29.881  10.568  1.00  0.00    -0.384 OA
ATOM     32  H   UNL     1      35.749 -30.687  11.105  1.00  0.00     0.211 HD
ENDBRANCH  26  31
BRANCH  28  33
ATOM     33  O   UNL     1      33.510 -28.017  11.480  1.00  0.00    -0.387 OA
ATOM     34  H   UNL     1      33.757 -27.610  10.610  1.00  0.00     0.211 HD
ENDBRANCH  28  33
BRANCH  29  35
ATOM     35  C   UNL     1      34.805 -32.428  12.613  1.00  0.00     0.191 C 
BRANCH  35  36
ATOM     36  O   UNL     1      35.274 -33.122  11.490  1.00  0.00    -0.394 OA
ATOM     37  H   UNL     1      35.209 -34.087  11.713  1.00  0.00     0.210 HD
ENDBRANCH  35  36
ENDBRANCH  29  35
BRANCH  30  38
ATOM     38  O   UNL     1      34.522 -29.775  13.322  1.00  0.00    -0.387 OA
ATOM     39  H   UNL     1      35.270 -30.385  13.089  1.00  0.00     0.211 HD
ENDBRANCH  30  38
ENDBRANCH   1  25
TORSDOF 11
ENDMDL
MODEL 2
REMARK VINA RESULT:     6.132      1.143      2.058
REMARK INTER + INTRA:          12.257
REMARK INTER:                   7.052
REMARK INTRA:                   5.206
REMARK UNBOUND:                 3.437
REMARK SMILES O=c1c(O[C@H]2O[C@@H](CO)[C@@H](O)[C@@H](O)[C@H]2O)c(-c2ccc(O)cc2)oc2cc(O)cc(O)c12
REMARK SMILES IDX 4 1 3 2 16 3 24 4 2 5 25 6 1 7 32 8 26 9 30 10 27 11 29 12
REMARK SMILES IDX 17 13 18 14 19 15 20 16 23 17 22 18 21 19 31 21 28 23 5 25
REMARK SMILES IDX 14 26 6 27 12 28 7 29 10 30 15 31 13 33 8 35 9 36 11 38
REMARK H PARENT 21 20 31 22 28 24 15 32 13 34 9 37 11 39
REMARK Flexibility Score: inf
ROOT
ATOM      1  O   UNL     1      34.956 -31.752  10.565  1.00  0.00    -0.454 OA
ENDROOT
BRANCH   1   2
ATOM      2  C   UNL     1      35.548 -31.804   9.296  1.00  0.00     0.214 A 
ATOM      3  C   UNL     1      36.900 -31.451   9.084  1.00  0.00     0.180 A 
ATOM      4  O   UNL     1      37.440 -31.608   7.879  1.00  0.00    -0.452 OA
ATOM      5  C   UNL     1      34.779 -32.216   8.201  1.00  0.00     0.239 A 
ATOM      6  C   UNL     1      36.759 -32.041   6.825  1.00  0.00     0.146 A 
ATOM      7  O   UNL     1      33.556 -32.471   8.369  1.00  0.00    -0.285 OA
ATOM      8  C   UNL     1      35.383 -32.351   6.935  1.00  0.00     0.111 A 
ATOM      9  C   UNL     1      37.415 -32.176   5.598  1.00  0.00     0.094 A 
ATOM     10  C   UNL     1      34.681 -32.792   5.786  1.00  0.00     0.134 A 
ATOM     11  C   UNL     1      36.721 -32.613   4.469  1.00  0.00     0.123 A 
ATOM     12  C   UNL     1      35.358 -32.917   4.564  1.00  0.00     0.093 A 
BRANCH   3  13
ATOM     13  C   UNL     1      37.748 -30.884  10.156  1.00  0.00     0.021 A 
ATOM     14  C   UNL     1      37.479 -29.595  10.648  1.00  0.00     0.016 A 
ATOM     15  C   UNL     1      38.267 -29.048  11.665  1.00  0.00     0.047 A 
ATOM     16  C   UNL     1      39.325 -29.786  12.211  1.00  0.00     0.115 A 
ATOM     17  C   UNL     1      38.796 -31.629  10.728  1.00  0.00     0.016 A 
ATOM     18  C   UNL     1      39.584 -31.078  11.742  1.00  0.00     0.047 A 
BRANCH  16  19
ATOM     19  O   UNL     1      40.120 -29.249  13.221  1.00  0.00    -0.508 OA
ATOM     20  H   UNL     1      40.503 -28.313  13.151  1.00  0.00     0.293 HD
ENDBRANCH  16  19
ENDBRANCH   3  13
BRANCH  10  21
ATOM     21  O   UNL     1      33.324 -33.106   5.851  1.00  0.00    -0.507 OA
ATOM     22  H   UNL     1      32.606 -32.414   5.664  1.00  0.00     0.293 HD
ENDBRANCH  10  21
BRANCH  11  23
ATOM     23  O   UNL     1      37.394 -32.741   3.256  1.00  0.00    -0.508 OA
ATOM     24  H   UNL     1      36.911 -32.648   2.370  1.00  0.00     0.293 HD
ENDBRANCH  11  23
ENDBRANCH   1   2
BRANCH   1  25
ATOM     25  C   UNL     1      35.352 -30.819  11.578  1.00  0.00     0.339 C 
ATOM     26  C   UNL     1      34.380 -30.839  12.790  1.00  0.00     0.214 C 
ATOM     27  O   UNL     1      35.554 -29.533  11.002  1.00  0.00    -0.332 OA
ATOM     28  C   UNL     1      34.211 -29.411  13.329  1.00  0.00     0.180 C 
ATOM     29  C   UNL     1      34.364 -28.767  10.855  1.00  0.00     0.179 C 
ATOM     30  C   UNL     1      33.675 -28.472  12.228  1.00  0.00     0.177 C 
BRANCH  26  31
ATOM     31  O   UNL     1      33.132 -31.369  12.412  1.00  0.00    -0.384 OA
ATOM     32  H   UNL     1      32.850 -30.900  11.584  1.00  0.00     0.211 HD
ENDBRANCH  26  31
BRANCH  28  33
ATOM     33  O   UNL     1      33.419 -29.373  14.493  1.00  0.00    -0.387 OA
ATOM     34  H   UNL     1      34.010 -29.509  15.279  1.00  0.00     0.211 HD
ENDBRANCH  28  33
BRANCH  29  35
ATOM     35  C   UNL     1      33.444 -29.351   9.759  1.00  0.00     0.191 C 
BRANCH  35  36
ATOM     36  O   UNL     1      32.426 -30.117  10.341  1.00  0.00    -0.394 OA
ATOM     37  H   UNL     1      32.067 -30.697   9.619  1.00  0.00     0.210 HD
ENDBRANCH  35  36
ENDBRANCH  29  35
BRANCH  30  38
ATOM     38  O   UNL     1      32.275 -28.575  12.136  1.00  0.00    -0.387 OA
ATOM     39  H   UNL     1      31.914 -28.442  13.051  1.00  0.00     0.211 HD
ENDBRANCH  30  38
ENDBRANCH   1  25
TORSDOF 11
ENDMDL
