MODEL 1
REMARK VINA RESULT:    -7.255      0.000      0.000
REMARK INTER + INTRA:          -8.103
REMARK INTER:                  -7.891
REMARK INTRA:                  -0.211
REMARK UNBOUND:                -0.211
REMARK SMILES CC1(C)CC[C@]2(C(=O)[O-])CC[C@]3(C)C(=CC[C@H]4[C@]5(C)CC[C@@H](O)C(C)(C)[C@@H]5CC[C@@]43C)[C@@H]2C1
REMARK SMILES IDX 6 1 5 2 10 3 32 4 4 5 11 6 14 7 33 8 2 9 12 10 15 11 1 12
REMARK SMILES IDX 3 13 13 14 30 15 16 16 17 17 29 18 31 19 18 20 28 21 27 22
REMARK SMILES IDX 20 23 19 24 24 25 21 26 22 27 25 28 26 29 7 30 8 31 9 32
REMARK SMILES IDX 23 33
REMARK H PARENT 23 34
REMARK Flexibility Score: inf
ROOT
ATOM      1  C   UNL     1       9.279   9.257 -15.604  1.00  0.00     0.017 C 
ATOM      2  C   UNL     1       9.512   7.917 -14.811  1.00  0.00     0.014 C 
ATOM      3  C   UNL     1       9.862  10.429 -14.764  1.00  0.00     0.014 C 
ATOM      4  C   UNL     1       7.763   9.486 -15.861  1.00  0.00     0.028 C 
ATOM      5  C   UNL     1       8.368   6.885 -14.841  1.00  0.00     0.007 C 
ATOM      6  C   UNL     1       9.547  11.844 -15.320  1.00  0.00     0.013 C 
ATOM      7  C   UNL     1       7.438  10.932 -16.294  1.00  0.00    -0.064 C 
ATOM      8  C   UNL     1       6.905   9.008 -14.680  1.00  0.00     0.015 C 
ATOM      9  C   UNL     1       6.935   7.457 -14.529  1.00  0.00    -0.035 C 
ATOM     10  C   UNL     1       8.030  12.158 -15.543  1.00  0.00    -0.006 C 
ATOM     11  C   UNL     1       6.730  11.054 -17.448  1.00  0.00    -0.027 C 
ATOM     12  C   UNL     1       5.876   6.808 -15.457  1.00  0.00     0.011 C 
ATOM     13  C   UNL     1       6.564   7.108 -13.064  1.00  0.00     0.011 C 
ATOM     14  C   UNL     1       7.387  12.248 -14.106  1.00  0.00     0.017 C 
ATOM     15  C   UNL     1       7.741  13.587 -16.323  1.00  0.00    -0.020 C 
ATOM     16  C   UNL     1       6.607  12.315 -18.248  1.00  0.00     0.032 C 
ATOM     17  C   UNL     1       7.709  13.351 -17.882  1.00  0.00     0.006 C 
ATOM     18  C   UNL     1       8.842  14.679 -16.001  1.00  0.00     0.008 C 
ATOM     19  C   UNL     1       6.357  14.176 -15.901  1.00  0.00     0.012 C 
ATOM     20  C   UNL     1       7.653  14.630 -18.865  1.00  0.00    -0.025 C 
ATOM     21  C   UNL     1       9.356  15.525 -17.182  1.00  0.00     0.005 C 
ATOM     22  C   UNL     1       8.247  15.934 -18.168  1.00  0.00     0.003 C 
ATOM     23  C   UNL     1       8.474  14.250 -20.173  1.00  0.00     0.010 C 
ATOM     24  C   UNL     1       6.193  14.964 -19.300  1.00  0.00     0.012 C 
ATOM     25  C   UNL     1       8.583  17.169 -19.154  1.00  0.00    -0.006 C 
ATOM     26  C   UNL     1       9.479  15.291 -20.636  1.00  0.00     0.033 C 
ATOM     27  C   UNL     1       8.866  16.684 -20.629  1.00  0.00     0.120 C 
ATOM     28  C   UNL     1       9.851  17.946 -18.699  1.00  0.00     0.014 C 
ATOM     29  C   UNL     1       7.405  18.215 -19.132  1.00  0.00     0.014 C 
ENDROOT
BRANCH   1  30
ATOM     30  C   UNL     1      10.052   9.215 -16.921  1.00  0.00     0.048 C 
ATOM     31  O   UNL     1       9.468   8.958 -18.009  1.00  0.00    -0.550 OA
ATOM     32  O   UNL     1      11.431   9.418 -16.951  1.00  0.00    -0.550 OA
ENDBRANCH   1  30
BRANCH  27  33
ATOM     33  O   UNL     1       7.717  16.688 -21.447  1.00  0.00    -0.393 OA
ATOM     34  H   UNL     1       7.726  17.540 -21.961  1.00  0.00     0.210 HD
ENDBRANCH  27  33
TORSDOF 2
ENDMDL
MODEL 2
REMARK VINA RESULT:    -5.210      1.483      7.969
REMARK INTER + INTRA:          -5.878
REMARK INTER:                  -6.177
REMARK INTRA:                   0.299
REMARK UNBOUND:                -0.211
REMARK SMILES CC1(C)CC[C@]2(C(=O)[O-])CC[C@]3(C)C(=CC[C@H]4[C@]5(C)CC[C@@H](O)C(C)(C)[C@@H]5CC[C@@]43C)[C@@H]2C1
REMARK SMILES IDX 6 1 5 2 10 3 32 4 4 5 11 6 14 7 33 8 2 9 12 10 15 11 1 12
REMARK SMILES IDX 3 13 13 14 30 15 16 16 17 17 29 18 31 19 18 20 28 21 27 22
REMARK SMILES IDX 20 23 19 24 24 25 21 26 22 27 25 28 26 29 7 30 8 31 9 32
REMARK SMILES IDX 23 33
REMARK H PARENT 23 34
REMARK Flexibility Score: inf
ROOT
ATOM      1  C   UNL     1       8.016  14.632 -19.860  1.00  0.00     0.017 C 
ATOM      2  C   UNL     1       7.933  15.814 -20.897  1.00  0.00     0.014 C 
ATOM      3  C   UNL     1       6.593  14.030 -19.690  1.00  0.00     0.014 C 
ATOM      4  C   UNL     1       8.549  15.140 -18.491  1.00  0.00     0.028 C 
ATOM      5  C   UNL     1       8.774  17.068 -20.590  1.00  0.00     0.007 C 
ATOM      6  C   UNL     1       6.467  12.974 -18.559  1.00  0.00     0.013 C 
ATOM      7  C   UNL     1       8.309  14.137 -17.342  1.00  0.00    -0.064 C 
ATOM      8  C   UNL     1       8.039  16.553 -18.168  1.00  0.00     0.015 C 
ATOM      9  C   UNL     1       8.646  17.625 -19.123  1.00  0.00    -0.035 C 
ATOM     10  C   UNL     1       6.931  13.447 -17.141  1.00  0.00    -0.006 C 
ATOM     11  C   UNL     1       9.410  13.794 -16.622  1.00  0.00    -0.027 C 
ATOM     12  C   UNL     1      10.028  18.089 -18.595  1.00  0.00     0.011 C 
ATOM     13  C   UNL     1       7.700  18.853 -19.134  1.00  0.00     0.011 C 
ATOM     14  C   UNL     1       5.875  14.519 -16.671  1.00  0.00     0.017 C 
ATOM     15  C   UNL     1       6.978  12.244 -16.007  1.00  0.00    -0.020 C 
ATOM     16  C   UNL     1       9.507  12.602 -15.720  1.00  0.00     0.032 C 
ATOM     17  C   UNL     1       8.396  11.553 -16.014  1.00  0.00     0.006 C 
ATOM     18  C   UNL     1       5.875  11.135 -16.264  1.00  0.00     0.008 C 
ATOM     19  C   UNL     1       6.736  12.824 -14.577  1.00  0.00     0.012 C 
ATOM     20  C   UNL     1       8.616  10.213 -15.142  1.00  0.00    -0.025 C 
ATOM     21  C   UNL     1       6.307   9.666 -16.092  1.00  0.00     0.005 C 
ATOM     22  C   UNL     1       7.245   9.441 -14.893  1.00  0.00     0.003 C 
ATOM     23  C   UNL     1       9.654   9.305 -15.935  1.00  0.00     0.010 C 
ATOM     24  C   UNL     1       9.231  10.526 -13.743  1.00  0.00     0.012 C 
ATOM     25  C   UNL     1       7.378   7.921 -14.361  1.00  0.00    -0.006 C 
ATOM     26  C   UNL     1       9.256   7.847 -16.092  1.00  0.00     0.033 C 
ATOM     27  C   UNL     1       8.757   7.273 -14.774  1.00  0.00     0.120 C 
ATOM     28  C   UNL     1       6.270   7.002 -14.948  1.00  0.00     0.014 C 
ATOM     29  C   UNL     1       7.193   7.876 -12.797  1.00  0.00     0.014 C 
ENDROOT
BRANCH   1  30
ATOM     30  C   UNL     1       8.913  13.526 -20.414  1.00  0.00     0.048 C 
ATOM     31  O   UNL     1       9.262  13.520 -21.626  1.00  0.00    -0.550 OA
ATOM     32  O   UNL     1       9.336  12.473 -19.606  1.00  0.00    -0.550 OA
ENDBRANCH   1  30
BRANCH  27  33
ATOM     33  O   UNL     1       9.761   7.424 -13.794  1.00  0.00    -0.393 OA
ATOM     34  H   UNL     1      10.179   6.530 -13.663  1.00  0.00     0.210 HD
ENDBRANCH  27  33
TORSDOF 2
ENDMDL
MODEL 3
REMARK VINA RESULT:    -4.895      2.089      8.000
REMARK INTER + INTRA:          -5.535
REMARK INTER:                  -5.824
REMARK INTRA:                   0.289
REMARK UNBOUND:                -0.211
REMARK SMILES CC1(C)CC[C@]2(C(=O)[O-])CC[C@]3(C)C(=CC[C@H]4[C@]5(C)CC[C@@H](O)C(C)(C)[C@@H]5CC[C@@]43C)[C@@H]2C1
REMARK SMILES IDX 6 1 5 2 10 3 32 4 4 5 11 6 14 7 33 8 2 9 12 10 15 11 1 12
REMARK SMILES IDX 3 13 13 14 30 15 16 16 17 17 29 18 31 19 18 20 28 21 27 22
REMARK SMILES IDX 20 23 19 24 24 25 21 26 22 27 25 28 26 29 7 30 8 31 9 32
REMARK SMILES IDX 23 33
REMARK H PARENT 23 34
REMARK Flexibility Score: inf
ROOT
ATOM      1  C   UNL     1       9.974  14.819 -18.083  1.00  0.00     0.017 C 
ATOM      2  C   UNL     1      10.474  16.103 -18.843  1.00  0.00     0.014 C 
ATOM      3  C   UNL     1      10.122  13.599 -19.034  1.00  0.00     0.014 C 
ATOM      4  C   UNL     1       8.490  14.981 -17.648  1.00  0.00     0.028 C 
ATOM      5  C   UNL     1       9.663  17.396 -18.630  1.00  0.00     0.007 C 
ATOM      6  C   UNL     1       9.497  12.281 -18.501  1.00  0.00     0.013 C 
ATOM      7  C   UNL     1       7.833  13.646 -17.237  1.00  0.00    -0.064 C 
ATOM      8  C   UNL     1       7.670  15.754 -18.693  1.00  0.00     0.015 C 
ATOM      9  C   UNL     1       8.104  17.249 -18.785  1.00  0.00    -0.035 C 
ATOM     10  C   UNL     1       7.985  12.365 -18.104  1.00  0.00    -0.006 C 
ATOM     11  C   UNL     1       7.248  13.632 -16.010  1.00  0.00    -0.027 C 
ATOM     12  C   UNL     1       7.368  18.085 -17.706  1.00  0.00     0.011 C 
ATOM     13  C   UNL     1       7.685  17.788 -20.177  1.00  0.00     0.011 C 
ATOM     14  C   UNL     1       7.190  12.552 -19.452  1.00  0.00     0.017 C 
ATOM     15  C   UNL     1       7.405  11.011 -17.352  1.00  0.00    -0.020 C 
ATOM     16  C   UNL     1       6.876  12.395 -15.252  1.00  0.00     0.032 C 
ATOM     17  C   UNL     1       7.609  11.134 -15.793  1.00  0.00     0.006 C 
ATOM     18  C   UNL     1       8.127   9.692 -17.853  1.00  0.00     0.008 C 
ATOM     19  C   UNL     1       5.876  10.841 -17.622  1.00  0.00     0.012 C 
ATOM     20  C   UNL     1       7.315   9.847 -14.864  1.00  0.00    -0.025 C 
ATOM     21  C   UNL     1       8.517   8.657 -16.780  1.00  0.00     0.005 C 
ATOM     22  C   UNL     1       7.453   8.487 -15.680  1.00  0.00     0.003 C 
ATOM     23  C   UNL     1       8.345   9.901 -13.653  1.00  0.00     0.010 C 
ATOM     24  C   UNL     1       5.875   9.882 -14.264  1.00  0.00     0.012 C 
ATOM     25  C   UNL     1       7.547   7.139 -14.795  1.00  0.00    -0.006 C 
ATOM     26  C   UNL     1       9.075   8.600 -13.361  1.00  0.00     0.033 C 
ATOM     27  C   UNL     1       8.110   7.424 -13.348  1.00  0.00     0.120 C 
ATOM     28  C   UNL     1       8.498   6.089 -15.435  1.00  0.00     0.014 C 
ATOM     29  C   UNL     1       6.134   6.446 -14.712  1.00  0.00     0.014 C 
ENDROOT
BRANCH   1  30
ATOM     30  C   UNL     1      10.868  14.560 -16.871  1.00  0.00     0.048 C 
ATOM     31  O   UNL     1      11.793  15.360 -16.563  1.00  0.00    -0.550 OA
ATOM     32  O   UNL     1      10.712  13.411 -16.096  1.00  0.00    -0.550 OA
ENDBRANCH   1  30
BRANCH  27  33
ATOM     33  O   UNL     1       7.098   7.665 -12.394  1.00  0.00    -0.393 OA
ATOM     34  H   UNL     1       6.285   7.180 -12.701  1.00  0.00     0.210 HD
ENDBRANCH  27  33
TORSDOF 2
ENDMDL
MODEL 4
REMARK VINA RESULT:    -4.382      1.973      3.138
REMARK INTER + INTRA:          -4.977
REMARK INTER:                  -5.230
REMARK INTRA:                   0.253
REMARK UNBOUND:                -0.211
REMARK SMILES CC1(C)CC[C@]2(C(=O)[O-])CC[C@]3(C)C(=CC[C@H]4[C@]5(C)CC[C@@H](O)C(C)(C)[C@@H]5CC[C@@]43C)[C@@H]2C1
REMARK SMILES IDX 6 1 5 2 10 3 32 4 4 5 11 6 14 7 33 8 2 9 12 10 15 11 1 12
REMARK SMILES IDX 3 13 13 14 30 15 16 16 17 17 29 18 31 19 18 20 28 21 27 22
REMARK SMILES IDX 20 23 19 24 24 25 21 26 22 27 25 28 26 29 7 30 8 31 9 32
REMARK SMILES IDX 23 33
REMARK H PARENT 23 34
REMARK Flexibility Score: inf
ROOT
ATOM      1  C   UNL     1       7.208  10.258 -13.873  1.00  0.00     0.017 C 
ATOM      2  C   UNL     1       6.858   9.122 -12.840  1.00  0.00     0.014 C 
ATOM      3  C   UNL     1       5.878  10.871 -14.395  1.00  0.00     0.014 C 
ATOM      4  C   UNL     1       8.035   9.686 -15.058  1.00  0.00     0.028 C 
ATOM      5  C   UNL     1       7.720   7.846 -12.893  1.00  0.00     0.007 C 
ATOM      6  C   UNL     1       6.044  11.880 -15.564  1.00  0.00     0.013 C 
ATOM      7  C   UNL     1       8.093  10.643 -16.269  1.00  0.00    -0.064 C 
ATOM      8  C   UNL     1       7.583   8.268 -15.438  1.00  0.00     0.015 C 
ATOM      9  C   UNL     1       7.927   7.230 -14.327  1.00  0.00    -0.035 C 
ATOM     10  C   UNL     1       6.816  11.342 -16.814  1.00  0.00    -0.006 C 
ATOM     11  C   UNL     1       9.340  10.941 -16.723  1.00  0.00    -0.027 C 
ATOM     12  C   UNL     1       9.383   6.726 -14.498  1.00  0.00     0.011 C 
ATOM     13  C   UNL     1       6.977   6.015 -14.492  1.00  0.00     0.011 C 
ATOM     14  C   UNL     1       5.876  10.264 -17.477  1.00  0.00     0.017 C 
ATOM     15  C   UNL     1       7.154  12.495 -17.950  1.00  0.00    -0.020 C 
ATOM     16  C   UNL     1       9.671  12.093 -17.621  1.00  0.00     0.032 C 
ATOM     17  C   UNL     1       8.545  13.167 -17.637  1.00  0.00     0.006 C 
ATOM     18  C   UNL     1       6.047  13.628 -18.002  1.00  0.00     0.008 C 
ATOM     19  C   UNL     1       7.241  11.858 -19.374  1.00  0.00     0.012 C 
ATOM     20  C   UNL     1       8.993  14.466 -18.483  1.00  0.00    -0.025 C 
ATOM     21  C   UNL     1       6.539  15.082 -18.123  1.00  0.00     0.005 C 
ATOM     22  C   UNL     1       7.737  15.245 -19.076  1.00  0.00     0.003 C 
ATOM     23  C   UNL     1       9.837  15.394 -17.503  1.00  0.00     0.010 C 
ATOM     24  C   UNL     1       9.912  14.087 -19.686  1.00  0.00     0.012 C 
ATOM     25  C   UNL     1       8.024  16.739 -19.619  1.00  0.00    -0.006 C 
ATOM     26  C   UNL     1       9.446  16.862 -17.500  1.00  0.00     0.033 C 
ATOM     27  C   UNL     1       9.282  17.387 -18.919  1.00  0.00     0.120 C 
ATOM     28  C   UNL     1       6.831  17.696 -19.345  1.00  0.00     0.014 C 
ATOM     29  C   UNL     1       8.212  16.720 -21.184  1.00  0.00     0.014 C 
ENDROOT
BRANCH   1  30
ATOM     30  C   UNL     1       7.974  11.375 -13.166  1.00  0.00     0.048 C 
ATOM     31  O   UNL     1       7.766  11.637 -11.950  1.00  0.00    -0.550 OA
ATOM     32  O   UNL     1       8.895  12.162 -13.857  1.00  0.00    -0.550 OA
ENDBRANCH   1  30
BRANCH  27  33
ATOM     33  O   UNL     1      10.484  17.181 -19.630  1.00  0.00    -0.393 OA
ATOM     34  H   UNL     1      11.220  17.557 -19.075  1.00  0.00     0.210 HD
ENDBRANCH  27  33
TORSDOF 2
ENDMDL
