MODEL 1
REMARK VINA RESULT:    -7.412      0.000      0.000
REMARK INTER + INTRA:         -11.011
REMARK INTER:                  -9.795
REMARK INTRA:                  -1.216
REMARK UNBOUND:                -1.216
REMARK SMILES CC[C@@H](C=C[C@@H](C)[C@@H]1CC[C@@H]2C3=CC[C@@H]4C[C@@H](O)CC[C@@]4(C)[C@@H]3CC[C@]21C)C(C)C
REMARK SMILES IDX 6 1 7 2 5 3 4 4 3 5 2 6 1 7 28 8 29 9 30 10 8 11 9 12 26 13
REMARK SMILES IDX 10 14 11 15 25 16 27 17 12 18 24 19 23 20 13 21 21 22 14 23
REMARK SMILES IDX 15 24 20 25 22 26 16 27 19 28 17 29 18 30
REMARK H PARENT 18 31
REMARK Flexibility Score: inf
ROOT
ATOM      1  C   UNL     1     186.826 189.458 189.445  1.00  0.00     0.012 C 
ATOM      2  C   UNL     1     187.134 188.803 188.082  1.00  0.00     0.012 C 
ENDROOT
BRANCH   1   3
ATOM      3  C   UNL     1     185.953 188.507 190.237  1.00  0.00    -0.028 C 
ATOM      4  C   UNL     1     184.647 188.358 189.968  1.00  0.00    -0.027 C 
BRANCH   4   5
ATOM      5  C   UNL     1     183.778 187.398 190.755  1.00  0.00     0.014 C 
BRANCH   5   6
ATOM      6  C   UNL     1     184.616 186.668 191.828  1.00  0.00     0.004 C 
ATOM      7  C   UNL     1     184.994 185.247 191.404  1.00  0.00     0.004 C 
ENDBRANCH   5   6
BRANCH   5   8
ATOM      8  C   UNL     1     183.023 186.402 189.824  1.00  0.00    -0.011 C 
ATOM      9  C   UNL     1     181.553 186.247 190.254  1.00  0.00     0.008 C 
ATOM     10  C   UNL     1     183.097 186.769 188.330  1.00  0.00     0.008 C 
ENDBRANCH   5   8
ENDBRANCH   4   5
ENDBRANCH   1   3
BRANCH   1  11
ATOM     11  C   UNL     1     186.161 190.879 189.417  1.00  0.00     0.002 C 
ATOM     12  C   UNL     1     185.810 191.462 188.025  1.00  0.00     0.005 C 
ATOM     13  C   UNL     1     186.857 192.045 190.163  1.00  0.00    -0.023 C 
ATOM     14  C   UNL     1     185.831 192.993 188.184  1.00  0.00     0.009 C 
ATOM     15  C   UNL     1     185.992 193.218 189.689  1.00  0.00     0.021 C 
ATOM     16  C   UNL     1     186.751 191.985 191.707  1.00  0.00     0.008 C 
ATOM     17  C   UNL     1     188.345 192.208 189.725  1.00  0.00     0.012 C 
ATOM     18  C   UNL     1     186.493 194.538 190.235  1.00  0.00    -0.067 C 
ATOM     19  C   UNL     1     187.281 193.290 192.350  1.00  0.00     0.009 C 
ATOM     20  C   UNL     1     186.644 194.594 191.763  1.00  0.00     0.021 C 
ATOM     21  C   UNL     1     186.458 195.658 189.483  1.00  0.00    -0.027 C 
ATOM     22  C   UNL     1     187.335 195.916 192.276  1.00  0.00    -0.023 C 
ATOM     23  C   UNL     1     186.822 197.015 190.010  1.00  0.00     0.031 C 
ATOM     24  C   UNL     1     186.655 197.119 191.537  1.00  0.00     0.002 C 
ATOM     25  C   UNL     1     187.119 196.053 193.834  1.00  0.00     0.010 C 
ATOM     26  C   UNL     1     188.862 195.891 191.962  1.00  0.00     0.012 C 
ATOM     27  C   UNL     1     187.136 198.509 192.034  1.00  0.00     0.036 C 
ATOM     28  C   UNL     1     186.705 197.457 194.316  1.00  0.00     0.032 C 
ATOM     29  C   UNL     1     187.446 198.556 193.549  1.00  0.00     0.114 C 
BRANCH  29  30
ATOM     30  O   UNL     1     187.153 199.822 194.083  1.00  0.00    -0.393 OA
ATOM     31  H   UNL     1     187.758 200.482 193.650  1.00  0.00     0.210 HD
ENDBRANCH  29  30
ENDBRANCH   1  11
TORSDOF 6
ENDMDL
MODEL 2
REMARK VINA RESULT:    -7.363      4.488      6.768
REMARK INTER + INTRA:         -10.946
REMARK INTER:                 -10.334
REMARK INTRA:                  -0.612
REMARK UNBOUND:                -1.216
REMARK SMILES CC[C@@H](C=C[C@@H](C)[C@@H]1CC[C@@H]2C3=CC[C@@H]4C[C@@H](O)CC[C@@]4(C)[C@@H]3CC[C@]21C)C(C)C
REMARK SMILES IDX 6 1 7 2 5 3 4 4 3 5 2 6 1 7 28 8 29 9 30 10 8 11 9 12 26 13
REMARK SMILES IDX 10 14 11 15 25 16 27 17 12 18 24 19 23 20 13 21 21 22 14 23
REMARK SMILES IDX 15 24 20 25 22 26 16 27 19 28 17 29 18 30
REMARK H PARENT 18 31
REMARK Flexibility Score: inf
ROOT
ATOM      1  C   UNL     1     184.714 190.819 190.788  1.00  0.00     0.012 C 
ATOM      2  C   UNL     1     185.646 191.438 191.851  1.00  0.00     0.012 C 
ENDROOT
BRANCH   1   3
ATOM      3  C   UNL     1     184.730 189.315 190.967  1.00  0.00    -0.028 C 
ATOM      4  C   UNL     1     183.612 188.580 190.864  1.00  0.00    -0.027 C 
BRANCH   4   5
ATOM      5  C   UNL     1     183.632 187.075 191.034  1.00  0.00     0.014 C 
BRANCH   5   6
ATOM      6  C   UNL     1     185.082 186.571 191.210  1.00  0.00     0.004 C 
ATOM      7  C   UNL     1     185.329 185.986 192.602  1.00  0.00     0.004 C 
ENDBRANCH   5   6
BRANCH   5   8
ATOM      8  C   UNL     1     182.898 186.350 189.866  1.00  0.00    -0.011 C 
ATOM      9  C   UNL     1     181.388 186.239 190.145  1.00  0.00     0.008 C 
ATOM     10  C   UNL     1     183.131 186.995 188.487  1.00  0.00     0.008 C 
ENDBRANCH   5   8
ENDBRANCH   4   5
ENDBRANCH   1   3
BRANCH   1  11
ATOM     11  C   UNL     1     185.013 191.171 189.288  1.00  0.00     0.002 C 
ATOM     12  C   UNL     1     183.946 190.758 188.245  1.00  0.00     0.005 C 
ATOM     13  C   UNL     1     186.359 190.719 188.669  1.00  0.00    -0.023 C 
ATOM     14  C   UNL     1     184.696 190.576 186.913  1.00  0.00     0.009 C 
ATOM     15  C   UNL     1     186.111 191.082 187.201  1.00  0.00     0.021 C 
ATOM     16  C   UNL     1     187.596 191.522 189.143  1.00  0.00     0.008 C 
ATOM     17  C   UNL     1     186.598 189.189 188.855  1.00  0.00     0.012 C 
ATOM     18  C   UNL     1     187.279 190.687 186.322  1.00  0.00    -0.067 C 
ATOM     19  C   UNL     1     188.850 191.147 188.316  1.00  0.00     0.009 C 
ATOM     20  C   UNL     1     188.642 191.240 186.766  1.00  0.00     0.021 C 
ATOM     21  C   UNL     1     187.079 190.204 185.078  1.00  0.00    -0.027 C 
ATOM     22  C   UNL     1     189.852 190.662 185.935  1.00  0.00    -0.023 C 
ATOM     23  C   UNL     1     188.196 189.914 184.118  1.00  0.00     0.031 C 
ATOM     24  C   UNL     1     189.461 190.738 184.420  1.00  0.00     0.002 C 
ATOM     25  C   UNL     1     191.139 191.537 186.201  1.00  0.00     0.010 C 
ATOM     26  C   UNL     1     190.137 189.183 186.340  1.00  0.00     0.012 C 
ATOM     27  C   UNL     1     190.609 190.327 183.457  1.00  0.00     0.036 C 
ATOM     28  C   UNL     1     191.952 191.903 184.943  1.00  0.00     0.032 C 
ATOM     29  C   UNL     1     192.015 190.735 183.956  1.00  0.00     0.114 C 
BRANCH  29  30
ATOM     30  O   UNL     1     192.862 191.040 182.876  1.00  0.00    -0.393 OA
ATOM     31  H   UNL     1     193.520 191.718 183.188  1.00  0.00     0.210 HD
ENDBRANCH  29  30
ENDBRANCH   1  11
TORSDOF 6
ENDMDL
MODEL 3
REMARK VINA RESULT:    -7.358      1.507      2.879
REMARK INTER + INTRA:         -10.940
REMARK INTER:                  -9.749
REMARK INTRA:                  -1.191
REMARK UNBOUND:                -1.216
REMARK SMILES CC[C@@H](C=C[C@@H](C)[C@@H]1CC[C@@H]2C3=CC[C@@H]4C[C@@H](O)CC[C@@]4(C)[C@@H]3CC[C@]21C)C(C)C
REMARK SMILES IDX 6 1 7 2 5 3 4 4 3 5 2 6 1 7 28 8 29 9 30 10 8 11 9 12 26 13
REMARK SMILES IDX 10 14 11 15 25 16 27 17 12 18 24 19 23 20 13 21 21 22 14 23
REMARK SMILES IDX 15 24 20 25 22 26 16 27 19 28 17 29 18 30
REMARK H PARENT 18 31
REMARK Flexibility Score: inf
ROOT
ATOM      1  C   UNL     1     184.350 187.820 188.796  1.00  0.00     0.012 C 
ATOM      2  C   UNL     1     183.274 187.003 188.049  1.00  0.00     0.012 C 
ENDROOT
BRANCH   1   3
ATOM      3  C   UNL     1     184.383 187.347 190.235  1.00  0.00    -0.028 C 
ATOM      4  C   UNL     1     185.332 186.509 190.680  1.00  0.00    -0.027 C 
BRANCH   4   5
ATOM      5  C   UNL     1     185.370 186.045 192.123  1.00  0.00     0.014 C 
BRANCH   5   6
ATOM      6  C   UNL     1     186.102 187.081 193.003  1.00  0.00     0.004 C 
ATOM      7  C   UNL     1     187.392 187.588 192.355  1.00  0.00     0.004 C 
ENDBRANCH   5   6
BRANCH   5   8
ATOM      8  C   UNL     1     185.987 184.621 192.257  1.00  0.00    -0.011 C 
ATOM      9  C   UNL     1     186.170 184.234 193.736  1.00  0.00     0.008 C 
ATOM     10  C   UNL     1     185.192 183.525 191.522  1.00  0.00     0.008 C 
ENDBRANCH   5   8
ENDBRANCH   4   5
ENDBRANCH   1   3
BRANCH   1  11
ATOM     11  C   UNL     1     184.208 189.382 188.762  1.00  0.00     0.002 C 
ATOM     12  C   UNL     1     184.127 190.048 187.366  1.00  0.00     0.005 C 
ATOM     13  C   UNL     1     185.232 190.242 189.545  1.00  0.00    -0.023 C 
ATOM     14  C   UNL     1     184.661 191.481 187.543  1.00  0.00     0.009 C 
ATOM     15  C   UNL     1     184.834 191.639 189.055  1.00  0.00     0.021 C 
ATOM     16  C   UNL     1     185.055 190.223 191.084  1.00  0.00     0.008 C 
ATOM     17  C   UNL     1     186.701 189.890 189.160  1.00  0.00     0.012 C 
ATOM     18  C   UNL     1     185.733 192.712 189.633  1.00  0.00    -0.067 C 
ATOM     19  C   UNL     1     185.973 191.271 191.760  1.00  0.00     0.009 C 
ATOM     20  C   UNL     1     185.838 192.714 191.166  1.00  0.00     0.021 C 
ATOM     21  C   UNL     1     186.108 193.776 188.893  1.00  0.00    -0.027 C 
ATOM     22  C   UNL     1     186.918 193.723 191.717  1.00  0.00    -0.023 C 
ATOM     23  C   UNL     1     186.892 194.929 189.448  1.00  0.00     0.031 C 
ATOM     24  C   UNL     1     186.715 195.085 190.970  1.00  0.00     0.002 C 
ATOM     25  C   UNL     1     186.705 193.927 193.269  1.00  0.00     0.010 C 
ATOM     26  C   UNL     1     188.357 193.180 191.457  1.00  0.00     0.012 C 
ATOM     27  C   UNL     1     187.620 196.229 191.499  1.00  0.00     0.036 C 
ATOM     28  C   UNL     1     186.775 195.389 193.752  1.00  0.00     0.032 C 
ATOM     29  C   UNL     1     187.873 196.169 193.024  1.00  0.00     0.114 C 
BRANCH  29  30
ATOM     30  O   UNL     1     188.008 197.461 193.562  1.00  0.00    -0.393 OA
ATOM     31  H   UNL     1     187.767 198.113 192.850  1.00  0.00     0.210 HD
ENDBRANCH  29  30
ENDBRANCH   1  11
TORSDOF 6
ENDMDL
MODEL 4
REMARK VINA RESULT:    -6.985      3.192      6.090
REMARK INTER + INTRA:         -10.447
REMARK INTER:                  -9.244
REMARK INTRA:                  -1.203
REMARK UNBOUND:                -1.216
REMARK SMILES CC[C@@H](C=C[C@@H](C)[C@@H]1CC[C@@H]2C3=CC[C@@H]4C[C@@H](O)CC[C@@]4(C)[C@@H]3CC[C@]21C)C(C)C
REMARK SMILES IDX 6 1 7 2 5 3 4 4 3 5 2 6 1 7 28 8 29 9 30 10 8 11 9 12 26 13
REMARK SMILES IDX 10 14 11 15 25 16 27 17 12 18 24 19 23 20 13 21 21 22 14 23
REMARK SMILES IDX 15 24 20 25 22 26 16 27 19 28 17 29 18 30
REMARK H PARENT 18 31
REMARK Flexibility Score: inf
ROOT
ATOM      1  C   UNL     1     187.233 195.351 190.392  1.00  0.00     0.012 C 
ATOM      2  C   UNL     1     187.846 196.199 189.257  1.00  0.00     0.012 C 
ENDROOT
BRANCH   1   3
ATOM      3  C   UNL     1     186.109 194.522 189.805  1.00  0.00    -0.028 C 
ATOM      4  C   UNL     1     186.141 193.181 189.817  1.00  0.00    -0.027 C 
BRANCH   4   5
ATOM      5  C   UNL     1     185.011 192.354 189.238  1.00  0.00     0.014 C 
BRANCH   5   6
ATOM      6  C   UNL     1     184.715 191.137 190.142  1.00  0.00     0.004 C 
ATOM      7  C   UNL     1     185.484 191.194 191.464  1.00  0.00     0.004 C 
ENDBRANCH   5   6
BRANCH   5   8
ATOM      8  C   UNL     1     185.296 191.934 187.765  1.00  0.00    -0.011 C 
ATOM      9  C   UNL     1     186.784 191.594 187.564  1.00  0.00     0.008 C 
ATOM     10  C   UNL     1     184.419 190.768 187.268  1.00  0.00     0.008 C 
ENDBRANCH   5   8
ENDBRANCH   4   5
ENDBRANCH   1   3
BRANCH   1  11
ATOM     11  C   UNL     1     186.710 196.123 191.654  1.00  0.00     0.002 C 
ATOM     12  C   UNL     1     186.730 197.670 191.587  1.00  0.00     0.005 C 
ATOM     13  C   UNL     1     187.313 195.784 193.040  1.00  0.00    -0.023 C 
ATOM     14  C   UNL     1     186.840 198.160 193.043  1.00  0.00     0.009 C 
ATOM     15  C   UNL     1     186.676 196.893 193.885  1.00  0.00     0.021 C 
ATOM     16  C   UNL     1     186.857 194.429 193.634  1.00  0.00     0.008 C 
ATOM     17  C   UNL     1     188.869 195.882 193.034  1.00  0.00     0.012 C 
ATOM     18  C   UNL     1     187.147 196.841 195.323  1.00  0.00    -0.067 C 
ATOM     19  C   UNL     1     187.334 194.278 195.100  1.00  0.00     0.009 C 
ATOM     20  C   UNL     1     186.954 195.486 196.021  1.00  0.00     0.021 C 
ATOM     21  C   UNL     1     187.375 197.975 196.020  1.00  0.00    -0.027 C 
ATOM     22  C   UNL     1     187.618 195.419 197.451  1.00  0.00    -0.023 C 
ATOM     23  C   UNL     1     187.721 197.987 197.480  1.00  0.00     0.031 C 
ATOM     24  C   UNL     1     187.223 196.728 198.215  1.00  0.00     0.002 C 
ATOM     25  C   UNL     1     187.069 194.159 198.227  1.00  0.00     0.010 C 
ATOM     26  C   UNL     1     189.170 195.319 197.328  1.00  0.00     0.012 C 
ATOM     27  C   UNL     1     187.692 196.753 199.695  1.00  0.00     0.036 C 
ATOM     28  C   UNL     1     186.673 194.416 199.694  1.00  0.00     0.032 C 
ATOM     29  C   UNL     1     187.656 195.368 200.382  1.00  0.00     0.114 C 
BRANCH  29  30
ATOM     30  O   UNL     1     187.354 195.493 201.750  1.00  0.00    -0.393 OA
ATOM     31  H   UNL     1     187.046 194.605 202.076  1.00  0.00     0.210 HD
ENDBRANCH  29  30
ENDBRANCH   1  11
TORSDOF 6
ENDMDL
MODEL 5
REMARK VINA RESULT:    -6.796      3.088      9.321
REMARK INTER + INTRA:         -10.197
REMARK INTER:                  -9.420
REMARK INTRA:                  -0.777
REMARK UNBOUND:                -1.216
REMARK SMILES CC[C@@H](C=C[C@@H](C)[C@@H]1CC[C@@H]2C3=CC[C@@H]4C[C@@H](O)CC[C@@]4(C)[C@@H]3CC[C@]21C)C(C)C
REMARK SMILES IDX 6 1 7 2 5 3 4 4 3 5 2 6 1 7 28 8 29 9 30 10 8 11 9 12 26 13
REMARK SMILES IDX 10 14 11 15 25 16 27 17 12 18 24 19 23 20 13 21 21 22 14 23
REMARK SMILES IDX 15 24 20 25 22 26 16 27 19 28 17 29 18 30
REMARK H PARENT 18 31
REMARK Flexibility Score: inf
ROOT
ATOM      1  C   UNL     1     187.392 195.963 189.848  1.00  0.00     0.012 C 
ATOM      2  C   UNL     1     188.823 196.107 189.287  1.00  0.00     0.012 C 
ENDROOT
BRANCH   1   3
ATOM      3  C   UNL     1     187.004 197.280 190.488  1.00  0.00    -0.028 C 
ATOM      4  C   UNL     1     187.547 197.688 191.645  1.00  0.00    -0.027 C 
BRANCH   4   5
ATOM      5  C   UNL     1     187.165 199.011 192.279  1.00  0.00     0.014 C 
BRANCH   5   6
ATOM      6  C   UNL     1     188.390 199.949 192.351  1.00  0.00     0.004 C 
ATOM      7  C   UNL     1     189.713 199.182 192.301  1.00  0.00     0.004 C 
ENDBRANCH   5   6
BRANCH   5   8
ATOM      8  C   UNL     1     186.495 198.813 193.673  1.00  0.00    -0.011 C 
ATOM      9  C   UNL     1     187.206 197.710 194.478  1.00  0.00     0.008 C 
ATOM     10  C   UNL     1     186.410 200.103 194.511  1.00  0.00     0.008 C 
ENDBRANCH   5   8
ENDBRANCH   4   5
ENDBRANCH   1   3
BRANCH   1  11
ATOM     11  C   UNL     1     187.139 194.793 190.861  1.00  0.00     0.002 C 
ATOM     12  C   UNL     1     188.224 194.554 191.940  1.00  0.00     0.005 C 
ATOM     13  C   UNL     1     186.821 193.381 190.308  1.00  0.00    -0.023 C 
ATOM     14  C   UNL     1     188.124 193.067 192.326  1.00  0.00     0.009 C 
ATOM     15  C   UNL     1     186.867 192.571 191.608  1.00  0.00     0.021 C 
ATOM     16  C   UNL     1     185.401 193.221 189.712  1.00  0.00     0.008 C 
ATOM     17  C   UNL     1     187.899 192.902 189.288  1.00  0.00     0.012 C 
ATOM     18  C   UNL     1     186.640 191.095 191.355  1.00  0.00    -0.067 C 
ATOM     19  C   UNL     1     185.101 191.737 189.387  1.00  0.00     0.009 C 
ATOM     20  C   UNL     1     185.354 190.758 190.584  1.00  0.00     0.021 C 
ATOM     21  C   UNL     1     187.314 190.159 192.056  1.00  0.00    -0.027 C 
ATOM     22  C   UNL     1     185.245 189.236 190.184  1.00  0.00    -0.023 C 
ATOM     23  C   UNL     1     187.042 188.688 191.938  1.00  0.00     0.031 C 
ATOM     24  C   UNL     1     185.611 188.390 191.451  1.00  0.00     0.002 C 
ATOM     25  C   UNL     1     183.765 188.915 189.735  1.00  0.00     0.010 C 
ATOM     26  C   UNL     1     186.226 188.905 189.018  1.00  0.00     0.012 C 
ATOM     27  C   UNL     1     185.420 186.862 191.257  1.00  0.00     0.036 C 
ATOM     28  C   UNL     1     183.175 187.613 190.311  1.00  0.00     0.032 C 
ATOM     29  C   UNL     1     184.220 186.494 190.354  1.00  0.00     0.114 C 
BRANCH  29  30
ATOM     30  O   UNL     1     183.636 185.282 190.762  1.00  0.00    -0.393 OA
ATOM     31  H   UNL     1     183.170 185.445 191.626  1.00  0.00     0.210 HD
ENDBRANCH  29  30
ENDBRANCH   1  11
TORSDOF 6
ENDMDL
MODEL 6
REMARK VINA RESULT:    -6.770      4.737      9.378
REMARK INTER + INTRA:         -10.163
REMARK INTER:                  -8.871
REMARK INTRA:                  -1.292
REMARK UNBOUND:                -1.216
REMARK SMILES CC[C@@H](C=C[C@@H](C)[C@@H]1CC[C@@H]2C3=CC[C@@H]4C[C@@H](O)CC[C@@]4(C)[C@@H]3CC[C@]21C)C(C)C
REMARK SMILES IDX 6 1 7 2 5 3 4 4 3 5 2 6 1 7 28 8 29 9 30 10 8 11 9 12 26 13
REMARK SMILES IDX 10 14 11 15 25 16 27 17 12 18 24 19 23 20 13 21 21 22 14 23
REMARK SMILES IDX 15 24 20 25 22 26 16 27 19 28 17 29 18 30
REMARK H PARENT 18 31
REMARK Flexibility Score: inf
ROOT
ATOM      1  C   UNL     1     185.643 191.987 189.144  1.00  0.00     0.012 C 
ATOM      2  C   UNL     1     184.225 191.516 189.533  1.00  0.00     0.012 C 
ENDROOT
BRANCH   1   3
ATOM      3  C   UNL     1     185.688 193.496 189.272  1.00  0.00    -0.028 C 
ATOM      4  C   UNL     1     186.837 194.150 189.500  1.00  0.00    -0.027 C 
BRANCH   4   5
ATOM      5  C   UNL     1     186.882 195.660 189.618  1.00  0.00     0.014 C 
BRANCH   5   6
ATOM      6  C   UNL     1     188.314 196.179 189.363  1.00  0.00     0.004 C 
ATOM      7  C   UNL     1     189.353 195.056 189.392  1.00  0.00     0.004 C 
ENDBRANCH   5   6
BRANCH   5   8
ATOM      8  C   UNL     1     186.315 196.152 190.984  1.00  0.00    -0.011 C 
ATOM      9  C   UNL     1     186.959 195.392 192.157  1.00  0.00     0.008 C 
ATOM     10  C   UNL     1     186.450 197.671 191.204  1.00  0.00     0.008 C 
ENDBRANCH   5   8
ENDBRANCH   4   5
ENDBRANCH   1   3
BRANCH   1  11
ATOM     11  C   UNL     1     186.169 191.566 187.727  1.00  0.00     0.002 C 
ATOM     12  C   UNL     1     185.159 190.869 186.783  1.00  0.00     0.005 C 
ATOM     13  C   UNL     1     187.451 190.700 187.633  1.00  0.00    -0.023 C 
ATOM     14  C   UNL     1     185.995 189.995 185.830  1.00  0.00     0.009 C 
ATOM     15  C   UNL     1     187.445 190.378 186.135  1.00  0.00     0.021 C 
ATOM     16  C   UNL     1     188.769 191.454 187.939  1.00  0.00     0.008 C 
ATOM     17  C   UNL     1     187.345 189.411 188.503  1.00  0.00     0.012 C 
ATOM     18  C   UNL     1     188.593 189.468 185.753  1.00  0.00    -0.067 C 
ATOM     19  C   UNL     1     190.000 190.574 187.611  1.00  0.00     0.009 C 
ATOM     20  C   UNL     1     189.985 189.971 186.166  1.00  0.00     0.021 C 
ATOM     21  C   UNL     1     188.432 188.499 184.827  1.00  0.00    -0.027 C 
ATOM     22  C   UNL     1     191.131 188.917 185.914  1.00  0.00    -0.023 C 
ATOM     23  C   UNL     1     189.562 187.651 184.320  1.00  0.00     0.031 C 
ATOM     24  C   UNL     1     190.931 188.340 184.471  1.00  0.00     0.002 C 
ATOM     25  C   UNL     1     192.535 189.631 186.015  1.00  0.00     0.010 C 
ATOM     26  C   UNL     1     191.056 187.766 186.964  1.00  0.00     0.012 C 
ATOM     27  C   UNL     1     192.065 187.381 184.019  1.00  0.00     0.036 C 
ATOM     28  C   UNL     1     193.538 189.264 184.904  1.00  0.00     0.032 C 
ATOM     29  C   UNL     1     193.463 187.776 184.550  1.00  0.00     0.114 C 
BRANCH  29  30
ATOM     30  O   UNL     1     194.466 187.431 183.627  1.00  0.00    -0.393 OA
ATOM     31  H   UNL     1     194.892 186.589 183.943  1.00  0.00     0.210 HD
ENDBRANCH  29  30
ENDBRANCH   1  11
TORSDOF 6
ENDMDL
MODEL 7
REMARK VINA RESULT:    -6.751      1.371      2.876
REMARK INTER + INTRA:         -10.138
REMARK INTER:                  -9.360
REMARK INTRA:                  -0.777
REMARK UNBOUND:                -1.216
REMARK SMILES CC[C@@H](C=C[C@@H](C)[C@@H]1CC[C@@H]2C3=CC[C@@H]4C[C@@H](O)CC[C@@]4(C)[C@@H]3CC[C@]21C)C(C)C
REMARK SMILES IDX 6 1 7 2 5 3 4 4 3 5 2 6 1 7 28 8 29 9 30 10 8 11 9 12 26 13
REMARK SMILES IDX 10 14 11 15 25 16 27 17 12 18 24 19 23 20 13 21 21 22 14 23
REMARK SMILES IDX 15 24 20 25 22 26 16 27 19 28 17 29 18 30
REMARK H PARENT 18 31
REMARK Flexibility Score: inf
ROOT
ATOM      1  C   UNL     1     185.509 190.239 187.894  1.00  0.00     0.012 C 
ATOM      2  C   UNL     1     184.151 190.968 187.980  1.00  0.00     0.012 C 
ENDROOT
BRANCH   1   3
ATOM      3  C   UNL     1     185.407 188.959 188.699  1.00  0.00    -0.028 C 
ATOM      4  C   UNL     1     184.380 188.729 189.531  1.00  0.00    -0.027 C 
BRANCH   4   5
ATOM      5  C   UNL     1     184.276 187.444 190.327  1.00  0.00     0.014 C 
BRANCH   5   6
ATOM      6  C   UNL     1     182.842 187.262 190.871  1.00  0.00     0.004 C 
ATOM      7  C   UNL     1     182.039 186.241 190.061  1.00  0.00     0.004 C 
ENDBRANCH   5   6
BRANCH   5   8
ATOM      8  C   UNL     1     185.345 187.375 191.459  1.00  0.00    -0.011 C 
ATOM      9  C   UNL     1     185.376 188.682 192.272  1.00  0.00     0.008 C 
ATOM     10  C   UNL     1     185.173 186.172 192.406  1.00  0.00     0.008 C 
ENDBRANCH   5   8
ENDBRANCH   4   5
ENDBRANCH   1   3
BRANCH   1  11
ATOM     11  C   UNL     1     186.778 191.042 188.345  1.00  0.00     0.002 C 
ATOM     12  C   UNL     1     187.905 190.240 189.041  1.00  0.00     0.005 C 
ATOM     13  C   UNL     1     186.590 192.299 189.232  1.00  0.00    -0.023 C 
ATOM     14  C   UNL     1     188.650 191.241 189.943  1.00  0.00     0.009 C 
ATOM     15  C   UNL     1     188.052 192.601 189.577  1.00  0.00     0.021 C 
ATOM     16  C   UNL     1     186.023 193.537 188.493  1.00  0.00     0.008 C 
ATOM     17  C   UNL     1     185.746 191.990 190.505  1.00  0.00     0.012 C 
ATOM     18  C   UNL     1     188.173 193.788 190.511  1.00  0.00    -0.067 C 
ATOM     19  C   UNL     1     186.075 194.793 189.397  1.00  0.00     0.009 C 
ATOM     20  C   UNL     1     187.484 195.071 190.023  1.00  0.00     0.021 C 
ATOM     21  C   UNL     1     189.100 193.807 191.492  1.00  0.00    -0.027 C 
ATOM     22  C   UNL     1     187.477 196.225 191.098  1.00  0.00    -0.023 C 
ATOM     23  C   UNL     1     189.349 195.002 192.365  1.00  0.00     0.031 C 
ATOM     24  C   UNL     1     188.922 196.321 191.694  1.00  0.00     0.002 C 
ATOM     25  C   UNL     1     187.091 197.589 190.404  1.00  0.00     0.010 C 
ATOM     26  C   UNL     1     186.451 195.910 192.231  1.00  0.00     0.012 C 
ATOM     27  C   UNL     1     189.114 197.507 192.678  1.00  0.00     0.036 C 
ATOM     28  C   UNL     1     187.963 198.796 190.804  1.00  0.00     0.032 C 
ATOM     29  C   UNL     1     188.306 198.770 192.296  1.00  0.00     0.114 C 
BRANCH  29  30
ATOM     30  O   UNL     1     188.993 199.938 192.671  1.00  0.00    -0.393 OA
ATOM     31  H   UNL     1     189.887 199.667 193.015  1.00  0.00     0.210 HD
ENDBRANCH  29  30
ENDBRANCH   1  11
TORSDOF 6
ENDMDL
MODEL 8
REMARK VINA RESULT:    -6.699      2.419      4.402
REMARK INTER + INTRA:         -10.070
REMARK INTER:                  -9.305
REMARK INTRA:                  -0.765
REMARK UNBOUND:                -1.216
REMARK SMILES CC[C@@H](C=C[C@@H](C)[C@@H]1CC[C@@H]2C3=CC[C@@H]4C[C@@H](O)CC[C@@]4(C)[C@@H]3CC[C@]21C)C(C)C
REMARK SMILES IDX 6 1 7 2 5 3 4 4 3 5 2 6 1 7 28 8 29 9 30 10 8 11 9 12 26 13
REMARK SMILES IDX 10 14 11 15 25 16 27 17 12 18 24 19 23 20 13 21 21 22 14 23
REMARK SMILES IDX 15 24 20 25 22 26 16 27 19 28 17 29 18 30
REMARK H PARENT 18 31
REMARK Flexibility Score: inf
ROOT
ATOM      1  C   UNL     1     187.117 186.124 191.107  1.00  0.00     0.012 C 
ATOM      2  C   UNL     1     187.979 185.487 189.995  1.00  0.00     0.012 C 
ENDROOT
BRANCH   1   3
ATOM      3  C   UNL     1     186.264 185.034 191.722  1.00  0.00    -0.028 C 
ATOM      4  C   UNL     1     186.716 183.779 191.862  1.00  0.00    -0.027 C 
BRANCH   4   5
ATOM      5  C   UNL     1     185.865 182.693 192.488  1.00  0.00     0.014 C 
BRANCH   5   6
ATOM      6  C   UNL     1     186.152 182.587 194.001  1.00  0.00     0.004 C 
ATOM      7  C   UNL     1     187.569 183.040 194.358  1.00  0.00     0.004 C 
ENDBRANCH   5   6
BRANCH   5   8
ATOM      8  C   UNL     1     186.043 181.326 191.760  1.00  0.00    -0.011 C 
ATOM      9  C   UNL     1     187.255 181.357 190.812  1.00  0.00     0.008 C 
ATOM     10  C   UNL     1     186.153 180.122 192.715  1.00  0.00     0.008 C 
ENDBRANCH   5   8
ENDBRANCH   4   5
ENDBRANCH   1   3
BRANCH   1  11
ATOM     11  C   UNL     1     186.206 187.334 190.696  1.00  0.00     0.002 C 
ATOM     12  C   UNL     1     185.407 187.193 189.377  1.00  0.00     0.005 C 
ATOM     13  C   UNL     1     186.832 188.750 190.624  1.00  0.00    -0.023 C 
ATOM     14  C   UNL     1     185.172 188.626 188.864  1.00  0.00     0.009 C 
ATOM     15  C   UNL     1     185.665 189.523 190.001  1.00  0.00     0.021 C 
ATOM     16  C   UNL     1     187.136 189.397 191.998  1.00  0.00     0.008 C 
ATOM     17  C   UNL     1     188.098 188.778 189.714  1.00  0.00     0.012 C 
ATOM     18  C   UNL     1     186.024 190.974 189.755  1.00  0.00    -0.067 C 
ATOM     19  C   UNL     1     187.551 190.880 191.831  1.00  0.00     0.009 C 
ATOM     20  C   UNL     1     186.546 191.732 190.985  1.00  0.00     0.021 C 
ATOM     21  C   UNL     1     185.583 191.621 188.655  1.00  0.00    -0.027 C 
ATOM     22  C   UNL     1     187.077 193.179 190.650  1.00  0.00    -0.023 C 
ATOM     23  C   UNL     1     185.801 193.087 188.420  1.00  0.00     0.031 C 
ATOM     24  C   UNL     1     186.013 193.869 189.730  1.00  0.00     0.002 C 
ATOM     25  C   UNL     1     187.243 194.002 191.987  1.00  0.00     0.010 C 
ATOM     26  C   UNL     1     188.449 193.100 189.913  1.00  0.00     0.012 C 
ATOM     27  C   UNL     1     186.327 195.357 189.419  1.00  0.00     0.036 C 
ATOM     28  C   UNL     1     186.703 195.444 191.939  1.00  0.00     0.032 C 
ATOM     29  C   UNL     1     186.998 196.110 190.592  1.00  0.00     0.114 C 
BRANCH  29  30
ATOM     30  O   UNL     1     186.612 197.461 190.608  1.00  0.00    -0.393 OA
ATOM     31  H   UNL     1     185.628 197.494 190.749  1.00  0.00     0.210 HD
ENDBRANCH  29  30
ENDBRANCH   1  11
TORSDOF 6
ENDMDL
MODEL 9
REMARK VINA RESULT:    -6.659      2.380      4.339
REMARK INTER + INTRA:         -10.016
REMARK INTER:                  -9.226
REMARK INTRA:                  -0.790
REMARK UNBOUND:                -1.216
REMARK SMILES CC[C@@H](C=C[C@@H](C)[C@@H]1CC[C@@H]2C3=CC[C@@H]4C[C@@H](O)CC[C@@]4(C)[C@@H]3CC[C@]21C)C(C)C
REMARK SMILES IDX 6 1 7 2 5 3 4 4 3 5 2 6 1 7 28 8 29 9 30 10 8 11 9 12 26 13
REMARK SMILES IDX 10 14 11 15 25 16 27 17 12 18 24 19 23 20 13 21 21 22 14 23
REMARK SMILES IDX 15 24 20 25 22 26 16 27 19 28 17 29 18 30
REMARK H PARENT 18 31
REMARK Flexibility Score: inf
ROOT
ATOM      1  C   UNL     1     186.407 188.909 188.145  1.00  0.00     0.012 C 
ATOM      2  C   UNL     1     187.615 188.438 188.982  1.00  0.00     0.012 C 
ENDROOT
BRANCH   1   3
ATOM      3  C   UNL     1     186.820 188.919 186.687  1.00  0.00    -0.028 C 
ATOM      4  C   UNL     1     188.108 188.845 186.319  1.00  0.00    -0.027 C 
BRANCH   4   5
ATOM      5  C   UNL     1     188.519 188.845 184.860  1.00  0.00     0.014 C 
BRANCH   5   6
ATOM      6  C   UNL     1     189.538 187.718 184.587  1.00  0.00     0.004 C 
ATOM      7  C   UNL     1     189.358 187.095 183.201  1.00  0.00     0.004 C 
ENDBRANCH   5   6
BRANCH   5   8
ATOM      8  C   UNL     1     189.051 190.239 184.408  1.00  0.00    -0.011 C 
ATOM      9  C   UNL     1     187.891 191.181 184.039  1.00  0.00     0.008 C 
ATOM     10  C   UNL     1     189.972 190.919 185.439  1.00  0.00     0.008 C 
ENDBRANCH   5   8
ENDBRANCH   4   5
ENDBRANCH   1   3
BRANCH   1  11
ATOM     11  C   UNL     1     185.778 190.296 188.521  1.00  0.00     0.002 C 
ATOM     12  C   UNL     1     185.328 191.202 187.348  1.00  0.00     0.005 C 
ATOM     13  C   UNL     1     186.564 191.241 189.464  1.00  0.00    -0.023 C 
ATOM     14  C   UNL     1     185.400 192.648 187.872  1.00  0.00     0.009 C 
ATOM     15  C   UNL     1     185.692 192.498 189.367  1.00  0.00     0.021 C 
ATOM     16  C   UNL     1     186.584 190.806 190.951  1.00  0.00     0.008 C 
ATOM     17  C   UNL     1     188.013 191.500 188.951  1.00  0.00     0.012 C 
ATOM     18  C   UNL     1     186.270 193.643 190.172  1.00  0.00    -0.067 C 
ATOM     19  C   UNL     1     187.199 191.912 191.843  1.00  0.00     0.009 C 
ATOM     20  C   UNL     1     186.548 193.323 191.648  1.00  0.00     0.021 C 
ATOM     21  C   UNL     1     186.200 194.913 189.720  1.00  0.00    -0.027 C 
ATOM     22  C   UNL     1     187.313 194.477 192.405  1.00  0.00    -0.023 C 
ATOM     23  C   UNL     1     186.642 196.099 190.527  1.00  0.00     0.031 C 
ATOM     24  C   UNL     1     186.605 195.827 192.043  1.00  0.00     0.002 C 
ATOM     25  C   UNL     1     187.232 194.230 193.962  1.00  0.00     0.010 C 
ATOM     26  C   UNL     1     188.808 194.523 191.963  1.00  0.00     0.012 C 
ATOM     27  C   UNL     1     187.161 197.051 192.819  1.00  0.00     0.036 C 
ATOM     28  C   UNL     1     186.894 195.476 194.805  1.00  0.00     0.032 C 
ATOM     29  C   UNL     1     187.597 196.725 194.267  1.00  0.00     0.114 C 
BRANCH  29  30
ATOM     30  O   UNL     1     187.381 197.824 195.116  1.00  0.00    -0.393 OA
ATOM     31  H   UNL     1     188.264 198.105 195.479  1.00  0.00     0.210 HD
ENDBRANCH  29  30
ENDBRANCH   1  11
TORSDOF 6
ENDMDL
