MODEL 1
REMARK VINA RESULT:    -3.273      0.000      0.000
REMARK INTER + INTRA:          -3.273
REMARK INTER:                  -3.273
REMARK INTRA:                   0.000
REMARK UNBOUND:                 0.000
REMARK SMILES CC1(C)C(=O)[C@@]2(C)CC[C@@H]1C2
REMARK SMILES IDX 1 1 2 2 10 3 9 4 8 5 6 6 11 7 4 8 5 9 7 10 3 11
REMARK H PARENT
REMARK Flexibility Score: inf
ROOT
ATOM      1  C   UNL     1       7.606   5.817 -10.073  1.00  0.00     0.020 C 
ATOM      2  C   UNL     1       8.716   5.049  -9.327  1.00  0.00     0.027 C 
ATOM      3  C   UNL     1       8.379   4.880  -7.802  1.00  0.00     0.003 C 
ATOM      4  C   UNL     1       9.578   4.273  -7.028  1.00  0.00     0.005 C 
ATOM      5  C   UNL     1       9.649   2.828  -7.574  1.00  0.00     0.015 C 
ATOM      6  C   UNL     1       8.427   2.762  -8.509  1.00  0.00     0.027 C 
ATOM      7  C   UNL     1       7.447   3.670  -7.796  1.00  0.00     0.019 C 
ATOM      8  C   UNL     1       8.735   3.600  -9.720  1.00  0.00     0.144 C 
ATOM      9  O   UNL     1       9.028   3.170 -10.826  1.00  0.00    -0.298 OA
ATOM     10  C   UNL     1       7.901   1.355  -8.803  1.00  0.00     0.020 C 
ATOM     11  C   UNL     1      10.077   5.727  -9.604  1.00  0.00     0.020 C 
ENDROOT
TORSDOF 0
ENDMDL
MODEL 2
REMARK VINA RESULT:    -3.268      1.529      2.963
REMARK INTER + INTRA:          -3.268
REMARK INTER:                  -3.268
REMARK INTRA:                   0.000
REMARK UNBOUND:                 0.000
REMARK SMILES CC1(C)C(=O)[C@@]2(C)CC[C@@H]1C2
REMARK SMILES IDX 1 1 2 2 10 3 9 4 8 5 6 6 11 7 4 8 5 9 7 10 3 11
REMARK H PARENT
REMARK Flexibility Score: inf
ROOT
ATOM      1  C   UNL     1       6.049   1.870  -8.508  1.00  0.00     0.020 C 
ATOM      2  C   UNL     1       7.239   2.614  -9.148  1.00  0.00     0.027 C 
ATOM      3  C   UNL     1       7.133   4.167  -8.936  1.00  0.00     0.003 C 
ATOM      4  C   UNL     1       8.229   4.918  -9.736  1.00  0.00     0.005 C 
ATOM      5  C   UNL     1       9.531   4.513  -9.007  1.00  0.00     0.015 C 
ATOM      6  C   UNL     1       9.008   3.669  -7.829  1.00  0.00     0.027 C 
ATOM      7  C   UNL     1       7.690   4.352  -7.526  1.00  0.00     0.019 C 
ATOM      8  C   UNL     1       8.510   2.365  -8.389  1.00  0.00     0.144 C 
ATOM      9  O   UNL     1       9.085   1.290  -8.304  1.00  0.00    -0.298 OA
ATOM     10  C   UNL     1       9.958   3.550  -6.635  1.00  0.00     0.020 C 
ATOM     11  C   UNL     1       7.370   2.184 -10.626  1.00  0.00     0.020 C 
ENDROOT
TORSDOF 0
ENDMDL
MODEL 3
REMARK VINA RESULT:    -3.164      1.018      3.320
REMARK INTER + INTRA:          -3.164
REMARK INTER:                  -3.164
REMARK INTRA:                   0.000
REMARK UNBOUND:                 0.000
REMARK SMILES CC1(C)C(=O)[C@@]2(C)CC[C@@H]1C2
REMARK SMILES IDX 1 1 2 2 10 3 9 4 8 5 6 6 11 7 4 8 5 9 7 10 3 11
REMARK H PARENT
REMARK Flexibility Score: inf
ROOT
ATOM      1  C   UNL     1       9.881   3.223  -7.309  1.00  0.00     0.020 C 
ATOM      2  C   UNL     1       8.731   3.963  -8.024  1.00  0.00     0.027 C 
ATOM      3  C   UNL     1       8.697   5.487  -7.643  1.00  0.00     0.003 C 
ATOM      4  C   UNL     1       7.436   6.180  -8.219  1.00  0.00     0.005 C 
ATOM      5  C   UNL     1       7.694   6.164  -9.743  1.00  0.00     0.015 C 
ATOM      6  C   UNL     1       9.108   5.560  -9.837  1.00  0.00     0.027 C 
ATOM      7  C   UNL     1       9.751   6.088  -8.571  1.00  0.00     0.019 C 
ATOM      8  C   UNL     1       9.003   4.100  -9.494  1.00  0.00     0.144 C 
ATOM      9  O   UNL     1       9.054   3.176 -10.293  1.00  0.00    -0.298 OA
ATOM     10  C   UNL     1       9.873   5.877 -11.125  1.00  0.00     0.020 C 
ATOM     11  C   UNL     1       7.405   3.214  -7.761  1.00  0.00     0.020 C 
ENDROOT
TORSDOF 0
ENDMDL
MODEL 4
REMARK VINA RESULT:    -3.114      1.523      2.644
REMARK INTER + INTRA:          -3.114
REMARK INTER:                  -3.114
REMARK INTRA:                   0.000
REMARK UNBOUND:                 0.000
REMARK SMILES CC1(C)C(=O)[C@@]2(C)CC[C@@H]1C2
REMARK SMILES IDX 1 1 2 2 10 3 9 4 8 5 6 6 11 7 4 8 5 9 7 10 3 11
REMARK H PARENT
REMARK Flexibility Score: inf
ROOT
ATOM      1  C   UNL     1      10.144   5.838  -9.384  1.00  0.00     0.020 C 
ATOM      2  C   UNL     1       9.079   4.722  -9.335  1.00  0.00     0.027 C 
ATOM      3  C   UNL     1       9.500   3.562  -8.363  1.00  0.00     0.003 C 
ATOM      4  C   UNL     1       8.517   2.367  -8.460  1.00  0.00     0.005 C 
ATOM      5  C   UNL     1       7.215   2.936  -7.849  1.00  0.00     0.015 C 
ATOM      6  C   UNL     1       7.646   4.342  -7.390  1.00  0.00     0.027 C 
ATOM      7  C   UNL     1       9.089   4.106  -6.996  1.00  0.00     0.019 C 
ATOM      8  C   UNL     1       7.840   5.182  -8.622  1.00  0.00     0.144 C 
ATOM      9  O   UNL     1       7.075   6.048  -9.020  1.00  0.00    -0.298 OA
ATOM     10  C   UNL     1       6.778   4.971  -6.298  1.00  0.00     0.020 C 
ATOM     11  C   UNL     1       8.763   4.259 -10.775  1.00  0.00     0.020 C 
ENDROOT
TORSDOF 0
ENDMDL
MODEL 5
REMARK VINA RESULT:    -3.062      1.842      3.259
REMARK INTER + INTRA:          -3.062
REMARK INTER:                  -3.062
REMARK INTRA:                   0.000
REMARK UNBOUND:                 0.000
REMARK SMILES CC1(C)C(=O)[C@@]2(C)CC[C@@H]1C2
REMARK SMILES IDX 1 1 2 2 10 3 9 4 8 5 6 6 11 7 4 8 5 9 7 10 3 11
REMARK H PARENT
REMARK Flexibility Score: inf
ROOT
ATOM      1  C   UNL     1       6.445   4.056 -10.041  1.00  0.00     0.020 C 
ATOM      2  C   UNL     1       7.247   3.718  -8.767  1.00  0.00     0.027 C 
ATOM      3  C   UNL     1       8.713   3.266  -9.109  1.00  0.00     0.003 C 
ATOM      4  C   UNL     1       9.450   2.755  -7.844  1.00  0.00     0.005 C 
ATOM      5  C   UNL     1       9.624   4.038  -6.999  1.00  0.00     0.015 C 
ATOM      6  C   UNL     1       9.058   5.131  -7.927  1.00  0.00     0.027 C 
ATOM      7  C   UNL     1       9.439   4.598  -9.293  1.00  0.00     0.019 C 
ATOM      8  C   UNL     1       7.566   4.955  -7.979  1.00  0.00     0.144 C 
ATOM      9  O   UNL     1       6.747   5.662  -7.410  1.00  0.00    -0.298 OA
ATOM     10  C   UNL     1       9.541   6.553  -7.636  1.00  0.00     0.020 C 
ATOM     11  C   UNL     1       6.451   2.698  -7.922  1.00  0.00     0.020 C 
ENDROOT
TORSDOF 0
ENDMDL
MODEL 6
REMARK VINA RESULT:    -3.052      1.971      3.165
REMARK INTER + INTRA:          -3.052
REMARK INTER:                  -3.052
REMARK INTRA:                   0.000
REMARK UNBOUND:                 0.000
REMARK SMILES CC1(C)C(=O)[C@@]2(C)CC[C@@H]1C2
REMARK SMILES IDX 1 1 2 2 10 3 9 4 8 5 6 6 11 7 4 8 5 9 7 10 3 11
REMARK H PARENT
REMARK Flexibility Score: inf
ROOT
ATOM      1  C   UNL     1       9.926   3.566  -6.601  1.00  0.00     0.020 C 
ATOM      2  C   UNL     1       8.944   4.164  -7.630  1.00  0.00     0.027 C 
ATOM      3  C   UNL     1       8.828   3.262  -8.912  1.00  0.00     0.003 C 
ATOM      4  C   UNL     1       7.985   3.959 -10.011  1.00  0.00     0.005 C 
ATOM      5  C   UNL     1       6.562   3.965  -9.408  1.00  0.00     0.015 C 
ATOM      6  C   UNL     1       6.751   3.185  -8.093  1.00  0.00     0.027 C 
ATOM      7  C   UNL     1       7.827   2.192  -8.479  1.00  0.00     0.019 C 
ATOM      8  C   UNL     1       7.525   4.065  -7.151  1.00  0.00     0.144 C 
ATOM      9  O   UNL     1       7.058   4.663  -6.192  1.00  0.00    -0.298 OA
ATOM     10  C   UNL     1       5.480   2.561  -7.513  1.00  0.00     0.020 C 
ATOM     11  C   UNL     1       9.342   5.629  -7.920  1.00  0.00     0.020 C 
ENDROOT
TORSDOF 0
ENDMDL
MODEL 7
REMARK VINA RESULT:    -3.050      1.881      3.465
REMARK INTER + INTRA:          -3.050
REMARK INTER:                  -3.050
REMARK INTRA:                   0.000
REMARK UNBOUND:                 0.000
REMARK SMILES CC1(C)C(=O)[C@@]2(C)CC[C@@H]1C2
REMARK SMILES IDX 1 1 2 2 10 3 9 4 8 5 6 6 11 7 4 8 5 9 7 10 3 11
REMARK H PARENT
REMARK Flexibility Score: inf
ROOT
ATOM      1  C   UNL     1       7.959   2.266  -8.487  1.00  0.00     0.020 C 
ATOM      2  C   UNL     1       8.738   3.550  -8.138  1.00  0.00     0.027 C 
ATOM      3  C   UNL     1       9.089   4.383  -9.423  1.00  0.00     0.003 C 
ATOM      4  C   UNL     1      10.025   5.570  -9.082  1.00  0.00     0.005 C 
ATOM      5  C   UNL     1       9.117   6.503  -8.249  1.00  0.00     0.015 C 
ATOM      6  C   UNL     1       7.756   5.784  -8.305  1.00  0.00     0.027 C 
ATOM      7  C   UNL     1       7.798   5.157  -9.684  1.00  0.00     0.019 C 
ATOM      8  C   UNL     1       7.857   4.552  -7.449  1.00  0.00     0.144 C 
ATOM      9  O   UNL     1       7.364   4.415  -6.339  1.00  0.00    -0.298 OA
ATOM     10  C   UNL     1       6.535   6.668  -8.040  1.00  0.00     0.020 C 
ATOM     11  C   UNL     1       9.961   3.181  -7.269  1.00  0.00     0.020 C 
ENDROOT
TORSDOF 0
ENDMDL
MODEL 8
REMARK VINA RESULT:    -2.196      9.901     11.642
REMARK INTER + INTRA:          -2.196
REMARK INTER:                  -2.196
REMARK INTRA:                   0.000
REMARK UNBOUND:                 0.000
REMARK SMILES CC1(C)C(=O)[C@@]2(C)CC[C@@H]1C2
REMARK SMILES IDX 1 1 2 2 10 3 9 4 8 5 6 6 11 7 4 8 5 9 7 10 3 11
REMARK H PARENT
REMARK Flexibility Score: inf
ROOT
ATOM      1  C   UNL     1       9.451  -3.550  -3.285  1.00  0.00     0.020 C 
ATOM      2  C   UNL     1      10.314  -4.804  -3.035  1.00  0.00     0.027 C 
ATOM      3  C   UNL     1      11.711  -4.698  -3.747  1.00  0.00     0.003 C 
ATOM      4  C   UNL     1      12.494  -6.032  -3.644  1.00  0.00     0.005 C 
ATOM      5  C   UNL     1      12.829  -6.125  -2.138  1.00  0.00     0.015 C 
ATOM      6  C   UNL     1      12.287  -4.791  -1.590  1.00  0.00     0.027 C 
ATOM      7  C   UNL     1      12.525  -3.861  -2.762  1.00  0.00     0.019 C 
ATOM      8  C   UNL     1      10.785  -4.868  -1.611  1.00  0.00     0.144 C 
ATOM      9  O   UNL     1      10.068  -5.030  -0.635  1.00  0.00    -0.298 OA
ATOM     10  C   UNL     1      12.901  -4.327  -0.268  1.00  0.00     0.020 C 
ATOM     11  C   UNL     1       9.502  -6.062  -3.418  1.00  0.00     0.020 C 
ENDROOT
TORSDOF 0
ENDMDL
