MODEL 1
REMARK VINA RESULT:    -4.004      0.000      0.000
REMARK INTER + INTRA:         -14.779
REMARK INTER:                 -10.091
REMARK INTRA:                  -4.688
REMARK UNBOUND:                -4.688
REMARK SMILES CCCCCCCCCCCCCCCCCCCCCCCCCCCC(=O)[O-]
REMARK SMILES IDX 15 1 16 2 17 3 18 4 19 5 20 6 21 7 22 8 23 9 24 10 25 11
REMARK SMILES IDX 26 12 27 13 28 14 29 15 30 16 14 17 13 18 12 19 11 20 10 21
REMARK SMILES IDX 9 22 8 23 7 24 6 25 5 26 4 27 3 28 2 29 1 30
REMARK H PARENT
REMARK Flexibility Score: inf
ROOT
ATOM      1  C   UNL     1      23.782 -12.778   2.358  1.00  0.00     0.000 C 
ENDROOT
BRANCH   1   2
ATOM      2  C   UNL     1      23.025 -12.932   1.025  1.00  0.00     0.000 C 
BRANCH   2   3
ATOM      3  C   UNL     1      21.736 -13.766   1.181  1.00  0.00     0.000 C 
BRANCH   3   4
ATOM      4  C   UNL     1      21.663 -14.537   2.509  1.00  0.00     0.000 C 
BRANCH   4   5
ATOM      5  C   UNL     1      21.216 -15.994   2.328  1.00  0.00     0.000 C 
BRANCH   5   6
ATOM      6  C   UNL     1      21.943 -16.653   1.149  1.00  0.00     0.000 C 
BRANCH   6   7
ATOM      7  C   UNL     1      23.265 -17.289   1.606  1.00  0.00     0.000 C 
BRANCH   7   8
ATOM      8  C   UNL     1      24.494 -16.459   1.197  1.00  0.00     0.000 C 
BRANCH   8   9
ATOM      9  C   UNL     1      25.303 -15.962   2.404  1.00  0.00     0.000 C 
BRANCH   9  10
ATOM     10  C   UNL     1      24.603 -16.331   3.717  1.00  0.00     0.000 C 
BRANCH  10  11
ATOM     11  C   UNL     1      24.831 -15.251   4.786  1.00  0.00     0.000 C 
BRANCH  11  12
ATOM     12  C   UNL     1      23.877 -15.403   5.982  1.00  0.00     0.006 C 
BRANCH  12  13
ATOM     13  C   UNL     1      22.642 -14.501   5.863  1.00  0.00     0.053 C 
BRANCH  13  14
ATOM     14  C   UNL     1      21.464 -15.132   6.537  1.00  0.00     0.041 C 
ATOM     15  O   UNL     1      20.749 -15.962   5.914  1.00  0.00    -0.550 OA
ATOM     16  O   UNL     1      21.116 -14.755   7.826  1.00  0.00    -0.550 OA
ENDBRANCH  13  14
ENDBRANCH  12  13
ENDBRANCH  11  12
ENDBRANCH  10  11
ENDBRANCH   9  10
ENDBRANCH   8   9
ENDBRANCH   7   8
ENDBRANCH   6   7
ENDBRANCH   5   6
ENDBRANCH   4   5
ENDBRANCH   3   4
ENDBRANCH   2   3
ENDBRANCH   1   2
BRANCH   1  17
ATOM     17  C   UNL     1      25.049 -11.908   2.217  1.00  0.00     0.000 C 
BRANCH  17  18
ATOM     18  C   UNL     1      25.007 -10.941   1.024  1.00  0.00     0.000 C 
BRANCH  18  19
ATOM     19  C   UNL     1      24.698  -9.490   1.437  1.00  0.00     0.000 C 
BRANCH  19  20
ATOM     20  C   UNL     1      25.231  -9.145   2.843  1.00  0.00     0.000 C 
BRANCH  20  21
ATOM     21  C   UNL     1      26.744  -8.855   2.889  1.00  0.00     0.000 C 
BRANCH  21  22
ATOM     22  C   UNL     1      27.473  -9.365   4.143  1.00  0.00    -0.000 C 
BRANCH  22  23
ATOM     23  C   UNL     1      28.130 -10.752   3.999  1.00  0.00    -0.000 C 
BRANCH  23  24
ATOM     24  C   UNL     1      27.458 -11.853   4.846  1.00  0.00    -0.000 C 
BRANCH  24  25
ATOM     25  C   UNL     1      26.735 -11.292   6.080  1.00  0.00    -0.000 C 
BRANCH  25  26
ATOM     26  C   UNL     1      25.312 -11.853   6.185  1.00  0.00    -0.000 C 
BRANCH  26  27
ATOM     27  C   UNL     1      24.897 -12.028   7.654  1.00  0.00    -0.000 C 
BRANCH  27  28
ATOM     28  C   UNL     1      23.959 -10.912   8.142  1.00  0.00    -0.000 C 
BRANCH  28  29
ATOM     29  C   UNL     1      24.670  -9.560   8.292  1.00  0.00    -0.003 C 
ATOM     30  C   UNL     1      23.700  -8.402   8.073  1.00  0.00     0.004 C 
ENDBRANCH  28  29
ENDBRANCH  27  28
ENDBRANCH  26  27
ENDBRANCH  25  26
ENDBRANCH  24  25
ENDBRANCH  23  24
ENDBRANCH  22  23
ENDBRANCH  21  22
ENDBRANCH  20  21
ENDBRANCH  19  20
ENDBRANCH  18  19
ENDBRANCH  17  18
ENDBRANCH   1  17
TORSDOF 26
ENDMDL
MODEL 2
REMARK VINA RESULT:    -3.977      1.639      3.319
REMARK INTER + INTRA:         -14.709
REMARK INTER:                  -9.823
REMARK INTRA:                  -4.886
REMARK UNBOUND:                -4.688
REMARK SMILES CCCCCCCCCCCCCCCCCCCCCCCCCCCC(=O)[O-]
REMARK SMILES IDX 15 1 16 2 17 3 18 4 19 5 20 6 21 7 22 8 23 9 24 10 25 11
REMARK SMILES IDX 26 12 27 13 28 14 29 15 30 16 14 17 13 18 12 19 11 20 10 21
REMARK SMILES IDX 9 22 8 23 7 24 6 25 5 26 4 27 3 28 2 29 1 30
REMARK H PARENT
REMARK Flexibility Score: inf
ROOT
ATOM      1  C   UNL     1      25.477 -12.337   4.789  1.00  0.00     0.000 C 
ENDROOT
BRANCH   1   2
ATOM      2  C   UNL     1      24.774 -12.379   3.420  1.00  0.00     0.000 C 
BRANCH   2   3
ATOM      3  C   UNL     1      25.136 -13.647   2.619  1.00  0.00     0.000 C 
BRANCH   3   4
ATOM      4  C   UNL     1      24.236 -13.875   1.394  1.00  0.00     0.000 C 
BRANCH   4   5
ATOM      5  C   UNL     1      22.973 -13.002   1.413  1.00  0.00     0.000 C 
BRANCH   5   6
ATOM      6  C   UNL     1      21.801 -13.740   2.073  1.00  0.00     0.000 C 
BRANCH   6   7
ATOM      7  C   UNL     1      21.519 -15.071   1.358  1.00  0.00     0.000 C 
BRANCH   7   8
ATOM      8  C   UNL     1      21.518 -16.271   2.320  1.00  0.00     0.000 C 
BRANCH   8   9
ATOM      9  C   UNL     1      21.687 -15.855   3.788  1.00  0.00     0.000 C 
BRANCH   9  10
ATOM     10  C   UNL     1      23.034 -16.339   4.338  1.00  0.00     0.000 C 
BRANCH  10  11
ATOM     11  C   UNL     1      23.524 -15.430   5.476  1.00  0.00     0.000 C 
BRANCH  11  12
ATOM     12  C   UNL     1      22.433 -14.462   5.961  1.00  0.00     0.006 C 
BRANCH  12  13
ATOM     13  C   UNL     1      22.884 -13.628   7.167  1.00  0.00     0.053 C 
BRANCH  13  14
ATOM     14  C   UNL     1      21.837 -13.641   8.235  1.00  0.00     0.041 C 
ATOM     15  O   UNL     1      21.269 -12.569   8.577  1.00  0.00    -0.550 OA
ATOM     16  O   UNL     1      21.535 -14.821   8.900  1.00  0.00    -0.550 OA
ENDBRANCH  13  14
ENDBRANCH  12  13
ENDBRANCH  11  12
ENDBRANCH  10  11
ENDBRANCH   9  10
ENDBRANCH   8   9
ENDBRANCH   7   8
ENDBRANCH   6   7
ENDBRANCH   5   6
ENDBRANCH   4   5
ENDBRANCH   3   4
ENDBRANCH   2   3
ENDBRANCH   1   2
BRANCH   1  17
ATOM     17  C   UNL     1      26.843 -13.056   4.771  1.00  0.00     0.000 C 
BRANCH  17  18
ATOM     18  C   UNL     1      27.980 -12.241   5.409  1.00  0.00     0.000 C 
BRANCH  18  19
ATOM     19  C   UNL     1      29.321 -12.401   4.671  1.00  0.00     0.000 C 
BRANCH  19  20
ATOM     20  C   UNL     1      30.021 -11.051   4.409  1.00  0.00     0.000 C 
BRANCH  20  21
ATOM     21  C   UNL     1      29.310  -9.839   5.044  1.00  0.00     0.000 C 
BRANCH  21  22
ATOM     22  C   UNL     1      29.294  -8.564   4.186  1.00  0.00    -0.000 C 
BRANCH  22  23
ATOM     23  C   UNL     1      27.912  -7.905   4.018  1.00  0.00    -0.000 C 
BRANCH  23  24
ATOM     24  C   UNL     1      26.800  -8.886   3.589  1.00  0.00    -0.000 C 
BRANCH  24  25
ATOM     25  C   UNL     1      25.525  -8.741   4.434  1.00  0.00    -0.000 C 
BRANCH  25  26
ATOM     26  C   UNL     1      25.724  -7.714   5.556  1.00  0.00    -0.000 C 
BRANCH  26  27
ATOM     27  C   UNL     1      25.308  -8.298   6.915  1.00  0.00    -0.000 C 
BRANCH  27  28
ATOM     28  C   UNL     1      26.016  -9.625   7.232  1.00  0.00    -0.000 C 
BRANCH  28  29
ATOM     29  C   UNL     1      25.123 -10.605   8.005  1.00  0.00    -0.003 C 
ATOM     30  C   UNL     1      23.780  -9.969   8.350  1.00  0.00     0.004 C 
ENDBRANCH  28  29
ENDBRANCH  27  28
ENDBRANCH  26  27
ENDBRANCH  25  26
ENDBRANCH  24  25
ENDBRANCH  23  24
ENDBRANCH  22  23
ENDBRANCH  21  22
ENDBRANCH  20  21
ENDBRANCH  19  20
ENDBRANCH  18  19
ENDBRANCH  17  18
ENDBRANCH   1  17
TORSDOF 26
ENDMDL
MODEL 3
REMARK VINA RESULT:    -3.932      2.046      6.356
REMARK INTER + INTRA:         -14.596
REMARK INTER:                  -9.452
REMARK INTRA:                  -5.144
REMARK UNBOUND:                -4.688
REMARK SMILES CCCCCCCCCCCCCCCCCCCCCCCCCCCC(=O)[O-]
REMARK SMILES IDX 15 1 16 2 17 3 18 4 19 5 20 6 21 7 22 8 23 9 24 10 25 11
REMARK SMILES IDX 26 12 27 13 28 14 29 15 30 16 14 17 13 18 12 19 11 20 10 21
REMARK SMILES IDX 9 22 8 23 7 24 6 25 5 26 4 27 3 28 2 29 1 30
REMARK H PARENT
REMARK Flexibility Score: inf
ROOT
ATOM      1  C   UNL     1      24.642 -12.854   3.923  1.00  0.00     0.000 C 
ENDROOT
BRANCH   1   2
ATOM      2  C   UNL     1      25.923 -13.385   4.594  1.00  0.00     0.000 C 
BRANCH   2   3
ATOM      3  C   UNL     1      27.079 -13.557   3.586  1.00  0.00     0.000 C 
BRANCH   3   4
ATOM      4  C   UNL     1      28.200 -12.520   3.759  1.00  0.00     0.000 C 
BRANCH   4   5
ATOM      5  C   UNL     1      28.954 -12.236   2.453  1.00  0.00     0.000 C 
BRANCH   5   6
ATOM      6  C   UNL     1      28.605 -10.846   1.904  1.00  0.00     0.000 C 
BRANCH   6   7
ATOM      7  C   UNL     1      27.457 -10.932   0.886  1.00  0.00     0.000 C 
BRANCH   7   8
ATOM      8  C   UNL     1      26.314  -9.953   1.200  1.00  0.00     0.000 C 
BRANCH   8   9
ATOM      9  C   UNL     1      26.600  -9.081   2.431  1.00  0.00     0.000 C 
BRANCH   9  10
ATOM     10  C   UNL     1      25.522  -9.281   3.502  1.00  0.00     0.000 C 
BRANCH  10  11
ATOM     11  C   UNL     1      26.150  -9.644   4.857  1.00  0.00     0.000 C 
BRANCH  11  12
ATOM     12  C   UNL     1      25.639  -8.748   5.996  1.00  0.00     0.006 C 
BRANCH  12  13
ATOM     13  C   UNL     1      25.942  -9.332   7.381  1.00  0.00     0.053 C 
BRANCH  13  14
ATOM     14  C   UNL     1      24.862 -10.277   7.801  1.00  0.00     0.041 C 
ATOM     15  O   UNL     1      23.882  -9.859   8.475  1.00  0.00    -0.550 OA
ATOM     16  O   UNL     1      24.968 -11.629   7.508  1.00  0.00    -0.550 OA
ENDBRANCH  13  14
ENDBRANCH  12  13
ENDBRANCH  11  12
ENDBRANCH  10  11
ENDBRANCH   9  10
ENDBRANCH   8   9
ENDBRANCH   7   8
ENDBRANCH   6   7
ENDBRANCH   5   6
ENDBRANCH   4   5
ENDBRANCH   3   4
ENDBRANCH   2   3
ENDBRANCH   1   2
BRANCH   1  17
ATOM     17  C   UNL     1      24.686 -12.988   2.386  1.00  0.00     0.000 C 
BRANCH  17  18
ATOM     18  C   UNL     1      23.533 -12.266   1.668  1.00  0.00     0.000 C 
BRANCH  18  19
ATOM     19  C   UNL     1      22.515 -13.236   1.042  1.00  0.00     0.000 C 
BRANCH  19  20
ATOM     20  C   UNL     1      21.816 -14.125   2.092  1.00  0.00     0.000 C 
BRANCH  20  21
ATOM     21  C   UNL     1      21.376 -15.503   1.557  1.00  0.00     0.000 C 
BRANCH  21  22
ATOM     22  C   UNL     1      22.136 -16.706   2.138  1.00  0.00    -0.000 C 
BRANCH  22  23
ATOM     23  C   UNL     1      23.651 -16.496   2.319  1.00  0.00    -0.000 C 
BRANCH  23  24
ATOM     24  C   UNL     1      24.116 -16.536   3.791  1.00  0.00    -0.000 C 
BRANCH  24  25
ATOM     25  C   UNL     1      23.328 -17.552   4.633  1.00  0.00    -0.000 C 
BRANCH  25  26
ATOM     26  C   UNL     1      22.772 -16.897   5.903  1.00  0.00    -0.000 C 
BRANCH  26  27
ATOM     27  C   UNL     1      21.451 -16.167   5.612  1.00  0.00    -0.000 C 
BRANCH  27  28
ATOM     28  C   UNL     1      21.570 -14.642   5.767  1.00  0.00    -0.000 C 
BRANCH  28  29
ATOM     29  C   UNL     1      22.628 -14.230   6.801  1.00  0.00    -0.003 C 
ATOM     30  C   UNL     1      22.001 -13.426   7.937  1.00  0.00     0.004 C 
ENDBRANCH  28  29
ENDBRANCH  27  28
ENDBRANCH  26  27
ENDBRANCH  25  26
ENDBRANCH  24  25
ENDBRANCH  23  24
ENDBRANCH  22  23
ENDBRANCH  21  22
ENDBRANCH  20  21
ENDBRANCH  19  20
ENDBRANCH  18  19
ENDBRANCH  17  18
ENDBRANCH   1  17
TORSDOF 26
ENDMDL
MODEL 4
REMARK VINA RESULT:    -3.896      1.239      2.279
REMARK INTER + INTRA:         -14.507
REMARK INTER:                 -10.858
REMARK INTRA:                  -3.649
REMARK UNBOUND:                -4.688
REMARK SMILES CCCCCCCCCCCCCCCCCCCCCCCCCCCC(=O)[O-]
REMARK SMILES IDX 15 1 16 2 17 3 18 4 19 5 20 6 21 7 22 8 23 9 24 10 25 11
REMARK SMILES IDX 26 12 27 13 28 14 29 15 30 16 14 17 13 18 12 19 11 20 10 21
REMARK SMILES IDX 9 22 8 23 7 24 6 25 5 26 4 27 3 28 2 29 1 30
REMARK H PARENT
REMARK Flexibility Score: inf
ROOT
ATOM      1  C   UNL     1      23.054 -13.569   2.403  1.00  0.00     0.000 C 
ENDROOT
BRANCH   1   2
ATOM      2  C   UNL     1      21.775 -13.837   1.589  1.00  0.00     0.000 C 
BRANCH   2   3
ATOM      3  C   UNL     1      21.606 -15.333   1.249  1.00  0.00     0.000 C 
BRANCH   3   4
ATOM      4  C   UNL     1      21.597 -16.245   2.487  1.00  0.00     0.000 C 
BRANCH   4   5
ATOM      5  C   UNL     1      22.603 -17.400   2.382  1.00  0.00     0.000 C 
BRANCH   5   6
ATOM      6  C   UNL     1      24.014 -16.879   2.080  1.00  0.00     0.000 C 
BRANCH   6   7
ATOM      7  C   UNL     1      24.730 -16.457   3.372  1.00  0.00     0.000 C 
BRANCH   7   8
ATOM      8  C   UNL     1      24.402 -17.379   4.559  1.00  0.00     0.000 C 
BRANCH   8   9
ATOM      9  C   UNL     1      24.144 -16.603   5.859  1.00  0.00     0.000 C 
BRANCH   9  10
ATOM     10  C   UNL     1      24.275 -15.093   5.626  1.00  0.00     0.000 C 
BRANCH  10  11
ATOM     11  C   UNL     1      22.990 -14.358   6.037  1.00  0.00     0.000 C 
BRANCH  11  12
ATOM     12  C   UNL     1      21.735 -15.221   5.837  1.00  0.00     0.006 C 
BRANCH  12  13
ATOM     13  C   UNL     1      20.716 -15.046   6.970  1.00  0.00     0.053 C 
BRANCH  13  14
ATOM     14  C   UNL     1      21.408 -14.690   8.248  1.00  0.00     0.041 C 
ATOM     15  O   UNL     1      21.587 -13.480   8.555  1.00  0.00    -0.550 OA
ATOM     16  O   UNL     1      21.915 -15.689   9.067  1.00  0.00    -0.550 OA
ENDBRANCH  13  14
ENDBRANCH  12  13
ENDBRANCH  11  12
ENDBRANCH  10  11
ENDBRANCH   9  10
ENDBRANCH   8   9
ENDBRANCH   7   8
ENDBRANCH   6   7
ENDBRANCH   5   6
ENDBRANCH   4   5
ENDBRANCH   3   4
ENDBRANCH   2   3
ENDBRANCH   1   2
BRANCH   1  17
ATOM     17  C   UNL     1      24.009 -12.587   1.691  1.00  0.00     0.000 C 
BRANCH  17  18
ATOM     18  C   UNL     1      24.496 -11.437   2.586  1.00  0.00     0.000 C 
BRANCH  18  19
ATOM     19  C   UNL     1      25.477 -10.492   1.869  1.00  0.00     0.000 C 
BRANCH  19  20
ATOM     20  C   UNL     1      25.410  -9.046   2.404  1.00  0.00     0.000 C 
BRANCH  20  21
ATOM     21  C   UNL     1      25.516  -8.937   3.939  1.00  0.00     0.000 C 
BRANCH  21  22
ATOM     22  C   UNL     1      26.922  -9.161   4.518  1.00  0.00    -0.000 C 
BRANCH  22  23
ATOM     23  C   UNL     1      27.001 -10.191   5.662  1.00  0.00    -0.000 C 
BRANCH  23  24
ATOM     24  C   UNL     1      25.771 -11.118   5.755  1.00  0.00    -0.000 C 
BRANCH  24  25
ATOM     25  C   UNL     1      25.153 -11.140   7.162  1.00  0.00    -0.000 C 
BRANCH  25  26
ATOM     26  C   UNL     1      25.244  -9.759   7.823  1.00  0.00    -0.000 C 
BRANCH  26  27
ATOM     27  C   UNL     1      23.856  -9.266   8.260  1.00  0.00    -0.000 C 
BRANCH  27  28
ATOM     28  C   UNL     1      23.576  -7.819   7.824  1.00  0.00    -0.000 C 
BRANCH  28  29
ATOM     29  C   UNL     1      24.731  -7.206   7.019  1.00  0.00    -0.003 C 
ATOM     30  C   UNL     1      24.673  -5.682   7.049  1.00  0.00     0.004 C 
ENDBRANCH  28  29
ENDBRANCH  27  28
ENDBRANCH  26  27
ENDBRANCH  25  26
ENDBRANCH  24  25
ENDBRANCH  23  24
ENDBRANCH  22  23
ENDBRANCH  21  22
ENDBRANCH  20  21
ENDBRANCH  19  20
ENDBRANCH  18  19
ENDBRANCH  17  18
ENDBRANCH   1  17
TORSDOF 26
ENDMDL
MODEL 5
REMARK VINA RESULT:    -3.895      1.476      2.584
REMARK INTER + INTRA:         -14.504
REMARK INTER:                 -10.231
REMARK INTRA:                  -4.273
REMARK UNBOUND:                -4.688
REMARK SMILES CCCCCCCCCCCCCCCCCCCCCCCCCCCC(=O)[O-]
REMARK SMILES IDX 15 1 16 2 17 3 18 4 19 5 20 6 21 7 22 8 23 9 24 10 25 11
REMARK SMILES IDX 26 12 27 13 28 14 29 15 30 16 14 17 13 18 12 19 11 20 10 21
REMARK SMILES IDX 9 22 8 23 7 24 6 25 5 26 4 27 3 28 2 29 1 30
REMARK H PARENT
REMARK Flexibility Score: inf
ROOT
ATOM      1  C   UNL     1      24.501 -12.009   2.193  1.00  0.00     0.000 C 
ENDROOT
BRANCH   1   2
ATOM      2  C   UNL     1      23.434 -12.187   1.097  1.00  0.00     0.000 C 
BRANCH   2   3
ATOM      3  C   UNL     1      23.032 -13.665   0.912  1.00  0.00     0.000 C 
BRANCH   3   4
ATOM      4  C   UNL     1      21.614 -13.981   1.413  1.00  0.00     0.000 C 
BRANCH   4   5
ATOM      5  C   UNL     1      21.455 -15.438   1.871  1.00  0.00     0.000 C 
BRANCH   5   6
ATOM      6  C   UNL     1      22.551 -16.328   1.271  1.00  0.00     0.000 C 
BRANCH   6   7
ATOM      7  C   UNL     1      22.892 -17.490   2.218  1.00  0.00     0.000 C 
BRANCH   7   8
ATOM      8  C   UNL     1      24.278 -17.337   2.868  1.00  0.00     0.000 C 
BRANCH   8   9
ATOM      9  C   UNL     1      24.263 -17.634   4.374  1.00  0.00     0.000 C 
BRANCH   9  10
ATOM     10  C   UNL     1      24.034 -16.350   5.180  1.00  0.00     0.000 C 
BRANCH  10  11
ATOM     11  C   UNL     1      22.621 -16.321   5.782  1.00  0.00     0.000 C 
BRANCH  11  12
ATOM     12  C   UNL     1      21.998 -14.916   5.742  1.00  0.00     0.006 C 
BRANCH  12  13
ATOM     13  C   UNL     1      22.640 -13.962   6.758  1.00  0.00     0.053 C 
BRANCH  13  14
ATOM     14  C   UNL     1      21.672 -13.624   7.846  1.00  0.00     0.041 C 
ATOM     15  O   UNL     1      21.793 -12.546   8.488  1.00  0.00    -0.550 OA
ATOM     16  O   UNL     1      20.677 -14.525   8.198  1.00  0.00    -0.550 OA
ENDBRANCH  13  14
ENDBRANCH  12  13
ENDBRANCH  11  12
ENDBRANCH  10  11
ENDBRANCH   9  10
ENDBRANCH   8   9
ENDBRANCH   7   8
ENDBRANCH   6   7
ENDBRANCH   5   6
ENDBRANCH   4   5
ENDBRANCH   3   4
ENDBRANCH   2   3
ENDBRANCH   1   2
BRANCH   1  17
ATOM     17  C   UNL     1      24.428 -13.112   3.270  1.00  0.00     0.000 C 
BRANCH  17  18
ATOM     18  C   UNL     1      25.776 -13.798   3.546  1.00  0.00     0.000 C 
BRANCH  18  19
ATOM     19  C   UNL     1      26.891 -13.341   2.589  1.00  0.00     0.000 C 
BRANCH  19  20
ATOM     20  C   UNL     1      28.022 -12.580   3.312  1.00  0.00     0.000 C 
BRANCH  20  21
ATOM     21  C   UNL     1      27.764 -12.347   4.814  1.00  0.00     0.000 C 
BRANCH  21  22
ATOM     22  C   UNL     1      27.685 -10.874   5.246  1.00  0.00    -0.000 C 
BRANCH  22  23
ATOM     23  C   UNL     1      26.319 -10.429   5.805  1.00  0.00    -0.000 C 
BRANCH  23  24
ATOM     24  C   UNL     1      25.476 -11.583   6.387  1.00  0.00    -0.000 C 
BRANCH  24  25
ATOM     25  C   UNL     1      25.074 -11.343   7.850  1.00  0.00    -0.000 C 
BRANCH  25  26
ATOM     26  C   UNL     1      25.089  -9.846   8.184  1.00  0.00    -0.000 C 
BRANCH  26  27
ATOM     27  C   UNL     1      23.689  -9.233   8.025  1.00  0.00    -0.000 C 
BRANCH  27  28
ATOM     28  C   UNL     1      23.702  -7.698   8.097  1.00  0.00    -0.000 C 
BRANCH  28  29
ATOM     29  C   UNL     1      23.637  -7.036   6.713  1.00  0.00    -0.003 C 
ATOM     30  C   UNL     1      25.031  -6.885   6.111  1.00  0.00     0.004 C 
ENDBRANCH  28  29
ENDBRANCH  27  28
ENDBRANCH  26  27
ENDBRANCH  25  26
ENDBRANCH  24  25
ENDBRANCH  23  24
ENDBRANCH  22  23
ENDBRANCH  21  22
ENDBRANCH  20  21
ENDBRANCH  19  20
ENDBRANCH  18  19
ENDBRANCH  17  18
ENDBRANCH   1  17
TORSDOF 26
ENDMDL
MODEL 6
REMARK VINA RESULT:    -3.867      1.252      2.478
REMARK INTER + INTRA:         -14.432
REMARK INTER:                  -9.842
REMARK INTRA:                  -4.590
REMARK UNBOUND:                -4.688
REMARK SMILES CCCCCCCCCCCCCCCCCCCCCCCCCCCC(=O)[O-]
REMARK SMILES IDX 15 1 16 2 17 3 18 4 19 5 20 6 21 7 22 8 23 9 24 10 25 11
REMARK SMILES IDX 26 12 27 13 28 14 29 15 30 16 14 17 13 18 12 19 11 20 10 21
REMARK SMILES IDX 9 22 8 23 7 24 6 25 5 26 4 27 3 28 2 29 1 30
REMARK H PARENT
REMARK Flexibility Score: inf
ROOT
ATOM      1  C   UNL     1      24.141 -11.729   1.997  1.00  0.00     0.000 C 
ENDROOT
BRANCH   1   2
ATOM      2  C   UNL     1      23.113 -12.492   1.140  1.00  0.00     0.000 C 
BRANCH   2   3
ATOM      3  C   UNL     1      22.415 -13.616   1.934  1.00  0.00     0.000 C 
BRANCH   3   4
ATOM      4  C   UNL     1      22.429 -14.973   1.213  1.00  0.00     0.000 C 
BRANCH   4   5
ATOM      5  C   UNL     1      21.696 -16.071   1.997  1.00  0.00     0.000 C 
BRANCH   5   6
ATOM      6  C   UNL     1      22.536 -17.354   2.067  1.00  0.00     0.000 C 
BRANCH   6   7
ATOM      7  C   UNL     1      24.024 -17.024   2.263  1.00  0.00     0.000 C 
BRANCH   7   8
ATOM      8  C   UNL     1      24.411 -16.894   3.745  1.00  0.00     0.000 C 
BRANCH   8   9
ATOM      9  C   UNL     1      24.777 -15.456   4.139  1.00  0.00     0.000 C 
BRANCH   9  10
ATOM     10  C   UNL     1      24.208 -15.109   5.520  1.00  0.00     0.000 C 
BRANCH  10  11
ATOM     11  C   UNL     1      22.778 -14.558   5.405  1.00  0.00     0.000 C 
BRANCH  11  12
ATOM     12  C   UNL     1      21.717 -15.614   5.754  1.00  0.00     0.006 C 
BRANCH  12  13
ATOM     13  C   UNL     1      20.784 -15.155   6.882  1.00  0.00     0.053 C 
BRANCH  13  14
ATOM     14  C   UNL     1      21.529 -15.069   8.177  1.00  0.00     0.041 C 
ATOM     15  O   UNL     1      21.974 -16.116   8.721  1.00  0.00    -0.550 OA
ATOM     16  O   UNL     1      21.674 -13.846   8.816  1.00  0.00    -0.550 OA
ENDBRANCH  13  14
ENDBRANCH  12  13
ENDBRANCH  11  12
ENDBRANCH  10  11
ENDBRANCH   9  10
ENDBRANCH   8   9
ENDBRANCH   7   8
ENDBRANCH   6   7
ENDBRANCH   5   6
ENDBRANCH   4   5
ENDBRANCH   3   4
ENDBRANCH   2   3
ENDBRANCH   1   2
BRANCH   1  17
ATOM     17  C   UNL     1      25.295 -11.148   1.152  1.00  0.00     0.000 C 
BRANCH  17  18
ATOM     18  C   UNL     1      26.485 -12.107   0.986  1.00  0.00     0.000 C 
BRANCH  18  19
ATOM     19  C   UNL     1      26.684 -13.033   2.199  1.00  0.00     0.000 C 
BRANCH  19  20
ATOM     20  C   UNL     1      27.775 -12.524   3.164  1.00  0.00     0.000 C 
BRANCH  20  21
ATOM     21  C   UNL     1      27.427 -12.700   4.656  1.00  0.00     0.000 C 
BRANCH  21  22
ATOM     22  C   UNL     1      27.087 -11.403   5.408  1.00  0.00    -0.000 C 
BRANCH  22  23
ATOM     23  C   UNL     1      27.046 -10.133   4.536  1.00  0.00    -0.000 C 
BRANCH  23  24
ATOM     24  C   UNL     1      25.677  -9.420   4.533  1.00  0.00    -0.000 C 
BRANCH  24  25
ATOM     25  C   UNL     1      25.710  -8.072   5.270  1.00  0.00    -0.000 C 
BRANCH  25  26
ATOM     26  C   UNL     1      25.923  -8.275   6.775  1.00  0.00    -0.000 C 
BRANCH  26  27
ATOM     27  C   UNL     1      24.597  -8.604   7.478  1.00  0.00    -0.000 C 
BRANCH  27  28
ATOM     28  C   UNL     1      24.746  -9.702   8.543  1.00  0.00    -0.000 C 
BRANCH  28  29
ATOM     29  C   UNL     1      23.760 -10.862   8.344  1.00  0.00    -0.003 C 
ATOM     30  C   UNL     1      24.432 -12.039   7.642  1.00  0.00     0.004 C 
ENDBRANCH  28  29
ENDBRANCH  27  28
ENDBRANCH  26  27
ENDBRANCH  25  26
ENDBRANCH  24  25
ENDBRANCH  23  24
ENDBRANCH  22  23
ENDBRANCH  21  22
ENDBRANCH  20  21
ENDBRANCH  19  20
ENDBRANCH  18  19
ENDBRANCH  17  18
ENDBRANCH   1  17
TORSDOF 26
ENDMDL
MODEL 7
REMARK VINA RESULT:    -3.849      2.820      6.723
REMARK INTER + INTRA:         -14.388
REMARK INTER:                  -9.617
REMARK INTRA:                  -4.771
REMARK UNBOUND:                -4.688
REMARK SMILES CCCCCCCCCCCCCCCCCCCCCCCCCCCC(=O)[O-]
REMARK SMILES IDX 15 1 16 2 17 3 18 4 19 5 20 6 21 7 22 8 23 9 24 10 25 11
REMARK SMILES IDX 26 12 27 13 28 14 29 15 30 16 14 17 13 18 12 19 11 20 10 21
REMARK SMILES IDX 9 22 8 23 7 24 6 25 5 26 4 27 3 28 2 29 1 30
REMARK H PARENT
REMARK Flexibility Score: inf
ROOT
ATOM      1  C   UNL     1      24.505 -11.560   2.492  1.00  0.00     0.000 C 
ENDROOT
BRANCH   1   2
ATOM      2  C   UNL     1      24.345 -10.436   1.453  1.00  0.00     0.000 C 
BRANCH   2   3
ATOM      3  C   UNL     1      25.037  -9.130   1.898  1.00  0.00     0.000 C 
BRANCH   3   4
ATOM      4  C   UNL     1      26.375  -9.361   2.617  1.00  0.00     0.000 C 
BRANCH   4   5
ATOM      5  C   UNL     1      27.505  -9.761   1.658  1.00  0.00     0.000 C 
BRANCH   5   6
ATOM      6  C   UNL     1      28.657 -10.438   2.412  1.00  0.00     0.000 C 
BRANCH   6   7
ATOM      7  C   UNL     1      28.403 -11.946   2.563  1.00  0.00     0.000 C 
BRANCH   7   8
ATOM      8  C   UNL     1      28.549 -12.428   4.016  1.00  0.00     0.000 C 
BRANCH   8   9
ATOM      9  C   UNL     1      27.208 -12.477   4.762  1.00  0.00     0.000 C 
BRANCH   9  10
ATOM     10  C   UNL     1      27.078 -11.291   5.725  1.00  0.00     0.000 C 
BRANCH  10  11
ATOM     11  C   UNL     1      25.603 -10.972   6.013  1.00  0.00     0.000 C 
BRANCH  11  12
ATOM     12  C   UNL     1      25.435  -9.701   6.860  1.00  0.00     0.006 C 
BRANCH  12  13
ATOM     13  C   UNL     1      25.635  -8.420   6.040  1.00  0.00     0.053 C 
BRANCH  13  14
ATOM     14  C   UNL     1      26.724  -7.582   6.631  1.00  0.00     0.041 C 
ATOM     15  O   UNL     1      26.787  -6.351   6.369  1.00  0.00    -0.550 OA
ATOM     16  O   UNL     1      27.706  -8.169   7.416  1.00  0.00    -0.550 OA
ENDBRANCH  13  14
ENDBRANCH  12  13
ENDBRANCH  11  12
ENDBRANCH  10  11
ENDBRANCH   9  10
ENDBRANCH   8   9
ENDBRANCH   7   8
ENDBRANCH   6   7
ENDBRANCH   5   6
ENDBRANCH   4   5
ENDBRANCH   3   4
ENDBRANCH   2   3
ENDBRANCH   1   2
BRANCH   1  17
ATOM     17  C   UNL     1      23.975 -12.916   1.977  1.00  0.00     0.000 C 
BRANCH  17  18
ATOM     18  C   UNL     1      22.912 -12.788   0.875  1.00  0.00     0.000 C 
BRANCH  18  19
ATOM     19  C   UNL     1      21.676 -13.670   1.126  1.00  0.00     0.000 C 
BRANCH  19  20
ATOM     20  C   UNL     1      21.859 -14.624   2.326  1.00  0.00     0.000 C 
BRANCH  20  21
ATOM     21  C   UNL     1      21.493 -16.091   2.025  1.00  0.00     0.000 C 
BRANCH  21  22
ATOM     22  C   UNL     1      22.687 -17.047   1.867  1.00  0.00    -0.000 C 
BRANCH  22  23
ATOM     23  C   UNL     1      23.933 -16.679   2.696  1.00  0.00    -0.000 C 
BRANCH  23  24
ATOM     24  C   UNL     1      24.125 -17.548   3.957  1.00  0.00    -0.000 C 
BRANCH  24  25
ATOM     25  C   UNL     1      24.662 -16.745   5.152  1.00  0.00    -0.000 C 
BRANCH  25  26
ATOM     26  C   UNL     1      24.868 -15.273   4.776  1.00  0.00    -0.000 C 
BRANCH  26  27
ATOM     27  C   UNL     1      24.105 -14.348   5.737  1.00  0.00    -0.000 C 
BRANCH  27  28
ATOM     28  C   UNL     1      22.587 -14.362   5.494  1.00  0.00    -0.000 C 
BRANCH  28  29
ATOM     29  C   UNL     1      21.841 -15.306   6.448  1.00  0.00    -0.003 C 
ATOM     30  C   UNL     1      20.892 -16.223   5.681  1.00  0.00     0.004 C 
ENDBRANCH  28  29
ENDBRANCH  27  28
ENDBRANCH  26  27
ENDBRANCH  25  26
ENDBRANCH  24  25
ENDBRANCH  23  24
ENDBRANCH  22  23
ENDBRANCH  21  22
ENDBRANCH  20  21
ENDBRANCH  19  20
ENDBRANCH  18  19
ENDBRANCH  17  18
ENDBRANCH   1  17
TORSDOF 26
ENDMDL
MODEL 8
REMARK VINA RESULT:    -3.829      4.627      7.604
REMARK INTER + INTRA:         -14.338
REMARK INTER:                 -12.092
REMARK INTRA:                  -2.246
REMARK UNBOUND:                -4.688
REMARK SMILES CCCCCCCCCCCCCCCCCCCCCCCCCCCC(=O)[O-]
REMARK SMILES IDX 15 1 16 2 17 3 18 4 19 5 20 6 21 7 22 8 23 9 24 10 25 11
REMARK SMILES IDX 26 12 27 13 28 14 29 15 30 16 14 17 13 18 12 19 11 20 10 21
REMARK SMILES IDX 9 22 8 23 7 24 6 25 5 26 4 27 3 28 2 29 1 30
REMARK H PARENT
REMARK Flexibility Score: inf
ROOT
ATOM      1  C   UNL     1      24.612  -9.462   8.509  1.00  0.00     0.000 C 
ENDROOT
BRANCH   1   2
ATOM      2  C   UNL     1      23.919 -10.816   8.271  1.00  0.00     0.000 C 
BRANCH   2   3
ATOM      3  C   UNL     1      24.863 -11.847   7.617  1.00  0.00     0.000 C 
BRANCH   3   4
ATOM      4  C   UNL     1      25.895 -11.215   6.668  1.00  0.00     0.000 C 
BRANCH   4   5
ATOM      5  C   UNL     1      25.973 -11.931   5.312  1.00  0.00     0.000 C 
BRANCH   5   6
ATOM      6  C   UNL     1      25.299 -11.103   4.211  1.00  0.00     0.000 C 
BRANCH   6   7
ATOM      7  C   UNL     1      25.051 -11.957   2.958  1.00  0.00     0.000 C 
BRANCH   7   8
ATOM      8  C   UNL     1      24.561 -13.375   3.296  1.00  0.00     0.000 C 
BRANCH   8   9
ATOM      9  C   UNL     1      23.090 -13.602   2.916  1.00  0.00     0.000 C 
BRANCH   9  10
ATOM     10  C   UNL     1      22.440 -14.629   3.850  1.00  0.00     0.000 C 
BRANCH  10  11
ATOM     11  C   UNL     1      23.446 -15.145   4.889  1.00  0.00     0.000 C 
BRANCH  11  12
ATOM     12  C   UNL     1      23.269 -14.469   6.258  1.00  0.00     0.006 C 
BRANCH  12  13
ATOM     13  C   UNL     1      21.794 -14.241   6.612  1.00  0.00     0.053 C 
BRANCH  13  14
ATOM     14  C   UNL     1      21.597 -14.287   8.095  1.00  0.00     0.041 C 
ATOM     15  O   UNL     1      21.506 -13.217   8.754  1.00  0.00    -0.550 OA
ATOM     16  O   UNL     1      21.579 -15.506   8.757  1.00  0.00    -0.550 OA
ENDBRANCH  13  14
ENDBRANCH  12  13
ENDBRANCH  11  12
ENDBRANCH  10  11
ENDBRANCH   9  10
ENDBRANCH   8   9
ENDBRANCH   7   8
ENDBRANCH   6   7
ENDBRANCH   5   6
ENDBRANCH   4   5
ENDBRANCH   3   4
ENDBRANCH   2   3
ENDBRANCH   1   2
BRANCH   1  17
ATOM     17  C   UNL     1      23.756  -8.271   8.030  1.00  0.00     0.000 C 
BRANCH  17  18
ATOM     18  C   UNL     1      24.342  -7.537   6.813  1.00  0.00     0.000 C 
BRANCH  18  19
ATOM     19  C   UNL     1      24.328  -6.006   6.970  1.00  0.00     0.000 C 
BRANCH  19  20
ATOM     20  C   UNL     1      23.355  -5.529   8.069  1.00  0.00     0.000 C 
BRANCH  20  21
ATOM     21  C   UNL     1      23.708  -4.152   8.668  1.00  0.00     0.000 C 
BRANCH  21  22
ATOM     22  C   UNL     1      23.008  -3.815   9.995  1.00  0.00    -0.000 C 
BRANCH  22  23
ATOM     23  C   UNL     1      22.517  -2.360  10.123  1.00  0.00    -0.000 C 
BRANCH  23  24
ATOM     24  C   UNL     1      23.641  -1.308  10.009  1.00  0.00    -0.000 C 
BRANCH  24  25
ATOM     25  C   UNL     1      24.788  -1.559  11.000  1.00  0.00    -0.000 C 
BRANCH  25  26
ATOM     26  C   UNL     1      25.595  -0.278  11.242  1.00  0.00    -0.000 C 
BRANCH  26  27
ATOM     27  C   UNL     1      27.104  -0.549  11.130  1.00  0.00    -0.000 C 
BRANCH  27  28
ATOM     28  C   UNL     1      27.434  -2.048  11.073  1.00  0.00    -0.000 C 
BRANCH  28  29
ATOM     29  C   UNL     1      28.858  -2.363  11.554  1.00  0.00    -0.003 C 
ATOM     30  C   UNL     1      29.363  -1.289  12.514  1.00  0.00     0.004 C 
ENDBRANCH  28  29
ENDBRANCH  27  28
ENDBRANCH  26  27
ENDBRANCH  25  26
ENDBRANCH  24  25
ENDBRANCH  23  24
ENDBRANCH  22  23
ENDBRANCH  21  22
ENDBRANCH  20  21
ENDBRANCH  19  20
ENDBRANCH  18  19
ENDBRANCH  17  18
ENDBRANCH   1  17
TORSDOF 26
ENDMDL
MODEL 9
REMARK VINA RESULT:    -3.782      3.219      8.037
REMARK INTER + INTRA:         -14.219
REMARK INTER:                  -9.987
REMARK INTRA:                  -4.232
REMARK UNBOUND:                -4.688
REMARK SMILES CCCCCCCCCCCCCCCCCCCCCCCCCCCC(=O)[O-]
REMARK SMILES IDX 15 1 16 2 17 3 18 4 19 5 20 6 21 7 22 8 23 9 24 10 25 11
REMARK SMILES IDX 26 12 27 13 28 14 29 15 30 16 14 17 13 18 12 19 11 20 10 21
REMARK SMILES IDX 9 22 8 23 7 24 6 25 5 26 4 27 3 28 2 29 1 30
REMARK H PARENT
REMARK Flexibility Score: inf
ROOT
ATOM      1  C   UNL     1      20.990 -13.887   8.388  1.00  0.00     0.000 C 
ENDROOT
BRANCH   1   2
ATOM      2  C   UNL     1      21.543 -12.510   8.799  1.00  0.00     0.000 C 
BRANCH   2   3
ATOM      3  C   UNL     1      22.832 -12.149   8.032  1.00  0.00     0.000 C 
BRANCH   3   4
ATOM      4  C   UNL     1      23.605 -10.975   8.653  1.00  0.00     0.000 C 
BRANCH   4   5
ATOM      5  C   UNL     1      24.847 -10.583   7.841  1.00  0.00     0.000 C 
BRANCH   5   6
ATOM      6  C   UNL     1      25.451 -11.802   7.132  1.00  0.00     0.000 C 
BRANCH   6   7
ATOM      7  C   UNL     1      26.484 -11.368   6.080  1.00  0.00     0.000 C 
BRANCH   7   8
ATOM      8  C   UNL     1      25.883 -10.447   5.005  1.00  0.00     0.000 C 
BRANCH   8   9
ATOM      9  C   UNL     1      26.707  -9.169   4.790  1.00  0.00     0.000 C 
BRANCH   9  10
ATOM     10  C   UNL     1      27.576  -8.870   6.017  1.00  0.00     0.000 C 
BRANCH  10  11
ATOM     11  C   UNL     1      27.005  -7.695   6.824  1.00  0.00     0.000 C 
BRANCH  11  12
ATOM     12  C   UNL     1      25.650  -7.216   6.279  1.00  0.00     0.006 C 
BRANCH  12  13
ATOM     13  C   UNL     1      25.568  -5.687   6.176  1.00  0.00     0.053 C 
BRANCH  13  14
ATOM     14  C   UNL     1      24.573  -5.148   7.155  1.00  0.00     0.041 C 
ATOM     15  O   UNL     1      23.492  -5.763   7.363  1.00  0.00    -0.550 OA
ATOM     16  O   UNL     1      24.806  -3.935   7.787  1.00  0.00    -0.550 OA
ENDBRANCH  13  14
ENDBRANCH  12  13
ENDBRANCH  11  12
ENDBRANCH  10  11
ENDBRANCH   9  10
ENDBRANCH   8   9
ENDBRANCH   7   8
ENDBRANCH   6   7
ENDBRANCH   5   6
ENDBRANCH   4   5
ENDBRANCH   3   4
ENDBRANCH   2   3
ENDBRANCH   1   2
BRANCH   1  17
ATOM     17  C   UNL     1      21.935 -14.637   7.424  1.00  0.00     0.000 C 
BRANCH  17  18
ATOM     18  C   UNL     1      21.207 -15.568   6.442  1.00  0.00     0.000 C 
BRANCH  18  19
ATOM     19  C   UNL     1      22.127 -16.111   5.334  1.00  0.00     0.000 C 
BRANCH  19  20
ATOM     20  C   UNL     1      23.174 -17.112   5.866  1.00  0.00     0.000 C 
BRANCH  20  21
ATOM     21  C   UNL     1      24.635 -16.678   5.632  1.00  0.00     0.000 C 
BRANCH  21  22
ATOM     22  C   UNL     1      24.833 -15.191   5.299  1.00  0.00    -0.000 C 
BRANCH  22  23
ATOM     23  C   UNL     1      25.828 -14.903   4.158  1.00  0.00    -0.000 C 
BRANCH  23  24
ATOM     24  C   UNL     1      25.438 -13.697   3.277  1.00  0.00    -0.000 C 
BRANCH  24  25
ATOM     25  C   UNL     1      23.984 -13.250   3.497  1.00  0.00    -0.000 C 
BRANCH  25  26
ATOM     26  C   UNL     1      23.215 -13.213   2.171  1.00  0.00    -0.000 C 
BRANCH  26  27
ATOM     27  C   UNL     1      21.974 -14.119   2.230  1.00  0.00    -0.000 C 
BRANCH  27  28
ATOM     28  C   UNL     1      22.065 -15.313   1.267  1.00  0.00    -0.000 C 
BRANCH  28  29
ATOM     29  C   UNL     1      22.318 -16.643   1.991  1.00  0.00    -0.003 C 
ATOM     30  C   UNL     1      23.779 -17.065   1.868  1.00  0.00     0.004 C 
ENDBRANCH  28  29
ENDBRANCH  27  28
ENDBRANCH  26  27
ENDBRANCH  25  26
ENDBRANCH  24  25
ENDBRANCH  23  24
ENDBRANCH  22  23
ENDBRANCH  21  22
ENDBRANCH  20  21
ENDBRANCH  19  20
ENDBRANCH  18  19
ENDBRANCH  17  18
ENDBRANCH   1  17
TORSDOF 26
ENDMDL
