MODEL 1
REMARK VINA RESULT:     1.363      0.000      0.000
REMARK INTER + INTRA:           2.079
REMARK INTER:                   3.117
REMARK INTRA:                  -1.038
REMARK UNBOUND:                -1.038
REMARK SMILES CCCCCCCCCCCCCCCCCCCCCCCC(=O)[O-]
REMARK SMILES IDX 13 1 14 2 15 3 16 4 17 5 18 6 19 7 20 8 21 9 22 10 23 11
REMARK SMILES IDX 24 12 25 13 26 14 12 15 11 16 10 17 9 18 8 19 7 20 6 21 5 22
REMARK SMILES IDX 4 23 3 24 2 25 1 26
REMARK H PARENT
REMARK Flexibility Score: inf
ROOT
ATOM      1  C   UNL     1     -22.711   3.663 -35.400  1.00  0.00     0.000 C 
ENDROOT
BRANCH   1   2
ATOM      2  C   UNL     1     -21.852   3.749 -36.675  1.00  0.00     0.000 C 
BRANCH   2   3
ATOM      3  C   UNL     1     -21.999   5.107 -37.397  1.00  0.00     0.000 C 
BRANCH   3   4
ATOM      4  C   UNL     1     -22.797   4.997 -38.707  1.00  0.00     0.000 C 
BRANCH   4   5
ATOM      5  C   UNL     1     -24.252   4.529 -38.503  1.00  0.00     0.000 C 
BRANCH   5   6
ATOM      6  C   UNL     1     -24.442   3.036 -38.822  1.00  0.00     0.000 C 
BRANCH   6   7
ATOM      7  C   UNL     1     -23.109   2.275 -38.932  1.00  0.00     0.000 C 
BRANCH   7   8
ATOM      8  C   UNL     1     -23.229   0.738 -38.941  1.00  0.00     0.000 C 
BRANCH   8   9
ATOM      9  C   UNL     1     -21.903  -0.020 -39.125  1.00  0.00     0.000 C 
BRANCH   9  10
ATOM     10  C   UNL     1     -21.487  -0.807 -37.870  1.00  0.00     0.006 C 
BRANCH  10  11
ATOM     11  C   UNL     1     -21.917  -2.278 -37.943  1.00  0.00     0.053 C 
BRANCH  11  12
ATOM     12  C   UNL     1     -21.108  -3.136 -37.019  1.00  0.00     0.041 C 
ATOM     13  O   UNL     1     -20.604  -2.645 -35.975  1.00  0.00    -0.550 OA
ATOM     14  O   UNL     1     -20.881  -4.470 -37.332  1.00  0.00    -0.550 OA
ENDBRANCH  11  12
ENDBRANCH  10  11
ENDBRANCH   9  10
ENDBRANCH   8   9
ENDBRANCH   7   8
ENDBRANCH   6   7
ENDBRANCH   5   6
ENDBRANCH   4   5
ENDBRANCH   3   4
ENDBRANCH   2   3
ENDBRANCH   1   2
BRANCH   1  15
ATOM     15  C   UNL     1     -22.769   2.248 -34.793  1.00  0.00     0.000 C 
BRANCH  15  16
ATOM     16  C   UNL     1     -24.184   1.645 -34.833  1.00  0.00     0.000 C 
BRANCH  16  17
ATOM     17  C   UNL     1     -25.219   2.498 -34.076  1.00  0.00     0.000 C 
BRANCH  17  18
ATOM     18  C   UNL     1     -25.117   2.441 -32.541  1.00  0.00    -0.000 C 
BRANCH  18  19
ATOM     19  C   UNL     1     -24.611   3.758 -31.925  1.00  0.00    -0.000 C 
BRANCH  19  20
ATOM     20  C   UNL     1     -25.149   4.996 -32.660  1.00  0.00    -0.000 C 
BRANCH  20  21
ATOM     21  C   UNL     1     -26.687   5.051 -32.669  1.00  0.00    -0.000 C 
BRANCH  21  22
ATOM     22  C   UNL     1     -27.269   5.069 -34.092  1.00  0.00    -0.000 C 
BRANCH  22  23
ATOM     23  C   UNL     1     -26.194   4.894 -35.175  1.00  0.00    -0.000 C 
BRANCH  23  24
ATOM     24  C   UNL     1     -26.813   4.968 -36.579  1.00  0.00    -0.000 C 
BRANCH  24  25
ATOM     25  C   UNL     1     -28.262   4.457 -36.615  1.00  0.00    -0.003 C 
ATOM     26  C   UNL     1     -29.063   5.028 -37.784  1.00  0.00     0.004 C 
ENDBRANCH  24  25
ENDBRANCH  23  24
ENDBRANCH  22  23
ENDBRANCH  21  22
ENDBRANCH  20  21
ENDBRANCH  19  20
ENDBRANCH  18  19
ENDBRANCH  17  18
ENDBRANCH  16  17
ENDBRANCH  15  16
ENDBRANCH   1  15
TORSDOF 22
ENDMDL
MODEL 2
REMARK VINA RESULT:     2.742      1.700      4.217
REMARK INTER + INTRA:           5.230
REMARK INTER:                   3.776
REMARK INTRA:                   1.454
REMARK UNBOUND:                -1.038
REMARK SMILES CCCCCCCCCCCCCCCCCCCCCCCC(=O)[O-]
REMARK SMILES IDX 13 1 14 2 15 3 16 4 17 5 18 6 19 7 20 8 21 9 22 10 23 11
REMARK SMILES IDX 24 12 25 13 26 14 12 15 11 16 10 17 9 18 8 19 7 20 6 21 5 22
REMARK SMILES IDX 4 23 3 24 2 25 1 26
REMARK H PARENT
REMARK Flexibility Score: inf
ROOT
ATOM      1  C   UNL     1     -24.947   2.765 -32.804  1.00  0.00     0.000 C 
ENDROOT
BRANCH   1   2
ATOM      2  C   UNL     1     -25.091   2.527 -34.317  1.00  0.00     0.000 C 
BRANCH   2   3
ATOM      3  C   UNL     1     -23.902   3.095 -35.123  1.00  0.00     0.000 C 
BRANCH   3   4
ATOM      4  C   UNL     1     -22.870   3.807 -34.231  1.00  0.00     0.000 C 
BRANCH   4   5
ATOM      5  C   UNL     1     -21.515   3.074 -34.155  1.00  0.00     0.000 C 
BRANCH   5   6
ATOM      6  C   UNL     1     -21.481   1.803 -35.021  1.00  0.00     0.000 C 
BRANCH   6   7
ATOM      7  C   UNL     1     -22.719   1.664 -35.925  1.00  0.00     0.000 C 
BRANCH   7   8
ATOM      8  C   UNL     1     -22.476   0.938 -37.263  1.00  0.00     0.000 C 
BRANCH   8   9
ATOM      9  C   UNL     1     -21.514  -0.261 -37.189  1.00  0.00     0.000 C 
BRANCH   9  10
ATOM     10  C   UNL     1     -21.613  -1.181 -38.418  1.00  0.00     0.006 C 
BRANCH  10  11
ATOM     11  C   UNL     1     -22.969  -1.057 -39.125  1.00  0.00     0.053 C 
BRANCH  11  12
ATOM     12  C   UNL     1     -23.874  -2.202 -38.789  1.00  0.00     0.041 C 
ATOM     13  O   UNL     1     -23.391  -3.334 -38.520  1.00  0.00    -0.550 OA
ATOM     14  O   UNL     1     -25.252  -2.028 -38.810  1.00  0.00    -0.550 OA
ENDBRANCH  11  12
ENDBRANCH  10  11
ENDBRANCH   9  10
ENDBRANCH   8   9
ENDBRANCH   7   8
ENDBRANCH   6   7
ENDBRANCH   5   6
ENDBRANCH   4   5
ENDBRANCH   3   4
ENDBRANCH   2   3
ENDBRANCH   1   2
BRANCH   1  15
ATOM     15  C   UNL     1     -25.661   4.039 -32.312  1.00  0.00     0.000 C 
BRANCH  15  16
ATOM     16  C   UNL     1     -25.841   5.084 -33.428  1.00  0.00     0.000 C 
BRANCH  16  17
ATOM     17  C   UNL     1     -27.277   5.125 -33.983  1.00  0.00     0.000 C 
BRANCH  17  18
ATOM     18  C   UNL     1     -27.708   3.876 -34.774  1.00  0.00    -0.000 C 
BRANCH  18  19
ATOM     19  C   UNL     1     -28.914   4.137 -35.695  1.00  0.00    -0.000 C 
BRANCH  19  20
ATOM     20  C   UNL     1     -28.544   4.990 -36.919  1.00  0.00    -0.000 C 
BRANCH  20  21
ATOM     21  C   UNL     1     -28.319   4.138 -38.182  1.00  0.00    -0.000 C 
BRANCH  21  22
ATOM     22  C   UNL     1     -27.103   4.605 -38.999  1.00  0.00    -0.000 C 
BRANCH  22  23
ATOM     23  C   UNL     1     -25.955   5.117 -38.116  1.00  0.00    -0.000 C 
BRANCH  23  24
ATOM     24  C   UNL     1     -24.745   4.172 -38.188  1.00  0.00    -0.000 C 
BRANCH  24  25
ATOM     25  C   UNL     1     -23.497   4.852 -38.773  1.00  0.00    -0.003 C 
ATOM     26  C   UNL     1     -22.292   4.785 -37.836  1.00  0.00     0.004 C 
ENDBRANCH  24  25
ENDBRANCH  23  24
ENDBRANCH  22  23
ENDBRANCH  21  22
ENDBRANCH  20  21
ENDBRANCH  19  20
ENDBRANCH  18  19
ENDBRANCH  17  18
ENDBRANCH  16  17
ENDBRANCH  15  16
ENDBRANCH   1  15
TORSDOF 22
ENDMDL
MODEL 3
REMARK VINA RESULT:     2.839     16.791     20.418
REMARK INTER + INTRA:           5.452
REMARK INTER:                   6.307
REMARK INTRA:                  -0.855
REMARK UNBOUND:                -1.038
REMARK SMILES CCCCCCCCCCCCCCCCCCCCCCCC(=O)[O-]
REMARK SMILES IDX 13 1 14 2 15 3 16 4 17 5 18 6 19 7 20 8 21 9 22 10 23 11
REMARK SMILES IDX 24 12 25 13 26 14 12 15 11 16 10 17 9 18 8 19 7 20 6 21 5 22
REMARK SMILES IDX 4 23 3 24 2 25 1 26
REMARK H PARENT
REMARK Flexibility Score: inf
ROOT
ATOM      1  C   UNL     1     -23.525 -14.093 -24.033  1.00  0.00     0.000 C 
ENDROOT
BRANCH   1   2
ATOM      2  C   UNL     1     -24.767 -14.989 -23.885  1.00  0.00     0.000 C 
BRANCH   2   3
ATOM      3  C   UNL     1     -25.732 -14.487 -22.788  1.00  0.00     0.000 C 
BRANCH   3   4
ATOM      4  C   UNL     1     -25.446 -15.119 -21.414  1.00  0.00     0.000 C 
BRANCH   4   5
ATOM      5  C   UNL     1     -23.981 -14.968 -20.962  1.00  0.00     0.000 C 
BRANCH   5   6
ATOM      6  C   UNL     1     -23.813 -15.122 -19.440  1.00  0.00     0.000 C 
BRANCH   6   7
ATOM      7  C   UNL     1     -22.659 -14.272 -18.879  1.00  0.00     0.000 C 
BRANCH   7   8
ATOM      8  C   UNL     1     -21.250 -14.692 -19.343  1.00  0.00     0.000 C 
BRANCH   8   9
ATOM      9  C   UNL     1     -20.108 -13.773 -18.875  1.00  0.00     0.000 C 
BRANCH   9  10
ATOM     10  C   UNL     1     -20.103 -12.413 -19.597  1.00  0.00     0.006 C 
BRANCH  10  11
ATOM     11  C   UNL     1     -18.705 -11.785 -19.634  1.00  0.00     0.053 C 
BRANCH  11  12
ATOM     12  C   UNL     1     -18.772 -10.288 -19.643  1.00  0.00     0.041 C 
ATOM     13  O   UNL     1     -17.795  -9.612 -20.061  1.00  0.00    -0.550 OA
ATOM     14  O   UNL     1     -19.900  -9.641 -19.155  1.00  0.00    -0.550 OA
ENDBRANCH  11  12
ENDBRANCH  10  11
ENDBRANCH   9  10
ENDBRANCH   8   9
ENDBRANCH   7   8
ENDBRANCH   6   7
ENDBRANCH   5   6
ENDBRANCH   4   5
ENDBRANCH   3   4
ENDBRANCH   2   3
ENDBRANCH   1   2
BRANCH   1  15
ATOM     15  C   UNL     1     -22.293 -14.837 -24.585  1.00  0.00     0.000 C 
BRANCH  15  16
ATOM     16  C   UNL     1     -21.491 -13.988 -25.587  1.00  0.00     0.000 C 
BRANCH  16  17
ATOM     17  C   UNL     1     -21.993 -12.536 -25.678  1.00  0.00     0.000 C 
BRANCH  17  18
ATOM     18  C   UNL     1     -21.829 -11.872 -27.058  1.00  0.00    -0.000 C 
BRANCH  18  19
ATOM     19  C   UNL     1     -22.435 -10.458 -27.119  1.00  0.00    -0.000 C 
BRANCH  19  20
ATOM     20  C   UNL     1     -23.545 -10.250 -26.077  1.00  0.00    -0.000 C 
BRANCH  20  21
ATOM     21  C   UNL     1     -23.996  -8.780 -25.985  1.00  0.00    -0.000 C 
BRANCH  21  22
ATOM     22  C   UNL     1     -23.259  -7.873 -26.985  1.00  0.00    -0.000 C 
BRANCH  22  23
ATOM     23  C   UNL     1     -22.233  -6.953 -26.308  1.00  0.00    -0.000 C 
BRANCH  23  24
ATOM     24  C   UNL     1     -21.133  -6.536 -27.296  1.00  0.00    -0.000 C 
BRANCH  24  25
ATOM     25  C   UNL     1     -20.727  -7.675 -28.245  1.00  0.00    -0.003 C 
ATOM     26  C   UNL     1     -21.554  -7.699 -29.529  1.00  0.00     0.004 C 
ENDBRANCH  24  25
ENDBRANCH  23  24
ENDBRANCH  22  23
ENDBRANCH  21  22
ENDBRANCH  20  21
ENDBRANCH  19  20
ENDBRANCH  18  19
ENDBRANCH  17  18
ENDBRANCH  16  17
ENDBRANCH  15  16
ENDBRANCH   1  15
TORSDOF 22
ENDMDL
MODEL 4
REMARK VINA RESULT:     3.078     12.818     14.681
REMARK INTER + INTRA:           5.999
REMARK INTER:                   4.662
REMARK INTRA:                   1.337
REMARK UNBOUND:                -1.038
REMARK SMILES CCCCCCCCCCCCCCCCCCCCCCCC(=O)[O-]
REMARK SMILES IDX 13 1 14 2 15 3 16 4 17 5 18 6 19 7 20 8 21 9 22 10 23 11
REMARK SMILES IDX 24 12 25 13 26 14 12 15 11 16 10 17 9 18 8 19 7 20 6 21 5 22
REMARK SMILES IDX 4 23 3 24 2 25 1 26
REMARK H PARENT
REMARK Flexibility Score: inf
ROOT
ATOM      1  C   UNL     1     -10.693  -0.242 -35.554  1.00  0.00     0.000 C 
ENDROOT
BRANCH   1   2
ATOM      2  C   UNL     1     -10.762  -1.779 -35.495  1.00  0.00     0.000 C 
BRANCH   2   3
ATOM      3  C   UNL     1     -10.621  -2.432 -36.888  1.00  0.00     0.000 C 
BRANCH   3   4
ATOM      4  C   UNL     1      -9.521  -1.775 -37.741  1.00  0.00     0.000 C 
BRANCH   4   5
ATOM      5  C   UNL     1      -9.334  -2.439 -39.119  1.00  0.00     0.000 C 
BRANCH   5   6
ATOM      6  C   UNL     1      -8.979  -3.932 -39.012  1.00  0.00     0.000 C 
BRANCH   6   7
ATOM      7  C   UNL     1      -8.983  -4.443 -37.560  1.00  0.00     0.000 C 
BRANCH   7   8
ATOM      8  C   UNL     1      -9.962  -5.600 -37.275  1.00  0.00     0.000 C 
BRANCH   8   9
ATOM      9  C   UNL     1     -11.247  -5.197 -36.532  1.00  0.00     0.000 C 
BRANCH   9  10
ATOM     10  C   UNL     1     -12.097  -6.410 -36.110  1.00  0.00     0.006 C 
BRANCH  10  11
ATOM     11  C   UNL     1     -13.484  -6.398 -36.764  1.00  0.00     0.053 C 
BRANCH  11  12
ATOM     12  C   UNL     1     -14.478  -7.181 -35.963  1.00  0.00     0.041 C 
ATOM     13  O   UNL     1     -15.111  -6.631 -35.023  1.00  0.00    -0.550 OA
ATOM     14  O   UNL     1     -14.679  -8.529 -36.232  1.00  0.00    -0.550 OA
ENDBRANCH  11  12
ENDBRANCH  10  11
ENDBRANCH   9  10
ENDBRANCH   8   9
ENDBRANCH   7   8
ENDBRANCH   6   7
ENDBRANCH   5   6
ENDBRANCH   4   5
ENDBRANCH   3   4
ENDBRANCH   2   3
ENDBRANCH   1   2
BRANCH   1  15
ATOM     15  C   UNL     1      -9.293   0.297 -35.907  1.00  0.00     0.000 C 
BRANCH  15  16
ATOM     16  C   UNL     1      -9.351   1.609 -36.710  1.00  0.00     0.000 C 
BRANCH  16  17
ATOM     17  C   UNL     1     -10.424   1.588 -37.814  1.00  0.00     0.000 C 
BRANCH  17  18
ATOM     18  C   UNL     1     -11.516   2.666 -37.686  1.00  0.00    -0.000 C 
BRANCH  18  19
ATOM     19  C   UNL     1     -11.484   3.691 -38.833  1.00  0.00    -0.000 C 
BRANCH  19  20
ATOM     20  C   UNL     1     -10.888   5.040 -38.399  1.00  0.00    -0.000 C 
BRANCH  20  21
ATOM     21  C   UNL     1     -10.674   5.125 -36.877  1.00  0.00    -0.000 C 
BRANCH  21  22
ATOM     22  C   UNL     1      -9.260   4.691 -36.456  1.00  0.00    -0.000 C 
BRANCH  22  23
ATOM     23  C   UNL     1      -8.963   4.984 -34.978  1.00  0.00    -0.000 C 
BRANCH  23  24
ATOM     24  C   UNL     1      -9.142   3.720 -34.122  1.00  0.00    -0.000 C 
BRANCH  24  25
ATOM     25  C   UNL     1      -9.844   4.005 -32.785  1.00  0.00    -0.003 C 
ATOM     26  C   UNL     1      -8.891   4.548 -31.721  1.00  0.00     0.004 C 
ENDBRANCH  24  25
ENDBRANCH  23  24
ENDBRANCH  22  23
ENDBRANCH  21  22
ENDBRANCH  20  21
ENDBRANCH  19  20
ENDBRANCH  18  19
ENDBRANCH  17  18
ENDBRANCH  16  17
ENDBRANCH  15  16
ENDBRANCH   1  15
TORSDOF 22
ENDMDL
MODEL 5
REMARK VINA RESULT:     3.351     11.992     14.616
REMARK INTER + INTRA:           6.623
REMARK INTER:                   4.389
REMARK INTRA:                   2.234
REMARK UNBOUND:                -1.038
REMARK SMILES CCCCCCCCCCCCCCCCCCCCCCCC(=O)[O-]
REMARK SMILES IDX 13 1 14 2 15 3 16 4 17 5 18 6 19 7 20 8 21 9 22 10 23 11
REMARK SMILES IDX 24 12 25 13 26 14 12 15 11 16 10 17 9 18 8 19 7 20 6 21 5 22
REMARK SMILES IDX 4 23 3 24 2 25 1 26
REMARK H PARENT
REMARK Flexibility Score: inf
ROOT
ATOM      1  C   UNL     1      -9.846   0.384 -35.792  1.00  0.00     0.000 C 
ENDROOT
BRANCH   1   2
ATOM      2  C   UNL     1      -9.335  -1.059 -35.942  1.00  0.00     0.000 C 
BRANCH   2   3
ATOM      3  C   UNL     1     -10.213  -1.903 -36.893  1.00  0.00     0.000 C 
BRANCH   3   4
ATOM      4  C   UNL     1      -9.595  -2.048 -38.295  1.00  0.00     0.000 C 
BRANCH   4   5
ATOM      5  C   UNL     1     -10.211  -3.194 -39.122  1.00  0.00     0.000 C 
BRANCH   5   6
ATOM      6  C   UNL     1     -10.290  -4.514 -38.335  1.00  0.00     0.000 C 
BRANCH   6   7
ATOM      7  C   UNL     1      -8.908  -5.031 -37.898  1.00  0.00     0.000 C 
BRANCH   7   8
ATOM      8  C   UNL     1      -8.903  -5.879 -36.610  1.00  0.00     0.000 C 
BRANCH   8   9
ATOM      9  C   UNL     1     -10.057  -5.590 -35.634  1.00  0.00     0.000 C 
BRANCH   9  10
ATOM     10  C   UNL     1     -11.336  -5.118 -36.347  1.00  0.00     0.006 C 
BRANCH  10  11
ATOM     11  C   UNL     1     -11.833  -3.770 -35.811  1.00  0.00     0.053 C 
BRANCH  11  12
ATOM     12  C   UNL     1     -12.444  -3.908 -34.450  1.00  0.00     0.041 C 
ATOM     13  O   UNL     1     -12.088  -3.143 -33.515  1.00  0.00    -0.550 OA
ATOM     14  O   UNL     1     -13.379  -4.906 -34.206  1.00  0.00    -0.550 OA
ENDBRANCH  11  12
ENDBRANCH  10  11
ENDBRANCH   9  10
ENDBRANCH   8   9
ENDBRANCH   7   8
ENDBRANCH   6   7
ENDBRANCH   5   6
ENDBRANCH   4   5
ENDBRANCH   3   4
ENDBRANCH   2   3
ENDBRANCH   1   2
BRANCH   1  15
ATOM     15  C   UNL     1      -8.881   1.440 -36.365  1.00  0.00     0.000 C 
BRANCH  15  16
ATOM     16  C   UNL     1      -9.052   1.636 -37.882  1.00  0.00     0.000 C 
BRANCH  16  17
ATOM     17  C   UNL     1     -10.528   1.749 -38.307  1.00  0.00     0.000 C 
BRANCH  17  18
ATOM     18  C   UNL     1     -11.447   2.461 -37.298  1.00  0.00    -0.000 C 
BRANCH  18  19
ATOM     19  C   UNL     1     -12.711   3.050 -37.950  1.00  0.00    -0.000 C 
BRANCH  19  20
ATOM     20  C   UNL     1     -12.382   4.078 -39.045  1.00  0.00    -0.000 C 
BRANCH  20  21
ATOM     21  C   UNL     1     -11.305   5.085 -38.600  1.00  0.00    -0.000 C 
BRANCH  21  22
ATOM     22  C   UNL     1     -10.963   4.962 -37.106  1.00  0.00    -0.000 C 
BRANCH  22  23
ATOM     23  C   UNL     1      -9.450   4.952 -36.841  1.00  0.00    -0.000 C 
BRANCH  23  24
ATOM     24  C   UNL     1      -9.154   5.124 -35.344  1.00  0.00    -0.000 C 
BRANCH  24  25
ATOM     25  C   UNL     1     -10.369   4.805 -34.460  1.00  0.00    -0.003 C 
ATOM     26  C   UNL     1      -9.976   4.273 -33.083  1.00  0.00     0.004 C 
ENDBRANCH  24  25
ENDBRANCH  23  24
ENDBRANCH  22  23
ENDBRANCH  21  22
ENDBRANCH  20  21
ENDBRANCH  19  20
ENDBRANCH  18  19
ENDBRANCH  17  18
ENDBRANCH  16  17
ENDBRANCH  15  16
ENDBRANCH   1  15
TORSDOF 22
ENDMDL
MODEL 6
REMARK VINA RESULT:     4.151     16.446     19.870
REMARK INTER + INTRA:           8.451
REMARK INTER:                   8.903
REMARK INTRA:                  -0.452
REMARK UNBOUND:                -1.038
REMARK SMILES CCCCCCCCCCCCCCCCCCCCCCCC(=O)[O-]
REMARK SMILES IDX 13 1 14 2 15 3 16 4 17 5 18 6 19 7 20 8 21 9 22 10 23 11
REMARK SMILES IDX 24 12 25 13 26 14 12 15 11 16 10 17 9 18 8 19 7 20 6 21 5 22
REMARK SMILES IDX 4 23 3 24 2 25 1 26
REMARK H PARENT
REMARK Flexibility Score: inf
ROOT
ATOM      1  C   UNL     1     -23.802 -13.758 -24.761  1.00  0.00     0.000 C 
ENDROOT
BRANCH   1   2
ATOM      2  C   UNL     1     -23.761 -15.088 -23.989  1.00  0.00     0.000 C 
BRANCH   2   3
ATOM      3  C   UNL     1     -24.436 -14.989 -22.603  1.00  0.00     0.000 C 
BRANCH   3   4
ATOM      4  C   UNL     1     -23.516 -14.362 -21.540  1.00  0.00     0.000 C 
BRANCH   4   5
ATOM      5  C   UNL     1     -23.517 -15.124 -20.200  1.00  0.00     0.000 C 
BRANCH   5   6
ATOM      6  C   UNL     1     -22.480 -14.573 -19.206  1.00  0.00     0.000 C 
BRANCH   6   7
ATOM      7  C   UNL     1     -22.395 -13.036 -19.223  1.00  0.00     0.000 C 
BRANCH   7   8
ATOM      8  C   UNL     1     -21.000 -12.453 -18.919  1.00  0.00     0.000 C 
BRANCH   8   9
ATOM      9  C   UNL     1     -19.832 -13.443 -19.072  1.00  0.00     0.000 C 
BRANCH   9  10
ATOM     10  C   UNL     1     -18.459 -12.749 -19.066  1.00  0.00     0.006 C 
BRANCH  10  11
ATOM     11  C   UNL     1     -18.268 -11.836 -20.283  1.00  0.00     0.053 C 
BRANCH  11  12
ATOM     12  C   UNL     1     -18.847 -10.474 -20.048  1.00  0.00     0.041 C 
ATOM     13  O   UNL     1     -18.256  -9.655 -19.296  1.00  0.00    -0.550 OA
ATOM     14  O   UNL     1     -20.059 -10.125 -20.631  1.00  0.00    -0.550 OA
ENDBRANCH  11  12
ENDBRANCH  10  11
ENDBRANCH   9  10
ENDBRANCH   8   9
ENDBRANCH   7   8
ENDBRANCH   6   7
ENDBRANCH   5   6
ENDBRANCH   4   5
ENDBRANCH   3   4
ENDBRANCH   2   3
ENDBRANCH   1   2
BRANCH   1  15
ATOM     15  C   UNL     1     -25.013 -12.875 -24.402  1.00  0.00     0.000 C 
BRANCH  15  16
ATOM     16  C   UNL     1     -25.963 -12.663 -25.594  1.00  0.00     0.000 C 
BRANCH  16  17
ATOM     17  C   UNL     1     -25.956 -11.214 -26.115  1.00  0.00     0.000 C 
BRANCH  17  18
ATOM     18  C   UNL     1     -24.912 -10.289 -25.463  1.00  0.00    -0.000 C 
BRANCH  18  19
ATOM     19  C   UNL     1     -24.918  -8.868 -26.054  1.00  0.00    -0.000 C 
BRANCH  19  20
ATOM     20  C   UNL     1     -24.136  -8.777 -27.373  1.00  0.00    -0.000 C 
BRANCH  20  21
ATOM     21  C   UNL     1     -22.662  -8.388 -27.157  1.00  0.00    -0.000 C 
BRANCH  21  22
ATOM     22  C   UNL     1     -22.501  -6.949 -26.641  1.00  0.00    -0.000 C 
BRANCH  22  23
ATOM     23  C   UNL     1     -21.092  -6.385 -26.881  1.00  0.00    -0.000 C 
BRANCH  23  24
ATOM     24  C   UNL     1     -20.584  -6.759 -28.282  1.00  0.00    -0.000 C 
BRANCH  24  25
ATOM     25  C   UNL     1     -21.552  -6.332 -29.396  1.00  0.00    -0.003 C 
ATOM     26  C   UNL     1     -21.983  -7.498 -30.284  1.00  0.00     0.004 C 
ENDBRANCH  24  25
ENDBRANCH  23  24
ENDBRANCH  22  23
ENDBRANCH  21  22
ENDBRANCH  20  21
ENDBRANCH  19  20
ENDBRANCH  18  19
ENDBRANCH  17  18
ENDBRANCH  16  17
ENDBRANCH  15  16
ENDBRANCH   1  15
TORSDOF 22
ENDMDL
