MODEL 1
REMARK VINA RESULT:    -3.243      0.000      0.000
REMARK INTER + INTRA:         -15.319
REMARK INTER:                  -8.550
REMARK INTRA:                  -6.769
REMARK UNBOUND:                -6.769
REMARK SMILES CCCCCCCCCCCCCCCCCCCCCCCCCCCCCC(=O)[O-]
REMARK SMILES IDX 16 1 17 2 18 3 19 4 20 5 21 6 22 7 23 8 24 9 25 10 26 11
REMARK SMILES IDX 27 12 28 13 29 14 30 15 31 16 32 17 15 18 14 19 13 20 12 21
REMARK SMILES IDX 11 22 10 23 9 24 8 25 7 26 6 27 5 28 4 29 3 30 2 31 1 32
REMARK H PARENT
REMARK Flexibility Score: inf
ROOT
ATOM      1  C   UNL     1      15.586  14.984  29.966  1.00  0.00     0.000 C 
ENDROOT
BRANCH   1   2
ATOM      2  C   UNL     1      16.923  15.580  30.432  1.00  0.00     0.000 C 
BRANCH   2   3
ATOM      3  C   UNL     1      17.740  14.606  31.300  1.00  0.00     0.000 C 
BRANCH   3   4
ATOM      4  C   UNL     1      16.943  13.350  31.686  1.00  0.00     0.000 C 
BRANCH   4   5
ATOM      5  C   UNL     1      17.556  12.062  31.117  1.00  0.00     0.000 C 
BRANCH   5   6
ATOM      6  C   UNL     1      18.731  12.331  30.161  1.00  0.00     0.000 C 
BRANCH   6   7
ATOM      7  C   UNL     1      18.532  11.732  28.752  1.00  0.00     0.000 C 
BRANCH   7   8
ATOM      8  C   UNL     1      18.210  12.805  27.700  1.00  0.00     0.000 C 
BRANCH   8   9
ATOM      9  C   UNL     1      19.168  14.001  27.815  1.00  0.00     0.000 C 
BRANCH   9  10
ATOM     10  C   UNL     1      18.626  15.275  27.141  1.00  0.00     0.000 C 
BRANCH  10  11
ATOM     11  C   UNL     1      18.007  15.062  25.746  1.00  0.00     0.000 C 
BRANCH  11  12
ATOM     12  C   UNL     1      17.074  16.211  25.328  1.00  0.00     0.000 C 
BRANCH  12  13
ATOM     13  C   UNL     1      15.817  15.714  24.595  1.00  0.00     0.006 C 
BRANCH  13  14
ATOM     14  C   UNL     1      15.755  14.183  24.494  1.00  0.00     0.053 C 
BRANCH  14  15
ATOM     15  C   UNL     1      14.443  13.743  23.919  1.00  0.00     0.041 C 
ATOM     16  O   UNL     1      13.525  13.325  24.675  1.00  0.00    -0.550 OA
ATOM     17  O   UNL     1      14.240  13.779  22.545  1.00  0.00    -0.550 OA
ENDBRANCH  14  15
ENDBRANCH  13  14
ENDBRANCH  12  13
ENDBRANCH  11  12
ENDBRANCH  10  11
ENDBRANCH   9  10
ENDBRANCH   8   9
ENDBRANCH   7   8
ENDBRANCH   6   7
ENDBRANCH   5   6
ENDBRANCH   4   5
ENDBRANCH   3   4
ENDBRANCH   2   3
ENDBRANCH   1   2
BRANCH   1  18
ATOM     18  C   UNL     1      15.297  15.264  28.483  1.00  0.00     0.000 C 
BRANCH  18  19
ATOM     19  C   UNL     1      14.555  14.085  27.839  1.00  0.00     0.000 C 
BRANCH  19  20
ATOM     20  C   UNL     1      14.884  12.736  28.501  1.00  0.00     0.000 C 
BRANCH  20  21
ATOM     21  C   UNL     1      13.923  11.581  28.148  1.00  0.00     0.000 C 
BRANCH  21  22
ATOM     22  C   UNL     1      13.274  10.877  29.353  1.00  0.00     0.000 C 
BRANCH  22  23
ATOM     23  C   UNL     1      14.022  11.132  30.671  1.00  0.00     0.000 C 
BRANCH  23  24
ATOM     24  C   UNL     1      13.077  11.705  31.737  1.00  0.00    -0.000 C 
BRANCH  24  25
ATOM     25  C   UNL     1      12.853  13.218  31.580  1.00  0.00    -0.000 C 
BRANCH  25  26
ATOM     26  C   UNL     1      11.552  13.691  32.250  1.00  0.00    -0.000 C 
BRANCH  26  27
ATOM     27  C   UNL     1      10.866  14.830  31.475  1.00  0.00    -0.000 C 
BRANCH  27  28
ATOM     28  C   UNL     1      11.561  15.180  30.142  1.00  0.00    -0.000 C 
BRANCH  28  29
ATOM     29  C   UNL     1      10.644  14.951  28.930  1.00  0.00    -0.000 C 
BRANCH  29  30
ATOM     30  C   UNL     1      10.908  13.579  28.290  1.00  0.00    -0.000 C 
BRANCH  30  31
ATOM     31  C   UNL     1       9.698  12.637  28.389  1.00  0.00    -0.003 C 
ATOM     32  C   UNL     1       9.750  11.742  29.629  1.00  0.00     0.004 C 
ENDBRANCH  30  31
ENDBRANCH  29  30
ENDBRANCH  28  29
ENDBRANCH  27  28
ENDBRANCH  26  27
ENDBRANCH  25  26
ENDBRANCH  24  25
ENDBRANCH  23  24
ENDBRANCH  22  23
ENDBRANCH  21  22
ENDBRANCH  20  21
ENDBRANCH  19  20
ENDBRANCH  18  19
ENDBRANCH   1  18
TORSDOF 28
ENDMDL
MODEL 2
REMARK VINA RESULT:    -3.098      1.218      2.950
REMARK INTER + INTRA:         -14.938
REMARK INTER:                  -9.102
REMARK INTRA:                  -5.836
REMARK UNBOUND:                -6.769
REMARK SMILES CCCCCCCCCCCCCCCCCCCCCCCCCCCCCC(=O)[O-]
REMARK SMILES IDX 16 1 17 2 18 3 19 4 20 5 21 6 22 7 23 8 24 9 25 10 26 11
REMARK SMILES IDX 27 12 28 13 29 14 30 15 31 16 32 17 15 18 14 19 13 20 12 21
REMARK SMILES IDX 11 22 10 23 9 24 8 25 7 26 6 27 5 28 4 29 3 30 2 31 1 32
REMARK H PARENT
REMARK Flexibility Score: inf
ROOT
ATOM      1  C   UNL     1      16.203  15.803  29.402  1.00  0.00     0.000 C 
ENDROOT
BRANCH   1   2
ATOM      2  C   UNL     1      15.072  14.776  29.570  1.00  0.00     0.000 C 
BRANCH   2   3
ATOM      3  C   UNL     1      14.325  14.493  28.254  1.00  0.00     0.000 C 
BRANCH   3   4
ATOM      4  C   UNL     1      14.221  12.991  27.945  1.00  0.00     0.000 C 
BRANCH   4   5
ATOM      5  C   UNL     1      15.220  12.150  28.753  1.00  0.00     0.000 C 
BRANCH   5   6
ATOM      6  C   UNL     1      15.896  11.053  27.912  1.00  0.00     0.000 C 
BRANCH   6   7
ATOM      7  C   UNL     1      17.414  11.264  27.728  1.00  0.00     0.000 C 
BRANCH   7   8
ATOM      8  C   UNL     1      17.830  12.732  27.917  1.00  0.00     0.000 C 
BRANCH   8   9
ATOM      9  C   UNL     1      17.945  13.454  26.566  1.00  0.00     0.000 C 
BRANCH   9  10
ATOM     10  C   UNL     1      18.565  14.858  26.684  1.00  0.00     0.000 C 
BRANCH  10  11
ATOM     11  C   UNL     1      17.997  15.908  25.709  1.00  0.00     0.000 C 
BRANCH  11  12
ATOM     12  C   UNL     1      16.466  16.029  25.792  1.00  0.00     0.000 C 
BRANCH  12  13
ATOM     13  C   UNL     1      15.798  16.022  24.407  1.00  0.00     0.006 C 
BRANCH  13  14
ATOM     14  C   UNL     1      15.919  14.667  23.696  1.00  0.00     0.053 C 
BRANCH  14  15
ATOM     15  C   UNL     1      14.862  13.720  24.176  1.00  0.00     0.041 C 
ATOM     16  O   UNL     1      13.659  14.089  24.242  1.00  0.00    -0.550 OA
ATOM     17  O   UNL     1      15.208  12.432  24.566  1.00  0.00    -0.550 OA
ENDBRANCH  14  15
ENDBRANCH  13  14
ENDBRANCH  12  13
ENDBRANCH  11  12
ENDBRANCH  10  11
ENDBRANCH   9  10
ENDBRANCH   8   9
ENDBRANCH   7   8
ENDBRANCH   6   7
ENDBRANCH   5   6
ENDBRANCH   4   5
ENDBRANCH   3   4
ENDBRANCH   2   3
ENDBRANCH   1   2
BRANCH   1  18
ATOM     18  C   UNL     1      17.466  15.426  30.191  1.00  0.00     0.000 C 
BRANCH  18  19
ATOM     19  C   UNL     1      17.120  14.511  31.373  1.00  0.00     0.000 C 
BRANCH  19  20
ATOM     20  C   UNL     1      18.357  13.842  31.997  1.00  0.00     0.000 C 
BRANCH  20  21
ATOM     21  C   UNL     1      18.558  12.359  31.621  1.00  0.00     0.000 C 
BRANCH  21  22
ATOM     22  C   UNL     1      17.286  11.494  31.666  1.00  0.00     0.000 C 
BRANCH  22  23
ATOM     23  C   UNL     1      17.003  10.914  33.060  1.00  0.00     0.000 C 
BRANCH  23  24
ATOM     24  C   UNL     1      15.537  11.133  33.459  1.00  0.00    -0.000 C 
BRANCH  24  25
ATOM     25  C   UNL     1      14.726  11.853  32.368  1.00  0.00    -0.000 C 
BRANCH  25  26
ATOM     26  C   UNL     1      13.270  11.362  32.299  1.00  0.00    -0.000 C 
BRANCH  26  27
ATOM     27  C   UNL     1      12.251  12.502  32.470  1.00  0.00    -0.000 C 
BRANCH  27  28
ATOM     28  C   UNL     1      12.456  13.670  31.482  1.00  0.00    -0.000 C 
BRANCH  28  29
ATOM     29  C   UNL     1      11.239  14.608  31.428  1.00  0.00    -0.000 C 
BRANCH  29  30
ATOM     30  C   UNL     1      11.038  15.170  30.012  1.00  0.00    -0.000 C 
BRANCH  30  31
ATOM     31  C   UNL     1      10.763  14.072  28.973  1.00  0.00    -0.003 C 
ATOM     32  C   UNL     1       9.966  14.586  27.772  1.00  0.00     0.004 C 
ENDBRANCH  30  31
ENDBRANCH  29  30
ENDBRANCH  28  29
ENDBRANCH  27  28
ENDBRANCH  26  27
ENDBRANCH  25  26
ENDBRANCH  24  25
ENDBRANCH  23  24
ENDBRANCH  22  23
ENDBRANCH  21  22
ENDBRANCH  20  21
ENDBRANCH  19  20
ENDBRANCH  18  19
ENDBRANCH   1  18
TORSDOF 28
ENDMDL
MODEL 3
REMARK VINA RESULT:    -3.075      1.541      6.223
REMARK INTER + INTRA:         -14.878
REMARK INTER:                  -9.525
REMARK INTRA:                  -5.353
REMARK UNBOUND:                -6.769
REMARK SMILES CCCCCCCCCCCCCCCCCCCCCCCCCCCCCC(=O)[O-]
REMARK SMILES IDX 16 1 17 2 18 3 19 4 20 5 21 6 22 7 23 8 24 9 25 10 26 11
REMARK SMILES IDX 27 12 28 13 29 14 30 15 31 16 32 17 15 18 14 19 13 20 12 21
REMARK SMILES IDX 11 22 10 23 9 24 8 25 7 26 6 27 5 28 4 29 3 30 2 31 1 32
REMARK H PARENT
REMARK Flexibility Score: inf
ROOT
ATOM      1  C   UNL     1      16.515  14.533  30.867  1.00  0.00     0.000 C 
ENDROOT
BRANCH   1   2
ATOM      2  C   UNL     1      17.786  14.294  31.698  1.00  0.00     0.000 C 
BRANCH   2   3
ATOM      3  C   UNL     1      17.733  12.983  32.503  1.00  0.00     0.000 C 
BRANCH   3   4
ATOM      4  C   UNL     1      16.751  11.962  31.905  1.00  0.00     0.000 C 
BRANCH   4   5
ATOM      5  C   UNL     1      15.705  11.483  32.922  1.00  0.00     0.000 C 
BRANCH   5   6
ATOM      6  C   UNL     1      14.311  11.289  32.300  1.00  0.00     0.000 C 
BRANCH   6   7
ATOM      7  C   UNL     1      13.200  12.091  33.009  1.00  0.00     0.000 C 
BRANCH   7   8
ATOM      8  C   UNL     1      12.155  12.642  32.025  1.00  0.00     0.000 C 
BRANCH   8   9
ATOM      9  C   UNL     1      11.353  13.793  32.654  1.00  0.00     0.000 C 
BRANCH   9  10
ATOM     10  C   UNL     1      10.655  14.681  31.608  1.00  0.00     0.000 C 
BRANCH  10  11
ATOM     11  C   UNL     1      11.542  15.123  30.428  1.00  0.00     0.000 C 
BRANCH  11  12
ATOM     12  C   UNL     1      10.813  15.053  29.076  1.00  0.00     0.000 C 
BRANCH  12  13
ATOM     13  C   UNL     1      10.891  13.658  28.434  1.00  0.00     0.006 C 
BRANCH  13  14
ATOM     14  C   UNL     1       9.848  13.454  27.327  1.00  0.00     0.053 C 
BRANCH  14  15
ATOM     15  C   UNL     1      10.430  13.772  25.984  1.00  0.00     0.041 C 
ATOM     16  O   UNL     1      11.591  13.383  25.686  1.00  0.00    -0.550 OA
ATOM     17  O   UNL     1       9.697  14.513  25.066  1.00  0.00    -0.550 OA
ENDBRANCH  14  15
ENDBRANCH  13  14
ENDBRANCH  12  13
ENDBRANCH  11  12
ENDBRANCH  10  11
ENDBRANCH   9  10
ENDBRANCH   8   9
ENDBRANCH   7   8
ENDBRANCH   6   7
ENDBRANCH   5   6
ENDBRANCH   4   5
ENDBRANCH   3   4
ENDBRANCH   2   3
ENDBRANCH   1   2
BRANCH   1  18
ATOM     18  C   UNL     1      16.587  15.820  30.032  1.00  0.00     0.000 C 
BRANCH  18  19
ATOM     19  C   UNL     1      15.877  15.638  28.684  1.00  0.00     0.000 C 
BRANCH  19  20
ATOM     20  C   UNL     1      14.649  14.715  28.773  1.00  0.00     0.000 C 
BRANCH  20  21
ATOM     21  C   UNL     1      14.570  13.623  27.685  1.00  0.00     0.000 C 
BRANCH  21  22
ATOM     22  C   UNL     1      15.922  13.013  27.271  1.00  0.00     0.000 C 
BRANCH  22  23
ATOM     23  C   UNL     1      16.352  11.842  28.169  1.00  0.00     0.000 C 
BRANCH  23  24
ATOM     24  C   UNL     1      17.813  11.454  27.902  1.00  0.00    -0.000 C 
BRANCH  24  25
ATOM     25  C   UNL     1      18.794  12.132  28.874  1.00  0.00    -0.000 C 
BRANCH  25  26
ATOM     26  C   UNL     1      19.773  13.076  28.156  1.00  0.00    -0.000 C 
BRANCH  26  27
ATOM     27  C   UNL     1      19.392  14.559  28.315  1.00  0.00    -0.000 C 
BRANCH  27  28
ATOM     28  C   UNL     1      19.219  15.302  26.973  1.00  0.00    -0.000 C 
BRANCH  28  29
ATOM     29  C   UNL     1      19.144  14.337  25.779  1.00  0.00    -0.000 C 
BRANCH  29  30
ATOM     30  C   UNL     1      17.953  14.676  24.869  1.00  0.00    -0.000 C 
BRANCH  30  31
ATOM     31  C   UNL     1      17.239  15.971  25.287  1.00  0.00    -0.003 C 
ATOM     32  C   UNL     1      15.845  16.098  24.670  1.00  0.00     0.004 C 
ENDBRANCH  30  31
ENDBRANCH  29  30
ENDBRANCH  28  29
ENDBRANCH  27  28
ENDBRANCH  26  27
ENDBRANCH  25  26
ENDBRANCH  24  25
ENDBRANCH  23  24
ENDBRANCH  22  23
ENDBRANCH  21  22
ENDBRANCH  20  21
ENDBRANCH  19  20
ENDBRANCH  18  19
ENDBRANCH   1  18
TORSDOF 28
ENDMDL
MODEL 4
REMARK VINA RESULT:    -3.061      2.608      5.071
REMARK INTER + INTRA:         -14.842
REMARK INTER:                  -8.633
REMARK INTRA:                  -6.209
REMARK UNBOUND:                -6.769
REMARK SMILES CCCCCCCCCCCCCCCCCCCCCCCCCCCCCC(=O)[O-]
REMARK SMILES IDX 16 1 17 2 18 3 19 4 20 5 21 6 22 7 23 8 24 9 25 10 26 11
REMARK SMILES IDX 27 12 28 13 29 14 30 15 31 16 32 17 15 18 14 19 13 20 12 21
REMARK SMILES IDX 11 22 10 23 9 24 8 25 7 26 6 27 5 28 4 29 3 30 2 31 1 32
REMARK H PARENT
REMARK Flexibility Score: inf
ROOT
ATOM      1  C   UNL     1      15.837  15.924  26.671  1.00  0.00     0.000 C 
ENDROOT
BRANCH   1   2
ATOM      2  C   UNL     1      16.637  15.459  27.899  1.00  0.00     0.000 C 
BRANCH   2   3
ATOM      3  C   UNL     1      15.875  15.667  29.220  1.00  0.00     0.000 C 
BRANCH   3   4
ATOM      4  C   UNL     1      16.651  15.142  30.438  1.00  0.00     0.000 C 
BRANCH   4   5
ATOM      5  C   UNL     1      16.166  13.760  30.898  1.00  0.00     0.000 C 
BRANCH   5   6
ATOM      6  C   UNL     1      17.044  13.157  32.009  1.00  0.00     0.000 C 
BRANCH   6   7
ATOM      7  C   UNL     1      18.277  14.018  32.359  1.00  0.00     0.000 C 
BRANCH   7   8
ATOM      8  C   UNL     1      19.494  13.166  32.753  1.00  0.00     0.000 C 
BRANCH   8   9
ATOM      9  C   UNL     1      20.686  13.438  31.823  1.00  0.00     0.000 C 
BRANCH   9  10
ATOM     10  C   UNL     1      20.288  14.186  30.537  1.00  0.00     0.000 C 
BRANCH  10  11
ATOM     11  C   UNL     1      20.363  13.350  29.245  1.00  0.00     0.000 C 
BRANCH  11  12
ATOM     12  C   UNL     1      18.999  12.774  28.828  1.00  0.00     0.000 C 
BRANCH  12  13
ATOM     13  C   UNL     1      19.014  11.241  28.717  1.00  0.00     0.006 C 
BRANCH  13  14
ATOM     14  C   UNL     1      19.302  10.551  30.059  1.00  0.00     0.053 C 
BRANCH  14  15
ATOM     15  C   UNL     1      18.070   9.878  30.582  1.00  0.00     0.041 C 
ATOM     16  O   UNL     1      16.946  10.115  30.065  1.00  0.00    -0.550 OA
ATOM     17  O   UNL     1      18.162   8.998  31.654  1.00  0.00    -0.550 OA
ENDBRANCH  14  15
ENDBRANCH  13  14
ENDBRANCH  12  13
ENDBRANCH  11  12
ENDBRANCH  10  11
ENDBRANCH   9  10
ENDBRANCH   8   9
ENDBRANCH   7   8
ENDBRANCH   6   7
ENDBRANCH   5   6
ENDBRANCH   4   5
ENDBRANCH   3   4
ENDBRANCH   2   3
ENDBRANCH   1   2
BRANCH   1  18
ATOM     18  C   UNL     1      16.733  16.228  25.461  1.00  0.00     0.000 C 
BRANCH  18  19
ATOM     19  C   UNL     1      16.072  15.754  24.159  1.00  0.00     0.000 C 
BRANCH  19  20
ATOM     20  C   UNL     1      16.038  14.222  24.028  1.00  0.00     0.000 C 
BRANCH  20  21
ATOM     21  C   UNL     1      17.379  13.511  24.309  1.00  0.00     0.000 C 
BRANCH  21  22
ATOM     22  C   UNL     1      17.369  12.545  25.508  1.00  0.00     0.000 C 
BRANCH  22  23
ATOM     23  C   UNL     1      15.982  11.943  25.782  1.00  0.00     0.000 C 
BRANCH  23  24
ATOM     24  C   UNL     1      15.703  11.872  27.290  1.00  0.00    -0.000 C 
BRANCH  24  25
ATOM     25  C   UNL     1      14.406  12.597  27.688  1.00  0.00    -0.000 C 
BRANCH  25  26
ATOM     26  C   UNL     1      13.526  12.935  26.473  1.00  0.00    -0.000 C 
BRANCH  26  27
ATOM     27  C   UNL     1      12.104  13.367  26.871  1.00  0.00    -0.000 C 
BRANCH  27  28
ATOM     28  C   UNL     1      11.788  13.155  28.367  1.00  0.00    -0.000 C 
BRANCH  28  29
ATOM     29  C   UNL     1      11.554  14.482  29.106  1.00  0.00    -0.000 C 
BRANCH  29  30
ATOM     30  C   UNL     1      12.418  14.568  30.374  1.00  0.00    -0.000 C 
BRANCH  30  31
ATOM     31  C   UNL     1      12.640  13.197  31.032  1.00  0.00    -0.003 C 
ATOM     32  C   UNL     1      12.069  13.127  32.451  1.00  0.00     0.004 C 
ENDBRANCH  30  31
ENDBRANCH  29  30
ENDBRANCH  28  29
ENDBRANCH  27  28
ENDBRANCH  26  27
ENDBRANCH  25  26
ENDBRANCH  24  25
ENDBRANCH  23  24
ENDBRANCH  22  23
ENDBRANCH  21  22
ENDBRANCH  20  21
ENDBRANCH  19  20
ENDBRANCH  18  19
ENDBRANCH   1  18
TORSDOF 28
ENDMDL
MODEL 5
REMARK VINA RESULT:    -3.050      1.437      3.357
REMARK INTER + INTRA:         -14.810
REMARK INTER:                  -8.230
REMARK INTRA:                  -6.580
REMARK UNBOUND:                -6.769
REMARK SMILES CCCCCCCCCCCCCCCCCCCCCCCCCCCCCC(=O)[O-]
REMARK SMILES IDX 16 1 17 2 18 3 19 4 20 5 21 6 22 7 23 8 24 9 25 10 26 11
REMARK SMILES IDX 27 12 28 13 29 14 30 15 31 16 32 17 15 18 14 19 13 20 12 21
REMARK SMILES IDX 11 22 10 23 9 24 8 25 7 26 6 27 5 28 4 29 3 30 2 31 1 32
REMARK H PARENT
REMARK Flexibility Score: inf
ROOT
ATOM      1  C   UNL     1      17.733  14.596  30.545  1.00  0.00     0.000 C 
ENDROOT
BRANCH   1   2
ATOM      2  C   UNL     1      17.114  15.988  30.342  1.00  0.00     0.000 C 
BRANCH   2   3
ATOM      3  C   UNL     1      15.896  15.967  29.401  1.00  0.00     0.000 C 
BRANCH   3   4
ATOM      4  C   UNL     1      16.141  15.128  28.137  1.00  0.00     0.000 C 
BRANCH   4   5
ATOM      5  C   UNL     1      15.990  15.945  26.846  1.00  0.00     0.000 C 
BRANCH   5   6
ATOM      6  C   UNL     1      17.190  15.789  25.895  1.00  0.00     0.000 C 
BRANCH   6   7
ATOM      7  C   UNL     1      18.441  15.191  26.572  1.00  0.00     0.000 C 
BRANCH   7   8
ATOM      8  C   UNL     1      19.254  14.300  25.619  1.00  0.00     0.000 C 
BRANCH   8   9
ATOM      9  C   UNL     1      19.362  12.865  26.159  1.00  0.00     0.000 C 
BRANCH   9  10
ATOM     10  C   UNL     1      18.993  12.753  27.650  1.00  0.00     0.000 C 
BRANCH  10  11
ATOM     11  C   UNL     1      17.780  11.854  27.957  1.00  0.00     0.000 C 
BRANCH  11  12
ATOM     12  C   UNL     1      17.052  11.382  26.687  1.00  0.00     0.000 C 
BRANCH  12  13
ATOM     13  C   UNL     1      15.756  12.166  26.423  1.00  0.00     0.006 C 
BRANCH  13  14
ATOM     14  C   UNL     1      15.555  12.498  24.937  1.00  0.00     0.053 C 
BRANCH  14  15
ATOM     15  C   UNL     1      14.351  13.369  24.747  1.00  0.00     0.041 C 
ATOM     16  O   UNL     1      13.246  13.047  25.260  1.00  0.00    -0.550 OA
ATOM     17  O   UNL     1      14.445  14.529  23.989  1.00  0.00    -0.550 OA
ENDBRANCH  14  15
ENDBRANCH  13  14
ENDBRANCH  12  13
ENDBRANCH  11  12
ENDBRANCH  10  11
ENDBRANCH   9  10
ENDBRANCH   8   9
ENDBRANCH   7   8
ENDBRANCH   6   7
ENDBRANCH   5   6
ENDBRANCH   4   5
ENDBRANCH   3   4
ENDBRANCH   2   3
ENDBRANCH   1   2
BRANCH   1  18
ATOM     18  C   UNL     1      17.632  14.109  31.998  1.00  0.00     0.000 C 
BRANCH  18  19
ATOM     19  C   UNL     1      17.380  12.596  32.052  1.00  0.00     0.000 C 
BRANCH  19  20
ATOM     20  C   UNL     1      15.884  12.235  32.008  1.00  0.00     0.000 C 
BRANCH  20  21
ATOM     21  C   UNL     1      15.388  11.665  30.662  1.00  0.00     0.000 C 
BRANCH  21  22
ATOM     22  C   UNL     1      14.269  12.475  29.981  1.00  0.00     0.000 C 
BRANCH  22  23
ATOM     23  C   UNL     1      13.689  13.574  30.885  1.00  0.00     0.000 C 
BRANCH  23  24
ATOM     24  C   UNL     1      12.651  14.415  30.128  1.00  0.00    -0.000 C 
BRANCH  24  25
ATOM     25  C   UNL     1      12.622  14.106  28.621  1.00  0.00    -0.000 C 
BRANCH  25  26
ATOM     26  C   UNL     1      11.189  13.963  28.080  1.00  0.00    -0.000 C 
BRANCH  26  27
ATOM     27  C   UNL     1      10.236  15.038  28.631  1.00  0.00    -0.000 C 
BRANCH  27  28
ATOM     28  C   UNL     1       9.061  14.462  29.452  1.00  0.00    -0.000 C 
BRANCH  28  29
ATOM     29  C   UNL     1       9.188  12.945  29.664  1.00  0.00    -0.000 C 
BRANCH  29  30
ATOM     30  C   UNL     1       9.434  12.613  31.144  1.00  0.00    -0.000 C 
BRANCH  30  31
ATOM     31  C   UNL     1      10.576  11.604  31.342  1.00  0.00    -0.003 C 
ATOM     32  C   UNL     1      10.908  10.833  30.063  1.00  0.00     0.004 C 
ENDBRANCH  30  31
ENDBRANCH  29  30
ENDBRANCH  28  29
ENDBRANCH  27  28
ENDBRANCH  26  27
ENDBRANCH  25  26
ENDBRANCH  24  25
ENDBRANCH  23  24
ENDBRANCH  22  23
ENDBRANCH  21  22
ENDBRANCH  20  21
ENDBRANCH  19  20
ENDBRANCH  18  19
ENDBRANCH   1  18
TORSDOF 28
ENDMDL
MODEL 6
REMARK VINA RESULT:    -3.034      1.977      6.658
REMARK INTER + INTRA:         -14.768
REMARK INTER:                  -8.538
REMARK INTRA:                  -6.231
REMARK UNBOUND:                -6.769
REMARK SMILES CCCCCCCCCCCCCCCCCCCCCCCCCCCCCC(=O)[O-]
REMARK SMILES IDX 16 1 17 2 18 3 19 4 20 5 21 6 22 7 23 8 24 9 25 10 26 11
REMARK SMILES IDX 27 12 28 13 29 14 30 15 31 16 32 17 15 18 14 19 13 20 12 21
REMARK SMILES IDX 11 22 10 23 9 24 8 25 7 26 6 27 5 28 4 29 3 30 2 31 1 32
REMARK H PARENT
REMARK Flexibility Score: inf
ROOT
ATOM      1  C   UNL     1      15.498  15.619  27.306  1.00  0.00     0.000 C 
ENDROOT
BRANCH   1   2
ATOM      2  C   UNL     1      16.655  15.996  26.368  1.00  0.00     0.000 C 
BRANCH   2   3
ATOM      3  C   UNL     1      16.240  16.008  24.886  1.00  0.00     0.000 C 
BRANCH   3   4
ATOM      4  C   UNL     1      16.876  14.861  24.086  1.00  0.00     0.000 C 
BRANCH   4   5
ATOM      5  C   UNL     1      16.046  13.570  24.140  1.00  0.00     0.000 C 
BRANCH   5   6
ATOM      6  C   UNL     1      14.531  13.835  24.208  1.00  0.00     0.000 C 
BRANCH   6   7
ATOM      7  C   UNL     1      13.818  13.063  25.338  1.00  0.00     0.000 C 
BRANCH   7   8
ATOM      8  C   UNL     1      14.415  11.664  25.559  1.00  0.00     0.000 C 
BRANCH   8   9
ATOM      9  C   UNL     1      14.467  11.313  27.054  1.00  0.00     0.000 C 
BRANCH   9  10
ATOM     10  C   UNL     1      13.625  12.262  27.926  1.00  0.00     0.000 C 
BRANCH  10  11
ATOM     11  C   UNL     1      13.821  12.101  29.445  1.00  0.00     0.000 C 
BRANCH  11  12
ATOM     12  C   UNL     1      12.678  12.725  30.263  1.00  0.00     0.000 C 
BRANCH  12  13
ATOM     13  C   UNL     1      12.845  14.242  30.449  1.00  0.00     0.006 C 
BRANCH  13  14
ATOM     14  C   UNL     1      11.503  14.987  30.494  1.00  0.00     0.053 C 
BRANCH  14  15
ATOM     15  C   UNL     1      10.532  14.386  29.524  1.00  0.00     0.041 C 
ATOM     16  O   UNL     1       9.525  13.753  29.942  1.00  0.00    -0.550 OA
ATOM     17  O   UNL     1      10.746  14.511  28.157  1.00  0.00    -0.550 OA
ENDBRANCH  14  15
ENDBRANCH  13  14
ENDBRANCH  12  13
ENDBRANCH  11  12
ENDBRANCH  10  11
ENDBRANCH   9  10
ENDBRANCH   8   9
ENDBRANCH   7   8
ENDBRANCH   6   7
ENDBRANCH   5   6
ENDBRANCH   4   5
ENDBRANCH   3   4
ENDBRANCH   2   3
ENDBRANCH   1   2
BRANCH   1  18
ATOM     18  C   UNL     1      15.978  14.919  28.587  1.00  0.00     0.000 C 
BRANCH  18  19
ATOM     19  C   UNL     1      16.344  15.947  29.666  1.00  0.00     0.000 C 
BRANCH  19  20
ATOM     20  C   UNL     1      17.020  15.312  30.894  1.00  0.00     0.000 C 
BRANCH  20  21
ATOM     21  C   UNL     1      16.601  13.856  31.191  1.00  0.00     0.000 C 
BRANCH  21  22
ATOM     22  C   UNL     1      17.486  13.116  32.211  1.00  0.00     0.000 C 
BRANCH  22  23
ATOM     23  C   UNL     1      18.770  13.884  32.560  1.00  0.00     0.000 C 
BRANCH  23  24
ATOM     24  C   UNL     1      19.979  13.301  31.813  1.00  0.00    -0.000 C 
BRANCH  24  25
ATOM     25  C   UNL     1      20.415  14.170  30.622  1.00  0.00    -0.000 C 
BRANCH  25  26
ATOM     26  C   UNL     1      20.274  13.436  29.278  1.00  0.00    -0.000 C 
BRANCH  26  27
ATOM     27  C   UNL     1      19.568  14.287  28.208  1.00  0.00    -0.000 C 
BRANCH  27  28
ATOM     28  C   UNL     1      19.196  13.498  26.934  1.00  0.00    -0.000 C 
BRANCH  28  29
ATOM     29  C   UNL     1      17.991  12.570  27.156  1.00  0.00    -0.000 C 
BRANCH  29  30
ATOM     30  C   UNL     1      18.354  11.110  26.841  1.00  0.00    -0.000 C 
BRANCH  30  31
ATOM     31  C   UNL     1      18.004  10.153  27.991  1.00  0.00    -0.003 C 
ATOM     32  C   UNL     1      17.486  10.886  29.230  1.00  0.00     0.004 C 
ENDBRANCH  30  31
ENDBRANCH  29  30
ENDBRANCH  28  29
ENDBRANCH  27  28
ENDBRANCH  26  27
ENDBRANCH  25  26
ENDBRANCH  24  25
ENDBRANCH  23  24
ENDBRANCH  22  23
ENDBRANCH  21  22
ENDBRANCH  20  21
ENDBRANCH  19  20
ENDBRANCH  18  19
ENDBRANCH   1  18
TORSDOF 28
ENDMDL
MODEL 7
REMARK VINA RESULT:    -3.033      2.681      7.016
REMARK INTER + INTRA:         -14.766
REMARK INTER:                  -9.691
REMARK INTRA:                  -5.076
REMARK UNBOUND:                -6.769
REMARK SMILES CCCCCCCCCCCCCCCCCCCCCCCCCCCCCC(=O)[O-]
REMARK SMILES IDX 16 1 17 2 18 3 19 4 20 5 21 6 22 7 23 8 24 9 25 10 26 11
REMARK SMILES IDX 27 12 28 13 29 14 30 15 31 16 32 17 15 18 14 19 13 20 12 21
REMARK SMILES IDX 11 22 10 23 9 24 8 25 7 26 6 27 5 28 4 29 3 30 2 31 1 32
REMARK H PARENT
REMARK Flexibility Score: inf
ROOT
ATOM      1  C   UNL     1      16.049  11.985  28.704  1.00  0.00     0.000 C 
ENDROOT
BRANCH   1   2
ATOM      2  C   UNL     1      14.745  11.824  29.502  1.00  0.00     0.000 C 
BRANCH   2   3
ATOM      3  C   UNL     1      14.948  12.007  31.017  1.00  0.00     0.000 C 
BRANCH   3   4
ATOM      4  C   UNL     1      13.802  12.791  31.675  1.00  0.00     0.000 C 
BRANCH   4   5
ATOM      5  C   UNL     1      12.611  13.004  30.729  1.00  0.00     0.000 C 
BRANCH   5   6
ATOM      6  C   UNL     1      12.330  14.491  30.448  1.00  0.00     0.000 C 
BRANCH   6   7
ATOM      7  C   UNL     1      10.905  14.936  30.842  1.00  0.00     0.000 C 
BRANCH   7   8
ATOM      8  C   UNL     1       9.888  14.715  29.711  1.00  0.00     0.000 C 
BRANCH   8   9
ATOM      9  C   UNL     1      10.540  14.913  28.333  1.00  0.00     0.000 C 
BRANCH   9  10
ATOM     10  C   UNL     1      10.160  13.813  27.324  1.00  0.00     0.000 C 
BRANCH  10  11
ATOM     11  C   UNL     1       8.902  14.104  26.483  1.00  0.00     0.000 C 
BRANCH  11  12
ATOM     12  C   UNL     1       9.224  14.359  25.001  1.00  0.00     0.000 C 
BRANCH  12  13
ATOM     13  C   UNL     1       9.048  15.833  24.603  1.00  0.00     0.006 C 
BRANCH  13  14
ATOM     14  C   UNL     1       7.758  16.450  25.163  1.00  0.00     0.053 C 
BRANCH  14  15
ATOM     15  C   UNL     1       8.049  17.742  25.863  1.00  0.00     0.041 C 
ATOM     16  O   UNL     1       8.773  17.759  26.894  1.00  0.00    -0.550 OA
ATOM     17  O   UNL     1       7.506  18.929  25.385  1.00  0.00    -0.550 OA
ENDBRANCH  14  15
ENDBRANCH  13  14
ENDBRANCH  12  13
ENDBRANCH  11  12
ENDBRANCH  10  11
ENDBRANCH   9  10
ENDBRANCH   8   9
ENDBRANCH   7   8
ENDBRANCH   6   7
ENDBRANCH   5   6
ENDBRANCH   4   5
ENDBRANCH   3   4
ENDBRANCH   2   3
ENDBRANCH   1   2
BRANCH   1  18
ATOM     18  C   UNL     1      15.878  12.879  27.466  1.00  0.00     0.000 C 
BRANCH  18  19
ATOM     19  C   UNL     1      14.870  14.004  27.739  1.00  0.00     0.000 C 
BRANCH  19  20
ATOM     20  C   UNL     1      15.542  15.322  28.159  1.00  0.00     0.000 C 
BRANCH  20  21
ATOM     21  C   UNL     1      15.559  15.592  29.679  1.00  0.00     0.000 C 
BRANCH  21  22
ATOM     22  C   UNL     1      16.956  15.811  30.289  1.00  0.00     0.000 C 
BRANCH  22  23
ATOM     23  C   UNL     1      17.386  14.673  31.227  1.00  0.00     0.000 C 
BRANCH  23  24
ATOM     24  C   UNL     1      18.633  13.958  30.687  1.00  0.00    -0.000 C 
BRANCH  24  25
ATOM     25  C   UNL     1      19.231  14.658  29.456  1.00  0.00    -0.000 C 
BRANCH  25  26
ATOM     26  C   UNL     1      19.980  13.682  28.532  1.00  0.00    -0.000 C 
BRANCH  26  27
ATOM     27  C   UNL     1      19.657  13.905  27.044  1.00  0.00    -0.000 C 
BRANCH  27  28
ATOM     28  C   UNL     1      18.844  15.190  26.773  1.00  0.00    -0.000 C 
BRANCH  28  29
ATOM     29  C   UNL     1      18.026  15.097  25.474  1.00  0.00    -0.000 C 
BRANCH  29  30
ATOM     30  C   UNL     1      17.182  16.363  25.263  1.00  0.00    -0.000 C 
BRANCH  30  31
ATOM     31  C   UNL     1      15.847  16.074  24.558  1.00  0.00    -0.003 C 
ATOM     32  C   UNL     1      15.856  14.741  23.806  1.00  0.00     0.004 C 
ENDBRANCH  30  31
ENDBRANCH  29  30
ENDBRANCH  28  29
ENDBRANCH  27  28
ENDBRANCH  26  27
ENDBRANCH  25  26
ENDBRANCH  24  25
ENDBRANCH  23  24
ENDBRANCH  22  23
ENDBRANCH  21  22
ENDBRANCH  20  21
ENDBRANCH  19  20
ENDBRANCH  18  19
ENDBRANCH   1  18
TORSDOF 28
ENDMDL
MODEL 8
REMARK VINA RESULT:    -3.002      1.412      4.398
REMARK INTER + INTRA:         -14.685
REMARK INTER:                  -8.862
REMARK INTRA:                  -5.823
REMARK UNBOUND:                -6.769
REMARK SMILES CCCCCCCCCCCCCCCCCCCCCCCCCCCCCC(=O)[O-]
REMARK SMILES IDX 16 1 17 2 18 3 19 4 20 5 21 6 22 7 23 8 24 9 25 10 26 11
REMARK SMILES IDX 27 12 28 13 29 14 30 15 31 16 32 17 15 18 14 19 13 20 12 21
REMARK SMILES IDX 11 22 10 23 9 24 8 25 7 26 6 27 5 28 4 29 3 30 2 31 1 32
REMARK H PARENT
REMARK Flexibility Score: inf
ROOT
ATOM      1  C   UNL     1      12.742  14.026  28.687  1.00  0.00     0.000 C 
ENDROOT
BRANCH   1   2
ATOM      2  C   UNL     1      13.789  14.347  29.765  1.00  0.00     0.000 C 
BRANCH   2   3
ATOM      3  C   UNL     1      15.223  14.390  29.208  1.00  0.00     0.000 C 
BRANCH   3   4
ATOM      4  C   UNL     1      15.905  15.748  29.437  1.00  0.00     0.000 C 
BRANCH   4   5
ATOM      5  C   UNL     1      16.957  15.701  30.554  1.00  0.00     0.000 C 
BRANCH   5   6
ATOM      6  C   UNL     1      17.072  14.313  31.210  1.00  0.00     0.000 C 
BRANCH   6   7
ATOM      7  C   UNL     1      18.396  14.096  31.972  1.00  0.00     0.000 C 
BRANCH   7   8
ATOM      8  C   UNL     1      19.389  13.226  31.186  1.00  0.00     0.000 C 
BRANCH   8   9
ATOM      9  C   UNL     1      20.245  14.081  30.237  1.00  0.00     0.000 C 
BRANCH   9  10
ATOM     10  C   UNL     1      19.942  13.817  28.750  1.00  0.00     0.000 C 
BRANCH  10  11
ATOM     11  C   UNL     1      19.271  14.985  28.003  1.00  0.00     0.000 C 
BRANCH  11  12
ATOM     12  C   UNL     1      18.317  14.513  26.893  1.00  0.00     0.000 C 
BRANCH  12  13
ATOM     13  C   UNL     1      17.982  15.626  25.888  1.00  0.00     0.006 C 
BRANCH  13  14
ATOM     14  C   UNL     1      16.506  16.045  25.935  1.00  0.00     0.053 C 
BRANCH  14  15
ATOM     15  C   UNL     1      15.666  15.118  25.109  1.00  0.00     0.041 C 
ATOM     16  O   UNL     1      15.002  14.200  25.660  1.00  0.00    -0.550 OA
ATOM     17  O   UNL     1      15.630  15.258  23.727  1.00  0.00    -0.550 OA
ENDBRANCH  14  15
ENDBRANCH  13  14
ENDBRANCH  12  13
ENDBRANCH  11  12
ENDBRANCH  10  11
ENDBRANCH   9  10
ENDBRANCH   8   9
ENDBRANCH   7   8
ENDBRANCH   6   7
ENDBRANCH   5   6
ENDBRANCH   4   5
ENDBRANCH   3   4
ENDBRANCH   2   3
ENDBRANCH   1   2
BRANCH   1  18
ATOM     18  C   UNL     1      11.336  14.517  29.063  1.00  0.00     0.000 C 
BRANCH  18  19
ATOM     19  C   UNL     1      11.351  15.231  30.422  1.00  0.00     0.000 C 
BRANCH  19  20
ATOM     20  C   UNL     1      10.526  14.497  31.494  1.00  0.00     0.000 C 
BRANCH  20  21
ATOM     21  C   UNL     1      11.314  14.079  32.754  1.00  0.00     0.000 C 
BRANCH  21  22
ATOM     22  C   UNL     1      11.568  12.567  32.895  1.00  0.00     0.000 C 
BRANCH  22  23
ATOM     23  C   UNL     1      13.057  12.198  32.803  1.00  0.00     0.000 C 
BRANCH  23  24
ATOM     24  C   UNL     1      13.309  11.222  31.645  1.00  0.00    -0.000 C 
BRANCH  24  25
ATOM     25  C   UNL     1      12.053  10.977  30.791  1.00  0.00    -0.000 C 
BRANCH  25  26
ATOM     26  C   UNL     1      12.387  10.368  29.419  1.00  0.00    -0.000 C 
BRANCH  26  27
ATOM     27  C   UNL     1      13.840  10.635  28.988  1.00  0.00    -0.000 C 
BRANCH  27  28
ATOM     28  C   UNL     1      14.701   9.357  28.885  1.00  0.00    -0.000 C 
BRANCH  28  29
ATOM     29  C   UNL     1      16.007   9.468  29.687  1.00  0.00    -0.000 C 
BRANCH  29  30
ATOM     30  C   UNL     1      16.457  10.933  29.808  1.00  0.00    -0.000 C 
BRANCH  30  31
ATOM     31  C   UNL     1      17.354  11.375  28.642  1.00  0.00    -0.003 C 
ATOM     32  C   UNL     1      18.473  10.374  28.348  1.00  0.00     0.004 C 
ENDBRANCH  30  31
ENDBRANCH  29  30
ENDBRANCH  28  29
ENDBRANCH  27  28
ENDBRANCH  26  27
ENDBRANCH  25  26
ENDBRANCH  24  25
ENDBRANCH  23  24
ENDBRANCH  22  23
ENDBRANCH  21  22
ENDBRANCH  20  21
ENDBRANCH  19  20
ENDBRANCH  18  19
ENDBRANCH   1  18
TORSDOF 28
ENDMDL
MODEL 9
REMARK VINA RESULT:    -2.968      2.792      6.259
REMARK INTER + INTRA:         -14.595
REMARK INTER:                  -8.775
REMARK INTRA:                  -5.821
REMARK UNBOUND:                -6.769
REMARK SMILES CCCCCCCCCCCCCCCCCCCCCCCCCCCCCC(=O)[O-]
REMARK SMILES IDX 16 1 17 2 18 3 19 4 20 5 21 6 22 7 23 8 24 9 25 10 26 11
REMARK SMILES IDX 27 12 28 13 29 14 30 15 31 16 32 17 15 18 14 19 13 20 12 21
REMARK SMILES IDX 11 22 10 23 9 24 8 25 7 26 6 27 5 28 4 29 3 30 2 31 1 32
REMARK H PARENT
REMARK Flexibility Score: inf
ROOT
ATOM      1  C   UNL     1      17.801  14.889  27.396  1.00  0.00     0.000 C 
ENDROOT
BRANCH   1   2
ATOM      2  C   UNL     1      16.457  15.629  27.308  1.00  0.00     0.000 C 
BRANCH   2   3
ATOM      3  C   UNL     1      16.081  16.010  25.865  1.00  0.00     0.000 C 
BRANCH   3   4
ATOM      4  C   UNL     1      16.160  14.817  24.899  1.00  0.00     0.000 C 
BRANCH   4   5
ATOM      5  C   UNL     1      14.882  14.645  24.066  1.00  0.00     0.000 C 
BRANCH   5   6
ATOM      6  C   UNL     1      14.772  13.253  23.419  1.00  0.00     0.000 C 
BRANCH   6   7
ATOM      7  C   UNL     1      13.328  12.712  23.356  1.00  0.00     0.000 C 
BRANCH   7   8
ATOM      8  C   UNL     1      12.284  13.791  23.688  1.00  0.00     0.000 C 
BRANCH   8   9
ATOM      9  C   UNL     1      10.964  13.159  24.158  1.00  0.00     0.000 C 
BRANCH   9  10
ATOM     10  C   UNL     1      10.109  14.115  25.011  1.00  0.00     0.000 C 
BRANCH  10  11
ATOM     11  C   UNL     1      10.026  13.756  26.507  1.00  0.00     0.000 C 
BRANCH  11  12
ATOM     12  C   UNL     1       9.500  14.917  27.369  1.00  0.00     0.000 C 
BRANCH  12  13
ATOM     13  C   UNL     1       8.507  15.812  26.611  1.00  0.00     0.006 C 
BRANCH  13  14
ATOM     14  C   UNL     1       8.429  17.233  27.187  1.00  0.00     0.053 C 
BRANCH  14  15
ATOM     15  C   UNL     1       8.329  18.246  26.088  1.00  0.00     0.041 C 
ATOM     16  O   UNL     1       8.783  17.987  24.941  1.00  0.00    -0.550 OA
ATOM     17  O   UNL     1       7.750  19.484  26.334  1.00  0.00    -0.550 OA
ENDBRANCH  14  15
ENDBRANCH  13  14
ENDBRANCH  12  13
ENDBRANCH  11  12
ENDBRANCH  10  11
ENDBRANCH   9  10
ENDBRANCH   8   9
ENDBRANCH   7   8
ENDBRANCH   6   7
ENDBRANCH   5   6
ENDBRANCH   4   5
ENDBRANCH   3   4
ENDBRANCH   2   3
ENDBRANCH   1   2
BRANCH   1  18
ATOM     18  C   UNL     1      18.194  14.545  28.841  1.00  0.00     0.000 C 
BRANCH  18  19
ATOM     19  C   UNL     1      17.452  15.446  29.838  1.00  0.00     0.000 C 
BRANCH  19  20
ATOM     20  C   UNL     1      17.372  14.839  31.250  1.00  0.00     0.000 C 
BRANCH  20  21
ATOM     21  C   UNL     1      17.282  13.299  31.295  1.00  0.00     0.000 C 
BRANCH  21  22
ATOM     22  C   UNL     1      15.878  12.733  31.576  1.00  0.00     0.000 C 
BRANCH  22  23
ATOM     23  C   UNL     1      14.766  13.493  30.837  1.00  0.00     0.000 C 
BRANCH  23  24
ATOM     24  C   UNL     1      13.446  12.708  30.876  1.00  0.00    -0.000 C 
BRANCH  24  25
ATOM     25  C   UNL     1      12.601  12.906  29.606  1.00  0.00    -0.000 C 
BRANCH  25  26
ATOM     26  C   UNL     1      13.148  14.026  28.706  1.00  0.00    -0.000 C 
BRANCH  26  27
ATOM     27  C   UNL     1      13.568  13.519  27.315  1.00  0.00    -0.000 C 
BRANCH  27  28
ATOM     28  C   UNL     1      13.131  12.066  27.027  1.00  0.00    -0.000 C 
BRANCH  28  29
ATOM     29  C   UNL     1      14.328  11.146  26.736  1.00  0.00    -0.000 C 
BRANCH  29  30
ATOM     30  C   UNL     1      15.657  11.880  26.968  1.00  0.00    -0.000 C 
BRANCH  30  31
ATOM     31  C   UNL     1      16.423  11.347  28.189  1.00  0.00    -0.003 C 
ATOM     32  C   UNL     1      15.703  10.182  28.872  1.00  0.00     0.004 C 
ENDBRANCH  30  31
ENDBRANCH  29  30
ENDBRANCH  28  29
ENDBRANCH  27  28
ENDBRANCH  26  27
ENDBRANCH  25  26
ENDBRANCH  24  25
ENDBRANCH  23  24
ENDBRANCH  22  23
ENDBRANCH  21  22
ENDBRANCH  20  21
ENDBRANCH  19  20
ENDBRANCH  18  19
ENDBRANCH   1  18
TORSDOF 28
ENDMDL
