MODEL 1
REMARK VINA RESULT:    -4.452      0.000      0.000
REMARK INTER + INTRA:         -13.355
REMARK INTER:                 -10.177
REMARK INTRA:                  -3.178
REMARK UNBOUND:                -3.178
REMARK SMILES CCCCCCCCCCCCCCCCCCCCCCCC(=O)[O-]
REMARK SMILES IDX 13 1 14 2 15 3 16 4 17 5 18 6 19 7 20 8 21 9 22 10 23 11
REMARK SMILES IDX 24 12 25 13 26 14 12 15 11 16 10 17 9 18 8 19 7 20 6 21 5 22
REMARK SMILES IDX 4 23 3 24 2 25 1 26
REMARK H PARENT
REMARK Flexibility Score: inf
ROOT
ATOM      1  C   UNL     1      40.828  20.689   8.391  1.00  0.00     0.000 C 
ENDROOT
BRANCH   1   2
ATOM      2  C   UNL     1      42.170  20.018   8.036  1.00  0.00     0.000 C 
BRANCH   2   3
ATOM      3  C   UNL     1      42.769  20.431   6.681  1.00  0.00     0.000 C 
BRANCH   3   4
ATOM      4  C   UNL     1      44.197  20.985   6.800  1.00  0.00     0.000 C 
BRANCH   4   5
ATOM      5  C   UNL     1      44.238  22.479   6.452  1.00  0.00     0.000 C 
BRANCH   5   6
ATOM      6  C   UNL     1      44.949  22.766   5.117  1.00  0.00     0.000 C 
BRANCH   6   7
ATOM      7  C   UNL     1      45.217  21.523   4.245  1.00  0.00     0.000 C 
BRANCH   7   8
ATOM      8  C   UNL     1      46.486  21.603   3.372  1.00  0.00     0.000 C 
BRANCH   8   9
ATOM      9  C   UNL     1      47.268  22.926   3.478  1.00  0.00     0.000 C 
BRANCH   9  10
ATOM     10  C   UNL     1      48.585  22.841   4.270  1.00  0.00     0.006 C 
BRANCH  10  11
ATOM     11  C   UNL     1      48.818  21.457   4.890  1.00  0.00     0.053 C 
BRANCH  11  12
ATOM     12  C   UNL     1      48.382  21.444   6.322  1.00  0.00     0.041 C 
ATOM     13  O   UNL     1      47.650  20.514   6.751  1.00  0.00    -0.550 OA
ATOM     14  O   UNL     1      48.818  22.435   7.192  1.00  0.00    -0.550 OA
ENDBRANCH  11  12
ENDBRANCH  10  11
ENDBRANCH   9  10
ENDBRANCH   8   9
ENDBRANCH   7   8
ENDBRANCH   6   7
ENDBRANCH   5   6
ENDBRANCH   4   5
ENDBRANCH   3   4
ENDBRANCH   2   3
ENDBRANCH   1   2
BRANCH   1  15
ATOM     15  C   UNL     1      40.859  21.609   9.625  1.00  0.00     0.000 C 
BRANCH  15  16
ATOM     16  C   UNL     1      42.183  22.378   9.768  1.00  0.00     0.000 C 
BRANCH  16  17
ATOM     17  C   UNL     1      42.740  22.358  11.205  1.00  0.00     0.000 C 
BRANCH  17  18
ATOM     18  C   UNL     1      43.506  21.083  11.603  1.00  0.00    -0.000 C 
BRANCH  18  19
ATOM     19  C   UNL     1      43.351  20.727  13.092  1.00  0.00    -0.000 C 
BRANCH  19  20
ATOM     20  C   UNL     1      41.940  21.021  13.626  1.00  0.00    -0.000 C 
BRANCH  20  21
ATOM     21  C   UNL     1      41.075  19.755  13.754  1.00  0.00    -0.000 C 
BRANCH  21  22
ATOM     22  C   UNL     1      40.597  19.224  12.393  1.00  0.00    -0.000 C 
BRANCH  22  23
ATOM     23  C   UNL     1      41.138  17.817  12.085  1.00  0.00    -0.000 C 
BRANCH  23  24
ATOM     24  C   UNL     1      42.305  17.839  11.086  1.00  0.00    -0.000 C 
BRANCH  24  25
ATOM     25  C   UNL     1      43.482  16.956  11.524  1.00  0.00    -0.003 C 
ATOM     26  C   UNL     1      43.778  17.135  13.010  1.00  0.00     0.004 C 
ENDBRANCH  24  25
ENDBRANCH  23  24
ENDBRANCH  22  23
ENDBRANCH  21  22
ENDBRANCH  20  21
ENDBRANCH  19  20
ENDBRANCH  18  19
ENDBRANCH  17  18
ENDBRANCH  16  17
ENDBRANCH  15  16
ENDBRANCH   1  15
TORSDOF 22
ENDMDL
MODEL 2
REMARK VINA RESULT:    -4.411      2.754      7.929
REMARK INTER + INTRA:         -13.262
REMARK INTER:                  -9.897
REMARK INTRA:                  -3.365
REMARK UNBOUND:                -3.178
REMARK SMILES CCCCCCCCCCCCCCCCCCCCCCCC(=O)[O-]
REMARK SMILES IDX 13 1 14 2 15 3 16 4 17 5 18 6 19 7 20 8 21 9 22 10 23 11
REMARK SMILES IDX 24 12 25 13 26 14 12 15 11 16 10 17 9 18 8 19 7 20 6 21 5 22
REMARK SMILES IDX 4 23 3 24 2 25 1 26
REMARK H PARENT
REMARK Flexibility Score: inf
ROOT
ATOM      1  C   UNL     1      41.743  19.553   8.902  1.00  0.00     0.000 C 
ENDROOT
BRANCH   1   2
ATOM      2  C   UNL     1      40.992  18.473   9.706  1.00  0.00     0.000 C 
BRANCH   2   3
ATOM      3  C   UNL     1      39.518  18.791  10.010  1.00  0.00     0.000 C 
BRANCH   3   4
ATOM      4  C   UNL     1      39.251  19.027  11.504  1.00  0.00     0.000 C 
BRANCH   4   5
ATOM      5  C   UNL     1      40.435  18.550  12.357  1.00  0.00     0.000 C 
BRANCH   5   6
ATOM      6  C   UNL     1      40.958  19.633  13.317  1.00  0.00     0.000 C 
BRANCH   6   7
ATOM      7  C   UNL     1      42.249  20.340  12.857  1.00  0.00     0.000 C 
BRANCH   7   8
ATOM      8  C   UNL     1      43.552  19.574  13.157  1.00  0.00     0.000 C 
BRANCH   8   9
ATOM      9  C   UNL     1      44.125  18.772  11.973  1.00  0.00     0.000 C 
BRANCH   9  10
ATOM     10  C   UNL     1      43.738  17.283  11.949  1.00  0.00     0.006 C 
BRANCH  10  11
ATOM     11  C   UNL     1      44.593  16.430  12.895  1.00  0.00     0.053 C 
BRANCH  11  12
ATOM     12  C   UNL     1      44.776  15.052  12.339  1.00  0.00     0.041 C 
ATOM     13  O   UNL     1      43.773  14.351  12.044  1.00  0.00    -0.550 OA
ATOM     14  O   UNL     1      46.054  14.559  12.107  1.00  0.00    -0.550 OA
ENDBRANCH  11  12
ENDBRANCH  10  11
ENDBRANCH   9  10
ENDBRANCH   8   9
ENDBRANCH   7   8
ENDBRANCH   6   7
ENDBRANCH   5   6
ENDBRANCH   4   5
ENDBRANCH   3   4
ENDBRANCH   2   3
ENDBRANCH   1   2
BRANCH   1  15
ATOM     15  C   UNL     1      41.009  20.898   8.762  1.00  0.00     0.000 C 
BRANCH  15  16
ATOM     16  C   UNL     1      41.567  21.988   9.692  1.00  0.00     0.000 C 
BRANCH  16  17
ATOM     17  C   UNL     1      43.098  22.139   9.592  1.00  0.00     0.000 C 
BRANCH  17  18
ATOM     18  C   UNL     1      43.612  22.883   8.346  1.00  0.00    -0.000 C 
BRANCH  18  19
ATOM     19  C   UNL     1      44.474  21.998   7.429  1.00  0.00    -0.000 C 
BRANCH  19  20
ATOM     20  C   UNL     1      43.865  21.833   6.028  1.00  0.00    -0.000 C 
BRANCH  20  21
ATOM     21  C   UNL     1      44.119  20.438   5.428  1.00  0.00    -0.000 C 
BRANCH  21  22
ATOM     22  C   UNL     1      44.986  20.488   4.159  1.00  0.00    -0.000 C 
BRANCH  22  23
ATOM     23  C   UNL     1      45.835  21.769   4.075  1.00  0.00    -0.000 C 
BRANCH  23  24
ATOM     24  C   UNL     1      47.330  21.502   4.304  1.00  0.00    -0.000 C 
BRANCH  24  25
ATOM     25  C   UNL     1      47.790  21.860   5.724  1.00  0.00    -0.003 C 
ATOM     26  C   UNL     1      47.833  20.621   6.614  1.00  0.00     0.004 C 
ENDBRANCH  24  25
ENDBRANCH  23  24
ENDBRANCH  22  23
ENDBRANCH  21  22
ENDBRANCH  20  21
ENDBRANCH  19  20
ENDBRANCH  18  19
ENDBRANCH  17  18
ENDBRANCH  16  17
ENDBRANCH  15  16
ENDBRANCH   1  15
TORSDOF 22
ENDMDL
MODEL 3
REMARK VINA RESULT:    -4.377      3.340      8.356
REMARK INTER + INTRA:         -13.185
REMARK INTER:                 -10.887
REMARK INTRA:                  -2.297
REMARK UNBOUND:                -3.178
REMARK SMILES CCCCCCCCCCCCCCCCCCCCCCCC(=O)[O-]
REMARK SMILES IDX 13 1 14 2 15 3 16 4 17 5 18 6 19 7 20 8 21 9 22 10 23 11
REMARK SMILES IDX 24 12 25 13 26 14 12 15 11 16 10 17 9 18 8 19 7 20 6 21 5 22
REMARK SMILES IDX 4 23 3 24 2 25 1 26
REMARK H PARENT
REMARK Flexibility Score: inf
ROOT
ATOM      1  C   UNL     1      39.176  20.382  10.440  1.00  0.00     0.000 C 
ENDROOT
BRANCH   1   2
ATOM      2  C   UNL     1      38.730  18.921  10.235  1.00  0.00     0.000 C 
BRANCH   2   3
ATOM      3  C   UNL     1      39.484  17.882  11.082  1.00  0.00     0.000 C 
BRANCH   3   4
ATOM      4  C   UNL     1      40.997  17.878  10.820  1.00  0.00     0.000 C 
BRANCH   4   5
ATOM      5  C   UNL     1      41.776  17.543  12.099  1.00  0.00     0.000 C 
BRANCH   5   6
ATOM      6  C   UNL     1      43.266  17.256  11.838  1.00  0.00     0.000 C 
BRANCH   6   7
ATOM      7  C   UNL     1      44.232  18.359  12.311  1.00  0.00     0.000 C 
BRANCH   7   8
ATOM      8  C   UNL     1      43.748  19.801  12.059  1.00  0.00     0.000 C 
BRANCH   8   9
ATOM      9  C   UNL     1      43.690  20.698  13.310  1.00  0.00     0.000 C 
BRANCH   9  10
ATOM     10  C   UNL     1      42.434  21.581  13.418  1.00  0.00     0.006 C 
BRANCH  10  11
ATOM     11  C   UNL     1      41.809  21.558  14.819  1.00  0.00     0.053 C 
BRANCH  11  12
ATOM     12  C   UNL     1      40.763  20.490  14.910  1.00  0.00     0.041 C 
ATOM     13  O   UNL     1      40.573  19.708  13.942  1.00  0.00    -0.550 OA
ATOM     14  O   UNL     1      40.027  20.334  16.077  1.00  0.00    -0.550 OA
ENDBRANCH  11  12
ENDBRANCH  10  11
ENDBRANCH   9  10
ENDBRANCH   8   9
ENDBRANCH   7   8
ENDBRANCH   6   7
ENDBRANCH   5   6
ENDBRANCH   4   5
ENDBRANCH   3   4
ENDBRANCH   2   3
ENDBRANCH   1   2
BRANCH   1  15
ATOM     15  C   UNL     1      39.979  20.994   9.279  1.00  0.00     0.000 C 
BRANCH  15  16
ATOM     16  C   UNL     1      41.351  21.534   9.716  1.00  0.00     0.000 C 
BRANCH  16  17
ATOM     17  C   UNL     1      42.487  21.151   8.748  1.00  0.00     0.000 C 
BRANCH  17  18
ATOM     18  C   UNL     1      43.495  22.270   8.431  1.00  0.00    -0.000 C 
BRANCH  18  19
ATOM     19  C   UNL     1      44.244  22.048   7.105  1.00  0.00    -0.000 C 
BRANCH  19  20
ATOM     20  C   UNL     1      43.676  20.871   6.296  1.00  0.00    -0.000 C 
BRANCH  20  21
ATOM     21  C   UNL     1      44.504  20.557   5.037  1.00  0.00    -0.000 C 
BRANCH  21  22
ATOM     22  C   UNL     1      45.207  21.800   4.466  1.00  0.00    -0.000 C 
BRANCH  22  23
ATOM     23  C   UNL     1      46.670  21.524   4.077  1.00  0.00    -0.000 C 
BRANCH  23  24
ATOM     24  C   UNL     1      47.671  22.224   5.009  1.00  0.00    -0.000 C 
BRANCH  24  25
ATOM     25  C   UNL     1      48.607  21.240   5.725  1.00  0.00    -0.003 C 
ATOM     26  C   UNL     1      47.859  20.455   6.798  1.00  0.00     0.004 C 
ENDBRANCH  24  25
ENDBRANCH  23  24
ENDBRANCH  22  23
ENDBRANCH  21  22
ENDBRANCH  20  21
ENDBRANCH  19  20
ENDBRANCH  18  19
ENDBRANCH  17  18
ENDBRANCH  16  17
ENDBRANCH  15  16
ENDBRANCH   1  15
TORSDOF 22
ENDMDL
MODEL 4
REMARK VINA RESULT:    -4.369      3.196      8.779
REMARK INTER + INTRA:         -13.166
REMARK INTER:                 -10.184
REMARK INTRA:                  -2.982
REMARK UNBOUND:                -3.178
REMARK SMILES CCCCCCCCCCCCCCCCCCCCCCCC(=O)[O-]
REMARK SMILES IDX 13 1 14 2 15 3 16 4 17 5 18 6 19 7 20 8 21 9 22 10 23 11
REMARK SMILES IDX 24 12 25 13 26 14 12 15 11 16 10 17 9 18 8 19 7 20 6 21 5 22
REMARK SMILES IDX 4 23 3 24 2 25 1 26
REMARK H PARENT
REMARK Flexibility Score: inf
ROOT
ATOM      1  C   UNL     1      41.871  22.256   9.887  1.00  0.00     0.000 C 
ENDROOT
BRANCH   1   2
ATOM      2  C   UNL     1      43.020  22.185  10.912  1.00  0.00     0.000 C 
BRANCH   2   3
ATOM      3  C   UNL     1      42.806  23.010  12.193  1.00  0.00     0.000 C 
BRANCH   3   4
ATOM      4  C   UNL     1      42.869  22.162  13.472  1.00  0.00     0.000 C 
BRANCH   4   5
ATOM      5  C   UNL     1      43.540  20.808  13.201  1.00  0.00     0.000 C 
BRANCH   5   6
ATOM      6  C   UNL     1      42.571  19.620  13.333  1.00  0.00     0.000 C 
BRANCH   6   7
ATOM      7  C   UNL     1      43.160  18.254  12.931  1.00  0.00     0.000 C 
BRANCH   7   8
ATOM      8  C   UNL     1      42.455  17.564  11.746  1.00  0.00     0.000 C 
BRANCH   8   9
ATOM      9  C   UNL     1      42.071  18.498  10.583  1.00  0.00     0.000 C 
BRANCH   9  10
ATOM     10  C   UNL     1      40.632  18.330  10.063  1.00  0.00     0.006 C 
BRANCH  10  11
ATOM     11  C   UNL     1      39.629  18.014  11.180  1.00  0.00     0.053 C 
BRANCH  11  12
ATOM     12  C   UNL     1      38.457  18.943  11.111  1.00  0.00     0.041 C 
ATOM     13  O   UNL     1      37.375  18.639  11.680  1.00  0.00    -0.550 OA
ATOM     14  O   UNL     1      38.571  20.161  10.453  1.00  0.00    -0.550 OA
ENDBRANCH  11  12
ENDBRANCH  10  11
ENDBRANCH   9  10
ENDBRANCH   8   9
ENDBRANCH   7   8
ENDBRANCH   6   7
ENDBRANCH   5   6
ENDBRANCH   4   5
ENDBRANCH   3   4
ENDBRANCH   2   3
ENDBRANCH   1   2
BRANCH   1  15
ATOM     15  C   UNL     1      42.175  21.631   8.514  1.00  0.00     0.000 C 
BRANCH  15  16
ATOM     16  C   UNL     1      43.679  21.563   8.204  1.00  0.00     0.000 C 
BRANCH  16  17
ATOM     17  C   UNL     1      44.161  22.710   7.296  1.00  0.00     0.000 C 
BRANCH  17  18
ATOM     18  C   UNL     1      44.253  22.376   5.796  1.00  0.00    -0.000 C 
BRANCH  18  19
ATOM     19  C   UNL     1      44.203  20.865   5.510  1.00  0.00    -0.000 C 
BRANCH  19  20
ATOM     20  C   UNL     1      45.159  20.446   4.382  1.00  0.00    -0.000 C 
BRANCH  20  21
ATOM     21  C   UNL     1      45.750  21.648   3.623  1.00  0.00    -0.000 C 
BRANCH  21  22
ATOM     22  C   UNL     1      47.147  21.358   3.052  1.00  0.00    -0.000 C 
BRANCH  22  23
ATOM     23  C   UNL     1      48.263  21.550   4.094  1.00  0.00    -0.000 C 
BRANCH  23  24
ATOM     24  C   UNL     1      47.957  22.683   5.084  1.00  0.00    -0.000 C 
BRANCH  24  25
ATOM     25  C   UNL     1      48.077  22.244   6.551  1.00  0.00    -0.003 C 
ATOM     26  C   UNL     1      47.943  20.729   6.681  1.00  0.00     0.004 C 
ENDBRANCH  24  25
ENDBRANCH  23  24
ENDBRANCH  22  23
ENDBRANCH  21  22
ENDBRANCH  20  21
ENDBRANCH  19  20
ENDBRANCH  18  19
ENDBRANCH  17  18
ENDBRANCH  16  17
ENDBRANCH  15  16
ENDBRANCH   1  15
TORSDOF 22
ENDMDL
MODEL 5
REMARK VINA RESULT:    -4.368      1.373      2.801
REMARK INTER + INTRA:         -13.165
REMARK INTER:                 -10.216
REMARK INTRA:                  -2.949
REMARK UNBOUND:                -3.178
REMARK SMILES CCCCCCCCCCCCCCCCCCCCCCCC(=O)[O-]
REMARK SMILES IDX 13 1 14 2 15 3 16 4 17 5 18 6 19 7 20 8 21 9 22 10 23 11
REMARK SMILES IDX 24 12 25 13 26 14 12 15 11 16 10 17 9 18 8 19 7 20 6 21 5 22
REMARK SMILES IDX 4 23 3 24 2 25 1 26
REMARK H PARENT
REMARK Flexibility Score: inf
ROOT
ATOM      1  C   UNL     1      41.157  21.928   9.663  1.00  0.00     0.000 C 
ENDROOT
BRANCH   1   2
ATOM      2  C   UNL     1      41.004  20.849   8.573  1.00  0.00     0.000 C 
BRANCH   2   3
ATOM      3  C   UNL     1      42.300  20.112   8.197  1.00  0.00     0.000 C 
BRANCH   3   4
ATOM      4  C   UNL     1      42.404  19.809   6.695  1.00  0.00     0.000 C 
BRANCH   4   5
ATOM      5  C   UNL     1      43.565  20.583   6.056  1.00  0.00     0.000 C 
BRANCH   5   6
ATOM      6  C   UNL     1      44.015  21.792   6.896  1.00  0.00     0.000 C 
BRANCH   6   7
ATOM      7  C   UNL     1      45.066  22.696   6.222  1.00  0.00     0.000 C 
BRANCH   7   8
ATOM      8  C   UNL     1      45.306  22.410   4.726  1.00  0.00     0.000 C 
BRANCH   8   9
ATOM      9  C   UNL     1      46.699  22.811   4.202  1.00  0.00     0.000 C 
BRANCH   9  10
ATOM     10  C   UNL     1      47.640  21.632   3.894  1.00  0.00     0.006 C 
BRANCH  10  11
ATOM     11  C   UNL     1      48.887  21.618   4.789  1.00  0.00     0.053 C 
BRANCH  11  12
ATOM     12  C   UNL     1      48.498  21.491   6.229  1.00  0.00     0.041 C 
ATOM     13  O   UNL     1      48.818  22.389   7.052  1.00  0.00    -0.550 OA
ATOM     14  O   UNL     1      47.747  20.402   6.654  1.00  0.00    -0.550 OA
ENDBRANCH  11  12
ENDBRANCH  10  11
ENDBRANCH   9  10
ENDBRANCH   8   9
ENDBRANCH   7   8
ENDBRANCH   6   7
ENDBRANCH   5   6
ENDBRANCH   4   5
ENDBRANCH   3   4
ENDBRANCH   2   3
ENDBRANCH   1   2
BRANCH   1  15
ATOM     15  C   UNL     1      42.604  22.225  10.097  1.00  0.00     0.000 C 
BRANCH  15  16
ATOM     16  C   UNL     1      42.724  22.577  11.589  1.00  0.00     0.000 C 
BRANCH  16  17
ATOM     17  C   UNL     1      42.975  21.345  12.481  1.00  0.00     0.000 C 
BRANCH  17  18
ATOM     18  C   UNL     1      43.502  20.095  11.754  1.00  0.00    -0.000 C 
BRANCH  18  19
ATOM     19  C   UNL     1      43.609  18.864  12.672  1.00  0.00    -0.000 C 
BRANCH  19  20
ATOM     20  C   UNL     1      43.033  17.595  12.026  1.00  0.00    -0.000 C 
BRANCH  20  21
ATOM     21  C   UNL     1      42.026  17.901  10.903  1.00  0.00    -0.000 C 
BRANCH  21  22
ATOM     22  C   UNL     1      40.566  17.789  11.370  1.00  0.00    -0.000 C 
BRANCH  22  23
ATOM     23  C   UNL     1      39.997  19.133  11.858  1.00  0.00    -0.000 C 
BRANCH  23  24
ATOM     24  C   UNL     1      38.712  19.533  11.118  1.00  0.00    -0.000 C 
BRANCH  24  25
ATOM     25  C   UNL     1      37.707  18.379  10.999  1.00  0.00    -0.003 C 
ATOM     26  C   UNL     1      36.401  18.714  11.714  1.00  0.00     0.004 C 
ENDBRANCH  24  25
ENDBRANCH  23  24
ENDBRANCH  22  23
ENDBRANCH  21  22
ENDBRANCH  20  21
ENDBRANCH  19  20
ENDBRANCH  18  19
ENDBRANCH  17  18
ENDBRANCH  16  17
ENDBRANCH  15  16
ENDBRANCH   1  15
TORSDOF 22
ENDMDL
MODEL 6
REMARK VINA RESULT:    -4.344      1.047      2.885
REMARK INTER + INTRA:         -13.109
REMARK INTER:                 -10.497
REMARK INTRA:                  -2.613
REMARK UNBOUND:                -3.178
REMARK SMILES CCCCCCCCCCCCCCCCCCCCCCCC(=O)[O-]
REMARK SMILES IDX 13 1 14 2 15 3 16 4 17 5 18 6 19 7 20 8 21 9 22 10 23 11
REMARK SMILES IDX 24 12 25 13 26 14 12 15 11 16 10 17 9 18 8 19 7 20 6 21 5 22
REMARK SMILES IDX 4 23 3 24 2 25 1 26
REMARK H PARENT
REMARK Flexibility Score: inf
ROOT
ATOM      1  C   UNL     1      41.493  21.986   8.988  1.00  0.00     0.000 C 
ENDROOT
BRANCH   1   2
ATOM      2  C   UNL     1      42.649  21.013   8.686  1.00  0.00     0.000 C 
BRANCH   2   3
ATOM      3  C   UNL     1      42.389  20.025   7.536  1.00  0.00     0.000 C 
BRANCH   3   4
ATOM      4  C   UNL     1      43.124  20.403   6.242  1.00  0.00     0.000 C 
BRANCH   4   5
ATOM      5  C   UNL     1      44.359  21.264   6.543  1.00  0.00     0.000 C 
BRANCH   5   6
ATOM      6  C   UNL     1      44.350  22.609   5.793  1.00  0.00     0.000 C 
BRANCH   6   7
ATOM      7  C   UNL     1      45.483  22.784   4.762  1.00  0.00     0.000 C 
BRANCH   7   8
ATOM      8  C   UNL     1      45.847  21.511   3.973  1.00  0.00     0.000 C 
BRANCH   8   9
ATOM      9  C   UNL     1      47.193  21.569   3.226  1.00  0.00     0.000 C 
BRANCH   9  10
ATOM     10  C   UNL     1      48.334  22.257   3.997  1.00  0.00     0.006 C 
BRANCH  10  11
ATOM     11  C   UNL     1      49.068  21.303   4.949  1.00  0.00     0.053 C 
BRANCH  11  12
ATOM     12  C   UNL     1      48.448  21.342   6.311  1.00  0.00     0.041 C 
ATOM     13  O   UNL     1      48.044  20.280   6.852  1.00  0.00    -0.550 OA
ATOM     14  O   UNL     1      48.355  22.545   7.000  1.00  0.00    -0.550 OA
ENDBRANCH  11  12
ENDBRANCH  10  11
ENDBRANCH   9  10
ENDBRANCH   8   9
ENDBRANCH   7   8
ENDBRANCH   6   7
ENDBRANCH   5   6
ENDBRANCH   4   5
ENDBRANCH   3   4
ENDBRANCH   2   3
ENDBRANCH   1   2
BRANCH   1  15
ATOM     15  C   UNL     1      40.129  21.325   9.258  1.00  0.00     0.000 C 
BRANCH  15  16
ATOM     16  C   UNL     1      40.155  20.361  10.455  1.00  0.00     0.000 C 
BRANCH  16  17
ATOM     17  C   UNL     1      39.415  19.038  10.181  1.00  0.00     0.000 C 
BRANCH  17  18
ATOM     18  C   UNL     1      39.747  17.879  11.139  1.00  0.00    -0.000 C 
BRANCH  18  19
ATOM     19  C   UNL     1      40.847  18.234  12.156  1.00  0.00    -0.000 C 
BRANCH  19  20
ATOM     20  C   UNL     1      42.080  17.325  12.032  1.00  0.00    -0.000 C 
BRANCH  20  21
ATOM     21  C   UNL     1      43.249  17.781  12.922  1.00  0.00    -0.000 C 
BRANCH  21  22
ATOM     22  C   UNL     1      44.275  18.636  12.160  1.00  0.00    -0.000 C 
BRANCH  22  23
ATOM     23  C   UNL     1      43.863  20.116  12.075  1.00  0.00    -0.000 C 
BRANCH  23  24
ATOM     24  C   UNL     1      43.629  20.744  13.457  1.00  0.00    -0.000 C 
BRANCH  24  25
ATOM     25  C   UNL     1      42.626  21.906  13.423  1.00  0.00    -0.003 C 
ATOM     26  C   UNL     1      42.931  22.859  12.271  1.00  0.00     0.004 C 
ENDBRANCH  24  25
ENDBRANCH  23  24
ENDBRANCH  22  23
ENDBRANCH  21  22
ENDBRANCH  20  21
ENDBRANCH  19  20
ENDBRANCH  18  19
ENDBRANCH  17  18
ENDBRANCH  16  17
ENDBRANCH  15  16
ENDBRANCH   1  15
TORSDOF 22
ENDMDL
MODEL 7
REMARK VINA RESULT:    -4.343      1.562      3.689
REMARK INTER + INTRA:         -13.108
REMARK INTER:                  -9.986
REMARK INTRA:                  -3.121
REMARK UNBOUND:                -3.178
REMARK SMILES CCCCCCCCCCCCCCCCCCCCCCCC(=O)[O-]
REMARK SMILES IDX 13 1 14 2 15 3 16 4 17 5 18 6 19 7 20 8 21 9 22 10 23 11
REMARK SMILES IDX 24 12 25 13 26 14 12 15 11 16 10 17 9 18 8 19 7 20 6 21 5 22
REMARK SMILES IDX 4 23 3 24 2 25 1 26
REMARK H PARENT
REMARK Flexibility Score: inf
ROOT
ATOM      1  C   UNL     1      40.451  18.056  11.553  1.00  0.00     0.000 C 
ENDROOT
BRANCH   1   2
ATOM      2  C   UNL     1      41.189  18.172  10.204  1.00  0.00     0.000 C 
BRANCH   2   3
ATOM      3  C   UNL     1      40.501  19.066   9.158  1.00  0.00     0.000 C 
BRANCH   3   4
ATOM      4  C   UNL     1      41.386  20.231   8.689  1.00  0.00     0.000 C 
BRANCH   4   5
ATOM      5  C   UNL     1      40.979  21.542   9.377  1.00  0.00     0.000 C 
BRANCH   5   6
ATOM      6  C   UNL     1      42.157  22.516   9.558  1.00  0.00     0.000 C 
BRANCH   6   7
ATOM      7  C   UNL     1      43.496  22.032   8.968  1.00  0.00     0.000 C 
BRANCH   7   8
ATOM      8  C   UNL     1      43.895  22.693   7.634  1.00  0.00     0.000 C 
BRANCH   8   9
ATOM      9  C   UNL     1      44.062  21.721   6.449  1.00  0.00     0.000 C 
BRANCH   9  10
ATOM     10  C   UNL     1      44.654  22.348   5.174  1.00  0.00     0.006 C 
BRANCH  10  11
ATOM     11  C   UNL     1      45.722  21.464   4.517  1.00  0.00     0.053 C 
BRANCH  11  12
ATOM     12  C   UNL     1      47.026  21.592   5.241  1.00  0.00     0.041 C 
ATOM     13  O   UNL     1      47.310  20.799   6.176  1.00  0.00    -0.550 OA
ATOM     14  O   UNL     1      47.945  22.560   4.855  1.00  0.00    -0.550 OA
ENDBRANCH  11  12
ENDBRANCH  10  11
ENDBRANCH   9  10
ENDBRANCH   8   9
ENDBRANCH   7   8
ENDBRANCH   6   7
ENDBRANCH   5   6
ENDBRANCH   4   5
ENDBRANCH   3   4
ENDBRANCH   2   3
ENDBRANCH   1   2
BRANCH   1  15
ATOM     15  C   UNL     1      40.194  19.388  12.279  1.00  0.00     0.000 C 
BRANCH  15  16
ATOM     16  C   UNL     1      40.432  19.300  13.796  1.00  0.00     0.000 C 
BRANCH  16  17
ATOM     17  C   UNL     1      41.296  20.455  14.339  1.00  0.00     0.000 C 
BRANCH  17  18
ATOM     18  C   UNL     1      42.092  21.243  13.282  1.00  0.00    -0.000 C 
BRANCH  18  19
ATOM     19  C   UNL     1      43.566  20.814  13.194  1.00  0.00    -0.000 C 
BRANCH  19  20
ATOM     20  C   UNL     1      43.901  20.125  11.861  1.00  0.00    -0.000 C 
BRANCH  20  21
ATOM     21  C   UNL     1      44.469  18.706  12.049  1.00  0.00    -0.000 C 
BRANCH  21  22
ATOM     22  C   UNL     1      43.618  17.850  13.001  1.00  0.00    -0.000 C 
BRANCH  22  23
ATOM     23  C   UNL     1      43.610  16.362  12.608  1.00  0.00    -0.000 C 
BRANCH  23  24
ATOM     24  C   UNL     1      45.007  15.841  12.240  1.00  0.00    -0.000 C 
BRANCH  24  25
ATOM     25  C   UNL     1      45.081  14.308  12.202  1.00  0.00    -0.003 C 
ATOM     26  C   UNL     1      46.529  13.831  12.134  1.00  0.00     0.004 C 
ENDBRANCH  24  25
ENDBRANCH  23  24
ENDBRANCH  22  23
ENDBRANCH  21  22
ENDBRANCH  20  21
ENDBRANCH  19  20
ENDBRANCH  18  19
ENDBRANCH  17  18
ENDBRANCH  16  17
ENDBRANCH  15  16
ENDBRANCH   1  15
TORSDOF 22
ENDMDL
MODEL 8
REMARK VINA RESULT:    -4.334      2.913      8.448
REMARK INTER + INTRA:         -13.087
REMARK INTER:                 -10.532
REMARK INTRA:                  -2.555
REMARK UNBOUND:                -3.178
REMARK SMILES CCCCCCCCCCCCCCCCCCCCCCCC(=O)[O-]
REMARK SMILES IDX 13 1 14 2 15 3 16 4 17 5 18 6 19 7 20 8 21 9 22 10 23 11
REMARK SMILES IDX 24 12 25 13 26 14 12 15 11 16 10 17 9 18 8 19 7 20 6 21 5 22
REMARK SMILES IDX 4 23 3 24 2 25 1 26
REMARK H PARENT
REMARK Flexibility Score: inf
ROOT
ATOM      1  C   UNL     1      40.921  20.269   8.880  1.00  0.00     0.000 C 
ENDROOT
BRANCH   1   2
ATOM      2  C   UNL     1      39.937  20.227  10.066  1.00  0.00     0.000 C 
BRANCH   2   3
ATOM      3  C   UNL     1      38.959  19.039  10.062  1.00  0.00     0.000 C 
BRANCH   3   4
ATOM      4  C   UNL     1      39.337  17.948  11.075  1.00  0.00     0.000 C 
BRANCH   4   5
ATOM      5  C   UNL     1      40.453  18.429  12.012  1.00  0.00     0.000 C 
BRANCH   5   6
ATOM      6  C   UNL     1      41.577  17.393  12.189  1.00  0.00     0.000 C 
BRANCH   6   7
ATOM      7  C   UNL     1      42.912  17.761  11.511  1.00  0.00     0.000 C 
BRANCH   7   8
ATOM      8  C   UNL     1      44.007  18.273  12.468  1.00  0.00     0.000 C 
BRANCH   8   9
ATOM      9  C   UNL     1      44.319  19.777  12.356  1.00  0.00     0.000 C 
BRANCH   9  10
ATOM     10  C   UNL     1      43.151  20.647  11.855  1.00  0.00     0.006 C 
BRANCH  10  11
ATOM     11  C   UNL     1      43.108  22.027  12.524  1.00  0.00     0.053 C 
BRANCH  11  12
ATOM     12  C   UNL     1      42.446  21.940  13.864  1.00  0.00     0.041 C 
ATOM     13  O   UNL     1      41.782  20.917  14.176  1.00  0.00    -0.550 OA
ATOM     14  O   UNL     1      42.597  22.970  14.784  1.00  0.00    -0.550 OA
ENDBRANCH  11  12
ENDBRANCH  10  11
ENDBRANCH   9  10
ENDBRANCH   8   9
ENDBRANCH   7   8
ENDBRANCH   6   7
ENDBRANCH   5   6
ENDBRANCH   4   5
ENDBRANCH   3   4
ENDBRANCH   2   3
ENDBRANCH   1   2
BRANCH   1  15
ATOM     15  C   UNL     1      41.617  21.622   8.650  1.00  0.00     0.000 C 
BRANCH  15  16
ATOM     16  C   UNL     1      43.145  21.499   8.533  1.00  0.00     0.000 C 
BRANCH  16  17
ATOM     17  C   UNL     1      43.706  22.136   7.247  1.00  0.00     0.000 C 
BRANCH  17  18
ATOM     18  C   UNL     1      44.311  21.154   6.228  1.00  0.00    -0.000 C 
BRANCH  18  19
ATOM     19  C   UNL     1      44.836  21.848   4.959  1.00  0.00    -0.000 C 
BRANCH  19  20
ATOM     20  C   UNL     1      45.226  20.850   3.858  1.00  0.00    -0.000 C 
BRANCH  20  21
ATOM     21  C   UNL     1      46.485  21.278   3.082  1.00  0.00    -0.000 C 
BRANCH  21  22
ATOM     22  C   UNL     1      46.947  22.699   3.443  1.00  0.00    -0.000 C 
BRANCH  22  23
ATOM     23  C   UNL     1      48.410  22.741   3.916  1.00  0.00    -0.000 C 
BRANCH  23  24
ATOM     24  C   UNL     1      48.787  21.529   4.780  1.00  0.00    -0.000 C 
BRANCH  24  25
ATOM     25  C   UNL     1      48.392  21.699   6.254  1.00  0.00    -0.003 C 
ATOM     26  C   UNL     1      47.849  20.394   6.829  1.00  0.00     0.004 C 
ENDBRANCH  24  25
ENDBRANCH  23  24
ENDBRANCH  22  23
ENDBRANCH  21  22
ENDBRANCH  20  21
ENDBRANCH  19  20
ENDBRANCH  18  19
ENDBRANCH  17  18
ENDBRANCH  16  17
ENDBRANCH  15  16
ENDBRANCH   1  15
TORSDOF 22
ENDMDL
MODEL 9
REMARK VINA RESULT:    -4.160      1.274      2.465
REMARK INTER + INTRA:         -12.688
REMARK INTER:                 -10.485
REMARK INTRA:                  -2.203
REMARK UNBOUND:                -3.178
REMARK SMILES CCCCCCCCCCCCCCCCCCCCCCCC(=O)[O-]
REMARK SMILES IDX 13 1 14 2 15 3 16 4 17 5 18 6 19 7 20 8 21 9 22 10 23 11
REMARK SMILES IDX 24 12 25 13 26 14 12 15 11 16 10 17 9 18 8 19 7 20 6 21 5 22
REMARK SMILES IDX 4 23 3 24 2 25 1 26
REMARK H PARENT
REMARK Flexibility Score: inf
ROOT
ATOM      1  C   UNL     1      39.625  19.030   9.670  1.00  0.00     0.000 C 
ENDROOT
BRANCH   1   2
ATOM      2  C   UNL     1      40.639  20.075   9.165  1.00  0.00     0.000 C 
BRANCH   2   3
ATOM      3  C   UNL     1      41.784  19.513   8.306  1.00  0.00     0.000 C 
BRANCH   3   4
ATOM      4  C   UNL     1      42.608  20.608   7.611  1.00  0.00     0.000 C 
BRANCH   4   5
ATOM      5  C   UNL     1      43.062  20.154   6.218  1.00  0.00     0.000 C 
BRANCH   5   6
ATOM      6  C   UNL     1      44.244  20.977   5.674  1.00  0.00     0.000 C 
BRANCH   6   7
ATOM      7  C   UNL     1      44.950  20.366   4.447  1.00  0.00     0.000 C 
BRANCH   7   8
ATOM      8  C   UNL     1      45.797  21.357   3.624  1.00  0.00     0.000 C 
BRANCH   8   9
ATOM      9  C   UNL     1      46.259  22.612   4.389  1.00  0.00     0.000 C 
BRANCH   9  10
ATOM     10  C   UNL     1      47.785  22.767   4.520  1.00  0.00     0.006 C 
BRANCH  10  11
ATOM     11  C   UNL     1      48.478  21.475   4.971  1.00  0.00     0.053 C 
BRANCH  11  12
ATOM     12  C   UNL     1      48.365  21.309   6.454  1.00  0.00     0.041 C 
ATOM     13  O   UNL     1      47.892  20.248   6.938  1.00  0.00    -0.550 OA
ATOM     14  O   UNL     1      48.821  22.310   7.303  1.00  0.00    -0.550 OA
ENDBRANCH  11  12
ENDBRANCH  10  11
ENDBRANCH   9  10
ENDBRANCH   8   9
ENDBRANCH   7   8
ENDBRANCH   6   7
ENDBRANCH   5   6
ENDBRANCH   4   5
ENDBRANCH   3   4
ENDBRANCH   2   3
ENDBRANCH   1   2
BRANCH   1  15
ATOM     15  C   UNL     1      40.029  18.292  10.959  1.00  0.00     0.000 C 
BRANCH  15  16
ATOM     16  C   UNL     1      39.793  19.126  12.228  1.00  0.00     0.000 C 
BRANCH  16  17
ATOM     17  C   UNL     1      40.946  19.017  13.245  1.00  0.00     0.000 C 
BRANCH  17  18
ATOM     18  C   UNL     1      41.308  20.319  13.982  1.00  0.00    -0.000 C 
BRANCH  18  19
ATOM     19  C   UNL     1      42.708  20.847  13.622  1.00  0.00    -0.000 C 
BRANCH  19  20
ATOM     20  C   UNL     1      42.826  21.242  12.141  1.00  0.00    -0.000 C 
BRANCH  20  21
ATOM     21  C   UNL     1      43.621  20.218  11.312  1.00  0.00    -0.000 C 
BRANCH  21  22
ATOM     22  C   UNL     1      44.241  19.109  12.177  1.00  0.00    -0.000 C 
BRANCH  22  23
ATOM     23  C   UNL     1      43.697  17.713  11.827  1.00  0.00    -0.000 C 
BRANCH  23  24
ATOM     24  C   UNL     1      44.340  16.600  12.667  1.00  0.00    -0.000 C 
BRANCH  24  25
ATOM     25  C   UNL     1      44.329  15.237  11.962  1.00  0.00    -0.003 C 
ATOM     26  C   UNL     1      45.541  14.402  12.363  1.00  0.00     0.004 C 
ENDBRANCH  24  25
ENDBRANCH  23  24
ENDBRANCH  22  23
ENDBRANCH  21  22
ENDBRANCH  20  21
ENDBRANCH  19  20
ENDBRANCH  18  19
ENDBRANCH  17  18
ENDBRANCH  16  17
ENDBRANCH  15  16
ENDBRANCH   1  15
TORSDOF 22
ENDMDL
