MODEL 1
REMARK VINA RESULT:    54.746      0.000      0.000
REMARK INTER + INTRA:          75.055
REMARK INTER:                  75.549
REMARK INTRA:                  -0.495
REMARK UNBOUND:                -0.495
REMARK SMILES CC[C@H](CC[C@@H](C)[C@H]1CC[C@@H]2[C@@H]3CC=C4C[C@H](O)CC[C@@]4(C)[C@H]3CC[C@@]21C)C(C)C
REMARK SMILES IDX 5 1 4 2 3 3 2 4 1 5 28 6 29 7 30 8 6 9 7 10 8 11 9 12 26 13
REMARK SMILES IDX 10 14 11 15 25 16 27 17 12 18 24 19 23 20 13 21 21 22 14 23
REMARK SMILES IDX 15 24 20 25 22 26 16 27 19 28 17 29 18 30
REMARK H PARENT 18 31
REMARK Flexibility Score: inf
ROOT
ATOM      1  C   UNL     1     -14.530  -2.739  14.508  1.00  0.00     0.004 C 
ENDROOT
BRANCH   1   2
ATOM      2  C   UNL     1     -16.061  -2.527  14.591  1.00  0.00     0.004 C 
BRANCH   2   3
ATOM      3  C   UNL     1     -16.788  -3.147  15.824  1.00  0.00    -0.009 C 
BRANCH   3   4
ATOM      4  C   UNL     1     -16.184  -2.661  17.177  1.00  0.00     0.000 C 
ATOM      5  C   UNL     1     -15.409  -3.733  17.945  1.00  0.00     0.004 C 
ENDBRANCH   3   4
BRANCH   3   6
ATOM      6  C   UNL     1     -18.341  -2.928  15.734  1.00  0.00    -0.014 C 
ATOM      7  C   UNL     1     -18.719  -1.433  15.712  1.00  0.00     0.007 C 
ATOM      8  C   UNL     1     -19.088  -3.608  16.900  1.00  0.00     0.007 C 
ENDBRANCH   3   6
ENDBRANCH   2   3
ENDBRANCH   1   2
BRANCH   1   9
ATOM      9  C   UNL     1     -13.908  -2.439  13.114  1.00  0.00    -0.011 C 
ATOM     10  C   UNL     1     -14.958  -1.979  12.083  1.00  0.00     0.008 C 
BRANCH   9  11
ATOM     11  C   UNL     1     -12.607  -1.559  13.202  1.00  0.00    -0.002 C 
ATOM     12  C   UNL     1     -12.968  -0.062  13.323  1.00  0.00     0.005 C 
ATOM     13  C   UNL     1     -11.467  -1.821  14.275  1.00  0.00    -0.026 C 
ATOM     14  C   UNL     1     -11.934   0.569  14.239  1.00  0.00     0.005 C 
ATOM     15  C   UNL     1     -11.507  -0.560  15.173  1.00  0.00    -0.001 C 
ATOM     16  C   UNL     1     -10.102  -1.896  13.516  1.00  0.00     0.007 C 
ATOM     17  C   UNL     1     -11.633  -3.087  15.157  1.00  0.00     0.012 C 
ATOM     18  C   UNL     1     -10.216  -0.292  16.013  1.00  0.00     0.000 C 
ATOM     19  C   UNL     1      -8.879  -1.745  14.420  1.00  0.00     0.005 C 
ATOM     20  C   UNL     1      -8.906  -0.409  15.202  1.00  0.00     0.003 C 
ATOM     21  C   UNL     1     -10.272   1.094  16.673  1.00  0.00     0.031 C 
ATOM     22  C   UNL     1      -7.611  -0.170  16.099  1.00  0.00    -0.008 C 
ATOM     23  C   UNL     1      -9.076   1.329  17.536  1.00  0.00    -0.027 C 
ATOM     24  C   UNL     1      -7.856   0.834  17.244  1.00  0.00    -0.065 C 
ATOM     25  C   UNL     1      -7.115  -1.499  16.761  1.00  0.00     0.014 C 
ATOM     26  C   UNL     1      -6.501   0.392  15.172  1.00  0.00     0.016 C 
ATOM     27  C   UNL     1      -6.737   1.061  18.240  1.00  0.00     0.063 C 
ATOM     28  C   UNL     1      -5.975  -1.311  17.783  1.00  0.00     0.033 C 
ATOM     29  C   UNL     1      -6.342  -0.284  18.869  1.00  0.00     0.118 C 
BRANCH  29  30
ATOM     30  O   UNL     1      -5.284  -0.118  19.779  1.00  0.00    -0.393 OA
ATOM     31  H   UNL     1      -5.612   0.456  20.521  1.00  0.00     0.210 HD
ENDBRANCH  29  30
ENDBRANCH   9  11
ENDBRANCH   1   9
TORSDOF 7
ENDMDL
