MODEL 1
REMARK VINA RESULT:    -7.037      0.000      0.000
REMARK INTER + INTRA:         -10.873
REMARK INTER:                 -10.328
REMARK INTRA:                  -0.545
REMARK UNBOUND:                -0.545
REMARK SMILES O=c1c(O[C@@H]2O[C@@H](CO)[C@@H](O)[C@H](O)[C@@H]2O)c(-c2ccc(O)c(O)c2)oc2cc(O)cc(O)c12
REMARK SMILES IDX 4 1 3 2 16 3 25 4 2 5 26 6 1 7 33 8 27 9 31 10 28 11 30 12
REMARK SMILES IDX 17 13 18 14 19 15 20 16 24 17 22 18 21 19 23 21 32 23 29 25
REMARK SMILES IDX 5 27 14 28 6 29 12 30 7 31 10 32 15 33 13 35 8 37 9 38 11 40
REMARK H PARENT 21 20 23 22 32 24 29 26 15 34 13 36 9 39 11 41
REMARK Flexibility Score: inf
ROOT
ATOM      1  O   UNL     1      12.469   0.963   1.142  1.00  0.00    -0.454 OA
ENDROOT
BRANCH   1   2
ATOM      2  C   UNL     1      11.851   1.915   0.320  1.00  0.00     0.214 A 
ATOM      3  C   UNL     1      12.447   2.367  -0.875  1.00  0.00     0.180 A 
ATOM      4  O   UNL     1      11.879   3.352  -1.560  1.00  0.00    -0.452 OA
ATOM      5  C   UNL     1      10.614   2.444   0.701  1.00  0.00     0.239 A 
ATOM      6  C   UNL     1      10.723   3.908  -1.217  1.00  0.00     0.146 A 
ATOM      7  O   UNL     1      10.099   2.042   1.778  1.00  0.00    -0.285 OA
ATOM      8  C   UNL     1       9.997   3.444  -0.088  1.00  0.00     0.111 A 
ATOM      9  C   UNL     1      10.232   4.960  -1.994  1.00  0.00     0.094 A 
ATOM     10  C   UNL     1       8.733   4.039   0.199  1.00  0.00     0.134 A 
ATOM     11  C   UNL     1       9.021   5.574  -1.667  1.00  0.00     0.123 A 
ATOM     12  C   UNL     1       8.284   5.115  -0.577  1.00  0.00     0.093 A 
BRANCH   3  13
ATOM     13  C   UNL     1      13.693   1.774  -1.411  1.00  0.00     0.025 A 
ATOM     14  C   UNL     1      13.671   0.570  -2.131  1.00  0.00     0.016 A 
ATOM     15  C   UNL     1      14.854   0.030  -2.637  1.00  0.00     0.051 A 
ATOM     16  C   UNL     1      16.076   0.687  -2.449  1.00  0.00     0.157 A 
ATOM     17  C   UNL     1      14.911   2.449  -1.243  1.00  0.00     0.062 A 
ATOM     18  C   UNL     1      16.104   1.916  -1.747  1.00  0.00     0.158 A 
BRANCH  16  19
ATOM     19  O   UNL     1      17.224   0.091  -2.975  1.00  0.00    -0.504 OA
ATOM     20  H   UNL     1      18.146   0.503  -2.928  1.00  0.00     0.293 HD
ENDBRANCH  16  19
BRANCH  18  21
ATOM     21  O   UNL     1      17.282   2.633  -1.530  1.00  0.00    -0.504 OA
ATOM     22  H   UNL     1      17.764   3.158  -2.245  1.00  0.00     0.293 HD
ENDBRANCH  18  21
ENDBRANCH   3  13
BRANCH  10  23
ATOM     23  O   UNL     1       7.875   3.599   1.211  1.00  0.00    -0.507 OA
ATOM     24  H   UNL     1       7.886   3.937   2.161  1.00  0.00     0.293 HD
ENDBRANCH  10  23
BRANCH  11  25
ATOM     25  O   UNL     1       8.537   6.636  -2.426  1.00  0.00    -0.508 OA
ATOM     26  H   UNL     1       7.612   7.020  -2.272  1.00  0.00     0.293 HD
ENDBRANCH  11  25
ENDBRANCH   1   2
BRANCH   1  27
ATOM     27  C   UNL     1      12.870   1.233   2.491  1.00  0.00     0.339 C 
ATOM     28  C   UNL     1      13.867   0.172   3.011  1.00  0.00     0.214 C 
ATOM     29  O   UNL     1      13.397   2.544   2.609  1.00  0.00    -0.332 OA
ATOM     30  C   UNL     1      15.266   0.327   2.377  1.00  0.00     0.180 C 
ATOM     31  C   UNL     1      14.565   2.705   1.820  1.00  0.00     0.179 C 
ATOM     32  C   UNL     1      15.708   1.808   2.348  1.00  0.00     0.177 C 
BRANCH  28  33
ATOM     33  O   UNL     1      13.381  -1.125   2.784  1.00  0.00    -0.384 OA
ATOM     34  H   UNL     1      12.875  -1.097   1.929  1.00  0.00     0.211 HD
ENDBRANCH  28  33
BRANCH  30  35
ATOM     35  O   UNL     1      15.337  -0.264   1.101  1.00  0.00    -0.387 OA
ATOM     36  H   UNL     1      14.612  -0.933   1.021  1.00  0.00     0.211 HD
ENDBRANCH  30  35
BRANCH  31  37
ATOM     37  C   UNL     1      14.972   4.184   1.840  1.00  0.00     0.191 C 
BRANCH  37  38
ATOM     38  O   UNL     1      14.055   4.933   1.093  1.00  0.00    -0.394 OA
ATOM     39  H   UNL     1      14.527   5.768   0.834  1.00  0.00     0.210 HD
ENDBRANCH  37  38
ENDBRANCH  31  37
BRANCH  32  40
ATOM     40  O   UNL     1      16.066   2.216   3.646  1.00  0.00    -0.387 OA
ATOM     41  H   UNL     1      17.043   2.386   3.635  1.00  0.00     0.211 HD
ENDBRANCH  32  40
ENDBRANCH   1  27
TORSDOF 12
ENDMDL
MODEL 2
REMARK VINA RESULT:    -6.639      1.454      2.300
REMARK INTER + INTRA:         -10.288
REMARK INTER:                  -9.495
REMARK INTRA:                  -0.793
REMARK UNBOUND:                -0.545
REMARK SMILES O=c1c(O[C@@H]2O[C@@H](CO)[C@@H](O)[C@H](O)[C@@H]2O)c(-c2ccc(O)c(O)c2)oc2cc(O)cc(O)c12
REMARK SMILES IDX 4 1 3 2 16 3 25 4 2 5 26 6 1 7 33 8 27 9 31 10 28 11 30 12
REMARK SMILES IDX 17 13 18 14 19 15 20 16 24 17 22 18 21 19 23 21 32 23 29 25
REMARK SMILES IDX 5 27 14 28 6 29 12 30 7 31 10 32 15 33 13 35 8 37 9 38 11 40
REMARK H PARENT 21 20 23 22 32 24 29 26 15 34 13 36 9 39 11 41
REMARK Flexibility Score: inf
ROOT
ATOM      1  O   UNL     1      14.021   1.962   1.560  1.00  0.00    -0.454 OA
ENDROOT
BRANCH   1   2
ATOM      2  C   UNL     1      13.193   2.577   0.611  1.00  0.00     0.214 A 
ATOM      3  C   UNL     1      13.585   2.724  -0.735  1.00  0.00     0.180 A 
ATOM      4  O   UNL     1      12.817   3.414  -1.569  1.00  0.00    -0.452 OA
ATOM      5  C   UNL     1      11.948   3.071   1.012  1.00  0.00     0.239 A 
ATOM      6  C   UNL     1      11.644   3.932  -1.224  1.00  0.00     0.146 A 
ATOM      7  O   UNL     1      11.617   2.945   2.220  1.00  0.00    -0.285 OA
ATOM      8  C   UNL     1      11.119   3.741   0.082  1.00  0.00     0.111 A 
ATOM      9  C   UNL     1      10.933   4.667  -2.175  1.00  0.00     0.094 A 
ATOM     10  C   UNL     1       9.828   4.269   0.379  1.00  0.00     0.134 A 
ATOM     11  C   UNL     1       9.696   5.230  -1.853  1.00  0.00     0.123 A 
ATOM     12  C   UNL     1       9.155   5.032  -0.584  1.00  0.00     0.093 A 
BRANCH   3  13
ATOM     13  C   UNL     1      14.830   2.126  -1.267  1.00  0.00     0.025 A 
ATOM     14  C   UNL     1      16.078   2.724  -1.035  1.00  0.00     0.016 A 
ATOM     15  C   UNL     1      17.242   2.142  -1.537  1.00  0.00     0.051 A 
ATOM     16  C   UNL     1      17.186   0.948  -2.265  1.00  0.00     0.157 A 
ATOM     17  C   UNL     1      14.771   0.917  -1.974  1.00  0.00     0.062 A 
ATOM     18  C   UNL     1      15.934   0.323  -2.482  1.00  0.00     0.158 A 
BRANCH  16  19
ATOM     19  O   UNL     1      18.386   0.420  -2.745  1.00  0.00    -0.504 OA
ATOM     20  H   UNL     1      18.850  -0.384  -2.345  1.00  0.00     0.293 HD
ENDBRANCH  16  19
BRANCH  18  21
ATOM     21  O   UNL     1      15.801  -0.873  -3.188  1.00  0.00    -0.504 OA
ATOM     22  H   UNL     1      16.442  -1.650  -3.111  1.00  0.00     0.293 HD
ENDBRANCH  18  21
ENDBRANCH   3  13
BRANCH  10  23
ATOM     23  O   UNL     1       9.156   4.055   1.586  1.00  0.00    -0.507 OA
ATOM     24  H   UNL     1       8.708   3.191   1.849  1.00  0.00     0.293 HD
ENDBRANCH  10  23
BRANCH  11  25
ATOM     25  O   UNL     1       8.992   5.981  -2.791  1.00  0.00    -0.508 OA
ATOM     26  H   UNL     1       9.048   5.778  -3.783  1.00  0.00     0.293 HD
ENDBRANCH  11  25
ENDBRANCH   1   2
BRANCH   1  27
ATOM     27  C   UNL     1      13.523   1.122   2.609  1.00  0.00     0.339 C 
ATOM     28  C   UNL     1      13.612  -0.375   2.230  1.00  0.00     0.214 C 
ATOM     29  O   UNL     1      14.193   1.388   3.830  1.00  0.00    -0.332 OA
ATOM     30  C   UNL     1      15.063  -0.899   2.258  1.00  0.00     0.180 C 
ATOM     31  C   UNL     1      15.579   1.105   3.734  1.00  0.00     0.179 C 
ATOM     32  C   UNL     1      15.812  -0.409   3.518  1.00  0.00     0.177 C 
BRANCH  28  33
ATOM     33  O   UNL     1      13.045  -0.604   0.966  1.00  0.00    -0.384 OA
ATOM     34  H   UNL     1      13.651  -1.230   0.489  1.00  0.00     0.211 HD
ENDBRANCH  28  33
BRANCH  30  35
ATOM     35  O   UNL     1      15.763  -0.582   1.078  1.00  0.00    -0.387 OA
ATOM     36  H   UNL     1      16.734  -0.633   1.262  1.00  0.00     0.211 HD
ENDBRANCH  30  35
BRANCH  31  37
ATOM     37  C   UNL     1      16.272   1.591   5.013  1.00  0.00     0.191 C 
BRANCH  37  38
ATOM     38  O   UNL     1      17.250   0.665   5.398  1.00  0.00    -0.394 OA
ATOM     39  H   UNL     1      17.063  -0.163   4.884  1.00  0.00     0.210 HD
ENDBRANCH  37  38
ENDBRANCH  31  37
BRANCH  32  40
ATOM     40  O   UNL     1      15.355  -1.120   4.642  1.00  0.00    -0.387 OA
ATOM     41  H   UNL     1      15.647  -0.612   5.443  1.00  0.00     0.211 HD
ENDBRANCH  32  40
ENDBRANCH   1  27
TORSDOF 12
ENDMDL
MODEL 3
REMARK VINA RESULT:    -6.168      1.939      6.648
REMARK INTER + INTRA:          -9.597
REMARK INTER:                  -9.027
REMARK INTRA:                  -0.570
REMARK UNBOUND:                -0.545
REMARK SMILES O=c1c(O[C@@H]2O[C@@H](CO)[C@@H](O)[C@H](O)[C@@H]2O)c(-c2ccc(O)c(O)c2)oc2cc(O)cc(O)c12
REMARK SMILES IDX 4 1 3 2 16 3 25 4 2 5 26 6 1 7 33 8 27 9 31 10 28 11 30 12
REMARK SMILES IDX 17 13 18 14 19 15 20 16 24 17 22 18 21 19 23 21 32 23 29 25
REMARK SMILES IDX 5 27 14 28 6 29 12 30 7 31 10 32 15 33 13 35 8 37 9 38 11 40
REMARK H PARENT 21 20 23 22 32 24 29 26 15 34 13 36 9 39 11 41
REMARK Flexibility Score: inf
ROOT
ATOM      1  O   UNL     1      11.325   1.856   1.832  1.00  0.00    -0.454 OA
ENDROOT
BRANCH   1   2
ATOM      2  C   UNL     1      12.472   2.065   1.055  1.00  0.00     0.214 A 
ATOM      3  C   UNL     1      12.551   3.107   0.110  1.00  0.00     0.180 A 
ATOM      4  O   UNL     1      13.613   3.194  -0.681  1.00  0.00    -0.452 OA
ATOM      5  C   UNL     1      13.566   1.208   1.213  1.00  0.00     0.239 A 
ATOM      6  C   UNL     1      14.660   2.382  -0.592  1.00  0.00     0.146 A 
ATOM      7  O   UNL     1      13.477   0.273   2.051  1.00  0.00    -0.285 OA
ATOM      8  C   UNL     1      14.715   1.370   0.402  1.00  0.00     0.111 A 
ATOM      9  C   UNL     1      15.711   2.545  -1.498  1.00  0.00     0.094 A 
ATOM     10  C   UNL     1      15.889   0.564   0.489  1.00  0.00     0.134 A 
ATOM     11  C   UNL     1      16.829   1.711  -1.441  1.00  0.00     0.123 A 
ATOM     12  C   UNL     1      16.910   0.729  -0.455  1.00  0.00     0.093 A 
BRANCH   3  13
ATOM     13  C   UNL     1      11.490   4.128  -0.035  1.00  0.00     0.025 A 
ATOM     14  C   UNL     1      11.118   4.943   1.045  1.00  0.00     0.016 A 
ATOM     15  C   UNL     1      10.120   5.907   0.889  1.00  0.00     0.051 A 
ATOM     16  C   UNL     1       9.488   6.085  -0.347  1.00  0.00     0.157 A 
ATOM     17  C   UNL     1      10.877   4.320  -1.281  1.00  0.00     0.062 A 
ATOM     18  C   UNL     1       9.875   5.285  -1.448  1.00  0.00     0.158 A 
BRANCH  16  19
ATOM     19  O   UNL     1       8.494   7.062  -0.435  1.00  0.00    -0.504 OA
ATOM     20  H   UNL     1       8.001   7.291  -1.287  1.00  0.00     0.293 HD
ENDBRANCH  16  19
BRANCH  18  21
ATOM     21  O   UNL     1       9.297   5.413  -2.712  1.00  0.00    -0.504 OA
ATOM     22  H   UNL     1       9.240   4.664  -3.387  1.00  0.00     0.293 HD
ENDBRANCH  18  21
ENDBRANCH   3  13
BRANCH  10  23
ATOM     23  O   UNL     1      16.111  -0.386   1.489  1.00  0.00    -0.507 OA
ATOM     24  H   UNL     1      16.942  -0.439   2.058  1.00  0.00     0.293 HD
ENDBRANCH  10  23
BRANCH  11  25
ATOM     25  O   UNL     1      17.871   1.856  -2.354  1.00  0.00    -0.508 OA
ATOM     26  H   UNL     1      18.760   2.259  -2.084  1.00  0.00     0.293 HD
ENDBRANCH  11  25
ENDBRANCH   1   2
BRANCH   1  27
ATOM     27  C   UNL     1      10.625   0.605   1.879  1.00  0.00     0.339 C 
ATOM     28  C   UNL     1       9.182   0.780   2.406  1.00  0.00     0.214 C 
ATOM     29  O   UNL     1      10.641  -0.030   0.611  1.00  0.00    -0.332 OA
ATOM     30  C   UNL     1       8.261   1.459   1.371  1.00  0.00     0.180 C 
ATOM     31  C   UNL     1       9.973   0.749  -0.367  1.00  0.00     0.179 C 
ATOM     32  C   UNL     1       8.466   0.862  -0.040  1.00  0.00     0.177 C 
BRANCH  28  33
ATOM     33  O   UNL     1       9.174   1.510   3.606  1.00  0.00    -0.384 OA
ATOM     34  H   UNL     1       8.837   2.418   3.386  1.00  0.00     0.211 HD
ENDBRANCH  28  33
BRANCH  30  35
ATOM     35  O   UNL     1       8.407   2.860   1.372  1.00  0.00    -0.387 OA
ATOM     36  H   UNL     1       9.245   3.091   1.845  1.00  0.00     0.211 HD
ENDBRANCH  30  35
BRANCH  31  37
ATOM     37  C   UNL     1      10.190   0.106  -1.742  1.00  0.00     0.191 C 
BRANCH  37  38
ATOM     38  O   UNL     1      11.251   0.744  -2.397  1.00  0.00    -0.394 OA
ATOM     39  H   UNL     1      12.018   0.115  -2.359  1.00  0.00     0.210 HD
ENDBRANCH  37  38
ENDBRANCH  31  37
BRANCH  32  40
ATOM     40  O   UNL     1       7.875  -0.413  -0.099  1.00  0.00    -0.387 OA
ATOM     41  H   UNL     1       7.269  -0.486   0.683  1.00  0.00     0.211 HD
ENDBRANCH  32  40
ENDBRANCH   1  27
TORSDOF 12
ENDMDL
MODEL 4
REMARK VINA RESULT:    -6.105     15.611     19.466
REMARK INTER + INTRA:          -9.506
REMARK INTER:                  -8.067
REMARK INTRA:                  -1.439
REMARK UNBOUND:                -0.545
REMARK SMILES O=c1c(O[C@@H]2O[C@@H](CO)[C@@H](O)[C@H](O)[C@@H]2O)c(-c2ccc(O)c(O)c2)oc2cc(O)cc(O)c12
REMARK SMILES IDX 4 1 3 2 16 3 25 4 2 5 26 6 1 7 33 8 27 9 31 10 28 11 30 12
REMARK SMILES IDX 17 13 18 14 19 15 20 16 24 17 22 18 21 19 23 21 32 23 29 25
REMARK SMILES IDX 5 27 14 28 6 29 12 30 7 31 10 32 15 33 13 35 8 37 9 38 11 40
REMARK H PARENT 21 20 23 22 32 24 29 26 15 34 13 36 9 39 11 41
REMARK Flexibility Score: inf
ROOT
ATOM      1  O   UNL     1      25.559  12.424   7.312  1.00  0.00    -0.454 OA
ENDROOT
BRANCH   1   2
ATOM      2  C   UNL     1      26.017  11.180   7.764  1.00  0.00     0.214 A 
ATOM      3  C   UNL     1      26.745  11.045   8.964  1.00  0.00     0.180 A 
ATOM      4  O   UNL     1      27.255   9.864   9.291  1.00  0.00    -0.452 OA
ATOM      5  C   UNL     1      25.757  10.039   6.997  1.00  0.00     0.239 A 
ATOM      6  C   UNL     1      27.064   8.761   8.576  1.00  0.00     0.146 A 
ATOM      7  O   UNL     1      25.118  10.176   5.921  1.00  0.00    -0.285 OA
ATOM      8  C   UNL     1      26.255   8.780   7.410  1.00  0.00     0.111 A 
ATOM      9  C   UNL     1      27.675   7.578   8.998  1.00  0.00     0.094 A 
ATOM     10  C   UNL     1      26.037   7.554   6.714  1.00  0.00     0.134 A 
ATOM     11  C   UNL     1      27.502   6.397   8.275  1.00  0.00     0.123 A 
ATOM     12  C   UNL     1      26.691   6.392   7.141  1.00  0.00     0.093 A 
BRANCH   3  13
ATOM     13  C   UNL     1      26.959  12.178   9.891  1.00  0.00     0.025 A 
ATOM     14  C   UNL     1      27.936  13.151   9.632  1.00  0.00     0.016 A 
ATOM     15  C   UNL     1      28.119  14.218  10.513  1.00  0.00     0.051 A 
ATOM     16  C   UNL     1      27.323  14.342  11.657  1.00  0.00     0.157 A 
ATOM     17  C   UNL     1      26.142  12.312  11.023  1.00  0.00     0.062 A 
ATOM     18  C   UNL     1      26.317  13.379  11.913  1.00  0.00     0.158 A 
BRANCH  16  19
ATOM     19  O   UNL     1      27.560  15.429  12.502  1.00  0.00    -0.504 OA
ATOM     20  H   UNL     1      27.766  16.363  12.176  1.00  0.00     0.293 HD
ENDBRANCH  16  19
BRANCH  18  21
ATOM     21  O   UNL     1      25.479  13.444  13.027  1.00  0.00    -0.504 OA
ATOM     22  H   UNL     1      24.669  14.043  13.092  1.00  0.00     0.293 HD
ENDBRANCH  18  21
ENDBRANCH   3  13
BRANCH  10  23
ATOM     23  O   UNL     1      25.175   7.420   5.621  1.00  0.00    -0.507 OA
ATOM     24  H   UNL     1      24.369   8.001   5.450  1.00  0.00     0.293 HD
ENDBRANCH  10  23
BRANCH  11  25
ATOM     25  O   UNL     1      28.125   5.219   8.679  1.00  0.00    -0.508 OA
ATOM     26  H   UNL     1      28.614   5.155   9.564  1.00  0.00     0.293 HD
ENDBRANCH  11  25
ENDBRANCH   1   2
BRANCH   1  27
ATOM     27  C   UNL     1      26.161  13.133   6.221  1.00  0.00     0.339 C 
ATOM     28  C   UNL     1      25.120  13.499   5.138  1.00  0.00     0.214 C 
ATOM     29  O   UNL     1      26.853  14.280   6.684  1.00  0.00    -0.332 OA
ATOM     30  C   UNL     1      24.181  14.638   5.592  1.00  0.00     0.180 C 
ATOM     31  C   UNL     1      25.971  15.203   7.304  1.00  0.00     0.179 C 
ATOM     32  C   UNL     1      24.971  15.777   6.275  1.00  0.00     0.177 C 
BRANCH  28  33
ATOM     33  O   UNL     1      24.364  12.374   4.770  1.00  0.00    -0.384 OA
ATOM     34  H   UNL     1      24.911  11.576   4.995  1.00  0.00     0.211 HD
ENDBRANCH  28  33
BRANCH  30  35
ATOM     35  O   UNL     1      23.134  14.166   6.407  1.00  0.00    -0.387 OA
ATOM     36  H   UNL     1      23.413  13.311   6.818  1.00  0.00     0.211 HD
ENDBRANCH  30  35
BRANCH  31  37
ATOM     37  C   UNL     1      26.801  16.321   7.948  1.00  0.00     0.191 C 
BRANCH  37  38
ATOM     38  O   UNL     1      25.993  17.447   8.151  1.00  0.00    -0.394 OA
ATOM     39  H   UNL     1      26.206  18.075   7.412  1.00  0.00     0.210 HD
ENDBRANCH  37  38
ENDBRANCH  31  37
BRANCH  32  40
ATOM     40  O   UNL     1      25.669  16.513   5.300  1.00  0.00    -0.387 OA
ATOM     41  H   UNL     1      25.742  15.933   4.498  1.00  0.00     0.211 HD
ENDBRANCH  32  40
ENDBRANCH   1  27
TORSDOF 12
ENDMDL
MODEL 5
REMARK VINA RESULT:    -6.079      2.156      6.908
REMARK INTER + INTRA:          -9.467
REMARK INTER:                  -8.751
REMARK INTRA:                  -0.717
REMARK UNBOUND:                -0.545
REMARK SMILES O=c1c(O[C@@H]2O[C@@H](CO)[C@@H](O)[C@H](O)[C@@H]2O)c(-c2ccc(O)c(O)c2)oc2cc(O)cc(O)c12
REMARK SMILES IDX 4 1 3 2 16 3 25 4 2 5 26 6 1 7 33 8 27 9 31 10 28 11 30 12
REMARK SMILES IDX 17 13 18 14 19 15 20 16 24 17 22 18 21 19 23 21 32 23 29 25
REMARK SMILES IDX 5 27 14 28 6 29 12 30 7 31 10 32 15 33 13 35 8 37 9 38 11 40
REMARK H PARENT 21 20 23 22 32 24 29 26 15 34 13 36 9 39 11 41
REMARK Flexibility Score: inf
ROOT
ATOM      1  O   UNL     1      11.700   0.958  -0.489  1.00  0.00    -0.454 OA
ENDROOT
BRANCH   1   2
ATOM      2  C   UNL     1      13.077   1.210  -0.540  1.00  0.00     0.214 A 
ATOM      3  C   UNL     1      13.685   2.192   0.269  1.00  0.00     0.180 A 
ATOM      4  O   UNL     1      14.972   2.473   0.102  1.00  0.00    -0.452 OA
ATOM      5  C   UNL     1      13.872   0.476  -1.427  1.00  0.00     0.239 A 
ATOM      6  C   UNL     1      15.757   1.827  -0.752  1.00  0.00     0.146 A 
ATOM      7  O   UNL     1      13.314  -0.388  -2.153  1.00  0.00    -0.285 OA
ATOM      8  C   UNL     1      15.256   0.751  -1.531  1.00  0.00     0.111 A 
ATOM      9  C   UNL     1      17.090   2.228  -0.868  1.00  0.00     0.094 A 
ATOM     10  C   UNL     1      16.158   0.056  -2.390  1.00  0.00     0.134 A 
ATOM     11  C   UNL     1      17.949   1.577  -1.755  1.00  0.00     0.123 A 
ATOM     12  C   UNL     1      17.480   0.503  -2.510  1.00  0.00     0.093 A 
BRANCH   3  13
ATOM     13  C   UNL     1      12.941   2.927   1.316  1.00  0.00     0.025 A 
ATOM     14  C   UNL     1      13.251   4.260   1.624  1.00  0.00     0.016 A 
ATOM     15  C   UNL     1      12.534   4.941   2.609  1.00  0.00     0.051 A 
ATOM     16  C   UNL     1      11.486   4.312   3.291  1.00  0.00     0.157 A 
ATOM     17  C   UNL     1      11.876   2.301   1.979  1.00  0.00     0.062 A 
ATOM     18  C   UNL     1      11.149   2.976   2.968  1.00  0.00     0.158 A 
BRANCH  16  19
ATOM     19  O   UNL     1      10.812   5.046   4.269  1.00  0.00    -0.504 OA
ATOM     20  H   UNL     1      11.233   5.789   4.809  1.00  0.00     0.293 HD
ENDBRANCH  16  19
BRANCH  18  21
ATOM     21  O   UNL     1      10.111   2.288   3.598  1.00  0.00    -0.504 OA
ATOM     22  H   UNL     1       9.137   2.546   3.529  1.00  0.00     0.293 HD
ENDBRANCH  18  21
ENDBRANCH   3  13
BRANCH  10  23
ATOM     23  O   UNL     1      15.817  -1.085  -3.121  1.00  0.00    -0.507 OA
ATOM     24  H   UNL     1      15.007  -1.660  -2.945  1.00  0.00     0.293 HD
ENDBRANCH  10  23
BRANCH  11  25
ATOM     25  O   UNL     1      19.273   1.985  -1.889  1.00  0.00    -0.508 OA
ATOM     26  H   UNL     1      19.519   2.963  -1.995  1.00  0.00     0.293 HD
ENDBRANCH  11  25
ENDBRANCH   1   2
BRANCH   1  27
ATOM     27  C   UNL     1      10.792   1.342  -1.530  1.00  0.00     0.339 C 
ATOM     28  C   UNL     1       9.395   0.711  -1.327  1.00  0.00     0.214 C 
ATOM     29  O   UNL     1      10.715   2.753  -1.637  1.00  0.00    -0.332 OA
ATOM     30  C   UNL     1       8.621   1.371  -0.166  1.00  0.00     0.180 C 
ATOM     31  C   UNL     1      10.206   3.336  -0.448  1.00  0.00     0.179 C 
ATOM     32  C   UNL     1       8.738   2.911  -0.217  1.00  0.00     0.177 C 
BRANCH  28  33
ATOM     33  O   UNL     1       9.498  -0.672  -1.109  1.00  0.00    -0.384 OA
ATOM     34  H   UNL     1      10.189  -0.801  -0.407  1.00  0.00     0.211 HD
ENDBRANCH  28  33
BRANCH  30  35
ATOM     35  O   UNL     1       9.009   0.858   1.087  1.00  0.00    -0.387 OA
ATOM     36  H   UNL     1       9.996   0.888   1.149  1.00  0.00     0.211 HD
ENDBRANCH  30  35
BRANCH  31  37
ATOM     37  C   UNL     1      10.327   4.861  -0.557  1.00  0.00     0.191 C 
BRANCH  37  38
ATOM     38  O   UNL     1      10.473   5.226  -1.901  1.00  0.00    -0.394 OA
ATOM     39  H   UNL     1      10.918   4.460  -2.348  1.00  0.00     0.210 HD
ENDBRANCH  37  38
ENDBRANCH  31  37
BRANCH  32  40
ATOM     40  O   UNL     1       7.934   3.408  -1.259  1.00  0.00    -0.387 OA
ATOM     41  H   UNL     1       7.883   2.695  -1.948  1.00  0.00     0.211 HD
ENDBRANCH  32  40
ENDBRANCH   1  27
TORSDOF 12
ENDMDL
MODEL 6
REMARK VINA RESULT:    -6.068      1.899      4.476
REMARK INTER + INTRA:          -9.451
REMARK INTER:                  -9.217
REMARK INTRA:                  -0.234
REMARK UNBOUND:                -0.545
REMARK SMILES O=c1c(O[C@@H]2O[C@@H](CO)[C@@H](O)[C@H](O)[C@@H]2O)c(-c2ccc(O)c(O)c2)oc2cc(O)cc(O)c12
REMARK SMILES IDX 4 1 3 2 16 3 25 4 2 5 26 6 1 7 33 8 27 9 31 10 28 11 30 12
REMARK SMILES IDX 17 13 18 14 19 15 20 16 24 17 22 18 21 19 23 21 32 23 29 25
REMARK SMILES IDX 5 27 14 28 6 29 12 30 7 31 10 32 15 33 13 35 8 37 9 38 11 40
REMARK H PARENT 21 20 23 22 32 24 29 26 15 34 13 36 9 39 11 41
REMARK Flexibility Score: inf
ROOT
ATOM      1  O   UNL     1      14.120   0.729   0.233  1.00  0.00    -0.454 OA
ENDROOT
BRANCH   1   2
ATOM      2  C   UNL     1      13.358   1.810   0.695  1.00  0.00     0.214 A 
ATOM      3  C   UNL     1      13.295   2.146   2.063  1.00  0.00     0.180 A 
ATOM      4  O   UNL     1      12.470   3.106   2.464  1.00  0.00    -0.452 OA
ATOM      5  C   UNL     1      12.628   2.571  -0.224  1.00  0.00     0.239 A 
ATOM      6  C   UNL     1      11.732   3.831   1.631  1.00  0.00     0.146 A 
ATOM      7  O   UNL     1      12.682   2.252  -1.441  1.00  0.00    -0.285 OA
ATOM      8  C   UNL     1      11.811   3.635   0.227  1.00  0.00     0.111 A 
ATOM      9  C   UNL     1      10.874   4.795   2.167  1.00  0.00     0.094 A 
ATOM     10  C   UNL     1      11.039   4.482  -0.622  1.00  0.00     0.134 A 
ATOM     11  C   UNL     1      10.079   5.578   1.328  1.00  0.00     0.123 A 
ATOM     12  C   UNL     1      10.163   5.416  -0.054  1.00  0.00     0.093 A 
BRANCH   3  13
ATOM     13  C   UNL     1      14.127   1.471   3.083  1.00  0.00     0.025 A 
ATOM     14  C   UNL     1      13.877   0.142   3.457  1.00  0.00     0.016 A 
ATOM     15  C   UNL     1      14.677  -0.482   4.416  1.00  0.00     0.051 A 
ATOM     16  C   UNL     1      15.748   0.199   5.004  1.00  0.00     0.157 A 
ATOM     17  C   UNL     1      15.214   2.149   3.651  1.00  0.00     0.062 A 
ATOM     18  C   UNL     1      16.024   1.532   4.613  1.00  0.00     0.158 A 
BRANCH  16  19
ATOM     19  O   UNL     1      16.506  -0.479   5.960  1.00  0.00    -0.504 OA
ATOM     20  H   UNL     1      16.694  -1.472   5.932  1.00  0.00     0.293 HD
ENDBRANCH  16  19
BRANCH  18  21
ATOM     21  O   UNL     1      17.080   2.270   5.148  1.00  0.00    -0.504 OA
ATOM     22  H   UNL     1      17.257   3.241   4.935  1.00  0.00     0.293 HD
ENDBRANCH  18  21
ENDBRANCH   3  13
BRANCH  10  23
ATOM     23  O   UNL     1      11.113   4.464  -2.018  1.00  0.00    -0.507 OA
ATOM     24  H   UNL     1      10.378   4.772  -2.636  1.00  0.00     0.293 HD
ENDBRANCH  10  23
BRANCH  11  25
ATOM     25  O   UNL     1       9.208   6.527   1.857  1.00  0.00    -0.508 OA
ATOM     26  H   UNL     1       8.696   7.166   1.261  1.00  0.00     0.293 HD
ENDBRANCH  11  25
ENDBRANCH   1   2
BRANCH   1  27
ATOM     27  C   UNL     1      15.551   0.692   0.298  1.00  0.00     0.339 C 
ATOM     28  C   UNL     1      16.165   0.097  -0.990  1.00  0.00     0.214 C 
ATOM     29  O   UNL     1      16.077   1.979   0.577  1.00  0.00    -0.332 OA
ATOM     30  C   UNL     1      16.067   1.068  -2.186  1.00  0.00     0.180 C 
ATOM     31  C   UNL     1      15.762   2.902  -0.453  1.00  0.00     0.179 C 
ATOM     32  C   UNL     1      16.460   2.505  -1.774  1.00  0.00     0.177 C 
BRANCH  28  33
ATOM     33  O   UNL     1      15.554  -1.125  -1.315  1.00  0.00    -0.384 OA
ATOM     34  H   UNL     1      15.925  -1.806  -0.694  1.00  0.00     0.211 HD
ENDBRANCH  28  33
BRANCH  30  35
ATOM     35  O   UNL     1      14.800   1.028  -2.798  1.00  0.00    -0.387 OA
ATOM     36  H   UNL     1      14.841   0.415  -3.573  1.00  0.00     0.211 HD
ENDBRANCH  30  35
BRANCH  31  37
ATOM     37  C   UNL     1      16.188   4.305  -0.006  1.00  0.00     0.191 C 
BRANCH  37  38
ATOM     38  O   UNL     1      15.306   4.773   0.977  1.00  0.00    -0.394 OA
ATOM     39  H   UNL     1      14.392   4.643   0.612  1.00  0.00     0.210 HD
ENDBRANCH  37  38
ENDBRANCH  31  37
BRANCH  32  40
ATOM     40  O   UNL     1      17.856   2.580  -1.610  1.00  0.00    -0.387 OA
ATOM     41  H   UNL     1      18.256   1.939  -2.253  1.00  0.00     0.211 HD
ENDBRANCH  32  40
ENDBRANCH   1  27
TORSDOF 12
ENDMDL
MODEL 7
REMARK VINA RESULT:    -6.049      2.102      4.867
REMARK INTER + INTRA:          -9.423
REMARK INTER:                  -9.622
REMARK INTRA:                   0.199
REMARK UNBOUND:                -0.545
REMARK SMILES O=c1c(O[C@@H]2O[C@@H](CO)[C@@H](O)[C@H](O)[C@@H]2O)c(-c2ccc(O)c(O)c2)oc2cc(O)cc(O)c12
REMARK SMILES IDX 4 1 3 2 16 3 25 4 2 5 26 6 1 7 33 8 27 9 31 10 28 11 30 12
REMARK SMILES IDX 17 13 18 14 19 15 20 16 24 17 22 18 21 19 23 21 32 23 29 25
REMARK SMILES IDX 5 27 14 28 6 29 12 30 7 31 10 32 15 33 13 35 8 37 9 38 11 40
REMARK H PARENT 21 20 23 22 32 24 29 26 15 34 13 36 9 39 11 41
REMARK Flexibility Score: inf
ROOT
ATOM      1  O   UNL     1      15.251   0.601   0.236  1.00  0.00    -0.454 OA
ENDROOT
BRANCH   1   2
ATOM      2  C   UNL     1      14.000   0.907   0.789  1.00  0.00     0.214 A 
ATOM      3  C   UNL     1      13.748   0.792   2.171  1.00  0.00     0.180 A 
ATOM      4  O   UNL     1      12.517   0.982   2.630  1.00  0.00    -0.452 OA
ATOM      5  C   UNL     1      12.966   1.325  -0.056  1.00  0.00     0.239 A 
ATOM      6  C   UNL     1      11.498   1.345   1.861  1.00  0.00     0.146 A 
ATOM      7  O   UNL     1      13.201   1.410  -1.290  1.00  0.00    -0.285 OA
ATOM      8  C   UNL     1      11.681   1.589   0.475  1.00  0.00     0.111 A 
ATOM      9  C   UNL     1      10.237   1.486   2.447  1.00  0.00     0.094 A 
ATOM     10  C   UNL     1      10.563   2.034  -0.291  1.00  0.00     0.134 A 
ATOM     11  C   UNL     1       9.138   1.865   1.674  1.00  0.00     0.123 A 
ATOM     12  C   UNL     1       9.305   2.132   0.317  1.00  0.00     0.093 A 
BRANCH   3  13
ATOM     13  C   UNL     1      14.814   0.473   3.146  1.00  0.00     0.025 A 
ATOM     14  C   UNL     1      15.277  -0.842   3.309  1.00  0.00     0.016 A 
ATOM     15  C   UNL     1      16.289  -1.124   4.227  1.00  0.00     0.051 A 
ATOM     16  C   UNL     1      16.869  -0.101   4.986  1.00  0.00     0.157 A 
ATOM     17  C   UNL     1      15.410   1.504   3.886  1.00  0.00     0.062 A 
ATOM     18  C   UNL     1      16.427   1.233   4.809  1.00  0.00     0.158 A 
BRANCH  16  19
ATOM     19  O   UNL     1      17.873  -0.449   5.892  1.00  0.00    -0.504 OA
ATOM     20  H   UNL     1      18.717   0.089   6.035  1.00  0.00     0.293 HD
ENDBRANCH  16  19
BRANCH  18  21
ATOM     21  O   UNL     1      16.965   2.305   5.522  1.00  0.00    -0.504 OA
ATOM     22  H   UNL     1      16.685   3.267   5.394  1.00  0.00     0.293 HD
ENDBRANCH  18  21
ENDBRANCH   3  13
BRANCH  10  23
ATOM     23  O   UNL     1      10.638   2.412  -1.635  1.00  0.00    -0.507 OA
ATOM     24  H   UNL     1      11.332   2.080  -2.287  1.00  0.00     0.293 HD
ENDBRANCH  10  23
BRANCH  11  25
ATOM     25  O   UNL     1       7.875   1.988   2.249  1.00  0.00    -0.508 OA
ATOM     26  H   UNL     1       7.417   1.202   2.696  1.00  0.00     0.293 HD
ENDBRANCH  11  25
ENDBRANCH   1   2
BRANCH   1  27
ATOM     27  C   UNL     1      16.425   1.392   0.466  1.00  0.00     0.339 C 
ATOM     28  C   UNL     1      17.192   1.666  -0.848  1.00  0.00     0.214 C 
ATOM     29  O   UNL     1      16.098   2.597   1.137  1.00  0.00    -0.332 OA
ATOM     30  C   UNL     1      16.464   2.687  -1.747  1.00  0.00     0.180 C 
ATOM     31  C   UNL     1      15.234   3.408   0.357  1.00  0.00     0.179 C 
ATOM     32  C   UNL     1      15.950   3.891  -0.925  1.00  0.00     0.177 C 
BRANCH  28  33
ATOM     33  O   UNL     1      17.409   0.473  -1.558  1.00  0.00    -0.384 OA
ATOM     34  H   UNL     1      16.528   0.191  -1.919  1.00  0.00     0.211 HD
ENDBRANCH  28  33
BRANCH  30  35
ATOM     35  O   UNL     1      15.434   2.091  -2.499  1.00  0.00    -0.387 OA
ATOM     36  H   UNL     1      15.724   1.184  -2.769  1.00  0.00     0.211 HD
ENDBRANCH  30  35
BRANCH  31  37
ATOM     37  C   UNL     1      14.769   4.595   1.209  1.00  0.00     0.191 C 
BRANCH  37  38
ATOM     38  O   UNL     1      13.414   4.848   0.962  1.00  0.00    -0.394 OA
ATOM     39  H   UNL     1      13.254   5.788   1.237  1.00  0.00     0.210 HD
ENDBRANCH  37  38
ENDBRANCH  31  37
BRANCH  32  40
ATOM     40  O   UNL     1      17.034   4.717  -0.576  1.00  0.00    -0.387 OA
ATOM     41  H   UNL     1      17.687   4.666  -1.322  1.00  0.00     0.211 HD
ENDBRANCH  32  40
ENDBRANCH   1  27
TORSDOF 12
ENDMDL
MODEL 8
REMARK VINA RESULT:    -5.650      2.332      6.797
REMARK INTER + INTRA:          -8.837
REMARK INTER:                  -8.031
REMARK INTRA:                  -0.805
REMARK UNBOUND:                -0.545
REMARK SMILES O=c1c(O[C@@H]2O[C@@H](CO)[C@@H](O)[C@H](O)[C@@H]2O)c(-c2ccc(O)c(O)c2)oc2cc(O)cc(O)c12
REMARK SMILES IDX 4 1 3 2 16 3 25 4 2 5 26 6 1 7 33 8 27 9 31 10 28 11 30 12
REMARK SMILES IDX 17 13 18 14 19 15 20 16 24 17 22 18 21 19 23 21 32 23 29 25
REMARK SMILES IDX 5 27 14 28 6 29 12 30 7 31 10 32 15 33 13 35 8 37 9 38 11 40
REMARK H PARENT 21 20 23 22 32 24 29 26 15 34 13 36 9 39 11 41
REMARK Flexibility Score: inf
ROOT
ATOM      1  O   UNL     1      10.707   1.358  -1.026  1.00  0.00    -0.454 OA
ENDROOT
BRANCH   1   2
ATOM      2  C   UNL     1      12.053   1.738  -0.942  1.00  0.00     0.214 A 
ATOM      3  C   UNL     1      12.436   3.062  -0.643  1.00  0.00     0.180 A 
ATOM      4  O   UNL     1      13.719   3.399  -0.688  1.00  0.00    -0.452 OA
ATOM      5  C   UNL     1      13.047   0.782  -1.174  1.00  0.00     0.239 A 
ATOM      6  C   UNL     1      14.694   2.533  -0.938  1.00  0.00     0.146 A 
ATOM      7  O   UNL     1      12.692  -0.393  -1.453  1.00  0.00    -0.285 OA
ATOM      8  C   UNL     1      14.411   1.157  -1.145  1.00  0.00     0.111 A 
ATOM      9  C   UNL     1      16.008   3.004  -0.991  1.00  0.00     0.094 A 
ATOM     10  C   UNL     1      15.503   0.262  -1.351  1.00  0.00     0.134 A 
ATOM     11  C   UNL     1      17.063   2.128  -1.253  1.00  0.00     0.123 A 
ATOM     12  C   UNL     1      16.806   0.770  -1.434  1.00  0.00     0.093 A 
BRANCH   3  13
ATOM     13  C   UNL     1      11.454   4.104  -0.268  1.00  0.00     0.025 A 
ATOM     14  C   UNL     1      11.409   4.620   1.036  1.00  0.00     0.016 A 
ATOM     15  C   UNL     1      10.482   5.609   1.370  1.00  0.00     0.051 A 
ATOM     16  C   UNL     1       9.597   6.111   0.410  1.00  0.00     0.157 A 
ATOM     17  C   UNL     1      10.587   4.622  -1.240  1.00  0.00     0.062 A 
ATOM     18  C   UNL     1       9.654   5.615  -0.915  1.00  0.00     0.158 A 
BRANCH  16  19
ATOM     19  O   UNL     1       8.691   7.095   0.810  1.00  0.00    -0.504 OA
ATOM     20  H   UNL     1       7.738   6.906   1.087  1.00  0.00     0.293 HD
ENDBRANCH  16  19
BRANCH  18  21
ATOM     21  O   UNL     1       8.811   6.075  -1.928  1.00  0.00    -0.504 OA
ATOM     22  H   UNL     1       8.384   6.990  -1.937  1.00  0.00     0.293 HD
ENDBRANCH  18  21
ENDBRANCH   3  13
BRANCH  10  23
ATOM     23  O   UNL     1      15.366  -1.125  -1.456  1.00  0.00    -0.507 OA
ATOM     24  H   UNL     1      15.775  -1.689  -2.185  1.00  0.00     0.293 HD
ENDBRANCH  10  23
BRANCH  11  25
ATOM     25  O   UNL     1      18.372   2.596  -1.327  1.00  0.00    -0.508 OA
ATOM     26  H   UNL     1      18.587   3.584  -1.260  1.00  0.00     0.293 HD
ENDBRANCH  11  25
ENDBRANCH   1   2
BRANCH   1  27
ATOM     27  C   UNL     1       9.770   1.545   0.042  1.00  0.00     0.339 C 
ATOM     28  C   UNL     1       8.380   0.969  -0.313  1.00  0.00     0.214 C 
ATOM     29  O   UNL     1      10.267   0.996   1.251  1.00  0.00    -0.332 OA
ATOM     30  C   UNL     1       8.366  -0.575  -0.291  1.00  0.00     0.180 C 
ATOM     31  C   UNL     1      10.455  -0.405   1.146  1.00  0.00     0.179 C 
ATOM     32  C   UNL     1       9.100  -1.125   0.952  1.00  0.00     0.177 C 
BRANCH  28  33
ATOM     33  O   UNL     1       7.952   1.433  -1.567  1.00  0.00    -0.384 OA
ATOM     34  H   UNL     1       8.768   1.570  -2.116  1.00  0.00     0.211 HD
ENDBRANCH  28  33
BRANCH  30  35
ATOM     35  O   UNL     1       8.874  -1.125  -1.484  1.00  0.00    -0.387 OA
ATOM     36  H   UNL     1       9.746  -1.551  -1.290  1.00  0.00     0.211 HD
ENDBRANCH  30  35
BRANCH  31  37
ATOM     37  C   UNL     1      11.167  -0.904   2.409  1.00  0.00     0.191 C 
BRANCH  37  38
ATOM     38  O   UNL     1      10.489  -0.441   3.544  1.00  0.00    -0.394 OA
ATOM     39  H   UNL     1      10.681   0.531   3.603  1.00  0.00     0.210 HD
ENDBRANCH  37  38
ENDBRANCH  31  37
BRANCH  32  40
ATOM     40  O   UNL     1       8.299  -0.934   2.093  1.00  0.00    -0.387 OA
ATOM     41  H   UNL     1       8.690  -1.490   2.816  1.00  0.00     0.211 HD
ENDBRANCH  32  40
ENDBRANCH   1  27
TORSDOF 12
ENDMDL
MODEL 9
REMARK VINA RESULT:    -5.610      2.698      5.724
REMARK INTER + INTRA:          -8.779
REMARK INTER:                  -8.640
REMARK INTRA:                  -0.139
REMARK UNBOUND:                -0.545
REMARK SMILES O=c1c(O[C@@H]2O[C@@H](CO)[C@@H](O)[C@H](O)[C@@H]2O)c(-c2ccc(O)c(O)c2)oc2cc(O)cc(O)c12
REMARK SMILES IDX 4 1 3 2 16 3 25 4 2 5 26 6 1 7 33 8 27 9 31 10 28 11 30 12
REMARK SMILES IDX 17 13 18 14 19 15 20 16 24 17 22 18 21 19 23 21 32 23 29 25
REMARK SMILES IDX 5 27 14 28 6 29 12 30 7 31 10 32 15 33 13 35 8 37 9 38 11 40
REMARK H PARENT 21 20 23 22 32 24 29 26 15 34 13 36 9 39 11 41
REMARK Flexibility Score: inf
ROOT
ATOM      1  O   UNL     1      15.327   0.196   0.568  1.00  0.00    -0.454 OA
ENDROOT
BRANCH   1   2
ATOM      2  C   UNL     1      14.073   0.087   1.184  1.00  0.00     0.214 A 
ATOM      3  C   UNL     1      13.913   0.233   2.577  1.00  0.00     0.180 A 
ATOM      4  O   UNL     1      12.726   0.008   3.127  1.00  0.00    -0.452 OA
ATOM      5  C   UNL     1      12.950  -0.187   0.398  1.00  0.00     0.239 A 
ATOM      6  C   UNL     1      11.640  -0.289   2.424  1.00  0.00     0.146 A 
ATOM      7  O   UNL     1      13.109  -0.328  -0.843  1.00  0.00    -0.285 OA
ATOM      8  C   UNL     1      11.683  -0.352   1.006  1.00  0.00     0.111 A 
ATOM      9  C   UNL     1      10.448  -0.538   3.110  1.00  0.00     0.094 A 
ATOM     10  C   UNL     1      10.472  -0.618   0.300  1.00  0.00     0.134 A 
ATOM     11  C   UNL     1       9.283  -0.855   2.410  1.00  0.00     0.123 A 
ATOM     12  C   UNL     1       9.302  -0.897   1.017  1.00  0.00     0.093 A 
BRANCH   3  13
ATOM     13  C   UNL     1      15.026   0.640   3.463  1.00  0.00     0.025 A 
ATOM     14  C   UNL     1      15.387   1.989   3.598  1.00  0.00     0.016 A 
ATOM     15  C   UNL     1      16.434   2.357   4.445  1.00  0.00     0.051 A 
ATOM     16  C   UNL     1      17.126   1.391   5.184  1.00  0.00     0.157 A 
ATOM     17  C   UNL     1      15.700  -0.328   4.221  1.00  0.00     0.062 A 
ATOM     18  C   UNL     1      16.751   0.030   5.074  1.00  0.00     0.158 A 
BRANCH  16  19
ATOM     19  O   UNL     1      18.167   1.823   6.009  1.00  0.00    -0.504 OA
ATOM     20  H   UNL     1      18.947   1.243   6.285  1.00  0.00     0.293 HD
ENDBRANCH  16  19
BRANCH  18  21
ATOM     21  O   UNL     1      17.388  -0.986   5.787  1.00  0.00    -0.504 OA
ATOM     22  H   UNL     1      17.654  -0.915   6.759  1.00  0.00     0.293 HD
ENDBRANCH  18  21
ENDBRANCH   3  13
BRANCH  10  23
ATOM     23  O   UNL     1      10.360  -0.595  -1.093  1.00  0.00    -0.507 OA
ATOM     24  H   UNL     1       9.569  -0.945  -1.612  1.00  0.00     0.293 HD
ENDBRANCH  10  23
BRANCH  11  25
ATOM     25  O   UNL     1       8.097  -1.123   3.090  1.00  0.00    -0.508 OA
ATOM     26  H   UNL     1       8.008  -1.923   3.706  1.00  0.00     0.293 HD
ENDBRANCH  11  25
ENDBRANCH   1   2
BRANCH   1  27
ATOM     27  C   UNL     1      15.980   1.451   0.333  1.00  0.00     0.339 C 
ATOM     28  C   UNL     1      16.775   1.439  -0.993  1.00  0.00     0.214 C 
ATOM     29  O   UNL     1      15.049   2.519   0.370  1.00  0.00    -0.332 OA
ATOM     30  C   UNL     1      15.851   1.487  -2.229  1.00  0.00     0.180 C 
ATOM     31  C   UNL     1      14.075   2.394  -0.653  1.00  0.00     0.179 C 
ATOM     32  C   UNL     1      14.728   2.533  -2.048  1.00  0.00     0.177 C 
BRANCH  28  33
ATOM     33  O   UNL     1      17.610   0.312  -1.065  1.00  0.00    -0.384 OA
ATOM     34  H   UNL     1      17.224  -0.371  -0.455  1.00  0.00     0.211 HD
ENDBRANCH  28  33
BRANCH  30  35
ATOM     35  O   UNL     1      15.334   0.217  -2.552  1.00  0.00    -0.387 OA
ATOM     36  H   UNL     1      14.354   0.230  -2.417  1.00  0.00     0.211 HD
ENDBRANCH  30  35
BRANCH  31  37
ATOM     37  C   UNL     1      12.997   3.464  -0.441  1.00  0.00     0.191 C 
BRANCH  37  38
ATOM     38  O   UNL     1      12.389   3.767  -1.666  1.00  0.00    -0.394 OA
ATOM     39  H   UNL     1      13.086   3.637  -2.360  1.00  0.00     0.210 HD
ENDBRANCH  37  38
ENDBRANCH  31  37
BRANCH  32  40
ATOM     40  O   UNL     1      15.265   3.826  -2.189  1.00  0.00    -0.387 OA
ATOM     41  H   UNL     1      15.217   4.257  -1.296  1.00  0.00     0.211 HD
ENDBRANCH  32  40
ENDBRANCH   1  27
TORSDOF 12
ENDMDL
