MODEL 1
REMARK VINA RESULT:    -4.140      0.000      0.000
REMARK INTER + INTRA:          -4.382
REMARK INTER:                  -4.382
REMARK INTRA:                   0.000
REMARK UNBOUND:                 0.000
REMARK SMILES O=c1ccc2cc(O)c(O)cc2o1
REMARK SMILES IDX 4 1 3 2 2 3 1 4 13 5 12 6 11 7 9 8 7 9 6 10 5 11 8 12 10 14
REMARK H PARENT 8 13 10 15
REMARK Flexibility Score: inf
ROOT
ATOM      1  C   UNL     1      20.855  12.480 -10.686  1.00  0.00     0.019 A 
ATOM      2  C   UNL     1      19.810  13.324 -11.062  1.00  0.00     0.094 A 
ATOM      3  C   UNL     1      18.573  13.198 -10.421  1.00  0.00     0.336 A 
ATOM      4  O   UNL     1      17.618  13.951 -10.745  1.00  0.00    -0.246 OA
ATOM      5  O   UNL     1      18.399  12.287  -9.466  1.00  0.00    -0.423 OA
ATOM      6  C   UNL     1      19.369  11.464  -9.078  1.00  0.00     0.142 A 
ATOM      7  C   UNL     1      19.127  10.526  -8.068  1.00  0.00     0.098 A 
ATOM      8  C   UNL     1      20.146   9.655  -7.655  1.00  0.00     0.161 A 
ATOM      9  C   UNL     1      21.412   9.722  -8.255  1.00  0.00     0.158 A 
ATOM     10  C   UNL     1      21.661  10.661  -9.267  1.00  0.00     0.062 A 
ATOM     11  C   UNL     1      20.644  11.532  -9.680  1.00  0.00     0.022 A 
ENDROOT
BRANCH   9  12
ATOM     12  O   UNL     1      22.420   8.853  -7.838  1.00  0.00    -0.504 OA
ATOM     13  H   UNL     1      22.394   7.866  -8.061  1.00  0.00     0.293 HD
ENDBRANCH   9  12
BRANCH   8  14
ATOM     14  O   UNL     1      19.908   8.719  -6.650  1.00  0.00    -0.504 OA
ATOM     15  H   UNL     1      20.607   8.034  -6.389  1.00  0.00     0.293 HD
ENDBRANCH   8  14
TORSDOF 2
ENDMDL
MODEL 2
REMARK VINA RESULT:    -3.226     10.086     12.442
REMARK INTER + INTRA:          -3.415
REMARK INTER:                  -3.415
REMARK INTRA:                   0.000
REMARK UNBOUND:                 0.000
REMARK SMILES O=c1ccc2cc(O)c(O)cc2o1
REMARK SMILES IDX 4 1 3 2 2 3 1 4 13 5 12 6 11 7 9 8 7 9 6 10 5 11 8 12 10 14
REMARK H PARENT 8 13 10 15
REMARK Flexibility Score: inf
ROOT
ATOM      1  C   UNL     1      22.694   0.162  -8.366  1.00  0.00     0.019 A 
ATOM      2  C   UNL     1      23.124  -0.993  -7.713  1.00  0.00     0.094 A 
ATOM      3  C   UNL     1      22.245  -2.074  -7.599  1.00  0.00     0.336 A 
ATOM      4  O   UNL     1      22.614  -3.125  -7.013  1.00  0.00    -0.246 OA
ATOM      5  O   UNL     1      21.016  -2.000  -8.106  1.00  0.00    -0.423 OA
ATOM      6  C   UNL     1      20.567  -0.918  -8.737  1.00  0.00     0.142 A 
ATOM      7  C   UNL     1      19.266  -0.898  -9.250  1.00  0.00     0.098 A 
ATOM      8  C   UNL     1      18.787   0.240  -9.915  1.00  0.00     0.161 A 
ATOM      9  C   UNL     1      19.614   1.364 -10.067  1.00  0.00     0.158 A 
ATOM     10  C   UNL     1      20.919   1.349  -9.555  1.00  0.00     0.062 A 
ATOM     11  C   UNL     1      21.399   0.213  -8.890  1.00  0.00     0.022 A 
ENDROOT
BRANCH   9  12
ATOM     12  O   UNL     1      19.130   2.491 -10.731  1.00  0.00    -0.504 OA
ATOM     13  H   UNL     1      18.329   2.440 -11.348  1.00  0.00     0.293 HD
ENDBRANCH   9  12
BRANCH   8  14
ATOM     14  O   UNL     1      17.491   0.264 -10.428  1.00  0.00    -0.504 OA
ATOM     15  H   UNL     1      16.682   0.177  -9.824  1.00  0.00     0.293 HD
ENDBRANCH   8  14
TORSDOF 2
ENDMDL
MODEL 3
REMARK VINA RESULT:    -3.165      9.931     11.493
REMARK INTER + INTRA:          -3.350
REMARK INTER:                  -3.350
REMARK INTRA:                   0.000
REMARK UNBOUND:                 0.000
REMARK SMILES O=c1ccc2cc(O)c(O)cc2o1
REMARK SMILES IDX 4 1 3 2 2 3 1 4 13 5 12 6 11 7 9 8 7 9 6 10 5 11 8 12 10 14
REMARK H PARENT 8 13 10 15
REMARK Flexibility Score: inf
ROOT
ATOM      1  C   UNL     1      17.874  -0.334  -9.999  1.00  0.00     0.019 A 
ATOM      2  C   UNL     1      17.494   0.889 -10.552  1.00  0.00     0.094 A 
ATOM      3  C   UNL     1      18.432   1.924 -10.617  1.00  0.00     0.336 A 
ATOM      4  O   UNL     1      18.109   3.035 -11.113  1.00  0.00    -0.246 OA
ATOM      5  O   UNL     1      19.668   1.742 -10.158  1.00  0.00    -0.423 OA
ATOM      6  C   UNL     1      20.071   0.592  -9.624  1.00  0.00     0.142 A 
ATOM      7  C   UNL     1      21.383   0.460  -9.158  1.00  0.00     0.098 A 
ATOM      8  C   UNL     1      21.813  -0.749  -8.594  1.00  0.00     0.161 A 
ATOM      9  C   UNL     1      20.926  -1.832  -8.494  1.00  0.00     0.158 A 
ATOM     10  C   UNL     1      19.609  -1.705  -8.960  1.00  0.00     0.062 A 
ATOM     11  C   UNL     1      19.179  -0.497  -9.524  1.00  0.00     0.022 A 
ENDROOT
BRANCH   9  12
ATOM     12  O   UNL     1      21.362  -3.031  -7.932  1.00  0.00    -0.504 OA
ATOM     13  H   UNL     1      22.256  -3.102  -7.461  1.00  0.00     0.293 HD
ENDBRANCH   9  12
BRANCH   8  14
ATOM     14  O   UNL     1      23.120  -0.885  -8.128  1.00  0.00    -0.504 OA
ATOM     15  H   UNL     1      23.446  -1.748  -7.709  1.00  0.00     0.293 HD
ENDBRANCH   8  14
TORSDOF 2
ENDMDL
MODEL 4
REMARK VINA RESULT:    -3.065      2.477      3.643
REMARK INTER + INTRA:          -3.244
REMARK INTER:                  -3.244
REMARK INTRA:                   0.000
REMARK UNBOUND:                 0.000
REMARK SMILES O=c1ccc2cc(O)c(O)cc2o1
REMARK SMILES IDX 4 1 3 2 2 3 1 4 13 5 12 6 11 7 9 8 7 9 6 10 5 11 8 12 10 14
REMARK H PARENT 8 13 10 15
REMARK Flexibility Score: inf
ROOT
ATOM      1  C   UNL     1      17.881  14.616 -11.125  1.00  0.00     0.019 A 
ATOM      2  C   UNL     1      18.785  15.638 -10.834  1.00  0.00     0.094 A 
ATOM      3  C   UNL     1      19.763  15.420  -9.858  1.00  0.00     0.336 A 
ATOM      4  O   UNL     1      20.588  16.329  -9.581  1.00  0.00    -0.246 OA
ATOM      5  O   UNL     1      19.828  14.254  -9.219  1.00  0.00    -0.423 OA
ATOM      6  C   UNL     1      18.986  13.254  -9.467  1.00  0.00     0.142 A 
ATOM      7  C   UNL     1      19.104  12.051  -8.763  1.00  0.00     0.098 A 
ATOM      8  C   UNL     1      18.219  10.994  -9.020  1.00  0.00     0.161 A 
ATOM      9  C   UNL     1      17.211  11.141  -9.985  1.00  0.00     0.158 A 
ATOM     10  C   UNL     1      17.089  12.345 -10.694  1.00  0.00     0.062 A 
ATOM     11  C   UNL     1      17.972  13.402 -10.438  1.00  0.00     0.022 A 
ENDROOT
BRANCH   9  12
ATOM     12  O   UNL     1      16.336  10.085 -10.234  1.00  0.00    -0.504 OA
ATOM     13  H   UNL     1      16.669   9.134 -10.343  1.00  0.00     0.293 HD
ENDBRANCH   9  12
BRANCH   8  14
ATOM     14  O   UNL     1      18.333   9.794  -8.320  1.00  0.00    -0.504 OA
ATOM     15  H   UNL     1      17.846   8.957  -8.620  1.00  0.00     0.293 HD
ENDBRANCH   8  14
TORSDOF 2
ENDMDL
MODEL 5
REMARK VINA RESULT:    -2.916      1.215      2.337
REMARK INTER + INTRA:          -3.087
REMARK INTER:                  -3.087
REMARK INTRA:                   0.000
REMARK UNBOUND:                 0.000
REMARK SMILES O=c1ccc2cc(O)c(O)cc2o1
REMARK SMILES IDX 4 1 3 2 2 3 1 4 13 5 12 6 11 7 9 8 7 9 6 10 5 11 8 12 10 14
REMARK H PARENT 8 13 10 15
REMARK Flexibility Score: inf
ROOT
ATOM      1  C   UNL     1      18.480  11.771  -8.701  1.00  0.00     0.019 A 
ATOM      2  C   UNL     1      18.608  12.802  -9.631  1.00  0.00     0.094 A 
ATOM      3  C   UNL     1      19.833  12.981 -10.281  1.00  0.00     0.336 A 
ATOM      4  O   UNL     1      19.968  13.905 -11.125  1.00  0.00    -0.246 OA
ATOM      5  O   UNL     1      20.860  12.177 -10.014  1.00  0.00    -0.423 OA
ATOM      6  C   UNL     1      20.780  11.182  -9.134  1.00  0.00     0.142 A 
ATOM      7  C   UNL     1      21.893  10.370  -8.896  1.00  0.00     0.098 A 
ATOM      8  C   UNL     1      21.815   9.320  -7.969  1.00  0.00     0.161 A 
ATOM      9  C   UNL     1      20.618   9.082  -7.278  1.00  0.00     0.158 A 
ATOM     10  C   UNL     1      19.498   9.893  -7.514  1.00  0.00     0.062 A 
ATOM     11  C   UNL     1      19.575  10.942  -8.440  1.00  0.00     0.022 A 
ENDROOT
BRANCH   9  12
ATOM     12  O   UNL     1      20.548   8.036  -6.359  1.00  0.00    -0.504 OA
ATOM     13  H   UNL     1      20.478   7.071  -6.659  1.00  0.00     0.293 HD
ENDBRANCH   9  12
BRANCH   8  14
ATOM     14  O   UNL     1      22.923   8.509  -7.728  1.00  0.00    -0.504 OA
ATOM     15  H   UNL     1      22.994   7.946  -6.889  1.00  0.00     0.293 HD
ENDBRANCH   8  14
TORSDOF 2
ENDMDL
MODEL 6
REMARK VINA RESULT:    -2.493      1.808      4.265
REMARK INTER + INTRA:          -2.639
REMARK INTER:                  -2.639
REMARK INTRA:                   0.000
REMARK UNBOUND:                 0.000
REMARK SMILES O=c1ccc2cc(O)c(O)cc2o1
REMARK SMILES IDX 4 1 3 2 2 3 1 4 13 5 12 6 11 7 9 8 7 9 6 10 5 11 8 12 10 14
REMARK H PARENT 8 13 10 15
REMARK Flexibility Score: inf
ROOT
ATOM      1  C   UNL     1      21.105  12.935 -10.650  1.00  0.00     0.019 A 
ATOM      2  C   UNL     1      22.247  12.320 -10.137  1.00  0.00     0.094 A 
ATOM      3  C   UNL     1      22.107  11.145  -9.391  1.00  0.00     0.336 A 
ATOM      4  O   UNL     1      23.125  10.575  -8.920  1.00  0.00    -0.246 OA
ATOM      5  O   UNL     1      20.901  10.624  -9.175  1.00  0.00    -0.423 OA
ATOM      6  C   UNL     1      19.787  11.179  -9.646  1.00  0.00     0.142 A 
ATOM      7  C   UNL     1      18.548  10.585  -9.387  1.00  0.00     0.098 A 
ATOM      8  C   UNL     1      17.370  11.167  -9.881  1.00  0.00     0.161 A 
ATOM      9  C   UNL     1      17.433  12.347 -10.637  1.00  0.00     0.158 A 
ATOM     10  C   UNL     1      18.674  12.945 -10.900  1.00  0.00     0.062 A 
ATOM     11  C   UNL     1      19.851  12.366 -10.408  1.00  0.00     0.022 A 
ENDROOT
BRANCH   9  12
ATOM     12  O   UNL     1      16.259  12.917 -11.125  1.00  0.00    -0.504 OA
ATOM     13  H   UNL     1      16.263  13.802 -11.617  1.00  0.00     0.293 HD
ENDBRANCH   9  12
BRANCH   8  14
ATOM     14  O   UNL     1      16.133  10.578  -9.624  1.00  0.00    -0.504 OA
ATOM     15  H   UNL     1      15.946  10.099  -8.751  1.00  0.00     0.293 HD
ENDBRANCH   8  14
TORSDOF 2
ENDMDL
MODEL 7
REMARK VINA RESULT:    -2.334      2.167      2.977
REMARK INTER + INTRA:          -2.471
REMARK INTER:                  -2.471
REMARK INTRA:                   0.000
REMARK UNBOUND:                 0.000
REMARK SMILES O=c1ccc2cc(O)c(O)cc2o1
REMARK SMILES IDX 4 1 3 2 2 3 1 4 13 5 12 6 11 7 9 8 7 9 6 10 5 11 8 12 10 14
REMARK H PARENT 8 13 10 15
REMARK Flexibility Score: inf
ROOT
ATOM      1  C   UNL     1      19.665  13.586 -10.540  1.00  0.00     0.019 A 
ATOM      2  C   UNL     1      20.827  14.206 -10.999  1.00  0.00     0.094 A 
ATOM      3  C   UNL     1      22.064  13.617 -10.720  1.00  0.00     0.336 A 
ATOM      4  O   UNL     1      23.124  14.161 -11.125  1.00  0.00    -0.246 OA
ATOM      5  O   UNL     1      22.129  12.483 -10.026  1.00  0.00    -0.423 OA
ATOM      6  C   UNL     1      21.046  11.860  -9.571  1.00  0.00     0.142 A 
ATOM      7  C   UNL     1      21.177  10.669  -8.849  1.00  0.00     0.098 A 
ATOM      8  C   UNL     1      20.038  10.008  -8.366  1.00  0.00     0.161 A 
ATOM      9  C   UNL     1      18.762  10.540  -8.607  1.00  0.00     0.158 A 
ATOM     10  C   UNL     1      18.625  11.733  -9.332  1.00  0.00     0.062 A 
ATOM     11  C   UNL     1      19.762  12.395  -9.814  1.00  0.00     0.022 A 
ENDROOT
BRANCH   9  12
ATOM     12  O   UNL     1      17.635   9.877  -8.124  1.00  0.00    -0.504 OA
ATOM     13  H   UNL     1      17.365   9.930  -7.149  1.00  0.00     0.293 HD
ENDBRANCH   9  12
BRANCH   8  14
ATOM     14  O   UNL     1      20.164   8.822  -7.644  1.00  0.00    -0.504 OA
ATOM     15  H   UNL     1      20.830   8.732  -6.886  1.00  0.00     0.293 HD
ENDBRANCH   8  14
TORSDOF 2
ENDMDL
