MODEL 1
REMARK VINA RESULT:     0.096      0.000      0.000
REMARK INTER + INTRA:           0.405
REMARK INTER:                   0.105
REMARK INTRA:                   0.300
REMARK UNBOUND:                 0.300
REMARK SMILES CC1(C)CC[C@]2(C(=O)[O-])CC[C@]3(C)C(=CC[C@H]4[C@@]5(C)CC[C@H](O)C(C)(C)[C@H]5CC[C@@]43C)[C@@H]2C1
REMARK SMILES IDX 6 1 5 2 10 3 32 4 4 5 11 6 14 7 33 8 2 9 12 10 15 11 1 12
REMARK SMILES IDX 3 13 13 14 30 15 16 16 17 17 29 18 31 19 18 20 28 21 27 22
REMARK SMILES IDX 20 23 19 24 24 25 21 26 22 27 25 28 26 29 7 30 8 31 9 32
REMARK SMILES IDX 23 33
REMARK H PARENT 23 34
REMARK Flexibility Score: inf
ROOT
ATOM      1  C   UNL     1      99.066 111.435 109.538  1.00  0.00     0.017 C 
ATOM      2  C   UNL     1     100.589 111.127 109.704  1.00  0.00     0.014 C 
ATOM      3  C   UNL     1      98.334 110.160 109.042  1.00  0.00     0.014 C 
ATOM      4  C   UNL     1      98.831 112.660 108.580  1.00  0.00     0.028 C 
ATOM      5  C   UNL     1     101.371 111.146 108.389  1.00  0.00     0.007 C 
ATOM      6  C   UNL     1      96.848 110.385 108.690  1.00  0.00     0.013 C 
ATOM      7  C   UNL     1      97.353 112.766 108.153  1.00  0.00    -0.064 C 
ATOM      8  C   UNL     1      99.786 112.802 107.362  1.00  0.00     0.015 C 
ATOM      9  C   UNL     1     101.270 112.509 107.671  1.00  0.00    -0.035 C 
ATOM     10  C   UNL     1      96.595 111.512 107.631  1.00  0.00    -0.006 C 
ATOM     11  C   UNL     1      96.704 113.895 108.517  1.00  0.00    -0.027 C 
ATOM     12  C   UNL     1     102.047 112.423 106.338  1.00  0.00     0.011 C 
ATOM     13  C   UNL     1     101.906 113.648 108.506  1.00  0.00     0.011 C 
ATOM     14  C   UNL     1      97.200 111.019 106.272  1.00  0.00     0.017 C 
ATOM     15  C   UNL     1      95.016 111.808 107.406  1.00  0.00    -0.020 C 
ATOM     16  C   UNL     1      95.211 114.063 108.539  1.00  0.00     0.032 C 
ATOM     17  C   UNL     1      94.460 112.711 108.545  1.00  0.00     0.006 C 
ATOM     18  C   UNL     1      94.201 110.485 107.455  1.00  0.00     0.008 C 
ATOM     19  C   UNL     1      94.803 112.524 106.031  1.00  0.00     0.012 C 
ATOM     20  C   UNL     1      92.853 112.833 108.717  1.00  0.00    -0.025 C 
ATOM     21  C   UNL     1      92.751 110.690 107.076  1.00  0.00     0.005 C 
ATOM     22  C   UNL     1      91.987 111.664 108.014  1.00  0.00     0.003 C 
ATOM     23  C   UNL     1      92.318 114.229 108.272  1.00  0.00     0.010 C 
ATOM     24  C   UNL     1      92.623 112.766 110.264  1.00  0.00     0.012 C 
ATOM     25  C   UNL     1      90.600 112.099 107.345  1.00  0.00    -0.006 C 
ATOM     26  C   UNL     1      90.800 114.448 108.447  1.00  0.00     0.033 C 
ATOM     27  C   UNL     1      89.900 113.220 108.183  1.00  0.00     0.120 C 
ATOM     28  C   UNL     1      90.738 112.614 105.875  1.00  0.00     0.014 C 
ATOM     29  C   UNL     1      89.643 110.875 107.264  1.00  0.00     0.014 C 
ENDROOT
BRANCH   1  30
ATOM     30  C   UNL     1      98.522 111.748 110.937  1.00  0.00     0.048 C 
ATOM     31  O   UNL     1      99.315 111.964 111.894  1.00  0.00    -0.550 OA
ATOM     32  O   UNL     1      97.157 111.736 111.200  1.00  0.00    -0.550 OA
ENDBRANCH   1  30
BRANCH  27  33
ATOM     33  O   UNL     1      89.326 112.754 109.385  1.00  0.00    -0.393 OA
ATOM     34  H   UNL     1      90.036 112.463 110.005  1.00  0.00     0.210 HD
ENDBRANCH  27  33
TORSDOF 2
ENDMDL
MODEL 2
REMARK VINA RESULT:     0.478      1.579      8.025
REMARK INTER + INTRA:           0.820
REMARK INTER:                   0.945
REMARK INTRA:                  -0.125
REMARK UNBOUND:                 0.300
REMARK SMILES CC1(C)CC[C@]2(C(=O)[O-])CC[C@]3(C)C(=CC[C@H]4[C@@]5(C)CC[C@H](O)C(C)(C)[C@H]5CC[C@@]43C)[C@@H]2C1
REMARK SMILES IDX 6 1 5 2 10 3 32 4 4 5 11 6 14 7 33 8 2 9 12 10 15 11 1 12
REMARK SMILES IDX 3 13 13 14 30 15 16 16 17 17 29 18 31 19 18 20 28 21 27 22
REMARK SMILES IDX 20 23 19 24 24 25 21 26 22 27 25 28 26 29 7 30 8 31 9 32
REMARK SMILES IDX 23 33
REMARK H PARENT 23 34
REMARK Flexibility Score: inf
ROOT
ATOM      1  C   UNL     1      92.947 113.092 109.448  1.00  0.00     0.017 C 
ATOM      2  C   UNL     1      91.410 113.372 109.418  1.00  0.00     0.014 C 
ATOM      3  C   UNL     1      93.715 114.386 109.067  1.00  0.00     0.014 C 
ATOM      4  C   UNL     1      93.327 111.885 108.512  1.00  0.00     0.028 C 
ATOM      5  C   UNL     1      90.806 113.360 108.013  1.00  0.00     0.007 C 
ATOM      6  C   UNL     1      95.238 114.190 108.907  1.00  0.00     0.013 C 
ATOM      7  C   UNL     1      94.849 111.810 108.279  1.00  0.00    -0.064 C 
ATOM      8  C   UNL     1      92.540 111.746 107.179  1.00  0.00     0.015 C 
ATOM      9  C   UNL     1      91.024 112.010 107.297  1.00  0.00    -0.035 C 
ATOM     10  C   UNL     1      95.645 113.083 107.875  1.00  0.00    -0.006 C 
ATOM     11  C   UNL     1      95.466 110.686 108.710  1.00  0.00    -0.027 C 
ATOM     12  C   UNL     1      90.424 112.104 105.876  1.00  0.00     0.011 C 
ATOM     13  C   UNL     1      90.305 110.848 108.027  1.00  0.00     0.011 C 
ATOM     14  C   UNL     1      95.213 113.587 106.457  1.00  0.00     0.017 C 
ATOM     15  C   UNL     1      97.246 112.817 107.854  1.00  0.00    -0.020 C 
ATOM     16  C   UNL     1      96.946 110.542 108.923  1.00  0.00     0.032 C 
ATOM     17  C   UNL     1      97.665 111.905 109.043  1.00  0.00     0.006 C 
ATOM     18  C   UNL     1      98.024 114.152 108.025  1.00  0.00     0.008 C 
ATOM     19  C   UNL     1      97.647 112.124 106.508  1.00  0.00     0.012 C 
ATOM     20  C   UNL     1      99.239 111.807 109.421  1.00  0.00    -0.025 C 
ATOM     21  C   UNL     1      99.513 113.975 107.835  1.00  0.00     0.005 C 
ATOM     22  C   UNL     1     100.167 113.000 108.851  1.00  0.00     0.003 C 
ATOM     23  C   UNL     1      99.852 110.426 109.030  1.00  0.00     0.010 C 
ATOM     24  C   UNL     1      99.265 111.854 110.985  1.00  0.00     0.012 C 
ATOM     25  C   UNL     1     101.637 112.598 108.362  1.00  0.00    -0.006 C 
ATOM     26  C   UNL     1     101.339 110.230 109.398  1.00  0.00     0.033 C 
ATOM     27  C   UNL     1     102.243 111.476 109.269  1.00  0.00     0.120 C 
ATOM     28  C   UNL     1     101.699 112.103 106.880  1.00  0.00     0.014 C 
ATOM     29  C   UNL     1     102.574 113.838 108.421  1.00  0.00     0.014 C 
ENDROOT
BRANCH   1  30
ATOM     30  C   UNL     1      93.312 112.766 110.900  1.00  0.00     0.048 C 
ATOM     31  O   UNL     1      93.644 113.688 111.695  1.00  0.00    -0.550 OA
ATOM     32  O   UNL     1      93.351 111.454 111.358  1.00  0.00    -0.550 OA
ENDBRANCH   1  30
BRANCH  27  33
ATOM     33  O   UNL     1     102.648 111.933 110.541  1.00  0.00    -0.393 OA
ATOM     34  H   UNL     1     102.634 112.919 110.563  1.00  0.00     0.210 HD
ENDBRANCH  27  33
TORSDOF 2
ENDMDL
MODEL 3
REMARK VINA RESULT:     2.279      2.157      8.158
REMARK INTER + INTRA:           2.779
REMARK INTER:                   2.349
REMARK INTRA:                   0.431
REMARK UNBOUND:                 0.300
REMARK SMILES CC1(C)CC[C@]2(C(=O)[O-])CC[C@]3(C)C(=CC[C@H]4[C@@]5(C)CC[C@H](O)C(C)(C)[C@H]5CC[C@@]43C)[C@@H]2C1
REMARK SMILES IDX 6 1 5 2 10 3 32 4 4 5 11 6 14 7 33 8 2 9 12 10 15 11 1 12
REMARK SMILES IDX 3 13 13 14 30 15 16 16 17 17 29 18 31 19 18 20 28 21 27 22
REMARK SMILES IDX 20 23 19 24 24 25 21 26 22 27 25 28 26 29 7 30 8 31 9 32
REMARK SMILES IDX 23 33
REMARK H PARENT 23 34
REMARK Flexibility Score: inf
ROOT
ATOM      1  C   UNL     1      92.620 110.630 107.328  1.00  0.00     0.017 C 
ATOM      2  C   UNL     1      91.079 110.366 107.335  1.00  0.00     0.014 C 
ATOM      3  C   UNL     1      93.212 110.262 108.714  1.00  0.00     0.014 C 
ATOM      4  C   UNL     1      92.944 112.116 106.925  1.00  0.00     0.028 C 
ATOM      5  C   UNL     1      90.265 111.468 108.016  1.00  0.00     0.007 C 
ATOM      6  C   UNL     1      94.702 110.631 108.879  1.00  0.00     0.013 C 
ATOM      7  C   UNL     1      94.412 112.476 107.229  1.00  0.00    -0.064 C 
ATOM      8  C   UNL     1      91.972 113.217 107.433  1.00  0.00     0.015 C 
ATOM      9  C   UNL     1      90.476 112.845 107.348  1.00  0.00    -0.035 C 
ATOM     10  C   UNL     1      95.030 112.139 108.616  1.00  0.00    -0.006 C 
ATOM     11  C   UNL     1      95.176 112.820 106.168  1.00  0.00    -0.027 C 
ATOM     12  C   UNL     1      89.656 113.899 108.125  1.00  0.00     0.011 C 
ATOM     13  C   UNL     1      89.976 112.856 105.882  1.00  0.00     0.011 C 
ATOM     14  C   UNL     1      94.343 112.971 109.751  1.00  0.00     0.017 C 
ATOM     15  C   UNL     1      96.624 112.442 108.658  1.00  0.00    -0.020 C 
ATOM     16  C   UNL     1      96.678 112.851 106.161  1.00  0.00     0.032 C 
ATOM     17  C   UNL     1      97.296 112.031 107.316  1.00  0.00     0.006 C 
ATOM     18  C   UNL     1      97.310 111.601 109.772  1.00  0.00     0.008 C 
ATOM     19  C   UNL     1      96.865 113.969 108.907  1.00  0.00     0.012 C 
ATOM     20  C   UNL     1      98.912 111.909 107.269  1.00  0.00    -0.025 C 
ATOM     21  C   UNL     1      98.761 111.981 109.964  1.00  0.00     0.005 C 
ATOM     22  C   UNL     1      99.641 111.766 108.704  1.00  0.00     0.003 C 
ATOM     23  C   UNL     1      99.565 113.070 106.456  1.00  0.00     0.010 C 
ATOM     24  C   UNL     1      99.179 110.610 106.439  1.00  0.00     0.012 C 
ATOM     25  C   UNL     1     101.044 112.517 108.876  1.00  0.00    -0.006 C 
ATOM     26  C   UNL     1     101.102 113.006 106.321  1.00  0.00     0.033 C 
ATOM     27  C   UNL     1     101.872 112.471 107.549  1.00  0.00     0.120 C 
ATOM     28  C   UNL     1     100.913 114.014 109.309  1.00  0.00     0.014 C 
ATOM     29  C   UNL     1     101.877 111.835 109.999  1.00  0.00     0.014 C 
ENDROOT
BRANCH   1  30
ATOM     30  C   UNL     1      93.231 109.663 106.308  1.00  0.00     0.048 C 
ATOM     31  O   UNL     1      92.560 108.686 105.875  1.00  0.00    -0.550 OA
ATOM     32  O   UNL     1      94.550 109.795 105.888  1.00  0.00    -0.550 OA
ENDBRANCH   1  30
BRANCH  27  33
ATOM     33  O   UNL     1     102.433 111.206 107.274  1.00  0.00    -0.393 OA
ATOM     34  H   UNL     1     103.052 111.273 106.508  1.00  0.00     0.210 HD
ENDBRANCH  27  33
TORSDOF 2
ENDMDL
MODEL 4
REMARK VINA RESULT:     2.374      4.498      7.684
REMARK INTER + INTRA:           2.882
REMARK INTER:                   3.011
REMARK INTRA:                  -0.129
REMARK UNBOUND:                 0.300
REMARK SMILES CC1(C)CC[C@]2(C(=O)[O-])CC[C@]3(C)C(=CC[C@H]4[C@@]5(C)CC[C@H](O)C(C)(C)[C@H]5CC[C@@]43C)[C@@H]2C1
REMARK SMILES IDX 6 1 5 2 10 3 32 4 4 5 11 6 14 7 33 8 2 9 12 10 15 11 1 12
REMARK SMILES IDX 3 13 13 14 30 15 16 16 17 17 29 18 31 19 18 20 28 21 27 22
REMARK SMILES IDX 20 23 19 24 24 25 21 26 22 27 25 28 26 29 7 30 8 31 9 32
REMARK SMILES IDX 23 33
REMARK H PARENT 23 34
REMARK Flexibility Score: inf
ROOT
ATOM      1  C   UNL     1      95.124 111.475 108.669  1.00  0.00     0.017 C 
ATOM      2  C   UNL     1      94.826 112.981 108.958  1.00  0.00     0.014 C 
ATOM      3  C   UNL     1      96.401 111.046 109.439  1.00  0.00     0.014 C 
ATOM      4  C   UNL     1      95.247 111.202 107.124  1.00  0.00     0.028 C 
ATOM      5  C   UNL     1      95.685 113.950 108.143  1.00  0.00     0.007 C 
ATOM      6  C   UNL     1      96.886 109.618 109.105  1.00  0.00     0.013 C 
ATOM      7  C   UNL     1      95.857 109.814 106.844  1.00  0.00    -0.064 C 
ATOM      8  C   UNL     1      95.921 112.304 106.261  1.00  0.00     0.015 C 
ATOM      9  C   UNL     1      95.509 113.747 106.623  1.00  0.00    -0.035 C 
ATOM     10  C   UNL     1      97.149 109.361 107.583  1.00  0.00    -0.006 C 
ATOM     11  C   UNL     1      95.076 108.942 106.168  1.00  0.00    -0.027 C 
ATOM     12  C   UNL     1      96.444 114.731 105.883  1.00  0.00     0.011 C 
ATOM     13  C   UNL     1      94.061 114.050 106.165  1.00  0.00     0.011 C 
ATOM     14  C   UNL     1      98.372 110.246 107.164  1.00  0.00     0.017 C 
ATOM     15  C   UNL     1      97.513 107.810 107.271  1.00  0.00    -0.020 C 
ATOM     16  C   UNL     1      95.297 107.457 106.100  1.00  0.00     0.032 C 
ATOM     17  C   UNL     1      96.222 106.942 107.227  1.00  0.00     0.006 C 
ATOM     18  C   UNL     1      98.403 107.222 108.402  1.00  0.00     0.008 C 
ATOM     19  C   UNL     1      98.250 107.708 105.894  1.00  0.00     0.012 C 
ATOM     20  C   UNL     1      96.376 105.330 107.290  1.00  0.00    -0.025 C 
ATOM     21  C   UNL     1      98.912 105.837 108.068  1.00  0.00     0.005 C 
ATOM     22  C   UNL     1      97.788 104.787 107.858  1.00  0.00     0.003 C 
ATOM     23  C   UNL     1      96.062 104.656 105.918  1.00  0.00     0.010 C 
ATOM     24  C   UNL     1      95.236 104.870 108.257  1.00  0.00     0.012 C 
ATOM     25  C   UNL     1      98.385 103.473 107.166  1.00  0.00    -0.006 C 
ATOM     26  C   UNL     1      96.139 103.114 105.901  1.00  0.00     0.033 C 
ATOM     27  C   UNL     1      97.243 102.477 106.775  1.00  0.00     0.120 C 
ATOM     28  C   UNL     1      99.232 103.759 105.883  1.00  0.00     0.014 C 
ATOM     29  C   UNL     1      99.353 102.750 108.145  1.00  0.00     0.014 C 
ENDROOT
BRANCH   1  30
ATOM     30  C   UNL     1      93.957 110.671 109.254  1.00  0.00     0.048 C 
ATOM     31  O   UNL     1      92.867 110.581 108.624  1.00  0.00    -0.550 OA
ATOM     32  O   UNL     1      94.044 110.082 110.511  1.00  0.00    -0.550 OA
ENDBRANCH   1  30
BRANCH  27  33
ATOM     33  O   UNL     1      96.679 101.801 107.877  1.00  0.00    -0.393 OA
ATOM     34  H   UNL     1      96.753 100.825 107.746  1.00  0.00     0.210 HD
ENDBRANCH  27  33
TORSDOF 2
ENDMDL
MODEL 5
REMARK VINA RESULT:     3.079      1.561      8.190
REMARK INTER + INTRA:           3.649
REMARK INTER:                   3.299
REMARK INTRA:                   0.350
REMARK UNBOUND:                 0.300
REMARK SMILES CC1(C)CC[C@]2(C(=O)[O-])CC[C@]3(C)C(=CC[C@H]4[C@@]5(C)CC[C@H](O)C(C)(C)[C@H]5CC[C@@]43C)[C@@H]2C1
REMARK SMILES IDX 6 1 5 2 10 3 32 4 4 5 11 6 14 7 33 8 2 9 12 10 15 11 1 12
REMARK SMILES IDX 3 13 13 14 30 15 16 16 17 17 29 18 31 19 18 20 28 21 27 22
REMARK SMILES IDX 20 23 19 24 24 25 21 26 22 27 25 28 26 29 7 30 8 31 9 32
REMARK SMILES IDX 23 33
REMARK H PARENT 23 34
REMARK Flexibility Score: inf
ROOT
ATOM      1  C   UNL     1      90.819 112.213 107.085  1.00  0.00     0.017 C 
ATOM      2  C   UNL     1      89.357 112.226 106.535  1.00  0.00     0.014 C 
ATOM      3  C   UNL     1      91.812 112.437 105.915  1.00  0.00     0.014 C 
ATOM      4  C   UNL     1      91.124 110.883 107.869  1.00  0.00     0.028 C 
ATOM      5  C   UNL     1      88.932 110.913 105.875  1.00  0.00     0.007 C 
ATOM      6  C   UNL     1      93.297 112.286 106.311  1.00  0.00     0.013 C 
ATOM      7  C   UNL     1      92.634 110.714 108.128  1.00  0.00    -0.064 C 
ATOM      8  C   UNL     1      90.492 109.574 107.318  1.00  0.00     0.015 C 
ATOM      9  C   UNL     1      89.030 109.715 106.845  1.00  0.00    -0.035 C 
ATOM     10  C   UNL     1      93.656 110.912 106.971  1.00  0.00    -0.006 C 
ATOM     11  C   UNL     1      93.019 110.673 109.424  1.00  0.00    -0.027 C 
ATOM     12  C   UNL     1      88.627 108.432 106.085  1.00  0.00     0.011 C 
ATOM     13  C   UNL     1      88.062 109.866 108.045  1.00  0.00     0.011 C 
ATOM     14  C   UNL     1      93.479 109.807 105.875  1.00  0.00     0.017 C 
ATOM     15  C   UNL     1      95.189 110.861 107.501  1.00  0.00    -0.020 C 
ATOM     16  C   UNL     1      94.424 110.881 109.914  1.00  0.00     0.032 C 
ATOM     17  C   UNL     1      95.320 111.588 108.871  1.00  0.00     0.006 C 
ATOM     18  C   UNL     1      96.132 111.605 106.514  1.00  0.00     0.008 C 
ATOM     19  C   UNL     1      95.642 109.371 107.663  1.00  0.00     0.012 C 
ATOM     20  C   UNL     1      96.803 111.968 109.402  1.00  0.00    -0.025 C 
ATOM     21  C   UNL     1      97.590 111.432 106.875  1.00  0.00     0.005 C 
ATOM     22  C   UNL     1      97.962 111.987 108.276  1.00  0.00     0.003 C 
ATOM     23  C   UNL     1      97.245 111.074 110.602  1.00  0.00     0.010 C 
ATOM     24  C   UNL     1      96.647 113.411 109.986  1.00  0.00     0.012 C 
ATOM     25  C   UNL     1      99.403 111.448 108.717  1.00  0.00    -0.006 C 
ATOM     26  C   UNL     1      98.630 111.400 111.202  1.00  0.00     0.033 C 
ATOM     27  C   UNL     1      99.719 111.841 110.199  1.00  0.00     0.120 C 
ATOM     28  C   UNL     1      99.569 109.899 108.586  1.00  0.00     0.014 C 
ATOM     29  C   UNL     1     100.502 112.059 107.802  1.00  0.00     0.014 C 
ENDROOT
BRANCH   1  30
ATOM     30  C   UNL     1      90.952 113.418 108.023  1.00  0.00     0.048 C 
ATOM     31  O   UNL     1      90.443 114.528 107.708  1.00  0.00    -0.550 OA
ATOM     32  O   UNL     1      91.687 113.339 109.201  1.00  0.00    -0.550 OA
ENDBRANCH   1  30
BRANCH  27  33
ATOM     33  O   UNL     1     100.032 113.206 110.369  1.00  0.00    -0.393 OA
ATOM     34  H   UNL     1     100.684 113.489 109.685  1.00  0.00     0.210 HD
ENDBRANCH  27  33
TORSDOF 2
ENDMDL
