MODEL 1
REMARK VINA RESULT:    -1.700      0.000      0.000
REMARK INTER + INTRA:          -3.529
REMARK INTER:                  -3.291
REMARK INTRA:                  -0.238
REMARK UNBOUND:                -0.238
REMARK SMILES CCCCCCCCCCCCCCCCCC(=O)[O-]
REMARK SMILES IDX 10 1 11 2 12 3 13 4 14 5 15 6 16 7 17 8 18 9 19 10 20 11
REMARK SMILES IDX 9 12 8 13 7 14 6 15 5 16 4 17 3 18 2 19 1 20
REMARK H PARENT
REMARK Flexibility Score: inf
ROOT
ATOM      1  C   UNL     1       1.403  59.533  -4.204  1.00  0.00     0.000 C 
ENDROOT
BRANCH   1   2
ATOM      2  C   UNL     1       0.436  60.727  -4.111  1.00  0.00     0.000 C 
BRANCH   2   3
ATOM      3  C   UNL     1      -1.045  60.300  -4.183  1.00  0.00     0.000 C 
BRANCH   3   4
ATOM      4  C   UNL     1      -1.286  59.020  -5.006  1.00  0.00     0.000 C 
BRANCH   4   5
ATOM      5  C   UNL     1      -1.406  59.240  -6.526  1.00  0.00     0.000 C 
BRANCH   5   6
ATOM      6  C   UNL     1      -2.777  58.875  -7.134  1.00  0.00     0.000 C 
BRANCH   6   7
ATOM      7  C   UNL     1      -3.394  59.953  -8.043  1.00  0.00     0.006 C 
BRANCH   7   8
ATOM      8  C   UNL     1      -4.650  60.596  -7.440  1.00  0.00     0.053 C 
BRANCH   8   9
ATOM      9  C   UNL     1      -4.545  60.646  -5.948  1.00  0.00     0.041 C 
ATOM     10  O   UNL     1      -4.853  59.641  -5.257  1.00  0.00    -0.550 OA
ATOM     11  O   UNL     1      -4.154  61.821  -5.317  1.00  0.00    -0.550 OA
ENDBRANCH   8   9
ENDBRANCH   7   8
ENDBRANCH   6   7
ENDBRANCH   5   6
ENDBRANCH   4   5
ENDBRANCH   3   4
ENDBRANCH   2   3
ENDBRANCH   1   2
BRANCH   1  12
ATOM     12  C   UNL     1       2.292  59.599  -5.465  1.00  0.00     0.000 C 
BRANCH  12  13
ATOM     13  C   UNL     1       2.098  60.885  -6.287  1.00  0.00    -0.000 C 
BRANCH  13  14
ATOM     14  C   UNL     1       2.674  60.777  -7.706  1.00  0.00    -0.000 C 
BRANCH  14  15
ATOM     15  C   UNL     1       3.108  59.337  -8.018  1.00  0.00    -0.000 C 
BRANCH  15  16
ATOM     16  C   UNL     1       4.390  58.922  -7.272  1.00  0.00    -0.000 C 
BRANCH  16  17
ATOM     17  C   UNL     1       5.673  58.915  -8.125  1.00  0.00    -0.000 C 
BRANCH  17  18
ATOM     18  C   UNL     1       6.845  59.649  -7.450  1.00  0.00    -0.000 C 
BRANCH  18  19
ATOM     19  C   UNL     1       8.201  58.990  -7.753  1.00  0.00    -0.003 C 
ATOM     20  C   UNL     1       9.338  60.004  -7.877  1.00  0.00     0.004 C 
ENDBRANCH  18  19
ENDBRANCH  17  18
ENDBRANCH  16  17
ENDBRANCH  15  16
ENDBRANCH  14  15
ENDBRANCH  13  14
ENDBRANCH  12  13
ENDBRANCH   1  12
TORSDOF 16
ENDMDL
MODEL 2
REMARK VINA RESULT:    -1.467      4.183      8.949
REMARK INTER + INTRA:          -3.078
REMARK INTER:                  -2.531
REMARK INTRA:                  -0.547
REMARK UNBOUND:                -0.238
REMARK SMILES CCCCCCCCCCCCCCCCCC(=O)[O-]
REMARK SMILES IDX 10 1 11 2 12 3 13 4 14 5 15 6 16 7 17 8 18 9 19 10 20 11
REMARK SMILES IDX 9 12 8 13 7 14 6 15 5 16 4 17 3 18 2 19 1 20
REMARK H PARENT
REMARK Flexibility Score: inf
ROOT
ATOM      1  C   UNL     1       0.524  60.719  -3.720  1.00  0.00     0.000 C 
ENDROOT
BRANCH   1   2
ATOM      2  C   UNL     1       0.200  60.748  -5.225  1.00  0.00     0.000 C 
BRANCH   2   3
ATOM      3  C   UNL     1       0.522  59.413  -5.929  1.00  0.00     0.000 C 
BRANCH   3   4
ATOM      4  C   UNL     1       2.027  59.085  -5.982  1.00  0.00     0.000 C 
BRANCH   4   5
ATOM      5  C   UNL     1       2.601  58.903  -7.399  1.00  0.00     0.000 C 
BRANCH   5   6
ATOM      6  C   UNL     1       3.560  60.019  -7.866  1.00  0.00     0.000 C 
BRANCH   6   7
ATOM      7  C   UNL     1       4.930  60.035  -7.166  1.00  0.00     0.006 C 
BRANCH   7   8
ATOM      8  C   UNL     1       5.946  59.087  -7.819  1.00  0.00     0.053 C 
BRANCH   8   9
ATOM      9  C   UNL     1       7.325  59.658  -7.728  1.00  0.00     0.041 C 
ATOM     10  O   UNL     1       7.551  60.834  -8.117  1.00  0.00    -0.550 OA
ATOM     11  O   UNL     1       8.373  58.876  -7.259  1.00  0.00    -0.550 OA
ENDBRANCH   8   9
ENDBRANCH   7   8
ENDBRANCH   6   7
ENDBRANCH   5   6
ENDBRANCH   4   5
ENDBRANCH   3   4
ENDBRANCH   2   3
ENDBRANCH   1   2
BRANCH   1  12
ATOM     12  C   UNL     1      -0.749  60.740  -2.848  1.00  0.00     0.000 C 
BRANCH  12  13
ATOM     13  C   UNL     1      -2.031  60.389  -3.623  1.00  0.00    -0.000 C 
BRANCH  13  14
ATOM     14  C   UNL     1      -2.792  59.204  -3.010  1.00  0.00    -0.000 C 
BRANCH  14  15
ATOM     15  C   UNL     1      -4.266  59.214  -3.440  1.00  0.00    -0.000 C 
BRANCH  15  16
ATOM     16  C   UNL     1      -4.456  59.559  -4.929  1.00  0.00    -0.000 C 
BRANCH  16  17
ATOM     17  C   UNL     1      -3.384  58.989  -5.876  1.00  0.00    -0.000 C 
BRANCH  17  18
ATOM     18  C   UNL     1      -3.692  59.257  -7.360  1.00  0.00    -0.000 C 
BRANCH  18  19
ATOM     19  C   UNL     1      -5.200  59.383  -7.632  1.00  0.00    -0.003 C 
ATOM     20  C   UNL     1      -5.622  60.811  -7.977  1.00  0.00     0.004 C 
ENDBRANCH  18  19
ENDBRANCH  17  18
ENDBRANCH  16  17
ENDBRANCH  15  16
ENDBRANCH  14  15
ENDBRANCH  13  14
ENDBRANCH  12  13
ENDBRANCH   1  12
TORSDOF 16
ENDMDL
MODEL 3
REMARK VINA RESULT:     0.503      3.016      7.699
REMARK INTER + INTRA:           0.736
REMARK INTER:                   1.299
REMARK INTRA:                  -0.564
REMARK UNBOUND:                -0.238
REMARK SMILES CCCCCCCCCCCCCCCCCC(=O)[O-]
REMARK SMILES IDX 10 1 11 2 12 3 13 4 14 5 15 6 16 7 17 8 18 9 19 10 20 11
REMARK SMILES IDX 9 12 8 13 7 14 6 15 5 16 4 17 3 18 2 19 1 20
REMARK H PARENT
REMARK Flexibility Score: inf
ROOT
ATOM      1  C   UNL     1       0.343  60.214  -4.299  1.00  0.00     0.000 C 
ENDROOT
BRANCH   1   2
ATOM      2  C   UNL     1      -0.564  59.706  -5.435  1.00  0.00     0.000 C 
BRANCH   2   3
ATOM      3  C   UNL     1       0.211  58.899  -6.499  1.00  0.00     0.000 C 
BRANCH   3   4
ATOM      4  C   UNL     1       1.702  59.273  -6.600  1.00  0.00     0.000 C 
BRANCH   4   5
ATOM      5  C   UNL     1       2.381  58.875  -7.924  1.00  0.00     0.000 C 
BRANCH   5   6
ATOM      6  C   UNL     1       3.820  59.401  -8.105  1.00  0.00     0.000 C 
BRANCH   6   7
ATOM      7  C   UNL     1       4.017  60.890  -7.768  1.00  0.00     0.006 C 
BRANCH   7   8
ATOM      8  C   UNL     1       2.760  61.732  -8.024  1.00  0.00     0.053 C 
BRANCH   8   9
ATOM      9  C   UNL     1       2.511  62.659  -6.877  1.00  0.00     0.041 C 
ATOM     10  O   UNL     1       2.298  62.197  -5.724  1.00  0.00    -0.550 OA
ATOM     11  O   UNL     1       2.463  64.031  -7.087  1.00  0.00    -0.550 OA
ENDBRANCH   8   9
ENDBRANCH   7   8
ENDBRANCH   6   7
ENDBRANCH   5   6
ENDBRANCH   4   5
ENDBRANCH   3   4
ENDBRANCH   2   3
ENDBRANCH   1   2
BRANCH   1  12
ATOM     12  C   UNL     1      -0.468  60.696  -3.077  1.00  0.00     0.000 C 
BRANCH  12  13
ATOM     13  C   UNL     1      -1.988  60.702  -3.311  1.00  0.00    -0.000 C 
BRANCH  13  14
ATOM     14  C   UNL     1      -2.751  59.839  -2.297  1.00  0.00    -0.000 C 
BRANCH  14  15
ATOM     15  C   UNL     1      -3.722  58.882  -3.005  1.00  0.00    -0.000 C 
BRANCH  15  16
ATOM     16  C   UNL     1      -3.548  58.875  -4.536  1.00  0.00    -0.000 C 
BRANCH  16  17
ATOM     17  C   UNL     1      -4.797  59.280  -5.340  1.00  0.00    -0.000 C 
BRANCH  17  18
ATOM     18  C   UNL     1      -4.648  59.023  -6.850  1.00  0.00    -0.000 C 
BRANCH  18  19
ATOM     19  C   UNL     1      -3.695  60.024  -7.523  1.00  0.00    -0.003 C 
ATOM     20  C   UNL     1      -4.237  61.453  -7.517  1.00  0.00     0.004 C 
ENDBRANCH  18  19
ENDBRANCH  17  18
ENDBRANCH  16  17
ENDBRANCH  15  16
ENDBRANCH  14  15
ENDBRANCH  13  14
ENDBRANCH  12  13
ENDBRANCH   1  12
TORSDOF 16
ENDMDL
MODEL 4
REMARK VINA RESULT:     0.578      2.954      7.757
REMARK INTER + INTRA:           0.881
REMARK INTER:                  -0.455
REMARK INTRA:                   1.335
REMARK UNBOUND:                -0.238
REMARK SMILES CCCCCCCCCCCCCCCCCC(=O)[O-]
REMARK SMILES IDX 10 1 11 2 12 3 13 4 14 5 15 6 16 7 17 8 18 9 19 10 20 11
REMARK SMILES IDX 9 12 8 13 7 14 6 15 5 16 4 17 3 18 2 19 1 20
REMARK H PARENT
REMARK Flexibility Score: inf
ROOT
ATOM      1  C   UNL     1      -2.377  59.540  -7.136  1.00  0.00     0.000 C 
ENDROOT
BRANCH   1   2
ATOM      2  C   UNL     1      -1.200  58.877  -7.874  1.00  0.00     0.000 C 
BRANCH   2   3
ATOM      3  C   UNL     1       0.109  58.911  -7.058  1.00  0.00     0.000 C 
BRANCH   3   4
ATOM      4  C   UNL     1       1.384  58.879  -7.922  1.00  0.00     0.000 C 
BRANCH   4   5
ATOM      5  C   UNL     1       2.228  60.166  -7.882  1.00  0.00     0.000 C 
BRANCH   5   6
ATOM      6  C   UNL     1       2.945  60.438  -6.543  1.00  0.00     0.000 C 
BRANCH   6   7
ATOM      7  C   UNL     1       2.255  59.843  -5.303  1.00  0.00     0.006 C 
BRANCH   7   8
ATOM      8  C   UNL     1       1.825  60.911  -4.288  1.00  0.00     0.053 C 
BRANCH   8   9
ATOM      9  C   UNL     1       0.567  60.496  -3.595  1.00  0.00     0.041 C 
ATOM     10  O   UNL     1      -0.080  59.495  -4.002  1.00  0.00    -0.550 OA
ATOM     11  O   UNL     1       0.078  61.244  -2.531  1.00  0.00    -0.550 OA
ENDBRANCH   8   9
ENDBRANCH   7   8
ENDBRANCH   6   7
ENDBRANCH   5   6
ENDBRANCH   4   5
ENDBRANCH   3   4
ENDBRANCH   2   3
ENDBRANCH   1   2
BRANCH   1  12
ATOM     12  C   UNL     1      -3.526  59.923  -8.095  1.00  0.00     0.000 C 
BRANCH  12  13
ATOM     13  C   UNL     1      -4.311  61.168  -7.647  1.00  0.00    -0.000 C 
BRANCH  13  14
ATOM     14  C   UNL     1      -5.479  60.831  -6.710  1.00  0.00    -0.000 C 
BRANCH  14  15
ATOM     15  C   UNL     1      -5.540  59.322  -6.425  1.00  0.00    -0.000 C 
BRANCH  15  16
ATOM     16  C   UNL     1      -4.608  58.889  -5.279  1.00  0.00    -0.000 C 
BRANCH  16  17
ATOM     17  C   UNL     1      -5.194  59.041  -3.863  1.00  0.00    -0.000 C 
BRANCH  17  18
ATOM     18  C   UNL     1      -4.112  59.201  -2.780  1.00  0.00    -0.000 C 
BRANCH  18  19
ATOM     19  C   UNL     1      -2.866  59.935  -3.301  1.00  0.00    -0.003 C 
ATOM     20  C   UNL     1      -3.210  61.186  -4.110  1.00  0.00     0.004 C 
ENDBRANCH  18  19
ENDBRANCH  17  18
ENDBRANCH  16  17
ENDBRANCH  15  16
ENDBRANCH  14  15
ENDBRANCH  13  14
ENDBRANCH  12  13
ENDBRANCH   1  12
TORSDOF 16
ENDMDL
MODEL 5
REMARK VINA RESULT:     0.847      3.050      5.873
REMARK INTER + INTRA:           1.401
REMARK INTER:                   1.928
REMARK INTRA:                  -0.528
REMARK UNBOUND:                -0.238
REMARK SMILES CCCCCCCCCCCCCCCCCC(=O)[O-]
REMARK SMILES IDX 10 1 11 2 12 3 13 4 14 5 15 6 16 7 17 8 18 9 19 10 20 11
REMARK SMILES IDX 9 12 8 13 7 14 6 15 5 16 4 17 3 18 2 19 1 20
REMARK H PARENT
REMARK Flexibility Score: inf
ROOT
ATOM      1  C   UNL     1      -3.921  61.382  -4.369  1.00  0.00     0.000 C 
ENDROOT
BRANCH   1   2
ATOM      2  C   UNL     1      -4.588  60.182  -3.674  1.00  0.00     0.000 C 
BRANCH   2   3
ATOM      3  C   UNL     1      -3.783  58.875  -3.839  1.00  0.00     0.000 C 
BRANCH   3   4
ATOM      4  C   UNL     1      -2.278  59.030  -3.551  1.00  0.00     0.000 C 
BRANCH   4   5
ATOM      5  C   UNL     1      -1.730  60.461  -3.714  1.00  0.00     0.000 C 
BRANCH   5   6
ATOM      6  C   UNL     1      -0.244  60.552  -4.117  1.00  0.00     0.000 C 
BRANCH   6   7
ATOM      7  C   UNL     1       0.699  61.066  -3.014  1.00  0.00     0.006 C 
BRANCH   7   8
ATOM      8  C   UNL     1       1.055  59.988  -1.982  1.00  0.00     0.053 C 
BRANCH   8   9
ATOM      9  C   UNL     1       0.383  60.273  -0.677  1.00  0.00     0.041 C 
ATOM     10  O   UNL     1      -0.694  59.692  -0.379  1.00  0.00    -0.550 OA
ATOM     11  O   UNL     1       0.917  61.218   0.190  1.00  0.00    -0.550 OA
ENDBRANCH   8   9
ENDBRANCH   7   8
ENDBRANCH   6   7
ENDBRANCH   5   6
ENDBRANCH   4   5
ENDBRANCH   3   4
ENDBRANCH   2   3
ENDBRANCH   1   2
BRANCH   1  12
ATOM     12  C   UNL     1      -4.335  61.502  -5.852  1.00  0.00     0.000 C 
BRANCH  12  13
ATOM     13  C   UNL     1      -3.230  61.080  -6.835  1.00  0.00    -0.000 C 
BRANCH  13  14
ATOM     14  C   UNL     1      -3.738  60.135  -7.933  1.00  0.00    -0.000 C 
BRANCH  14  15
ATOM     15  C   UNL     1      -2.864  58.875  -8.025  1.00  0.00    -0.000 C 
BRANCH  15  16
ATOM     16  C   UNL     1      -1.598  58.957  -7.151  1.00  0.00    -0.000 C 
BRANCH  16  17
ATOM     17  C   UNL     1      -0.265  58.878  -7.917  1.00  0.00    -0.000 C 
BRANCH  17  18
ATOM     18  C   UNL     1       0.955  59.186  -7.031  1.00  0.00    -0.000 C 
BRANCH  18  19
ATOM     19  C   UNL     1       2.090  59.867  -7.814  1.00  0.00    -0.003 C 
ATOM     20  C   UNL     1       3.280  58.938  -8.058  1.00  0.00     0.004 C 
ENDBRANCH  18  19
ENDBRANCH  17  18
ENDBRANCH  16  17
ENDBRANCH  15  16
ENDBRANCH  14  15
ENDBRANCH  13  14
ENDBRANCH  12  13
ENDBRANCH   1  12
TORSDOF 16
ENDMDL
MODEL 6
REMARK VINA RESULT:     0.925      3.355      7.860
REMARK INTER + INTRA:           1.552
REMARK INTER:                   2.827
REMARK INTRA:                  -1.274
REMARK UNBOUND:                -0.238
REMARK SMILES CCCCCCCCCCCCCCCCCC(=O)[O-]
REMARK SMILES IDX 10 1 11 2 12 3 13 4 14 5 15 6 16 7 17 8 18 9 19 10 20 11
REMARK SMILES IDX 9 12 8 13 7 14 6 15 5 16 4 17 3 18 2 19 1 20
REMARK H PARENT
REMARK Flexibility Score: inf
ROOT
ATOM      1  C   UNL     1      -1.385  60.055  -0.476  1.00  0.00     0.000 C 
ENDROOT
BRANCH   1   2
ATOM      2  C   UNL     1      -0.027  59.541   0.037  1.00  0.00     0.000 C 
BRANCH   2   3
ATOM      3  C   UNL     1       1.017  59.393  -1.090  1.00  0.00     0.000 C 
BRANCH   3   4
ATOM      4  C   UNL     1       0.969  60.523  -2.135  1.00  0.00     0.000 C 
BRANCH   4   5
ATOM      5  C   UNL     1       1.721  60.226  -3.446  1.00  0.00     0.000 C 
BRANCH   5   6
ATOM      6  C   UNL     1       0.822  60.001  -4.680  1.00  0.00     0.000 C 
BRANCH   6   7
ATOM      7  C   UNL     1       1.149  60.888  -5.895  1.00  0.00     0.006 C 
BRANCH   7   8
ATOM      8  C   UNL     1       2.644  60.900  -6.241  1.00  0.00     0.053 C 
BRANCH   8   9
ATOM      9  C   UNL     1       2.961  59.811  -7.217  1.00  0.00     0.041 C 
ATOM     10  O   UNL     1       2.043  59.082  -7.675  1.00  0.00    -0.550 OA
ATOM     11  O   UNL     1       4.279  59.568  -7.584  1.00  0.00    -0.550 OA
ENDBRANCH   8   9
ENDBRANCH   7   8
ENDBRANCH   6   7
ENDBRANCH   5   6
ENDBRANCH   4   5
ENDBRANCH   3   4
ENDBRANCH   2   3
ENDBRANCH   1   2
BRANCH   1  12
ATOM     12  C   UNL     1      -2.386  58.906  -0.727  1.00  0.00     0.000 C 
BRANCH  12  13
ATOM     13  C   UNL     1      -2.944  58.880  -2.161  1.00  0.00    -0.000 C 
BRANCH  13  14
ATOM     14  C   UNL     1      -2.045  59.618  -3.163  1.00  0.00    -0.000 C 
BRANCH  14  15
ATOM     15  C   UNL     1      -2.877  60.513  -4.094  1.00  0.00    -0.000 C 
BRANCH  15  16
ATOM     16  C   UNL     1      -4.290  59.960  -4.355  1.00  0.00    -0.000 C 
BRANCH  16  17
ATOM     17  C   UNL     1      -4.383  58.886  -5.454  1.00  0.00    -0.000 C 
BRANCH  17  18
ATOM     18  C   UNL     1      -5.300  59.298  -6.619  1.00  0.00    -0.000 C 
BRANCH  18  19
ATOM     19  C   UNL     1      -4.543  60.054  -7.722  1.00  0.00    -0.003 C 
ATOM     20  C   UNL     1      -3.153  59.476  -7.989  1.00  0.00     0.004 C 
ENDBRANCH  18  19
ENDBRANCH  17  18
ENDBRANCH  16  17
ENDBRANCH  15  16
ENDBRANCH  14  15
ENDBRANCH  13  14
ENDBRANCH  12  13
ENDBRANCH   1  12
TORSDOF 16
ENDMDL
MODEL 7
REMARK VINA RESULT:     1.291      2.939      6.199
REMARK INTER + INTRA:           2.261
REMARK INTER:                   2.469
REMARK INTRA:                  -0.208
REMARK UNBOUND:                -0.238
REMARK SMILES CCCCCCCCCCCCCCCCCC(=O)[O-]
REMARK SMILES IDX 10 1 11 2 12 3 13 4 14 5 15 6 16 7 17 8 18 9 19 10 20 11
REMARK SMILES IDX 9 12 8 13 7 14 6 15 5 16 4 17 3 18 2 19 1 20
REMARK H PARENT
REMARK Flexibility Score: inf
ROOT
ATOM      1  C   UNL     1       1.385  60.285  -4.491  1.00  0.00     0.000 C 
ENDROOT
BRANCH   1   2
ATOM      2  C   UNL     1       1.602  61.274  -5.651  1.00  0.00     0.000 C 
BRANCH   2   3
ATOM      3  C   UNL     1       1.850  60.564  -6.999  1.00  0.00     0.000 C 
BRANCH   3   4
ATOM      4  C   UNL     1       1.385  59.095  -7.024  1.00  0.00     0.000 C 
BRANCH   4   5
ATOM      5  C   UNL     1      -0.127  58.890  -6.818  1.00  0.00     0.000 C 
BRANCH   5   6
ATOM      6  C   UNL     1      -1.019  59.377  -7.979  1.00  0.00     0.000 C 
BRANCH   6   7
ATOM      7  C   UNL     1      -2.516  59.057  -7.829  1.00  0.00     0.006 C 
BRANCH   7   8
ATOM      8  C   UNL     1      -3.390  60.315  -7.740  1.00  0.00     0.053 C 
BRANCH   8   9
ATOM      9  C   UNL     1      -4.421  60.159  -6.667  1.00  0.00     0.041 C 
ATOM     10  O   UNL     1      -5.189  59.161  -6.666  1.00  0.00    -0.550 OA
ATOM     11  O   UNL     1      -4.569  61.141  -5.695  1.00  0.00    -0.550 OA
ENDBRANCH   8   9
ENDBRANCH   7   8
ENDBRANCH   6   7
ENDBRANCH   5   6
ENDBRANCH   4   5
ENDBRANCH   3   4
ENDBRANCH   2   3
ENDBRANCH   1   2
BRANCH   1  12
ATOM     12  C   UNL     1       0.118  60.615  -3.672  1.00  0.00     0.000 C 
BRANCH  12  13
ATOM     13  C   UNL     1      -1.193  60.275  -4.403  1.00  0.00    -0.000 C 
BRANCH  13  14
ATOM     14  C   UNL     1      -2.228  59.605  -3.490  1.00  0.00    -0.000 C 
BRANCH  14  15
ATOM     15  C   UNL     1      -2.029  60.028  -2.026  1.00  0.00    -0.000 C 
BRANCH  15  16
ATOM     16  C   UNL     1      -2.258  58.875  -1.031  1.00  0.00    -0.000 C 
BRANCH  16  17
ATOM     17  C   UNL     1      -1.855  59.175   0.425  1.00  0.00    -0.000 C 
BRANCH  17  18
ATOM     18  C   UNL     1      -0.330  59.185   0.635  1.00  0.00    -0.000 C 
BRANCH  18  19
ATOM     19  C   UNL     1       0.250  60.608   0.650  1.00  0.00    -0.003 C 
ATOM     20  C   UNL     1       0.684  61.086  -0.736  1.00  0.00     0.004 C 
ENDBRANCH  18  19
ENDBRANCH  17  18
ENDBRANCH  16  17
ENDBRANCH  15  16
ENDBRANCH  14  15
ENDBRANCH  13  14
ENDBRANCH  12  13
ENDBRANCH   1  12
TORSDOF 16
ENDMDL
