MODEL 1
REMARK VINA RESULT:    -6.996      0.000      0.000
REMARK INTER + INTRA:         -17.383
REMARK INTER:                 -15.995
REMARK INTRA:                  -1.388
REMARK UNBOUND:                -1.388
REMARK SMILES CCCCCCCCCCCCCCCCCCCCCCCC(=O)[O-]
REMARK SMILES IDX 13 1 14 2 15 3 16 4 17 5 18 6 19 7 20 8 21 9 22 10 23 11
REMARK SMILES IDX 24 12 25 13 26 14 12 15 11 16 10 17 9 18 8 19 7 20 6 21 5 22
REMARK SMILES IDX 4 23 3 24 2 25 1 26
REMARK H PARENT
REMARK Flexibility Score: inf
ROOT
ATOM      1  C   UNL     1      25.508  -8.181  20.553  1.00  0.00     0.000 C 
ENDROOT
BRANCH   1   2
ATOM      2  C   UNL     1      23.989  -8.341  20.733  1.00  0.00     0.000 C 
BRANCH   2   3
ATOM      3  C   UNL     1      23.622  -9.355  21.827  1.00  0.00     0.000 C 
BRANCH   3   4
ATOM      4  C   UNL     1      23.282  -8.641  23.143  1.00  0.00     0.000 C 
BRANCH   4   5
ATOM      5  C   UNL     1      22.246  -9.403  23.988  1.00  0.00     0.000 C 
BRANCH   5   6
ATOM      6  C   UNL     1      20.963  -8.611  24.320  1.00  0.00     0.000 C 
BRANCH   6   7
ATOM      7  C   UNL     1      20.310  -8.957  25.671  1.00  0.00     0.000 C 
BRANCH   7   8
ATOM      8  C   UNL     1      18.864  -8.442  25.784  1.00  0.00     0.000 C 
BRANCH   8   9
ATOM      9  C   UNL     1      18.468  -7.547  24.598  1.00  0.00     0.000 C 
BRANCH   9  10
ATOM     10  C   UNL     1      17.108  -6.866  24.804  1.00  0.00     0.006 C 
BRANCH  10  11
ATOM     11  C   UNL     1      17.286  -5.397  25.196  1.00  0.00     0.053 C 
BRANCH  11  12
ATOM     12  C   UNL     1      15.970  -4.684  25.184  1.00  0.00     0.041 C 
ATOM     13  O   UNL     1      14.954  -5.222  25.697  1.00  0.00    -0.550 OA
ATOM     14  O   UNL     1      15.858  -3.440  24.573  1.00  0.00    -0.550 OA
ENDBRANCH  11  12
ENDBRANCH  10  11
ENDBRANCH   9  10
ENDBRANCH   8   9
ENDBRANCH   7   8
ENDBRANCH   6   7
ENDBRANCH   5   6
ENDBRANCH   4   5
ENDBRANCH   3   4
ENDBRANCH   2   3
ENDBRANCH   1   2
BRANCH   1  15
ATOM     15  C   UNL     1      25.867  -7.090  19.530  1.00  0.00     0.000 C 
BRANCH  15  16
ATOM     16  C   UNL     1      24.860  -5.924  19.517  1.00  0.00     0.000 C 
BRANCH  16  17
ATOM     17  C   UNL     1      25.483  -4.522  19.373  1.00  0.00     0.000 C 
BRANCH  17  18
ATOM     18  C   UNL     1      26.875  -4.544  18.714  1.00  0.00    -0.000 C 
BRANCH  18  19
ATOM     19  C   UNL     1      27.992  -4.158  19.708  1.00  0.00    -0.000 C 
BRANCH  19  20
ATOM     20  C   UNL     1      29.276  -3.650  19.030  1.00  0.00    -0.000 C 
BRANCH  20  21
ATOM     21  C   UNL     1      29.606  -2.195  19.395  1.00  0.00    -0.000 C 
BRANCH  21  22
ATOM     22  C   UNL     1      28.455  -1.481  20.129  1.00  0.00    -0.000 C 
BRANCH  22  23
ATOM     23  C   UNL     1      28.260   0.003  19.764  1.00  0.00    -0.000 C 
BRANCH  23  24
ATOM     24  C   UNL     1      26.802   0.473  19.902  1.00  0.00    -0.000 C 
BRANCH  24  25
ATOM     25  C   UNL     1      25.795  -0.679  19.756  1.00  0.00    -0.003 C 
ATOM     26  C   UNL     1      24.345  -0.197  19.714  1.00  0.00     0.004 C 
ENDBRANCH  24  25
ENDBRANCH  23  24
ENDBRANCH  22  23
ENDBRANCH  21  22
ENDBRANCH  20  21
ENDBRANCH  19  20
ENDBRANCH  18  19
ENDBRANCH  17  18
ENDBRANCH  16  17
ENDBRANCH  15  16
ENDBRANCH   1  15
TORSDOF 22
ENDMDL
MODEL 2
REMARK VINA RESULT:    -6.966      4.512     10.861
REMARK INTER + INTRA:         -17.313
REMARK INTER:                 -15.862
REMARK INTRA:                  -1.451
REMARK UNBOUND:                -1.388
REMARK SMILES CCCCCCCCCCCCCCCCCCCCCCCC(=O)[O-]
REMARK SMILES IDX 13 1 14 2 15 3 16 4 17 5 18 6 19 7 20 8 21 9 22 10 23 11
REMARK SMILES IDX 24 12 25 13 26 14 12 15 11 16 10 17 9 18 8 19 7 20 6 21 5 22
REMARK SMILES IDX 4 23 3 24 2 25 1 26
REMARK H PARENT
REMARK Flexibility Score: inf
ROOT
ATOM      1  C   UNL     1      25.476  -8.842  20.737  1.00  0.00     0.000 C 
ENDROOT
BRANCH   1   2
ATOM      2  C   UNL     1      26.599  -7.860  20.363  1.00  0.00     0.000 C 
BRANCH   2   3
ATOM      3  C   UNL     1      26.600  -7.496  18.870  1.00  0.00     0.000 C 
BRANCH   3   4
ATOM      4  C   UNL     1      27.106  -6.062  18.659  1.00  0.00     0.000 C 
BRANCH   4   5
ATOM      5  C   UNL     1      26.687  -5.106  19.791  1.00  0.00     0.000 C 
BRANCH   5   6
ATOM      6  C   UNL     1      25.330  -4.401  19.583  1.00  0.00     0.000 C 
BRANCH   6   7
ATOM      7  C   UNL     1      25.399  -2.868  19.459  1.00  0.00     0.000 C 
BRANCH   7   8
ATOM      8  C   UNL     1      26.533  -2.251  20.297  1.00  0.00     0.000 C 
BRANCH   8   9
ATOM      9  C   UNL     1      27.165  -1.027  19.614  1.00  0.00     0.000 C 
BRANCH   9  10
ATOM     10  C   UNL     1      28.699  -1.085  19.604  1.00  0.00     0.006 C 
BRANCH  10  11
ATOM     11  C   UNL     1      29.199  -2.431  20.134  1.00  0.00     0.053 C 
BRANCH  11  12
ATOM     12  C   UNL     1      30.061  -3.111  19.117  1.00  0.00     0.041 C 
ATOM     13  O   UNL     1      31.304  -2.910  19.104  1.00  0.00    -0.550 OA
ATOM     14  O   UNL     1      29.486  -3.938  18.159  1.00  0.00    -0.550 OA
ENDBRANCH  11  12
ENDBRANCH  10  11
ENDBRANCH   9  10
ENDBRANCH   8   9
ENDBRANCH   7   8
ENDBRANCH   6   7
ENDBRANCH   5   6
ENDBRANCH   4   5
ENDBRANCH   3   4
ENDBRANCH   2   3
ENDBRANCH   1   2
BRANCH   1  15
ATOM     15  C   UNL     1      24.397  -8.193  21.620  1.00  0.00     0.000 C 
BRANCH  15  16
ATOM     16  C   UNL     1      23.202  -9.127  21.892  1.00  0.00     0.000 C 
BRANCH  16  17
ATOM     17  C   UNL     1      22.868  -9.345  23.380  1.00  0.00     0.000 C 
BRANCH  17  18
ATOM     18  C   UNL     1      21.612  -8.580  23.836  1.00  0.00    -0.000 C 
BRANCH  18  19
ATOM     19  C   UNL     1      20.965  -9.220  25.084  1.00  0.00    -0.000 C 
BRANCH  19  20
ATOM     20  C   UNL     1      19.679  -8.513  25.546  1.00  0.00    -0.000 C 
BRANCH  20  21
ATOM     21  C   UNL     1      19.197  -7.445  24.552  1.00  0.00    -0.000 C 
BRANCH  21  22
ATOM     22  C   UNL     1      17.690  -7.541  24.247  1.00  0.00    -0.000 C 
BRANCH  22  23
ATOM     23  C   UNL     1      16.757  -7.058  25.373  1.00  0.00    -0.000 C 
BRANCH  23  24
ATOM     24  C   UNL     1      15.984  -5.778  25.011  1.00  0.00    -0.000 C 
BRANCH  24  25
ATOM     25  C   UNL     1      16.547  -4.532  25.714  1.00  0.00    -0.003 C 
ATOM     26  C   UNL     1      17.060  -3.479  24.732  1.00  0.00     0.004 C 
ENDBRANCH  24  25
ENDBRANCH  23  24
ENDBRANCH  22  23
ENDBRANCH  21  22
ENDBRANCH  20  21
ENDBRANCH  19  20
ENDBRANCH  18  19
ENDBRANCH  17  18
ENDBRANCH  16  17
ENDBRANCH  15  16
ENDBRANCH   1  15
TORSDOF 22
ENDMDL
MODEL 3
REMARK VINA RESULT:    -6.965      1.041      1.903
REMARK INTER + INTRA:         -17.310
REMARK INTER:                 -15.786
REMARK INTRA:                  -1.524
REMARK UNBOUND:                -1.388
REMARK SMILES CCCCCCCCCCCCCCCCCCCCCCCC(=O)[O-]
REMARK SMILES IDX 13 1 14 2 15 3 16 4 17 5 18 6 19 7 20 8 21 9 22 10 23 11
REMARK SMILES IDX 24 12 25 13 26 14 12 15 11 16 10 17 9 18 8 19 7 20 6 21 5 22
REMARK SMILES IDX 4 23 3 24 2 25 1 26
REMARK H PARENT
REMARK Flexibility Score: inf
ROOT
ATOM      1  C   UNL     1      23.617  -8.877  21.675  1.00  0.00     0.000 C 
ENDROOT
BRANCH   1   2
ATOM      2  C   UNL     1      22.944  -8.587  23.027  1.00  0.00     0.000 C 
BRANCH   2   3
ATOM      3  C   UNL     1      22.695  -9.857  23.854  1.00  0.00     0.000 C 
BRANCH   3   4
ATOM      4  C   UNL     1      21.752  -9.567  25.031  1.00  0.00     0.000 C 
BRANCH   4   5
ATOM      5  C   UNL     1      20.523  -8.735  24.622  1.00  0.00     0.000 C 
BRANCH   5   6
ATOM      6  C   UNL     1      19.425  -8.617  25.700  1.00  0.00     0.000 C 
BRANCH   6   7
ATOM      7  C   UNL     1      18.346  -7.554  25.425  1.00  0.00     0.000 C 
BRANCH   7   8
ATOM      8  C   UNL     1      17.874  -7.547  23.960  1.00  0.00     0.000 C 
BRANCH   8   9
ATOM      9  C   UNL     1      16.343  -7.472  23.840  1.00  0.00     0.000 C 
BRANCH   9  10
ATOM     10  C   UNL     1      15.686  -6.846  25.078  1.00  0.00     0.006 C 
BRANCH  10  11
ATOM     11  C   UNL     1      15.095  -5.472  24.748  1.00  0.00     0.053 C 
BRANCH  11  12
ATOM     12  C   UNL     1      16.028  -4.381  25.170  1.00  0.00     0.041 C 
ATOM     13  O   UNL     1      16.797  -4.551  26.153  1.00  0.00    -0.550 OA
ATOM     14  O   UNL     1      16.022  -3.162  24.501  1.00  0.00    -0.550 OA
ENDBRANCH  11  12
ENDBRANCH  10  11
ENDBRANCH   9  10
ENDBRANCH   8   9
ENDBRANCH   7   8
ENDBRANCH   6   7
ENDBRANCH   5   6
ENDBRANCH   4   5
ENDBRANCH   3   4
ENDBRANCH   2   3
ENDBRANCH   1   2
BRANCH   1  15
ATOM     15  C   UNL     1      24.499  -7.712  21.195  1.00  0.00     0.000 C 
BRANCH  15  16
ATOM     16  C   UNL     1      24.009  -7.094  19.871  1.00  0.00     0.000 C 
BRANCH  16  17
ATOM     17  C   UNL     1      24.733  -5.803  19.444  1.00  0.00     0.000 C 
BRANCH  17  18
ATOM     18  C   UNL     1      26.168  -5.705  19.991  1.00  0.00    -0.000 C 
BRANCH  18  19
ATOM     19  C   UNL     1      27.222  -5.740  18.863  1.00  0.00    -0.000 C 
BRANCH  19  20
ATOM     20  C   UNL     1      27.800  -4.358  18.512  1.00  0.00    -0.000 C 
BRANCH  20  21
ATOM     21  C   UNL     1      28.728  -3.806  19.605  1.00  0.00    -0.000 C 
BRANCH  21  22
ATOM     22  C   UNL     1      29.393  -2.472  19.216  1.00  0.00    -0.000 C 
BRANCH  22  23
ATOM     23  C   UNL     1      28.928  -1.244  20.020  1.00  0.00    -0.000 C 
BRANCH  23  24
ATOM     24  C   UNL     1      27.759  -0.495  19.358  1.00  0.00    -0.000 C 
BRANCH  24  25
ATOM     25  C   UNL     1      26.478  -0.533  20.206  1.00  0.00    -0.003 C 
ATOM     26  C   UNL     1      25.634  -1.781  19.950  1.00  0.00     0.004 C 
ENDBRANCH  24  25
ENDBRANCH  23  24
ENDBRANCH  22  23
ENDBRANCH  21  22
ENDBRANCH  20  21
ENDBRANCH  19  20
ENDBRANCH  18  19
ENDBRANCH  17  18
ENDBRANCH  16  17
ENDBRANCH  15  16
ENDBRANCH   1  15
TORSDOF 22
ENDMDL
MODEL 4
REMARK VINA RESULT:    -6.959      3.208     10.275
REMARK INTER + INTRA:         -17.297
REMARK INTER:                 -16.062
REMARK INTRA:                  -1.235
REMARK UNBOUND:                -1.388
REMARK SMILES CCCCCCCCCCCCCCCCCCCCCCCC(=O)[O-]
REMARK SMILES IDX 13 1 14 2 15 3 16 4 17 5 18 6 19 7 20 8 21 9 22 10 23 11
REMARK SMILES IDX 24 12 25 13 26 14 12 15 11 16 10 17 9 18 8 19 7 20 6 21 5 22
REMARK SMILES IDX 4 23 3 24 2 25 1 26
REMARK H PARENT
REMARK Flexibility Score: inf
ROOT
ATOM      1  C   UNL     1      25.424  -6.454  19.389  1.00  0.00     0.000 C 
ENDROOT
BRANCH   1   2
ATOM      2  C   UNL     1      25.583  -4.926  19.338  1.00  0.00     0.000 C 
BRANCH   2   3
ATOM      3  C   UNL     1      26.857  -4.483  18.604  1.00  0.00     0.000 C 
BRANCH   3   4
ATOM      4  C   UNL     1      27.996  -4.218  19.599  1.00  0.00     0.000 C 
BRANCH   4   5
ATOM      5  C   UNL     1      29.163  -3.428  18.978  1.00  0.00     0.000 C 
BRANCH   5   6
ATOM      6  C   UNL     1      29.166  -1.916  19.288  1.00  0.00     0.000 C 
BRANCH   6   7
ATOM      7  C   UNL     1      28.139  -1.459  20.339  1.00  0.00     0.000 C 
BRANCH   7   8
ATOM      8  C   UNL     1      27.024  -0.582  19.743  1.00  0.00     0.000 C 
BRANCH   8   9
ATOM      9  C   UNL     1      25.659  -1.289  19.747  1.00  0.00     0.000 C 
BRANCH   9  10
ATOM     10  C   UNL     1      24.488  -0.308  19.894  1.00  0.00     0.006 C 
BRANCH  10  11
ATOM     11  C   UNL     1      24.857   1.072  19.344  1.00  0.00     0.053 C 
BRANCH  11  12
ATOM     12  C   UNL     1      23.686   1.694  18.651  1.00  0.00     0.041 C 
ATOM     13  O   UNL     1      22.518   1.495  19.078  1.00  0.00    -0.550 OA
ATOM     14  O   UNL     1      23.881   2.465  17.510  1.00  0.00    -0.550 OA
ENDBRANCH  11  12
ENDBRANCH  10  11
ENDBRANCH   9  10
ENDBRANCH   8   9
ENDBRANCH   7   8
ENDBRANCH   6   7
ENDBRANCH   5   6
ENDBRANCH   4   5
ENDBRANCH   3   4
ENDBRANCH   2   3
ENDBRANCH   1   2
BRANCH   1  15
ATOM     15  C   UNL     1      24.383  -6.903  20.428  1.00  0.00     0.000 C 
BRANCH  15  16
ATOM     16  C   UNL     1      24.451  -8.412  20.733  1.00  0.00     0.000 C 
BRANCH  16  17
ATOM     17  C   UNL     1      23.285  -8.963  21.577  1.00  0.00     0.000 C 
BRANCH  17  18
ATOM     18  C   UNL     1      23.472  -8.735  23.087  1.00  0.00    -0.000 C 
BRANCH  18  19
ATOM     19  C   UNL     1      22.378  -9.440  23.919  1.00  0.00    -0.000 C 
BRANCH  19  20
ATOM     20  C   UNL     1      21.128  -8.577  24.158  1.00  0.00    -0.000 C 
BRANCH  20  21
ATOM     21  C   UNL     1      20.445  -8.878  25.501  1.00  0.00    -0.000 C 
BRANCH  21  22
ATOM     22  C   UNL     1      19.011  -8.321  25.588  1.00  0.00    -0.000 C 
BRANCH  22  23
ATOM     23  C   UNL     1      18.601  -7.373  24.445  1.00  0.00    -0.000 C 
BRANCH  23  24
ATOM     24  C   UNL     1      17.101  -7.440  24.114  1.00  0.00    -0.000 C 
BRANCH  24  25
ATOM     25  C   UNL     1      16.276  -6.411  24.904  1.00  0.00    -0.003 C 
ATOM     26  C   UNL     1      14.796  -6.418  24.522  1.00  0.00     0.004 C 
ENDBRANCH  24  25
ENDBRANCH  23  24
ENDBRANCH  22  23
ENDBRANCH  21  22
ENDBRANCH  20  21
ENDBRANCH  19  20
ENDBRANCH  18  19
ENDBRANCH  17  18
ENDBRANCH  16  17
ENDBRANCH  15  16
ENDBRANCH   1  15
TORSDOF 22
ENDMDL
MODEL 5
REMARK VINA RESULT:    -6.909      3.458     10.670
REMARK INTER + INTRA:         -17.182
REMARK INTER:                 -15.773
REMARK INTRA:                  -1.409
REMARK UNBOUND:                -1.388
REMARK SMILES CCCCCCCCCCCCCCCCCCCCCCCC(=O)[O-]
REMARK SMILES IDX 13 1 14 2 15 3 16 4 17 5 18 6 19 7 20 8 21 9 22 10 23 11
REMARK SMILES IDX 24 12 25 13 26 14 12 15 11 16 10 17 9 18 8 19 7 20 6 21 5 22
REMARK SMILES IDX 4 23 3 24 2 25 1 26
REMARK H PARENT
REMARK Flexibility Score: inf
ROOT
ATOM      1  C   UNL     1      24.036  -8.431  21.050  1.00  0.00     0.000 C 
ENDROOT
BRANCH   1   2
ATOM      2  C   UNL     1      24.922  -7.238  20.652  1.00  0.00     0.000 C 
BRANCH   2   3
ATOM      3  C   UNL     1      24.348  -6.436  19.475  1.00  0.00     0.000 C 
BRANCH   3   4
ATOM      4  C   UNL     1      25.002  -5.049  19.390  1.00  0.00     0.000 C 
BRANCH   4   5
ATOM      5  C   UNL     1      26.472  -5.050  19.847  1.00  0.00     0.000 C 
BRANCH   5   6
ATOM      6  C   UNL     1      27.472  -5.643  18.832  1.00  0.00     0.000 C 
BRANCH   6   7
ATOM      7  C   UNL     1      28.569  -4.677  18.351  1.00  0.00     0.000 C 
BRANCH   7   8
ATOM      8  C   UNL     1      29.080  -3.749  19.467  1.00  0.00     0.000 C 
BRANCH   8   9
ATOM      9  C   UNL     1      28.942  -2.263  19.100  1.00  0.00     0.000 C 
BRANCH   9  10
ATOM     10  C   UNL     1      28.449  -1.409  20.277  1.00  0.00     0.006 C 
BRANCH  10  11
ATOM     11  C   UNL     1      26.920  -1.400  20.344  1.00  0.00     0.053 C 
BRANCH  11  12
ATOM     12  C   UNL     1      26.379  -0.093  19.854  1.00  0.00     0.041 C 
ATOM     13  O   UNL     1      27.133   0.911  19.764  1.00  0.00    -0.550 OA
ATOM     14  O   UNL     1      25.031   0.025  19.533  1.00  0.00    -0.550 OA
ENDBRANCH  11  12
ENDBRANCH  10  11
ENDBRANCH   9  10
ENDBRANCH   8   9
ENDBRANCH   7   8
ENDBRANCH   6   7
ENDBRANCH   5   6
ENDBRANCH   4   5
ENDBRANCH   3   4
ENDBRANCH   2   3
ENDBRANCH   1   2
BRANCH   1  15
ATOM     15  C   UNL     1      23.693  -8.434  22.549  1.00  0.00     0.000 C 
BRANCH  15  16
ATOM     16  C   UNL     1      22.829  -9.640  22.965  1.00  0.00     0.000 C 
BRANCH  16  17
ATOM     17  C   UNL     1      22.219  -9.554  24.377  1.00  0.00     0.000 C 
BRANCH  17  18
ATOM     18  C   UNL     1      21.048  -8.559  24.469  1.00  0.00    -0.000 C 
BRANCH  18  19
ATOM     19  C   UNL     1      20.213  -8.765  25.753  1.00  0.00    -0.000 C 
BRANCH  19  20
ATOM     20  C   UNL     1      18.754  -8.297  25.624  1.00  0.00    -0.000 C 
BRANCH  20  21
ATOM     21  C   UNL     1      18.496  -7.499  24.337  1.00  0.00    -0.000 C 
BRANCH  21  22
ATOM     22  C   UNL     1      17.013  -7.485  23.921  1.00  0.00    -0.000 C 
BRANCH  22  23
ATOM     23  C   UNL     1      16.032  -6.969  24.990  1.00  0.00    -0.000 C 
BRANCH  23  24
ATOM     24  C   UNL     1      15.434  -5.594  24.648  1.00  0.00    -0.000 C 
BRANCH  24  25
ATOM     25  C   UNL     1      15.998  -4.469  25.531  1.00  0.00    -0.003 C 
ATOM     26  C   UNL     1      17.174  -3.740  24.883  1.00  0.00     0.004 C 
ENDBRANCH  24  25
ENDBRANCH  23  24
ENDBRANCH  22  23
ENDBRANCH  21  22
ENDBRANCH  20  21
ENDBRANCH  19  20
ENDBRANCH  18  19
ENDBRANCH  17  18
ENDBRANCH  16  17
ENDBRANCH  15  16
ENDBRANCH   1  15
TORSDOF 22
ENDMDL
MODEL 6
REMARK VINA RESULT:    -6.847      1.159      2.258
REMARK INTER + INTRA:         -17.041
REMARK INTER:                 -15.938
REMARK INTRA:                  -1.103
REMARK UNBOUND:                -1.388
REMARK SMILES CCCCCCCCCCCCCCCCCCCCCCCC(=O)[O-]
REMARK SMILES IDX 13 1 14 2 15 3 16 4 17 5 18 6 19 7 20 8 21 9 22 10 23 11
REMARK SMILES IDX 24 12 25 13 26 14 12 15 11 16 10 17 9 18 8 19 7 20 6 21 5 22
REMARK SMILES IDX 4 23 3 24 2 25 1 26
REMARK H PARENT
REMARK Flexibility Score: inf
ROOT
ATOM      1  C   UNL     1      24.408  -5.794  19.472  1.00  0.00     0.000 C 
ENDROOT
BRANCH   1   2
ATOM      2  C   UNL     1      24.737  -6.978  20.397  1.00  0.00     0.000 C 
BRANCH   2   3
ATOM      3  C   UNL     1      23.564  -7.958  20.550  1.00  0.00     0.000 C 
BRANCH   3   4
ATOM      4  C   UNL     1      23.885  -9.034  21.598  1.00  0.00     0.000 C 
BRANCH   4   5
ATOM      5  C   UNL     1      23.361  -8.679  23.001  1.00  0.00     0.000 C 
BRANCH   5   6
ATOM      6  C   UNL     1      22.533  -9.785  23.689  1.00  0.00     0.000 C 
BRANCH   6   7
ATOM      7  C   UNL     1      21.582  -9.299  24.798  1.00  0.00     0.000 C 
BRANCH   7   8
ATOM      8  C   UNL     1      20.591  -8.228  24.309  1.00  0.00     0.000 C 
BRANCH   8   9
ATOM      9  C   UNL     1      19.459  -7.976  25.318  1.00  0.00     0.000 C 
BRANCH   9  10
ATOM     10  C   UNL     1      18.117  -7.678  24.634  1.00  0.00     0.006 C 
BRANCH  10  11
ATOM     11  C   UNL     1      17.096  -7.145  25.642  1.00  0.00     0.053 C 
BRANCH  11  12
ATOM     12  C   UNL     1      16.375  -5.958  25.086  1.00  0.00     0.041 C 
ATOM     13  O   UNL     1      15.392  -6.117  24.315  1.00  0.00    -0.550 OA
ATOM     14  O   UNL     1      16.813  -4.673  25.388  1.00  0.00    -0.550 OA
ENDBRANCH  11  12
ENDBRANCH  10  11
ENDBRANCH   9  10
ENDBRANCH   8   9
ENDBRANCH   7   8
ENDBRANCH   6   7
ENDBRANCH   5   6
ENDBRANCH   4   5
ENDBRANCH   3   4
ENDBRANCH   2   3
ENDBRANCH   1   2
BRANCH   1  15
ATOM     15  C   UNL     1      25.496  -4.707  19.499  1.00  0.00     0.000 C 
BRANCH  15  16
ATOM     16  C   UNL     1      26.910  -5.277  19.726  1.00  0.00     0.000 C 
BRANCH  16  17
ATOM     17  C   UNL     1      28.017  -4.650  18.858  1.00  0.00     0.000 C 
BRANCH  17  18
ATOM     18  C   UNL     1      28.812  -3.555  19.591  1.00  0.00    -0.000 C 
BRANCH  18  19
ATOM     19  C   UNL     1      28.609  -2.164  18.950  1.00  0.00    -0.000 C 
BRANCH  19  20
ATOM     20  C   UNL     1      28.683  -1.002  19.955  1.00  0.00    -0.000 C 
BRANCH  20  21
ATOM     21  C   UNL     1      27.298  -0.455  20.336  1.00  0.00    -0.000 C 
BRANCH  21  22
ATOM     22  C   UNL     1      26.158  -1.452  20.056  1.00  0.00    -0.000 C 
BRANCH  22  23
ATOM     23  C   UNL     1      24.802  -0.819  19.691  1.00  0.00    -0.000 C 
BRANCH  23  24
ATOM     24  C   UNL     1      24.838   0.718  19.673  1.00  0.00    -0.000 C 
BRANCH  24  25
ATOM     25  C   UNL     1      23.578   1.330  19.041  1.00  0.00    -0.003 C 
ATOM     26  C   UNL     1      23.898   2.383  17.981  1.00  0.00     0.004 C 
ENDBRANCH  24  25
ENDBRANCH  23  24
ENDBRANCH  22  23
ENDBRANCH  21  22
ENDBRANCH  20  21
ENDBRANCH  19  20
ENDBRANCH  18  19
ENDBRANCH  17  18
ENDBRANCH  16  17
ENDBRANCH  15  16
ENDBRANCH   1  15
TORSDOF 22
ENDMDL
MODEL 7
REMARK VINA RESULT:    -6.795      3.225     10.544
REMARK INTER + INTRA:         -16.923
REMARK INTER:                 -15.934
REMARK INTRA:                  -0.989
REMARK UNBOUND:                -1.388
REMARK SMILES CCCCCCCCCCCCCCCCCCCCCCCC(=O)[O-]
REMARK SMILES IDX 13 1 14 2 15 3 16 4 17 5 18 6 19 7 20 8 21 9 22 10 23 11
REMARK SMILES IDX 24 12 25 13 26 14 12 15 11 16 10 17 9 18 8 19 7 20 6 21 5 22
REMARK SMILES IDX 4 23 3 24 2 25 1 26
REMARK H PARENT
REMARK Flexibility Score: inf
ROOT
ATOM      1  C   UNL     1      23.942  -7.810  20.509  1.00  0.00     0.000 C 
ENDROOT
BRANCH   1   2
ATOM      2  C   UNL     1      25.455  -7.574  20.362  1.00  0.00     0.000 C 
BRANCH   2   3
ATOM      3  C   UNL     1      25.803  -6.109  20.061  1.00  0.00     0.000 C 
BRANCH   3   4
ATOM      4  C   UNL     1      26.985  -6.018  19.085  1.00  0.00     0.000 C 
BRANCH   4   5
ATOM      5  C   UNL     1      27.185  -4.601  18.517  1.00  0.00     0.000 C 
BRANCH   5   6
ATOM      6  C   UNL     1      27.319  -3.485  19.575  1.00  0.00     0.000 C 
BRANCH   6   7
ATOM      7  C   UNL     1      28.594  -2.629  19.467  1.00  0.00     0.000 C 
BRANCH   7   8
ATOM      8  C   UNL     1      28.472  -1.281  20.199  1.00  0.00     0.000 C 
BRANCH   8   9
ATOM      9  C   UNL     1      27.718  -0.230  19.367  1.00  0.00     0.000 C 
BRANCH   9  10
ATOM     10  C   UNL     1      26.594   0.452  20.159  1.00  0.00     0.006 C 
BRANCH  10  11
ATOM     11  C   UNL     1      25.221  -0.024  19.679  1.00  0.00     0.053 C 
BRANCH  11  12
ATOM     12  C   UNL     1      24.433   1.117  19.117  1.00  0.00     0.041 C 
ATOM     13  O   UNL     1      25.023   2.136  18.672  1.00  0.00    -0.550 OA
ATOM     14  O   UNL     1      23.043   1.071  19.120  1.00  0.00    -0.550 OA
ENDBRANCH  11  12
ENDBRANCH  10  11
ENDBRANCH   9  10
ENDBRANCH   8   9
ENDBRANCH   7   8
ENDBRANCH   6   7
ENDBRANCH   5   6
ENDBRANCH   4   5
ENDBRANCH   3   4
ENDBRANCH   2   3
ENDBRANCH   1   2
BRANCH   1  15
ATOM     15  C   UNL     1      23.620  -9.047  21.364  1.00  0.00     0.000 C 
BRANCH  15  16
ATOM     16  C   UNL     1      23.261  -8.694  22.820  1.00  0.00     0.000 C 
BRANCH  16  17
ATOM     17  C   UNL     1      22.772  -9.875  23.680  1.00  0.00     0.000 C 
BRANCH  17  18
ATOM     18  C   UNL     1      21.734  -9.462  24.739  1.00  0.00    -0.000 C 
BRANCH  18  19
ATOM     19  C   UNL     1      20.833  -8.307  24.248  1.00  0.00    -0.000 C 
BRANCH  19  20
ATOM     20  C   UNL     1      19.558  -8.116  25.087  1.00  0.00    -0.000 C 
BRANCH  20  21
ATOM     21  C   UNL     1      18.438  -7.404  24.313  1.00  0.00    -0.000 C 
BRANCH  21  22
ATOM     22  C   UNL     1      17.157  -7.210  25.146  1.00  0.00    -0.000 C 
BRANCH  22  23
ATOM     23  C   UNL     1      15.920  -6.747  24.356  1.00  0.00    -0.000 C 
BRANCH  23  24
ATOM     24  C   UNL     1      15.131  -5.633  25.065  1.00  0.00    -0.000 C 
BRANCH  24  25
ATOM     25  C   UNL     1      16.045  -4.641  25.802  1.00  0.00    -0.003 C 
ATOM     26  C   UNL     1      16.833  -3.742  24.850  1.00  0.00     0.004 C 
ENDBRANCH  24  25
ENDBRANCH  23  24
ENDBRANCH  22  23
ENDBRANCH  21  22
ENDBRANCH  20  21
ENDBRANCH  19  20
ENDBRANCH  18  19
ENDBRANCH  17  18
ENDBRANCH  16  17
ENDBRANCH  15  16
ENDBRANCH   1  15
TORSDOF 22
ENDMDL
MODEL 8
REMARK VINA RESULT:    -6.615      3.196     10.491
REMARK INTER + INTRA:         -16.510
REMARK INTER:                 -15.370
REMARK INTRA:                  -1.140
REMARK UNBOUND:                -1.388
REMARK SMILES CCCCCCCCCCCCCCCCCCCCCCCC(=O)[O-]
REMARK SMILES IDX 13 1 14 2 15 3 16 4 17 5 18 6 19 7 20 8 21 9 22 10 23 11
REMARK SMILES IDX 24 12 25 13 26 14 12 15 11 16 10 17 9 18 8 19 7 20 6 21 5 22
REMARK SMILES IDX 4 23 3 24 2 25 1 26
REMARK H PARENT
REMARK Flexibility Score: inf
ROOT
ATOM      1  C   UNL     1      25.826  -8.612  20.499  1.00  0.00     0.000 C 
ENDROOT
BRANCH   1   2
ATOM      2  C   UNL     1      26.543  -7.633  19.554  1.00  0.00     0.000 C 
BRANCH   2   3
ATOM      3  C   UNL     1      26.610  -6.204  20.114  1.00  0.00     0.000 C 
BRANCH   3   4
ATOM      4  C   UNL     1      25.934  -5.211  19.158  1.00  0.00     0.000 C 
BRANCH   4   5
ATOM      5  C   UNL     1      26.935  -4.497  18.231  1.00  0.00     0.000 C 
BRANCH   5   6
ATOM      6  C   UNL     1      28.405  -4.541  18.698  1.00  0.00     0.000 C 
BRANCH   6   7
ATOM      7  C   UNL     1      28.813  -3.432  19.685  1.00  0.00     0.000 C 
BRANCH   7   8
ATOM      8  C   UNL     1      29.158  -2.105  18.985  1.00  0.00     0.000 C 
BRANCH   8   9
ATOM      9  C   UNL     1      28.773  -0.881  19.832  1.00  0.00     0.000 C 
BRANCH   9  10
ATOM     10  C   UNL     1      27.326  -0.948  20.340  1.00  0.00     0.006 C 
BRANCH  10  11
ATOM     11  C   UNL     1      26.585   0.361  20.055  1.00  0.00     0.053 C 
BRANCH  11  12
ATOM     12  C   UNL     1      25.166   0.091  19.669  1.00  0.00     0.041 C 
ATOM     13  O   UNL     1      24.621  -1.001  19.980  1.00  0.00    -0.550 OA
ATOM     14  O   UNL     1      24.454   1.030  18.930  1.00  0.00    -0.550 OA
ENDBRANCH  11  12
ENDBRANCH  10  11
ENDBRANCH   9  10
ENDBRANCH   8   9
ENDBRANCH   7   8
ENDBRANCH   6   7
ENDBRANCH   5   6
ENDBRANCH   4   5
ENDBRANCH   3   4
ENDBRANCH   2   3
ENDBRANCH   1   2
BRANCH   1  15
ATOM     15  C   UNL     1      24.591  -7.985  21.168  1.00  0.00     0.000 C 
BRANCH  15  16
ATOM     16  C   UNL     1      23.627  -9.034  21.754  1.00  0.00     0.000 C 
BRANCH  16  17
ATOM     17  C   UNL     1      22.886  -8.601  23.033  1.00  0.00     0.000 C 
BRANCH  17  18
ATOM     18  C   UNL     1      22.491  -9.786  23.933  1.00  0.00    -0.000 C 
BRANCH  18  19
ATOM     19  C   UNL     1      21.467  -9.376  25.014  1.00  0.00    -0.000 C 
BRANCH  19  20
ATOM     20  C   UNL     1      20.560  -8.206  24.596  1.00  0.00    -0.000 C 
BRANCH  20  21
ATOM     21  C   UNL     1      19.123  -8.351  25.121  1.00  0.00    -0.000 C 
BRANCH  21  22
ATOM     22  C   UNL     1      18.083  -7.635  24.239  1.00  0.00    -0.000 C 
BRANCH  22  23
ATOM     23  C   UNL     1      17.803  -6.166  24.608  1.00  0.00    -0.000 C 
BRANCH  23  24
ATOM     24  C   UNL     1      16.572  -5.995  25.515  1.00  0.00    -0.000 C 
BRANCH  24  25
ATOM     25  C   UNL     1      15.249  -6.097  24.739  1.00  0.00    -0.003 C 
ATOM     26  C   UNL     1      14.200  -6.940  25.463  1.00  0.00     0.004 C 
ENDBRANCH  24  25
ENDBRANCH  23  24
ENDBRANCH  22  23
ENDBRANCH  21  22
ENDBRANCH  20  21
ENDBRANCH  19  20
ENDBRANCH  18  19
ENDBRANCH  17  18
ENDBRANCH  16  17
ENDBRANCH  15  16
ENDBRANCH   1  15
TORSDOF 22
ENDMDL
MODEL 9
REMARK VINA RESULT:    -6.397      1.587      3.235
REMARK INTER + INTRA:         -16.013
REMARK INTER:                 -14.660
REMARK INTRA:                  -1.353
REMARK UNBOUND:                -1.388
REMARK SMILES CCCCCCCCCCCCCCCCCCCCCCCC(=O)[O-]
REMARK SMILES IDX 13 1 14 2 15 3 16 4 17 5 18 6 19 7 20 8 21 9 22 10 23 11
REMARK SMILES IDX 24 12 25 13 26 14 12 15 11 16 10 17 9 18 8 19 7 20 6 21 5 22
REMARK SMILES IDX 4 23 3 24 2 25 1 26
REMARK H PARENT
REMARK Flexibility Score: inf
ROOT
ATOM      1  C   UNL     1      27.327  -6.240  19.457  1.00  0.00     0.000 C 
ENDROOT
BRANCH   1   2
ATOM      2  C   UNL     1      26.594  -7.585  19.321  1.00  0.00     0.000 C 
BRANCH   2   3
ATOM      3  C   UNL     1      25.789  -7.955  20.576  1.00  0.00     0.000 C 
BRANCH   3   4
ATOM      4  C   UNL     1      24.421  -7.257  20.573  1.00  0.00     0.000 C 
BRANCH   4   5
ATOM      5  C   UNL     1      23.248  -8.239  20.755  1.00  0.00     0.000 C 
BRANCH   5   6
ATOM      6  C   UNL     1      23.495  -9.370  21.775  1.00  0.00     0.000 C 
BRANCH   6   7
ATOM      7  C   UNL     1      23.175  -9.015  23.238  1.00  0.00     0.000 C 
BRANCH   7   8
ATOM      8  C   UNL     1      21.680  -8.733  23.472  1.00  0.00     0.000 C 
BRANCH   8   9
ATOM      9  C   UNL     1      21.227  -9.119  24.890  1.00  0.00     0.000 C 
BRANCH   9  10
ATOM     10  C   UNL     1      19.826  -8.589  25.225  1.00  0.00     0.006 C 
BRANCH  10  11
ATOM     11  C   UNL     1      19.381  -7.537  24.205  1.00  0.00     0.053 C 
BRANCH  11  12
ATOM     12  C   UNL     1      17.922  -7.242  24.355  1.00  0.00     0.041 C 
ATOM     13  O   UNL     1      17.533  -6.360  25.165  1.00  0.00    -0.550 OA
ATOM     14  O   UNL     1      16.987  -7.968  23.625  1.00  0.00    -0.550 OA
ENDBRANCH  11  12
ENDBRANCH  10  11
ENDBRANCH   9  10
ENDBRANCH   8   9
ENDBRANCH   7   8
ENDBRANCH   6   7
ENDBRANCH   5   6
ENDBRANCH   4   5
ENDBRANCH   3   4
ENDBRANCH   2   3
ENDBRANCH   1   2
BRANCH   1  15
ATOM     15  C   UNL     1      26.710  -5.141  18.575  1.00  0.00     0.000 C 
BRANCH  15  16
ATOM     16  C   UNL     1      25.810  -4.172  19.366  1.00  0.00     0.000 C 
BRANCH  16  17
ATOM     17  C   UNL     1      26.464  -2.830  19.743  1.00  0.00     0.000 C 
BRANCH  17  18
ATOM     18  C   UNL     1      27.957  -2.962  20.093  1.00  0.00    -0.000 C 
BRANCH  18  19
ATOM     19  C   UNL     1      28.693  -1.606  20.016  1.00  0.00    -0.000 C 
BRANCH  19  20
ATOM     20  C   UNL     1      28.012  -0.584  19.089  1.00  0.00    -0.000 C 
BRANCH  20  21
ATOM     21  C   UNL     1      27.608   0.705  19.820  1.00  0.00    -0.000 C 
BRANCH  21  22
ATOM     22  C   UNL     1      26.213   1.217  19.414  1.00  0.00    -0.000 C 
BRANCH  22  23
ATOM     23  C   UNL     1      25.034   0.316  19.824  1.00  0.00    -0.000 C 
BRANCH  23  24
ATOM     24  C   UNL     1      23.713   0.696  19.133  1.00  0.00    -0.000 C 
BRANCH  24  25
ATOM     25  C   UNL     1      23.700   2.155  18.649  1.00  0.00    -0.003 C 
ATOM     26  C   UNL     1      23.627   2.274  17.127  1.00  0.00     0.004 C 
ENDBRANCH  24  25
ENDBRANCH  23  24
ENDBRANCH  22  23
ENDBRANCH  21  22
ENDBRANCH  20  21
ENDBRANCH  19  20
ENDBRANCH  18  19
ENDBRANCH  17  18
ENDBRANCH  16  17
ENDBRANCH  15  16
ENDBRANCH   1  15
TORSDOF 22
ENDMDL
