MODEL 1
REMARK VINA RESULT:    -3.670      0.000      0.000
REMARK INTER + INTRA:          -3.778
REMARK INTER:                  -3.778
REMARK INTRA:                   0.000
REMARK UNBOUND:                 0.000
REMARK SMILES O=c1ccc2ccc(O)cc2o1
REMARK SMILES IDX 6 1 7 2 8 3 10 4 11 5 5 6 4 7 3 8 2 9 1 10 12 11 9 12
REMARK H PARENT 9 13
REMARK Flexibility Score: inf
ROOT
ATOM      1  C   UNL     1      -1.448  60.376  -3.733  1.00  0.00     0.016 A 
ATOM      2  C   UNL     1      -2.767  60.000  -4.011  1.00  0.00     0.047 A 
ATOM      3  C   UNL     1      -3.063  59.256  -5.163  1.00  0.00     0.119 A 
ATOM      4  C   UNL     1      -2.036  58.889  -6.040  1.00  0.00     0.094 A 
ATOM      5  C   UNL     1      -0.714  59.261  -5.771  1.00  0.00     0.142 A 
ATOM      6  C   UNL     1      -0.418  60.010  -4.610  1.00  0.00     0.018 A 
ATOM      7  C   UNL     1       0.912  60.367  -4.369  1.00  0.00     0.019 A 
ATOM      8  C   UNL     1       1.900  59.976  -5.272  1.00  0.00     0.094 A 
ATOM      9  C   UNL     1       1.533  59.236  -6.402  1.00  0.00     0.336 A 
ATOM     10  O   UNL     1       2.411  58.875  -7.228  1.00  0.00    -0.246 OA
ATOM     11  O   UNL     1       0.260  58.909  -6.607  1.00  0.00    -0.423 OA
ENDROOT
BRANCH   3  12
ATOM     12  O   UNL     1      -4.374  58.878  -5.445  1.00  0.00    -0.508 OA
ATOM     13  H   UNL     1      -5.089  58.872  -4.727  1.00  0.00     0.293 HD
ENDBRANCH   3  12
TORSDOF 1
ENDMDL
MODEL 2
REMARK VINA RESULT:    -3.549      0.755      4.223
REMARK INTER + INTRA:          -3.653
REMARK INTER:                  -3.653
REMARK INTRA:                   0.000
REMARK UNBOUND:                 0.000
REMARK SMILES O=c1ccc2ccc(O)cc2o1
REMARK SMILES IDX 6 1 7 2 8 3 10 4 11 5 5 6 4 7 3 8 2 9 1 10 12 11 9 12
REMARK H PARENT 9 13
REMARK Flexibility Score: inf
ROOT
ATOM      1  C   UNL     1       0.695  60.374  -4.278  1.00  0.00     0.016 A 
ATOM      2  C   UNL     1       1.713  59.998  -5.160  1.00  0.00     0.047 A 
ATOM      3  C   UNL     1       1.413  59.262  -6.316  1.00  0.00     0.119 A 
ATOM      4  C   UNL     1       0.088  58.899  -6.588  1.00  0.00     0.094 A 
ATOM      5  C   UNL     1      -0.937  59.270  -5.711  1.00  0.00     0.142 A 
ATOM      6  C   UNL     1      -0.632  60.012  -4.548  1.00  0.00     0.018 A 
ATOM      7  C   UNL     1      -1.678  60.367  -3.692  1.00  0.00     0.019 A 
ATOM      8  C   UNL     1      -2.981  59.983  -4.006  1.00  0.00     0.094 A 
ATOM      9  C   UNL     1      -3.208  59.248  -5.176  1.00  0.00     0.336 A 
ATOM     10  O   UNL     1      -4.378  58.893  -5.476  1.00  0.00    -0.246 OA
ATOM     11  O   UNL     1      -2.195  58.924  -5.974  1.00  0.00    -0.423 OA
ENDROOT
BRANCH   3  12
ATOM     12  O   UNL     1       2.422  58.885  -7.199  1.00  0.00    -0.508 OA
ATOM     13  H   UNL     1       3.387  58.812  -6.899  1.00  0.00     0.293 HD
ENDBRANCH   3  12
TORSDOF 1
ENDMDL
MODEL 3
REMARK VINA RESULT:    -2.803      1.938      2.947
REMARK INTER + INTRA:          -2.885
REMARK INTER:                  -2.885
REMARK INTRA:                   0.000
REMARK UNBOUND:                 0.000
REMARK SMILES O=c1ccc2ccc(O)cc2o1
REMARK SMILES IDX 6 1 7 2 8 3 10 4 11 5 5 6 4 7 3 8 2 9 1 10 12 11 9 12
REMARK H PARENT 9 13
REMARK Flexibility Score: inf
ROOT
ATOM      1  C   UNL     1      -0.818  58.900  -6.056  1.00  0.00     0.016 A 
ATOM      2  C   UNL     1      -1.270  59.298  -4.794  1.00  0.00     0.047 A 
ATOM      3  C   UNL     1      -0.441  60.054  -3.951  1.00  0.00     0.119 A 
ATOM      4  C   UNL     1       0.844  60.412  -4.374  1.00  0.00     0.094 A 
ATOM      5  C   UNL     1       1.306  60.018  -5.634  1.00  0.00     0.142 A 
ATOM      6  C   UNL     1       0.469  59.256  -6.481  1.00  0.00     0.018 A 
ATOM      7  C   UNL     1       0.958  58.878  -7.735  1.00  0.00     0.019 A 
ATOM      8  C   UNL     1       2.246  59.259  -8.111  1.00  0.00     0.094 A 
ATOM      9  C   UNL     1       3.019  60.012  -7.219  1.00  0.00     0.336 A 
ATOM     10  O   UNL     1       4.183  60.365  -7.541  1.00  0.00    -0.246 OA
ATOM     11  O   UNL     1       2.529  60.360  -6.032  1.00  0.00    -0.423 OA
ENDROOT
BRANCH   3  12
ATOM     12  O   UNL     1      -0.886  60.455  -2.693  1.00  0.00    -0.508 OA
ATOM     13  H   UNL     1      -1.751  60.969  -2.576  1.00  0.00     0.293 HD
ENDBRANCH   3  12
TORSDOF 1
ENDMDL
MODEL 4
REMARK VINA RESULT:    -2.715      1.450      4.744
REMARK INTER + INTRA:          -2.794
REMARK INTER:                  -2.794
REMARK INTRA:                   0.000
REMARK UNBOUND:                 0.000
REMARK SMILES O=c1ccc2ccc(O)cc2o1
REMARK SMILES IDX 6 1 7 2 8 3 10 4 11 5 5 6 4 7 3 8 2 9 1 10 12 11 9 12
REMARK H PARENT 9 13
REMARK Flexibility Score: inf
ROOT
ATOM      1  C   UNL     1       0.259  58.880  -7.373  1.00  0.00     0.016 A 
ATOM      2  C   UNL     1       1.598  59.150  -7.070  1.00  0.00     0.047 A 
ATOM      3  C   UNL     1       1.949  59.669  -5.815  1.00  0.00     0.119 A 
ATOM      4  C   UNL     1       0.956  59.919  -4.860  1.00  0.00     0.094 A 
ATOM      5  C   UNL     1      -0.385  59.653  -5.154  1.00  0.00     0.142 A 
ATOM      6  C   UNL     1      -0.737  59.130  -6.419  1.00  0.00     0.018 A 
ATOM      7  C   UNL     1      -2.085  58.875  -6.683  1.00  0.00     0.019 A 
ATOM      8  C   UNL     1      -3.037  59.140  -5.699  1.00  0.00     0.094 A 
ATOM      9  C   UNL     1      -2.617  59.659  -4.469  1.00  0.00     0.336 A 
ATOM     10  O   UNL     1      -3.461  59.905  -3.570  1.00  0.00    -0.246 OA
ATOM     11  O   UNL     1      -1.326  59.892  -4.244  1.00  0.00    -0.423 OA
ENDROOT
BRANCH   3  12
ATOM     12  O   UNL     1       3.281  59.939  -5.507  1.00  0.00    -0.508 OA
ATOM     13  H   UNL     1       4.040  59.555  -6.057  1.00  0.00     0.293 HD
ENDBRANCH   3  12
TORSDOF 1
ENDMDL
MODEL 5
REMARK VINA RESULT:    -2.647     22.835     23.806
REMARK INTER + INTRA:          -2.725
REMARK INTER:                  -2.725
REMARK INTRA:                   0.000
REMARK UNBOUND:                 0.000
REMARK SMILES O=c1ccc2ccc(O)cc2o1
REMARK SMILES IDX 6 1 7 2 8 3 10 4 11 5 5 6 4 7 3 8 2 9 1 10 12 11 9 12
REMARK H PARENT 9 13
REMARK Flexibility Score: inf
ROOT
ATOM      1  C   UNL     1       2.106  79.125   7.809  1.00  0.00     0.016 A 
ATOM      2  C   UNL     1       2.287  78.623   6.516  1.00  0.00     0.047 A 
ATOM      3  C   UNL     1       3.259  77.642   6.268  1.00  0.00     0.119 A 
ATOM      4  C   UNL     1       4.051  77.162   7.318  1.00  0.00     0.094 A 
ATOM      5  C   UNL     1       3.877  77.658   8.614  1.00  0.00     0.142 A 
ATOM      6  C   UNL     1       2.898  78.647   8.862  1.00  0.00     0.018 A 
ATOM      7  C   UNL     1       2.748  79.123  10.167  1.00  0.00     0.019 A 
ATOM      8  C   UNL     1       3.561  78.614  11.179  1.00  0.00     0.094 A 
ATOM      9  C   UNL     1       4.510  77.636  10.860  1.00  0.00     0.336 A 
ATOM     10  O   UNL     1       5.253  77.165  11.760  1.00  0.00    -0.246 OA
ATOM     11  O   UNL     1       4.632  77.200   9.610  1.00  0.00    -0.423 OA
ENDROOT
BRANCH   3  12
ATOM     12  O   UNL     1       3.445  77.137   4.983  1.00  0.00    -0.508 OA
ATOM     13  H   UNL     1       4.123  77.542   4.348  1.00  0.00     0.293 HD
ENDBRANCH   3  12
TORSDOF 1
ENDMDL
MODEL 6
REMARK VINA RESULT:    -2.144      1.674      4.197
REMARK INTER + INTRA:          -2.207
REMARK INTER:                  -2.207
REMARK INTRA:                   0.000
REMARK UNBOUND:                 0.000
REMARK SMILES O=c1ccc2ccc(O)cc2o1
REMARK SMILES IDX 6 1 7 2 8 3 10 4 11 5 5 6 4 7 3 8 2 9 1 10 12 11 9 12
REMARK H PARENT 9 13
REMARK Flexibility Score: inf
ROOT
ATOM      1  C   UNL     1      -1.528  60.196  -3.038  1.00  0.00     0.016 A 
ATOM      2  C   UNL     1      -0.139  60.346  -3.112  1.00  0.00     0.047 A 
ATOM      3  C   UNL     1       0.530  60.158  -4.331  1.00  0.00     0.119 A 
ATOM      4  C   UNL     1      -0.195  59.819  -5.479  1.00  0.00     0.094 A 
ATOM      5  C   UNL     1      -1.584  59.666  -5.415  1.00  0.00     0.142 A 
ATOM      6  C   UNL     1      -2.255  59.856  -4.186  1.00  0.00     0.018 A 
ATOM      7  C   UNL     1      -3.644  59.696  -4.154  1.00  0.00     0.019 A 
ATOM      8  C   UNL     1      -4.321  59.358  -5.325  1.00  0.00     0.094 A 
ATOM      9  C   UNL     1      -3.591  59.185  -6.506  1.00  0.00     0.336 A 
ATOM     10  O   UNL     1      -4.185  58.880  -7.572  1.00  0.00    -0.246 OA
ATOM     11  O   UNL     1      -2.270  59.344  -6.509  1.00  0.00    -0.423 OA
ENDROOT
BRANCH   3  12
ATOM     12  O   UNL     1       1.912  60.307  -4.411  1.00  0.00    -0.508 OA
ATOM     13  H   UNL     1       2.482  60.415  -3.580  1.00  0.00     0.293 HD
ENDBRANCH   3  12
TORSDOF 1
ENDMDL
MODEL 7
REMARK VINA RESULT:    -1.127     23.009     23.977
REMARK INTER + INTRA:          -1.160
REMARK INTER:                  -1.160
REMARK INTRA:                   0.000
REMARK UNBOUND:                 0.000
REMARK SMILES O=c1ccc2ccc(O)cc2o1
REMARK SMILES IDX 6 1 7 2 8 3 10 4 11 5 5 6 4 7 3 8 2 9 1 10 12 11 9 12
REMARK H PARENT 9 13
REMARK Flexibility Score: inf
ROOT
ATOM      1  C   UNL     1       4.241  77.230   7.248  1.00  0.00     0.016 A 
ATOM      2  C   UNL     1       3.485  77.613   6.136  1.00  0.00     0.047 A 
ATOM      3  C   UNL     1       2.380  78.464   6.290  1.00  0.00     0.119 A 
ATOM      4  C   UNL     1       2.031  78.931   7.563  1.00  0.00     0.094 A 
ATOM      5  C   UNL     1       2.781  78.552   8.682  1.00  0.00     0.142 A 
ATOM      6  C   UNL     1       3.894  77.696   8.524  1.00  0.00     0.018 A 
ATOM      7  C   UNL     1       4.624  77.336   9.660  1.00  0.00     0.019 A 
ATOM      8  C   UNL     1       4.237  77.828  10.906  1.00  0.00     0.094 A 
ATOM      9  C   UNL     1       3.123  78.671  10.987  1.00  0.00     0.336 A 
ATOM     10  O   UNL     1       2.760  79.125  12.103  1.00  0.00    -0.246 OA
ATOM     11  O   UNL     1       2.447  78.999   9.890  1.00  0.00    -0.423 OA
ENDROOT
BRANCH   3  12
ATOM     12  O   UNL     1       1.623  78.850   5.186  1.00  0.00    -0.508 OA
ATOM     13  H   UNL     1       1.098  79.717   5.181  1.00  0.00     0.293 HD
ENDBRANCH   3  12
TORSDOF 1
ENDMDL
MODEL 8
REMARK VINA RESULT:    -0.965     22.866     23.833
REMARK INTER + INTRA:          -0.994
REMARK INTER:                  -0.994
REMARK INTRA:                   0.000
REMARK UNBOUND:                 0.000
REMARK SMILES O=c1ccc2ccc(O)cc2o1
REMARK SMILES IDX 6 1 7 2 8 3 10 4 11 5 5 6 4 7 3 8 2 9 1 10 12 11 9 12
REMARK H PARENT 9 13
REMARK Flexibility Score: inf
ROOT
ATOM      1  C   UNL     1       4.719  77.327   9.263  1.00  0.00     0.016 A 
ATOM      2  C   UNL     1       4.444  77.802  10.550  1.00  0.00     0.047 A 
ATOM      3  C   UNL     1       3.347  78.648  10.773  1.00  0.00     0.119 A 
ATOM      4  C   UNL     1       2.523  79.020   9.704  1.00  0.00     0.094 A 
ATOM      5  C   UNL     1       2.790  78.550   8.413  1.00  0.00     0.142 A 
ATOM      6  C   UNL     1       3.895  77.698   8.191  1.00  0.00     0.018 A 
ATOM      7  C   UNL     1       4.136  77.244   6.891  1.00  0.00     0.019 A 
ATOM      8  C   UNL     1       3.287  77.641   5.860  1.00  0.00     0.094 A 
ATOM      9  C   UNL     1       2.211  78.488   6.153  1.00  0.00     0.336 A 
ATOM     10  O   UNL     1       1.434  78.857   5.235  1.00  0.00    -0.246 OA
ATOM     11  O   UNL     1       2.004  78.904   7.400  1.00  0.00    -0.423 OA
ENDROOT
BRANCH   3  12
ATOM     12  O   UNL     1       3.068  79.125  12.052  1.00  0.00    -0.508 OA
ATOM     13  H   UNL     1       2.125  79.127  12.422  1.00  0.00     0.293 HD
ENDBRANCH   3  12
TORSDOF 1
ENDMDL
