MODEL 1
REMARK VINA RESULT:    -5.089      0.000      0.000
REMARK INTER + INTRA:         -15.042
REMARK INTER:                 -11.634
REMARK INTRA:                  -3.408
REMARK UNBOUND:                -3.408
REMARK SMILES CCCCCCCCCCCCCCCCCCCCCCCC(=O)[O-]
REMARK SMILES IDX 13 1 14 2 15 3 16 4 17 5 18 6 19 7 20 8 21 9 22 10 23 11
REMARK SMILES IDX 24 12 25 13 26 14 12 15 11 16 10 17 9 18 8 19 7 20 6 21 5 22
REMARK SMILES IDX 4 23 3 24 2 25 1 26
REMARK H PARENT
REMARK Flexibility Score: inf
ROOT
ATOM      1  C   UNL     1     -17.561 -26.530  11.166  1.00  0.00     0.000 C 
ENDROOT
BRANCH   1   2
ATOM      2  C   UNL     1     -17.179 -25.310  12.030  1.00  0.00     0.000 C 
BRANCH   2   3
ATOM      3  C   UNL     1     -16.152 -25.594  13.144  1.00  0.00     0.000 C 
BRANCH   3   4
ATOM      4  C   UNL     1     -16.676 -26.455  14.309  1.00  0.00     0.000 C 
BRANCH   4   5
ATOM      5  C   UNL     1     -17.593 -25.680  15.265  1.00  0.00     0.000 C 
BRANCH   5   6
ATOM      6  C   UNL     1     -19.063 -26.091  15.086  1.00  0.00     0.000 C 
BRANCH   6   7
ATOM      7  C   UNL     1     -20.024 -24.892  15.140  1.00  0.00     0.000 C 
BRANCH   7   8
ATOM      8  C   UNL     1     -19.768 -23.871  14.022  1.00  0.00     0.000 C 
BRANCH   8   9
ATOM      9  C   UNL     1     -20.812 -24.018  12.907  1.00  0.00     0.000 C 
BRANCH   9  10
ATOM     10  C   UNL     1     -20.380 -23.267  11.639  1.00  0.00     0.006 C 
BRANCH  10  11
ATOM     11  C   UNL     1     -19.131 -22.406  11.870  1.00  0.00     0.053 C 
BRANCH  11  12
ATOM     12  C   UNL     1     -19.249 -21.069  11.206  1.00  0.00     0.041 C 
ATOM     13  O   UNL     1     -19.363 -20.991   9.953  1.00  0.00    -0.550 OA
ATOM     14  O   UNL     1     -19.280 -19.912  11.975  1.00  0.00    -0.550 OA
ENDBRANCH  11  12
ENDBRANCH  10  11
ENDBRANCH   9  10
ENDBRANCH   8   9
ENDBRANCH   7   8
ENDBRANCH   6   7
ENDBRANCH   5   6
ENDBRANCH   4   5
ENDBRANCH   3   4
ENDBRANCH   2   3
ENDBRANCH   1   2
BRANCH   1  15
ATOM     15  C   UNL     1     -18.900 -27.193  11.536  1.00  0.00     0.000 C 
BRANCH  15  16
ATOM     16  C   UNL     1     -18.766 -28.574  12.201  1.00  0.00     0.000 C 
BRANCH  16  17
ATOM     17  C   UNL     1     -20.059 -29.052  12.905  1.00  0.00     0.000 C 
BRANCH  17  18
ATOM     18  C   UNL     1     -20.292 -30.566  12.771  1.00  0.00    -0.000 C 
BRANCH  18  19
ATOM     19  C   UNL     1     -21.538 -31.027  13.546  1.00  0.00    -0.000 C 
BRANCH  19  20
ATOM     20  C   UNL     1     -22.020 -29.978  14.566  1.00  0.00    -0.000 C 
BRANCH  20  21
ATOM     21  C   UNL     1     -21.718 -30.339  16.035  1.00  0.00    -0.000 C 
BRANCH  21  22
ATOM     22  C   UNL     1     -20.889 -29.287  16.802  1.00  0.00    -0.000 C 
BRANCH  22  23
ATOM     23  C   UNL     1     -21.609 -27.927  16.965  1.00  0.00    -0.000 C 
BRANCH  23  24
ATOM     24  C   UNL     1     -22.944 -28.034  17.731  1.00  0.00    -0.000 C 
BRANCH  24  25
ATOM     25  C   UNL     1     -23.940 -26.904  17.411  1.00  0.00    -0.003 C 
ATOM     26  C   UNL     1     -23.515 -26.051  16.217  1.00  0.00     0.004 C 
ENDBRANCH  24  25
ENDBRANCH  23  24
ENDBRANCH  22  23
ENDBRANCH  21  22
ENDBRANCH  20  21
ENDBRANCH  19  20
ENDBRANCH  18  19
ENDBRANCH  17  18
ENDBRANCH  16  17
ENDBRANCH  15  16
ENDBRANCH   1  15
TORSDOF 22
ENDMDL
MODEL 2
REMARK VINA RESULT:    -5.079      2.691      3.888
REMARK INTER + INTRA:         -15.018
REMARK INTER:                 -11.464
REMARK INTRA:                  -3.555
REMARK UNBOUND:                -3.408
REMARK SMILES CCCCCCCCCCCCCCCCCCCCCCCC(=O)[O-]
REMARK SMILES IDX 13 1 14 2 15 3 16 4 17 5 18 6 19 7 20 8 21 9 22 10 23 11
REMARK SMILES IDX 24 12 25 13 26 14 12 15 11 16 10 17 9 18 8 19 7 20 6 21 5 22
REMARK SMILES IDX 4 23 3 24 2 25 1 26
REMARK H PARENT
REMARK Flexibility Score: inf
ROOT
ATOM      1  C   UNL     1     -18.788 -27.106  11.534  1.00  0.00     0.000 C 
ENDROOT
BRANCH   1   2
ATOM      2  C   UNL     1     -17.993 -25.877  11.043  1.00  0.00     0.000 C 
BRANCH   2   3
ATOM      3  C   UNL     1     -17.966 -24.683  12.018  1.00  0.00     0.000 C 
BRANCH   3   4
ATOM      4  C   UNL     1     -19.047 -23.615  11.770  1.00  0.00     0.000 C 
BRANCH   4   5
ATOM      5  C   UNL     1     -19.663 -23.071  13.066  1.00  0.00     0.000 C 
BRANCH   5   6
ATOM      6  C   UNL     1     -20.848 -23.934  13.527  1.00  0.00     0.000 C 
BRANCH   6   7
ATOM      7  C   UNL     1     -20.553 -24.695  14.830  1.00  0.00     0.000 C 
BRANCH   7   8
ATOM      8  C   UNL     1     -20.246 -26.182  14.596  1.00  0.00     0.000 C 
BRANCH   8   9
ATOM      9  C   UNL     1     -19.358 -26.733  15.718  1.00  0.00     0.000 C 
BRANCH   9  10
ATOM     10  C   UNL     1     -17.966 -27.111  15.190  1.00  0.00     0.006 C 
BRANCH  10  11
ATOM     11  C   UNL     1     -16.963 -25.956  15.314  1.00  0.00     0.053 C 
BRANCH  11  12
ATOM     12  C   UNL     1     -15.752 -26.356  16.098  1.00  0.00     0.041 C 
ATOM     13  O   UNL     1     -15.565 -27.563  16.405  1.00  0.00    -0.550 OA
ATOM     14  O   UNL     1     -14.807 -25.400  16.451  1.00  0.00    -0.550 OA
ENDBRANCH  11  12
ENDBRANCH  10  11
ENDBRANCH   9  10
ENDBRANCH   8   9
ENDBRANCH   7   8
ENDBRANCH   6   7
ENDBRANCH   5   6
ENDBRANCH   4   5
ENDBRANCH   3   4
ENDBRANCH   2   3
ENDBRANCH   1   2
BRANCH   1  15
ATOM     15  C   UNL     1     -17.991 -28.422  11.571  1.00  0.00     0.000 C 
BRANCH  15  16
ATOM     16  C   UNL     1     -18.528 -29.467  12.564  1.00  0.00     0.000 C 
BRANCH  16  17
ATOM     17  C   UNL     1     -19.870 -30.103  12.129  1.00  0.00     0.000 C 
BRANCH  17  18
ATOM     18  C   UNL     1     -21.032 -29.762  13.077  1.00  0.00    -0.000 C 
BRANCH  18  19
ATOM     19  C   UNL     1     -21.748 -31.024  13.588  1.00  0.00    -0.000 C 
BRANCH  19  20
ATOM     20  C   UNL     1     -22.084 -30.945  15.089  1.00  0.00    -0.000 C 
BRANCH  20  21
ATOM     21  C   UNL     1     -21.704 -29.605  15.753  1.00  0.00    -0.000 C 
BRANCH  21  22
ATOM     22  C   UNL     1     -22.429 -29.314  17.083  1.00  0.00    -0.000 C 
BRANCH  22  23
ATOM     23  C   UNL     1     -22.369 -27.829  17.512  1.00  0.00    -0.000 C 
BRANCH  23  24
ATOM     24  C   UNL     1     -23.695 -27.075  17.281  1.00  0.00    -0.000 C 
BRANCH  24  25
ATOM     25  C   UNL     1     -23.523 -25.696  16.619  1.00  0.00    -0.003 C 
ATOM     26  C   UNL     1     -24.718 -25.292  15.757  1.00  0.00     0.004 C 
ENDBRANCH  24  25
ENDBRANCH  23  24
ENDBRANCH  22  23
ENDBRANCH  21  22
ENDBRANCH  20  21
ENDBRANCH  19  20
ENDBRANCH  18  19
ENDBRANCH  17  18
ENDBRANCH  16  17
ENDBRANCH  15  16
ENDBRANCH   1  15
TORSDOF 22
ENDMDL
MODEL 3
REMARK VINA RESULT:    -5.065      2.935      6.937
REMARK INTER + INTRA:         -14.987
REMARK INTER:                 -11.857
REMARK INTRA:                  -3.130
REMARK UNBOUND:                -3.408
REMARK SMILES CCCCCCCCCCCCCCCCCCCCCCCC(=O)[O-]
REMARK SMILES IDX 13 1 14 2 15 3 16 4 17 5 18 6 19 7 20 8 21 9 22 10 23 11
REMARK SMILES IDX 24 12 25 13 26 14 12 15 11 16 10 17 9 18 8 19 7 20 6 21 5 22
REMARK SMILES IDX 4 23 3 24 2 25 1 26
REMARK H PARENT
REMARK Flexibility Score: inf
ROOT
ATOM      1  C   UNL     1     -16.890 -25.231  12.341  1.00  0.00     0.000 C 
ENDROOT
BRANCH   1   2
ATOM      2  C   UNL     1     -17.275 -26.277  11.272  1.00  0.00     0.000 C 
BRANCH   2   3
ATOM      3  C   UNL     1     -18.639 -26.961  11.488  1.00  0.00     0.000 C 
BRANCH   3   4
ATOM      4  C   UNL     1     -18.574 -28.477  11.748  1.00  0.00     0.000 C 
BRANCH   4   5
ATOM      5  C   UNL     1     -19.056 -28.868  13.152  1.00  0.00     0.000 C 
BRANCH   5   6
ATOM      6  C   UNL     1     -20.505 -29.380  13.122  1.00  0.00     0.000 C 
BRANCH   6   7
ATOM      7  C   UNL     1     -21.374 -28.763  14.229  1.00  0.00     0.000 C 
BRANCH   7   8
ATOM      8  C   UNL     1     -21.588 -29.712  15.419  1.00  0.00     0.000 C 
BRANCH   8   9
ATOM      9  C   UNL     1     -21.111 -29.060  16.722  1.00  0.00     0.000 C 
BRANCH   9  10
ATOM     10  C   UNL     1     -22.281 -28.419  17.484  1.00  0.00     0.006 C 
BRANCH  10  11
ATOM     11  C   UNL     1     -22.930 -27.273  16.696  1.00  0.00     0.053 C 
BRANCH  11  12
ATOM     12  C   UNL     1     -23.799 -26.423  17.569  1.00  0.00     0.041 C 
ATOM     13  O   UNL     1     -25.050 -26.565  17.551  1.00  0.00    -0.550 OA
ATOM     14  O   UNL     1     -23.222 -25.504  18.438  1.00  0.00    -0.550 OA
ENDBRANCH  11  12
ENDBRANCH  10  11
ENDBRANCH   9  10
ENDBRANCH   8   9
ENDBRANCH   7   8
ENDBRANCH   6   7
ENDBRANCH   5   6
ENDBRANCH   4   5
ENDBRANCH   3   4
ENDBRANCH   2   3
ENDBRANCH   1   2
BRANCH   1  15
ATOM     15  C   UNL     1     -16.007 -25.765  13.482  1.00  0.00     0.000 C 
BRANCH  15  16
ATOM     16  C   UNL     1     -16.786 -26.364  14.666  1.00  0.00     0.000 C 
BRANCH  16  17
ATOM     17  C   UNL     1     -17.845 -25.405  15.261  1.00  0.00     0.000 C 
BRANCH  17  18
ATOM     18  C   UNL     1     -19.217 -26.073  15.457  1.00  0.00    -0.000 C 
BRANCH  18  19
ATOM     19  C   UNL     1     -20.354 -25.246  14.831  1.00  0.00    -0.000 C 
BRANCH  19  20
ATOM     20  C   UNL     1     -19.847 -23.946  14.179  1.00  0.00    -0.000 C 
BRANCH  20  21
ATOM     21  C   UNL     1     -20.622 -23.531  12.910  1.00  0.00    -0.000 C 
BRANCH  21  22
ATOM     22  C   UNL     1     -19.734 -23.135  11.712  1.00  0.00    -0.000 C 
BRANCH  22  23
ATOM     23  C   UNL     1     -19.302 -21.649  11.723  1.00  0.00    -0.000 C 
BRANCH  23  24
ATOM     24  C   UNL     1     -19.424 -20.970  10.343  1.00  0.00    -0.000 C 
BRANCH  24  25
ATOM     25  C   UNL     1     -19.943 -21.901   9.232  1.00  0.00    -0.003 C 
ATOM     26  C   UNL     1     -21.182 -21.355   8.523  1.00  0.00     0.004 C 
ENDBRANCH  24  25
ENDBRANCH  23  24
ENDBRANCH  22  23
ENDBRANCH  21  22
ENDBRANCH  20  21
ENDBRANCH  19  20
ENDBRANCH  18  19
ENDBRANCH  17  18
ENDBRANCH  16  17
ENDBRANCH  15  16
ENDBRANCH   1  15
TORSDOF 22
ENDMDL
MODEL 4
REMARK VINA RESULT:    -5.023      3.908      7.822
REMARK INTER + INTRA:         -14.891
REMARK INTER:                 -11.525
REMARK INTRA:                  -3.365
REMARK UNBOUND:                -3.408
REMARK SMILES CCCCCCCCCCCCCCCCCCCCCCCC(=O)[O-]
REMARK SMILES IDX 13 1 14 2 15 3 16 4 17 5 18 6 19 7 20 8 21 9 22 10 23 11
REMARK SMILES IDX 24 12 25 13 26 14 12 15 11 16 10 17 9 18 8 19 7 20 6 21 5 22
REMARK SMILES IDX 4 23 3 24 2 25 1 26
REMARK H PARENT
REMARK Flexibility Score: inf
ROOT
ATOM      1  C   UNL     1     -23.837 -25.308  16.818  1.00  0.00     0.000 C 
ENDROOT
BRANCH   1   2
ATOM      2  C   UNL     1     -24.397 -26.423  17.727  1.00  0.00     0.000 C 
BRANCH   2   3
ATOM      3  C   UNL     1     -23.484 -26.832  18.899  1.00  0.00     0.000 C 
BRANCH   3   4
ATOM      4  C   UNL     1     -23.243 -28.347  19.039  1.00  0.00     0.000 C 
BRANCH   4   5
ATOM      5  C   UNL     1     -22.086 -28.855  18.168  1.00  0.00     0.000 C 
BRANCH   5   6
ATOM      6  C   UNL     1     -22.605 -29.548  16.899  1.00  0.00     0.000 C 
BRANCH   6   7
ATOM      7  C   UNL     1     -21.474 -30.143  16.044  1.00  0.00     0.000 C 
BRANCH   7   8
ATOM      8  C   UNL     1     -21.658 -29.880  14.542  1.00  0.00     0.000 C 
BRANCH   8   9
ATOM      9  C   UNL     1     -21.655 -31.198  13.759  1.00  0.00     0.000 C 
BRANCH   9  10
ATOM     10  C   UNL     1     -21.797 -30.948  12.250  1.00  0.00     0.006 C 
BRANCH  10  11
ATOM     11  C   UNL     1     -23.103 -31.525  11.686  1.00  0.00     0.053 C 
BRANCH  11  12
ATOM     12  C   UNL     1     -22.901 -32.890  11.105  1.00  0.00     0.041 C 
ATOM     13  O   UNL     1     -21.802 -33.195  10.569  1.00  0.00    -0.550 OA
ATOM     14  O   UNL     1     -23.910 -33.840  11.199  1.00  0.00    -0.550 OA
ENDBRANCH  11  12
ENDBRANCH  10  11
ENDBRANCH   9  10
ENDBRANCH   8   9
ENDBRANCH   7   8
ENDBRANCH   6   7
ENDBRANCH   5   6
ENDBRANCH   4   5
ENDBRANCH   3   4
ENDBRANCH   2   3
ENDBRANCH   1   2
BRANCH   1  15
ATOM     15  C   UNL     1     -23.419 -25.768  15.410  1.00  0.00     0.000 C 
BRANCH  15  16
ATOM     16  C   UNL     1     -22.010 -26.381  15.330  1.00  0.00     0.000 C 
BRANCH  16  17
ATOM     17  C   UNL     1     -21.008 -25.767  16.337  1.00  0.00     0.000 C 
BRANCH  17  18
ATOM     18  C   UNL     1     -19.542 -26.063  15.983  1.00  0.00    -0.000 C 
BRANCH  18  19
ATOM     19  C   UNL     1     -19.398 -27.356  15.161  1.00  0.00    -0.000 C 
BRANCH  19  20
ATOM     20  C   UNL     1     -17.990 -27.518  14.557  1.00  0.00    -0.000 C 
BRANCH  20  21
ATOM     21  C   UNL     1     -17.973 -27.657  13.020  1.00  0.00    -0.000 C 
BRANCH  21  22
ATOM     22  C   UNL     1     -17.327 -26.473  12.271  1.00  0.00    -0.000 C 
BRANCH  22  23
ATOM     23  C   UNL     1     -17.650 -25.093  12.893  1.00  0.00    -0.000 C 
BRANCH  23  24
ATOM     24  C   UNL     1     -18.734 -24.316  12.120  1.00  0.00    -0.000 C 
BRANCH  24  25
ATOM     25  C   UNL     1     -20.168 -24.582  12.615  1.00  0.00    -0.003 C 
ATOM     26  C   UNL     1     -20.768 -23.399  13.374  1.00  0.00     0.004 C 
ENDBRANCH  24  25
ENDBRANCH  23  24
ENDBRANCH  22  23
ENDBRANCH  21  22
ENDBRANCH  20  21
ENDBRANCH  19  20
ENDBRANCH  18  19
ENDBRANCH  17  18
ENDBRANCH  16  17
ENDBRANCH  15  16
ENDBRANCH   1  15
TORSDOF 22
ENDMDL
MODEL 5
REMARK VINA RESULT:    -5.017      2.334      5.257
REMARK INTER + INTRA:         -14.877
REMARK INTER:                 -12.028
REMARK INTRA:                  -2.849
REMARK UNBOUND:                -3.408
REMARK SMILES CCCCCCCCCCCCCCCCCCCCCCCC(=O)[O-]
REMARK SMILES IDX 13 1 14 2 15 3 16 4 17 5 18 6 19 7 20 8 21 9 22 10 23 11
REMARK SMILES IDX 24 12 25 13 26 14 12 15 11 16 10 17 9 18 8 19 7 20 6 21 5 22
REMARK SMILES IDX 4 23 3 24 2 25 1 26
REMARK H PARENT
REMARK Flexibility Score: inf
ROOT
ATOM      1  C   UNL     1     -21.486 -25.743  16.624  1.00  0.00     0.000 C 
ENDROOT
BRANCH   1   2
ATOM      2  C   UNL     1     -20.591 -25.316  15.441  1.00  0.00     0.000 C 
BRANCH   2   3
ATOM      3  C   UNL     1     -21.331 -24.629  14.276  1.00  0.00     0.000 C 
BRANCH   3   4
ATOM      4  C   UNL     1     -20.459 -24.314  13.046  1.00  0.00     0.000 C 
BRANCH   4   5
ATOM      5  C   UNL     1     -19.782 -22.939  13.127  1.00  0.00     0.000 C 
BRANCH   5   6
ATOM      6  C   UNL     1     -19.047 -22.601  11.820  1.00  0.00     0.000 C 
BRANCH   6   7
ATOM      7  C   UNL     1     -19.139 -21.110  11.458  1.00  0.00     0.000 C 
BRANCH   7   8
ATOM      8  C   UNL     1     -19.726 -20.870  10.059  1.00  0.00     0.000 C 
BRANCH   8   9
ATOM      9  C   UNL     1     -19.990 -22.203   9.348  1.00  0.00     0.000 C 
BRANCH   9  10
ATOM     10  C   UNL     1     -21.458 -22.320   8.913  1.00  0.00     0.006 C 
BRANCH  10  11
ATOM     11  C   UNL     1     -21.736 -21.573   7.602  1.00  0.00     0.053 C 
BRANCH  11  12
ATOM     12  C   UNL     1     -23.162 -21.123   7.512  1.00  0.00     0.041 C 
ATOM     13  O   UNL     1     -24.064 -21.937   7.181  1.00  0.00    -0.550 OA
ATOM     14  O   UNL     1     -23.499 -19.815   7.840  1.00  0.00    -0.550 OA
ENDBRANCH  11  12
ENDBRANCH  10  11
ENDBRANCH   9  10
ENDBRANCH   8   9
ENDBRANCH   7   8
ENDBRANCH   6   7
ENDBRANCH   5   6
ENDBRANCH   4   5
ENDBRANCH   3   4
ENDBRANCH   2   3
ENDBRANCH   1   2
BRANCH   1  15
ATOM     15  C   UNL     1     -22.954 -26.025  16.258  1.00  0.00     0.000 C 
BRANCH  15  16
ATOM     16  C   UNL     1     -23.662 -27.029  17.184  1.00  0.00     0.000 C 
BRANCH  16  17
ATOM     17  C   UNL     1     -22.694 -27.995  17.908  1.00  0.00     0.000 C 
BRANCH  17  18
ATOM     18  C   UNL     1     -22.530 -29.339  17.179  1.00  0.00    -0.000 C 
BRANCH  18  19
ATOM     19  C   UNL     1     -21.192 -29.425  16.424  1.00  0.00    -0.000 C 
BRANCH  19  20
ATOM     20  C   UNL     1     -21.382 -29.628  14.909  1.00  0.00    -0.000 C 
BRANCH  20  21
ATOM     21  C   UNL     1     -20.988 -28.406  14.052  1.00  0.00    -0.000 C 
BRANCH  21  22
ATOM     22  C   UNL     1     -19.679 -28.572  13.253  1.00  0.00    -0.000 C 
BRANCH  22  23
ATOM     23  C   UNL     1     -18.447 -27.937  13.940  1.00  0.00    -0.000 C 
BRANCH  23  24
ATOM     24  C   UNL     1     -17.849 -26.757  13.146  1.00  0.00    -0.000 C 
BRANCH  24  25
ATOM     25  C   UNL     1     -16.727 -26.009  13.888  1.00  0.00    -0.003 C 
ATOM     26  C   UNL     1     -17.035 -25.782  15.368  1.00  0.00     0.004 C 
ENDBRANCH  24  25
ENDBRANCH  23  24
ENDBRANCH  22  23
ENDBRANCH  21  22
ENDBRANCH  20  21
ENDBRANCH  19  20
ENDBRANCH  18  19
ENDBRANCH  17  18
ENDBRANCH  16  17
ENDBRANCH  15  16
ENDBRANCH   1  15
TORSDOF 22
ENDMDL
MODEL 6
REMARK VINA RESULT:    -4.995      7.784     10.629
REMARK INTER + INTRA:         -14.828
REMARK INTER:                 -12.191
REMARK INTRA:                  -2.637
REMARK UNBOUND:                -3.408
REMARK SMILES CCCCCCCCCCCCCCCCCCCCCCCC(=O)[O-]
REMARK SMILES IDX 13 1 14 2 15 3 16 4 17 5 18 6 19 7 20 8 21 9 22 10 23 11
REMARK SMILES IDX 24 12 25 13 26 14 12 15 11 16 10 17 9 18 8 19 7 20 6 21 5 22
REMARK SMILES IDX 4 23 3 24 2 25 1 26
REMARK H PARENT
REMARK Flexibility Score: inf
ROOT
ATOM      1  C   UNL     1     -24.017 -27.389   5.226  1.00  0.00     0.000 C 
ENDROOT
BRANCH   1   2
ATOM      2  C   UNL     1     -23.044 -27.404   4.028  1.00  0.00     0.000 C 
BRANCH   2   3
ATOM      3  C   UNL     1     -23.289 -28.526   3.000  1.00  0.00     0.000 C 
BRANCH   3   4
ATOM      4  C   UNL     1     -22.205 -29.619   2.959  1.00  0.00     0.000 C 
BRANCH   4   5
ATOM      5  C   UNL     1     -22.771 -31.034   3.144  1.00  0.00     0.000 C 
BRANCH   5   6
ATOM      6  C   UNL     1     -22.171 -31.718   4.382  1.00  0.00     0.000 C 
BRANCH   6   7
ATOM      7  C   UNL     1     -23.022 -31.508   5.645  1.00  0.00     0.000 C 
BRANCH   7   8
ATOM      8  C   UNL     1     -22.458 -30.419   6.571  1.00  0.00     0.000 C 
BRANCH   8   9
ATOM      9  C   UNL     1     -22.873 -30.679   8.025  1.00  0.00     0.000 C 
BRANCH   9  10
ATOM     10  C   UNL     1     -21.746 -31.366   8.810  1.00  0.00     0.006 C 
BRANCH  10  11
ATOM     11  C   UNL     1     -22.060 -32.837   9.111  1.00  0.00     0.053 C 
BRANCH  11  12
ATOM     12  C   UNL     1     -22.315 -33.061  10.570  1.00  0.00     0.041 C 
ATOM     13  O   UNL     1     -23.376 -33.624  10.949  1.00  0.00    -0.550 OA
ATOM     14  O   UNL     1     -21.359 -32.690  11.507  1.00  0.00    -0.550 OA
ENDBRANCH  11  12
ENDBRANCH  10  11
ENDBRANCH   9  10
ENDBRANCH   8   9
ENDBRANCH   7   8
ENDBRANCH   6   7
ENDBRANCH   5   6
ENDBRANCH   4   5
ENDBRANCH   3   4
ENDBRANCH   2   3
ENDBRANCH   1   2
BRANCH   1  15
ATOM     15  C   UNL     1     -25.371 -28.076   4.971  1.00  0.00     0.000 C 
BRANCH  15  16
ATOM     16  C   UNL     1     -25.763 -29.125   6.027  1.00  0.00     0.000 C 
BRANCH  16  17
ATOM     17  C   UNL     1     -27.265 -29.097   6.400  1.00  0.00     0.000 C 
BRANCH  17  18
ATOM     18  C   UNL     1     -27.505 -28.949   7.911  1.00  0.00    -0.000 C 
BRANCH  18  19
ATOM     19  C   UNL     1     -26.216 -28.582   8.666  1.00  0.00    -0.000 C 
BRANCH  19  20
ATOM     20  C   UNL     1     -26.170 -27.095   9.068  1.00  0.00    -0.000 C 
BRANCH  20  21
ATOM     21  C   UNL     1     -25.004 -26.305   8.438  1.00  0.00    -0.000 C 
BRANCH  21  22
ATOM     22  C   UNL     1     -24.926 -24.823   8.857  1.00  0.00    -0.000 C 
BRANCH  22  23
ATOM     23  C   UNL     1     -23.938 -23.987   8.008  1.00  0.00    -0.000 C 
BRANCH  23  24
ATOM     24  C   UNL     1     -23.220 -22.888   8.818  1.00  0.00    -0.000 C 
BRANCH  24  25
ATOM     25  C   UNL     1     -22.442 -21.881   7.951  1.00  0.00    -0.003 C 
ATOM     26  C   UNL     1     -21.048 -21.574   8.495  1.00  0.00     0.004 C 
ENDBRANCH  24  25
ENDBRANCH  23  24
ENDBRANCH  22  23
ENDBRANCH  21  22
ENDBRANCH  20  21
ENDBRANCH  19  20
ENDBRANCH  18  19
ENDBRANCH  17  18
ENDBRANCH  16  17
ENDBRANCH  15  16
ENDBRANCH   1  15
TORSDOF 22
ENDMDL
MODEL 7
REMARK VINA RESULT:    -4.943      3.016      6.922
REMARK INTER + INTRA:         -14.708
REMARK INTER:                 -11.284
REMARK INTRA:                  -3.424
REMARK UNBOUND:                -3.408
REMARK SMILES CCCCCCCCCCCCCCCCCCCCCCCC(=O)[O-]
REMARK SMILES IDX 13 1 14 2 15 3 16 4 17 5 18 6 19 7 20 8 21 9 22 10 23 11
REMARK SMILES IDX 24 12 25 13 26 14 12 15 11 16 10 17 9 18 8 19 7 20 6 21 5 22
REMARK SMILES IDX 4 23 3 24 2 25 1 26
REMARK H PARENT
REMARK Flexibility Score: inf
ROOT
ATOM      1  C   UNL     1     -17.878 -26.281  10.210  1.00  0.00     0.000 C 
ENDROOT
BRANCH   1   2
ATOM      2  C   UNL     1     -19.273 -26.913  10.404  1.00  0.00     0.000 C 
BRANCH   2   3
ATOM      3  C   UNL     1     -19.556 -27.450  11.821  1.00  0.00     0.000 C 
BRANCH   3   4
ATOM      4  C   UNL     1     -19.559 -28.985  11.946  1.00  0.00     0.000 C 
BRANCH   4   5
ATOM      5  C   UNL     1     -20.594 -29.660  11.036  1.00  0.00     0.000 C 
BRANCH   5   6
ATOM      6  C   UNL     1     -21.543 -30.562  11.842  1.00  0.00     0.000 C 
BRANCH   6   7
ATOM      7  C   UNL     1     -21.045 -30.814  13.275  1.00  0.00     0.000 C 
BRANCH   7   8
ATOM      8  C   UNL     1     -22.158 -31.294  14.218  1.00  0.00     0.000 C 
BRANCH   8   9
ATOM      9  C   UNL     1     -22.074 -30.569  15.567  1.00  0.00     0.000 C 
BRANCH   9  10
ATOM     10  C   UNL     1     -21.391 -29.201  15.420  1.00  0.00     0.006 C 
BRANCH  10  11
ATOM     11  C   UNL     1     -21.302 -28.450  16.756  1.00  0.00     0.053 C 
BRANCH  11  12
ATOM     12  C   UNL     1     -22.648 -27.989  17.224  1.00  0.00     0.041 C 
ATOM     13  O   UNL     1     -23.209 -28.558  18.197  1.00  0.00    -0.550 OA
ATOM     14  O   UNL     1     -23.260 -26.902  16.613  1.00  0.00    -0.550 OA
ENDBRANCH  11  12
ENDBRANCH  10  11
ENDBRANCH   9  10
ENDBRANCH   8   9
ENDBRANCH   7   8
ENDBRANCH   6   7
ENDBRANCH   5   6
ENDBRANCH   4   5
ENDBRANCH   3   4
ENDBRANCH   2   3
ENDBRANCH   1   2
BRANCH   1  15
ATOM     15  C   UNL     1     -16.844 -26.646  11.291  1.00  0.00     0.000 C 
BRANCH  15  16
ATOM     16  C   UNL     1     -16.318 -25.448  12.101  1.00  0.00     0.000 C 
BRANCH  16  17
ATOM     17  C   UNL     1     -16.047 -25.777  13.589  1.00  0.00     0.000 C 
BRANCH  17  18
ATOM     18  C   UNL     1     -17.152 -26.636  14.225  1.00  0.00    -0.000 C 
BRANCH  18  19
ATOM     19  C   UNL     1     -17.881 -25.890  15.356  1.00  0.00    -0.000 C 
BRANCH  19  20
ATOM     20  C   UNL     1     -19.377 -25.676  15.054  1.00  0.00    -0.000 C 
BRANCH  20  21
ATOM     21  C   UNL     1     -19.742 -24.230  14.661  1.00  0.00    -0.000 C 
BRANCH  21  22
ATOM     22  C   UNL     1     -20.081 -24.031  13.169  1.00  0.00    -0.000 C 
BRANCH  22  23
ATOM     23  C   UNL     1     -19.031 -23.195  12.399  1.00  0.00    -0.000 C 
BRANCH  23  24
ATOM     24  C   UNL     1     -19.396 -22.978  10.916  1.00  0.00    -0.000 C 
BRANCH  24  25
ATOM     25  C   UNL     1     -19.622 -21.502  10.537  1.00  0.00    -0.003 C 
ATOM     26  C   UNL     1     -19.124 -20.527  11.604  1.00  0.00     0.004 C 
ENDBRANCH  24  25
ENDBRANCH  23  24
ENDBRANCH  22  23
ENDBRANCH  21  22
ENDBRANCH  20  21
ENDBRANCH  19  20
ENDBRANCH  18  19
ENDBRANCH  17  18
ENDBRANCH  16  17
ENDBRANCH  15  16
ENDBRANCH   1  15
TORSDOF 22
ENDMDL
MODEL 8
REMARK VINA RESULT:    -4.930      2.924      6.950
REMARK INTER + INTRA:         -14.678
REMARK INTER:                 -11.580
REMARK INTRA:                  -3.098
REMARK UNBOUND:                -3.408
REMARK SMILES CCCCCCCCCCCCCCCCCCCCCCCC(=O)[O-]
REMARK SMILES IDX 13 1 14 2 15 3 16 4 17 5 18 6 19 7 20 8 21 9 22 10 23 11
REMARK SMILES IDX 24 12 25 13 26 14 12 15 11 16 10 17 9 18 8 19 7 20 6 21 5 22
REMARK SMILES IDX 4 23 3 24 2 25 1 26
REMARK H PARENT
REMARK Flexibility Score: inf
ROOT
ATOM      1  C   UNL     1     -19.649 -25.907  14.811  1.00  0.00     0.000 C 
ENDROOT
BRANCH   1   2
ATOM      2  C   UNL     1     -20.721 -26.446  15.781  1.00  0.00     0.000 C 
BRANCH   2   3
ATOM      3  C   UNL     1     -21.671 -27.503  15.185  1.00  0.00     0.000 C 
BRANCH   3   4
ATOM      4  C   UNL     1     -21.324 -28.962  15.534  1.00  0.00     0.000 C 
BRANCH   4   5
ATOM      5  C   UNL     1     -21.498 -29.281  17.025  1.00  0.00     0.000 C 
BRANCH   5   6
ATOM      6  C   UNL     1     -22.920 -28.952  17.504  1.00  0.00     0.000 C 
BRANCH   6   7
ATOM      7  C   UNL     1     -22.944 -28.348  18.918  1.00  0.00     0.000 C 
BRANCH   7   8
ATOM      8  C   UNL     1     -23.631 -26.976  18.970  1.00  0.00     0.000 C 
BRANCH   8   9
ATOM      9  C   UNL     1     -24.388 -26.701  17.665  1.00  0.00     0.000 C 
BRANCH   9  10
ATOM     10  C   UNL     1     -23.987 -25.345  17.065  1.00  0.00     0.006 C 
BRANCH  10  11
ATOM     11  C   UNL     1     -24.520 -25.161  15.637  1.00  0.00     0.053 C 
BRANCH  11  12
ATOM     12  C   UNL     1     -25.933 -24.667  15.632  1.00  0.00     0.041 C 
ATOM     13  O   UNL     1     -26.174 -23.435  15.524  1.00  0.00    -0.550 OA
ATOM     14  O   UNL     1     -26.985 -25.572  15.701  1.00  0.00    -0.550 OA
ENDBRANCH  11  12
ENDBRANCH  10  11
ENDBRANCH   9  10
ENDBRANCH   8   9
ENDBRANCH   7   8
ENDBRANCH   6   7
ENDBRANCH   5   6
ENDBRANCH   4   5
ENDBRANCH   3   4
ENDBRANCH   2   3
ENDBRANCH   1   2
BRANCH   1  15
ATOM     15  C   UNL     1     -19.638 -24.378  14.640  1.00  0.00     0.000 C 
BRANCH  15  16
ATOM     16  C   UNL     1     -20.857 -23.810  13.893  1.00  0.00     0.000 C 
BRANCH  16  17
ATOM     17  C   UNL     1     -20.759 -23.942  12.355  1.00  0.00     0.000 C 
BRANCH  17  18
ATOM     18  C   UNL     1     -19.489 -23.295  11.776  1.00  0.00    -0.000 C 
BRANCH  18  19
ATOM     19  C   UNL     1     -18.707 -24.268  10.877  1.00  0.00    -0.000 C 
BRANCH  19  20
ATOM     20  C   UNL     1     -18.966 -25.743  11.237  1.00  0.00    -0.000 C 
BRANCH  20  21
ATOM     21  C   UNL     1     -17.686 -26.589  11.401  1.00  0.00    -0.000 C 
BRANCH  21  22
ATOM     22  C   UNL     1     -16.369 -25.786  11.347  1.00  0.00    -0.000 C 
BRANCH  22  23
ATOM     23  C   UNL     1     -15.802 -25.428  12.742  1.00  0.00    -0.000 C 
BRANCH  23  24
ATOM     24  C   UNL     1     -16.442 -26.242  13.886  1.00  0.00    -0.000 C 
BRANCH  24  25
ATOM     25  C   UNL     1     -15.886 -25.904  15.281  1.00  0.00    -0.003 C 
ATOM     26  C   UNL     1     -15.797 -27.120  16.201  1.00  0.00     0.004 C 
ENDBRANCH  24  25
ENDBRANCH  23  24
ENDBRANCH  22  23
ENDBRANCH  21  22
ENDBRANCH  20  21
ENDBRANCH  19  20
ENDBRANCH  18  19
ENDBRANCH  17  18
ENDBRANCH  16  17
ENDBRANCH  15  16
ENDBRANCH   1  15
TORSDOF 22
ENDMDL
MODEL 9
REMARK VINA RESULT:    -4.868      2.660      6.796
REMARK INTER + INTRA:         -14.537
REMARK INTER:                 -10.797
REMARK INTRA:                  -3.741
REMARK UNBOUND:                -3.408
REMARK SMILES CCCCCCCCCCCCCCCCCCCCCCCC(=O)[O-]
REMARK SMILES IDX 13 1 14 2 15 3 16 4 17 5 18 6 19 7 20 8 21 9 22 10 23 11
REMARK SMILES IDX 24 12 25 13 26 14 12 15 11 16 10 17 9 18 8 19 7 20 6 21 5 22
REMARK SMILES IDX 4 23 3 24 2 25 1 26
REMARK H PARENT
REMARK Flexibility Score: inf
ROOT
ATOM      1  C   UNL     1     -20.271 -25.032  15.005  1.00  0.00     0.000 C 
ENDROOT
BRANCH   1   2
ATOM      2  C   UNL     1     -20.849 -25.746  16.246  1.00  0.00     0.000 C 
BRANCH   2   3
ATOM      3  C   UNL     1     -22.297 -26.249  16.094  1.00  0.00     0.000 C 
BRANCH   3   4
ATOM      4  C   UNL     1     -22.522 -27.719  16.496  1.00  0.00     0.000 C 
BRANCH   4   5
ATOM      5  C   UNL     1     -21.229 -28.546  16.494  1.00  0.00     0.000 C 
BRANCH   5   6
ATOM      6  C   UNL     1     -21.410 -29.864  15.724  1.00  0.00     0.000 C 
BRANCH   6   7
ATOM      7  C   UNL     1     -21.390 -29.667  14.200  1.00  0.00     0.000 C 
BRANCH   7   8
ATOM      8  C   UNL     1     -20.284 -28.708  13.736  1.00  0.00     0.000 C 
BRANCH   8   9
ATOM      9  C   UNL     1     -19.937 -28.955  12.263  1.00  0.00     0.000 C 
BRANCH   9  10
ATOM     10  C   UNL     1     -18.785 -29.961  12.123  1.00  0.00     0.006 C 
BRANCH  10  11
ATOM     11  C   UNL     1     -18.602 -30.438  10.676  1.00  0.00     0.053 C 
BRANCH  11  12
ATOM     12  C   UNL     1     -17.851 -29.437   9.854  1.00  0.00     0.041 C 
ATOM     13  O   UNL     1     -18.398 -28.898   8.855  1.00  0.00    -0.550 OA
ATOM     14  O   UNL     1     -16.562 -29.067  10.218  1.00  0.00    -0.550 OA
ENDBRANCH  11  12
ENDBRANCH  10  11
ENDBRANCH   9  10
ENDBRANCH   8   9
ENDBRANCH   7   8
ENDBRANCH   6   7
ENDBRANCH   5   6
ENDBRANCH   4   5
ENDBRANCH   3   4
ENDBRANCH   2   3
ENDBRANCH   1   2
BRANCH   1  15
ATOM     15  C   UNL     1     -18.735 -25.046  14.906  1.00  0.00     0.000 C 
BRANCH  15  16
ATOM     16  C   UNL     1     -18.078 -26.360  15.362  1.00  0.00     0.000 C 
BRANCH  16  17
ATOM     17  C   UNL     1     -16.935 -26.838  14.434  1.00  0.00     0.000 C 
BRANCH  17  18
ATOM     18  C   UNL     1     -16.348 -25.706  13.573  1.00  0.00    -0.000 C 
BRANCH  18  19
ATOM     19  C   UNL     1     -16.458 -26.010  12.069  1.00  0.00    -0.000 C 
BRANCH  19  20
ATOM     20  C   UNL     1     -17.920 -26.102  11.592  1.00  0.00    -0.000 C 
BRANCH  20  21
ATOM     21  C   UNL     1     -18.494 -24.774  11.054  1.00  0.00    -0.000 C 
BRANCH  21  22
ATOM     22  C   UNL     1     -20.033 -24.672  11.092  1.00  0.00    -0.000 C 
BRANCH  22  23
ATOM     23  C   UNL     1     -20.552 -23.308  11.606  1.00  0.00    -0.000 C 
BRANCH  23  24
ATOM     24  C   UNL     1     -19.467 -22.472  12.315  1.00  0.00    -0.000 C 
BRANCH  24  25
ATOM     25  C   UNL     1     -19.155 -21.134  11.619  1.00  0.00    -0.003 C 
ATOM     26  C   UNL     1     -19.544 -21.124  10.141  1.00  0.00     0.004 C 
ENDBRANCH  24  25
ENDBRANCH  23  24
ENDBRANCH  22  23
ENDBRANCH  21  22
ENDBRANCH  20  21
ENDBRANCH  19  20
ENDBRANCH  18  19
ENDBRANCH  17  18
ENDBRANCH  16  17
ENDBRANCH  15  16
ENDBRANCH   1  15
TORSDOF 22
ENDMDL
