MODEL 1
REMARK VINA RESULT:    -4.856      0.000      0.000
REMARK INTER + INTRA:         -11.529
REMARK INTER:                  -9.113
REMARK INTRA:                  -2.415
REMARK UNBOUND:                -2.415
REMARK SMILES CCCCCCCCC=CCCCCCCCC(=O)[O-]
REMARK SMILES IDX 10 1 9 2 11 3 12 4 13 5 14 6 15 7 16 8 17 9 18 10 19 11
REMARK SMILES IDX 20 12 8 13 7 14 6 15 5 16 4 17 3 18 2 19 1 20
REMARK H PARENT
REMARK Flexibility Score: inf
ROOT
ATOM      1  C   UNL     1       9.708  -0.756   6.558  1.00  0.00    -0.031 C 
ATOM      2  C   UNL     1      10.034  -2.060   6.623  1.00  0.00    -0.031 C 
ENDROOT
BRANCH   1   3
ATOM      3  C   UNL     1       8.405  -0.222   6.014  1.00  0.00     0.027 C 
BRANCH   3   4
ATOM      4  C   UNL     1       8.616   0.624   4.750  1.00  0.00     0.004 C 
BRANCH   4   5
ATOM      5  C   UNL     1       9.304  -0.171   3.630  1.00  0.00     0.000 C 
BRANCH   5   6
ATOM      6  C   UNL     1       8.792   0.267   2.251  1.00  0.00     0.000 C 
BRANCH   6   7
ATOM      7  C   UNL     1       8.587   1.788   2.199  1.00  0.00     0.000 C 
BRANCH   7   8
ATOM      8  C   UNL     1       7.647   2.225   1.060  1.00  0.00     0.006 C 
BRANCH   8   9
ATOM      9  C   UNL     1       7.541   3.747   0.874  1.00  0.00     0.053 C 
BRANCH   9  10
ATOM     10  C   UNL     1       6.677   4.110  -0.294  1.00  0.00     0.041 C 
ATOM     11  O   UNL     1       6.584   5.310  -0.664  1.00  0.00    -0.550 OA
ATOM     12  O   UNL     1       6.000   3.120  -0.994  1.00  0.00    -0.550 OA
ENDBRANCH   9  10
ENDBRANCH   8   9
ENDBRANCH   7   8
ENDBRANCH   6   7
ENDBRANCH   5   6
ENDBRANCH   4   5
ENDBRANCH   3   4
ENDBRANCH   1   3
BRANCH   2  13
ATOM     13  C   UNL     1       9.191  -3.184   6.071  1.00  0.00     0.027 C 
BRANCH  13  14
ATOM     14  C   UNL     1       9.486  -3.446   4.587  1.00  0.00     0.004 C 
BRANCH  14  15
ATOM     15  C   UNL     1       8.201  -3.540   3.749  1.00  0.00     0.000 C 
BRANCH  15  16
ATOM     16  C   UNL     1       6.956  -3.043   4.505  1.00  0.00     0.000 C 
BRANCH  16  17
ATOM     17  C   UNL     1       5.999  -2.160   3.680  1.00  0.00    -0.000 C 
BRANCH  17  18
ATOM     18  C   UNL     1       6.005  -2.428   2.165  1.00  0.00    -0.000 C 
BRANCH  18  19
ATOM     19  C   UNL     1       5.592  -1.199   1.341  1.00  0.00    -0.003 C 
ATOM     20  C   UNL     1       5.176  -0.045   2.247  1.00  0.00     0.004 C 
ENDBRANCH  18  19
ENDBRANCH  17  18
ENDBRANCH  16  17
ENDBRANCH  15  16
ENDBRANCH  14  15
ENDBRANCH  13  14
ENDBRANCH   2  13
TORSDOF 15
ENDMDL
MODEL 2
REMARK VINA RESULT:    -4.828      3.772      5.917
REMARK INTER + INTRA:         -11.477
REMARK INTER:                  -9.362
REMARK INTRA:                  -2.115
REMARK UNBOUND:                -2.415
REMARK SMILES CCCCCCCCC=CCCCCCCCC(=O)[O-]
REMARK SMILES IDX 10 1 9 2 11 3 12 4 13 5 14 6 15 7 16 8 17 9 18 10 19 11
REMARK SMILES IDX 20 12 8 13 7 14 6 15 5 16 4 17 3 18 2 19 1 20
REMARK H PARENT
REMARK Flexibility Score: inf
ROOT
ATOM      1  C   UNL     1       8.724  -2.502   3.831  1.00  0.00    -0.031 C 
ATOM      2  C   UNL     1       7.477  -3.004   3.764  1.00  0.00    -0.031 C 
ENDROOT
BRANCH   1   3
ATOM      3  C   UNL     1       9.076  -1.047   3.638  1.00  0.00     0.027 C 
BRANCH   3   4
ATOM      4  C   UNL     1       9.137  -0.291   4.974  1.00  0.00     0.004 C 
BRANCH   4   5
ATOM      5  C   UNL     1       7.965   0.689   5.138  1.00  0.00     0.000 C 
BRANCH   5   6
ATOM      6  C   UNL     1       7.003   0.215   6.235  1.00  0.00     0.000 C 
BRANCH   6   7
ATOM      7  C   UNL     1       5.549   0.238   5.738  1.00  0.00     0.000 C 
BRANCH   7   8
ATOM      8  C   UNL     1       4.691  -0.882   6.355  1.00  0.00     0.006 C 
BRANCH   8   9
ATOM      9  C   UNL     1       3.496  -0.382   7.181  1.00  0.00     0.053 C 
BRANCH   9  10
ATOM     10  C   UNL     1       2.241  -1.137   6.867  1.00  0.00     0.041 C 
ATOM     11  O   UNL     1       1.480  -0.746   5.943  1.00  0.00    -0.550 OA
ATOM     12  O   UNL     1       1.928  -2.291   7.574  1.00  0.00    -0.550 OA
ENDBRANCH   9  10
ENDBRANCH   8   9
ENDBRANCH   7   8
ENDBRANCH   6   7
ENDBRANCH   5   6
ENDBRANCH   4   5
ENDBRANCH   3   4
ENDBRANCH   1   3
BRANCH   2  13
ATOM     13  C   UNL     1       6.251  -2.209   3.389  1.00  0.00     0.027 C 
BRANCH  13  14
ATOM     14  C   UNL     1       6.188  -1.930   1.880  1.00  0.00     0.004 C 
BRANCH  14  15
ATOM     15  C   UNL     1       5.428  -0.632   1.563  1.00  0.00     0.000 C 
BRANCH  15  16
ATOM     16  C   UNL     1       6.187   0.630   2.009  1.00  0.00     0.000 C 
BRANCH  16  17
ATOM     17  C   UNL     1       7.268   1.125   1.028  1.00  0.00    -0.000 C 
BRANCH  17  18
ATOM     18  C   UNL     1       7.463   2.651   0.986  1.00  0.00    -0.000 C 
BRANCH  18  19
ATOM     19  C   UNL     1       6.744   3.311  -0.200  1.00  0.00    -0.003 C 
ATOM     20  C   UNL     1       6.777   2.411  -1.432  1.00  0.00     0.004 C 
ENDBRANCH  18  19
ENDBRANCH  17  18
ENDBRANCH  16  17
ENDBRANCH  15  16
ENDBRANCH  14  15
ENDBRANCH  13  14
ENDBRANCH   2  13
TORSDOF 15
ENDMDL
MODEL 3
REMARK VINA RESULT:    -4.785      5.223      6.948
REMARK INTER + INTRA:         -11.396
REMARK INTER:                  -9.536
REMARK INTRA:                  -1.860
REMARK UNBOUND:                -2.415
REMARK SMILES CCCCCCCCC=CCCCCCCCC(=O)[O-]
REMARK SMILES IDX 10 1 9 2 11 3 12 4 13 5 14 6 15 7 16 8 17 9 18 10 19 11
REMARK SMILES IDX 20 12 8 13 7 14 6 15 5 16 4 17 3 18 2 19 1 20
REMARK H PARENT
REMARK Flexibility Score: inf
ROOT
ATOM      1  C   UNL     1       7.716  -3.296   4.510  1.00  0.00    -0.031 C 
ATOM      2  C   UNL     1       8.693  -2.763   3.752  1.00  0.00    -0.031 C 
ENDROOT
BRANCH   1   3
ATOM      3  C   UNL     1       7.170  -2.672   5.771  1.00  0.00     0.027 C 
BRANCH   3   4
ATOM      4  C   UNL     1       5.636  -2.726   5.818  1.00  0.00     0.004 C 
BRANCH   4   5
ATOM      5  C   UNL     1       5.044  -1.602   6.682  1.00  0.00     0.000 C 
BRANCH   5   6
ATOM      6  C   UNL     1       3.744  -2.055   7.358  1.00  0.00     0.000 C 
BRANCH   6   7
ATOM      7  C   UNL     1       3.130  -0.917   8.186  1.00  0.00     0.000 C 
BRANCH   7   8
ATOM      8  C   UNL     1       1.604  -1.051   8.346  1.00  0.00     0.006 C 
BRANCH   8   9
ATOM      9  C   UNL     1       0.799   0.104   7.731  1.00  0.00     0.053 C 
BRANCH   9  10
ATOM     10  C   UNL     1      -0.492   0.336   8.455  1.00  0.00     0.041 C 
ATOM     11  O   UNL     1      -1.290  -0.619   8.649  1.00  0.00    -0.550 OA
ATOM     12  O   UNL     1      -0.800   1.600   8.942  1.00  0.00    -0.550 OA
ENDBRANCH   9  10
ENDBRANCH   8   9
ENDBRANCH   7   8
ENDBRANCH   6   7
ENDBRANCH   5   6
ENDBRANCH   4   5
ENDBRANCH   3   4
ENDBRANCH   1   3
BRANCH   2  13
ATOM     13  C   UNL     1       9.460  -1.510   4.098  1.00  0.00     0.027 C 
BRANCH  13  14
ATOM     14  C   UNL     1       9.964  -0.782   2.843  1.00  0.00     0.004 C 
BRANCH  14  15
ATOM     15  C   UNL     1       9.028   0.363   2.423  1.00  0.00     0.000 C 
BRANCH  15  16
ATOM     16  C   UNL     1       8.023   0.748   3.523  1.00  0.00     0.000 C 
BRANCH  16  17
ATOM     17  C   UNL     1       6.560   0.882   3.055  1.00  0.00    -0.000 C 
BRANCH  17  18
ATOM     18  C   UNL     1       5.801  -0.447   2.894  1.00  0.00    -0.000 C 
BRANCH  18  19
ATOM     19  C   UNL     1       5.921  -1.035   1.481  1.00  0.00    -0.003 C 
ATOM     20  C   UNL     1       5.609  -2.529   1.478  1.00  0.00     0.004 C 
ENDBRANCH  18  19
ENDBRANCH  17  18
ENDBRANCH  16  17
ENDBRANCH  15  16
ENDBRANCH  14  15
ENDBRANCH  13  14
ENDBRANCH   2  13
TORSDOF 15
ENDMDL
MODEL 4
REMARK VINA RESULT:    -4.770      2.780      5.252
REMARK INTER + INTRA:         -11.369
REMARK INTER:                  -9.142
REMARK INTRA:                  -2.227
REMARK UNBOUND:                -2.415
REMARK SMILES CCCCCCCCC=CCCCCCCCC(=O)[O-]
REMARK SMILES IDX 10 1 9 2 11 3 12 4 13 5 14 6 15 7 16 8 17 9 18 10 19 11
REMARK SMILES IDX 20 12 8 13 7 14 6 15 5 16 4 17 3 18 2 19 1 20
REMARK H PARENT
REMARK Flexibility Score: inf
ROOT
ATOM      1  C   UNL     1       7.642  -3.350   4.430  1.00  0.00    -0.031 C 
ATOM      2  C   UNL     1       6.691  -2.670   3.764  1.00  0.00    -0.031 C 
ENDROOT
BRANCH   1   3
ATOM      3  C   UNL     1       9.122  -3.260   4.144  1.00  0.00     0.027 C 
BRANCH   3   4
ATOM      4  C   UNL     1       9.735  -1.968   4.704  1.00  0.00     0.004 C 
BRANCH   4   5
ATOM      5  C   UNL     1       9.363  -1.741   6.177  1.00  0.00     0.000 C 
BRANCH   5   6
ATOM      6  C   UNL     1       8.972  -0.279   6.427  1.00  0.00     0.000 C 
BRANCH   6   7
ATOM      7  C   UNL     1       8.456   0.379   5.138  1.00  0.00     0.000 C 
BRANCH   7   8
ATOM      8  C   UNL     1       7.005   0.879   5.264  1.00  0.00     0.006 C 
BRANCH   8   9
ATOM      9  C   UNL     1       6.167   0.134   6.314  1.00  0.00     0.053 C 
BRANCH   9  10
ATOM     10  C   UNL     1       4.882  -0.383   5.744  1.00  0.00     0.041 C 
ATOM     11  O   UNL     1       4.313   0.232   4.804  1.00  0.00    -0.550 OA
ATOM     12  O   UNL     1       4.329  -1.561   6.229  1.00  0.00    -0.550 OA
ENDBRANCH   9  10
ENDBRANCH   8   9
ENDBRANCH   7   8
ENDBRANCH   6   7
ENDBRANCH   5   6
ENDBRANCH   4   5
ENDBRANCH   3   4
ENDBRANCH   1   3
BRANCH   2  13
ATOM     13  C   UNL     1       6.945  -1.788   2.566  1.00  0.00     0.027 C 
BRANCH  13  14
ATOM     14  C   UNL     1       5.744  -1.760   1.609  1.00  0.00     0.004 C 
BRANCH  14  15
ATOM     15  C   UNL     1       5.202  -0.337   1.401  1.00  0.00     0.000 C 
BRANCH  15  16
ATOM     16  C   UNL     1       6.192   0.752   1.853  1.00  0.00     0.000 C 
BRANCH  16  17
ATOM     17  C   UNL     1       7.123   1.290   0.747  1.00  0.00    -0.000 C 
BRANCH  17  18
ATOM     18  C   UNL     1       7.414   2.799   0.818  1.00  0.00    -0.000 C 
BRANCH  18  19
ATOM     19  C   UNL     1       7.011   3.545  -0.463  1.00  0.00    -0.003 C 
ATOM     20  C   UNL     1       6.603   2.568  -1.562  1.00  0.00     0.004 C 
ENDBRANCH  18  19
ENDBRANCH  17  18
ENDBRANCH  16  17
ENDBRANCH  15  16
ENDBRANCH  14  15
ENDBRANCH  13  14
ENDBRANCH   2  13
TORSDOF 15
ENDMDL
MODEL 5
REMARK VINA RESULT:    -4.752      2.471      4.123
REMARK INTER + INTRA:         -11.334
REMARK INTER:                  -8.387
REMARK INTRA:                  -2.947
REMARK UNBOUND:                -2.415
REMARK SMILES CCCCCCCCC=CCCCCCCCC(=O)[O-]
REMARK SMILES IDX 10 1 9 2 11 3 12 4 13 5 14 6 15 7 16 8 17 9 18 10 19 11
REMARK SMILES IDX 20 12 8 13 7 14 6 15 5 16 4 17 3 18 2 19 1 20
REMARK H PARENT
REMARK Flexibility Score: inf
ROOT
ATOM      1  C   UNL     1       7.391  -2.947   3.950  1.00  0.00    -0.031 C 
ATOM      2  C   UNL     1       6.449  -3.000   4.909  1.00  0.00    -0.031 C 
ENDROOT
BRANCH   1   3
ATOM      3  C   UNL     1       8.764  -3.565   4.060  1.00  0.00     0.027 C 
BRANCH   3   4
ATOM      4  C   UNL     1       9.858  -2.501   4.238  1.00  0.00     0.004 C 
BRANCH   4   5
ATOM      5  C   UNL     1       9.339  -1.084   3.951  1.00  0.00     0.000 C 
BRANCH   5   6
ATOM      6  C   UNL     1       9.919  -0.543   2.638  1.00  0.00     0.000 C 
BRANCH   6   7
ATOM      7  C   UNL     1       8.990   0.514   2.022  1.00  0.00     0.000 C 
BRANCH   7   8
ATOM      8  C   UNL     1       7.658  -0.079   1.525  1.00  0.00     0.006 C 
BRANCH   8   9
ATOM      9  C   UNL     1       6.426   0.785   1.835  1.00  0.00     0.053 C 
BRANCH   9  10
ATOM     10  C   UNL     1       5.181  -0.039   1.962  1.00  0.00     0.041 C 
ATOM     11  O   UNL     1       5.179  -1.244   1.599  1.00  0.00    -0.550 OA
ATOM     12  O   UNL     1       4.032   0.516   2.512  1.00  0.00    -0.550 OA
ENDBRANCH   9  10
ENDBRANCH   8   9
ENDBRANCH   7   8
ENDBRANCH   6   7
ENDBRANCH   5   6
ENDBRANCH   4   5
ENDBRANCH   3   4
ENDBRANCH   1   3
BRANCH   2  13
ATOM     13  C   UNL     1       6.652  -3.598   6.280  1.00  0.00     0.027 C 
BRANCH  13  14
ATOM     14  C   UNL     1       6.728  -2.518   7.370  1.00  0.00     0.004 C 
BRANCH  14  15
ATOM     15  C   UNL     1       8.161  -2.321   7.890  1.00  0.00     0.000 C 
BRANCH  15  16
ATOM     16  C   UNL     1       8.777  -0.980   7.453  1.00  0.00     0.000 C 
BRANCH  16  17
ATOM     17  C   UNL     1       7.911   0.263   7.743  1.00  0.00    -0.000 C 
BRANCH  17  18
ATOM     18  C   UNL     1       8.057   1.411   6.729  1.00  0.00    -0.000 C 
BRANCH  18  19
ATOM     19  C   UNL     1       7.362   1.116   5.392  1.00  0.00    -0.003 C 
ATOM     20  C   UNL     1       5.951   0.578   5.612  1.00  0.00     0.004 C 
ENDBRANCH  18  19
ENDBRANCH  17  18
ENDBRANCH  16  17
ENDBRANCH  15  16
ENDBRANCH  14  15
ENDBRANCH  13  14
ENDBRANCH   2  13
TORSDOF 15
ENDMDL
MODEL 6
REMARK VINA RESULT:    -4.684      1.541      3.689
REMARK INTER + INTRA:         -11.206
REMARK INTER:                  -8.250
REMARK INTRA:                  -2.956
REMARK UNBOUND:                -2.415
REMARK SMILES CCCCCCCCC=CCCCCCCCC(=O)[O-]
REMARK SMILES IDX 10 1 9 2 11 3 12 4 13 5 14 6 15 7 16 8 17 9 18 10 19 11
REMARK SMILES IDX 20 12 8 13 7 14 6 15 5 16 4 17 3 18 2 19 1 20
REMARK H PARENT
REMARK Flexibility Score: inf
ROOT
ATOM      1  C   UNL     1       7.469  -3.230   3.747  1.00  0.00    -0.031 C 
ATOM      2  C   UNL     1       8.741  -2.796   3.811  1.00  0.00    -0.031 C 
ENDROOT
BRANCH   1   3
ATOM      3  C   UNL     1       6.277  -2.357   3.437  1.00  0.00     0.027 C 
BRANCH   3   4
ATOM      4  C   UNL     1       6.000  -2.282   1.928  1.00  0.00     0.004 C 
BRANCH   4   5
ATOM      5  C   UNL     1       5.640  -0.858   1.477  1.00  0.00     0.000 C 
BRANCH   5   6
ATOM      6  C   UNL     1       5.325   0.037   2.682  1.00  0.00     0.000 C 
BRANCH   6   7
ATOM      7  C   UNL     1       6.272   1.246   2.729  1.00  0.00     0.000 C 
BRANCH   7   8
ATOM      8  C   UNL     1       7.328   1.222   1.608  1.00  0.00     0.006 C 
BRANCH   8   9
ATOM      9  C   UNL     1       7.763   2.612   1.118  1.00  0.00     0.053 C 
BRANCH   9  10
ATOM     10  C   UNL     1       7.016   3.033  -0.110  1.00  0.00     0.041 C 
ATOM     11  O   UNL     1       6.705   2.184  -0.986  1.00  0.00    -0.550 OA
ATOM     12  O   UNL     1       6.633   4.359  -0.271  1.00  0.00    -0.550 OA
ENDBRANCH   9  10
ENDBRANCH   8   9
ENDBRANCH   7   8
ENDBRANCH   6   7
ENDBRANCH   5   6
ENDBRANCH   4   5
ENDBRANCH   3   4
ENDBRANCH   1   3
BRANCH   2  13
ATOM     13  C   UNL     1       9.163  -1.352   3.680  1.00  0.00     0.027 C 
BRANCH  13  14
ATOM     14  C   UNL     1       9.452  -0.714   5.047  1.00  0.00     0.004 C 
BRANCH  14  15
ATOM     15  C   UNL     1       8.967   0.742   5.121  1.00  0.00     0.000 C 
BRANCH  15  16
ATOM     16  C   UNL     1       7.805   0.936   6.111  1.00  0.00     0.000 C 
BRANCH  16  17
ATOM     17  C   UNL     1       6.953  -0.322   6.375  1.00  0.00    -0.000 C 
BRANCH  17  18
ATOM     18  C   UNL     1       5.436  -0.078   6.454  1.00  0.00    -0.000 C 
BRANCH  18  19
ATOM     19  C   UNL     1       4.632  -1.376   6.620  1.00  0.00    -0.003 C 
ATOM     20  C   UNL     1       5.529  -2.525   7.069  1.00  0.00     0.004 C 
ENDBRANCH  18  19
ENDBRANCH  17  18
ENDBRANCH  16  17
ENDBRANCH  15  16
ENDBRANCH  14  15
ENDBRANCH  13  14
ENDBRANCH   2  13
TORSDOF 15
ENDMDL
MODEL 7
REMARK VINA RESULT:    -4.681      4.240      7.004
REMARK INTER + INTRA:         -11.202
REMARK INTER:                  -9.053
REMARK INTRA:                  -2.148
REMARK UNBOUND:                -2.415
REMARK SMILES CCCCCCCCC=CCCCCCCCC(=O)[O-]
REMARK SMILES IDX 10 1 9 2 11 3 12 4 13 5 14 6 15 7 16 8 17 9 18 10 19 11
REMARK SMILES IDX 20 12 8 13 7 14 6 15 5 16 4 17 3 18 2 19 1 20
REMARK H PARENT
REMARK Flexibility Score: inf
ROOT
ATOM      1  C   UNL     1       8.343  -3.439   3.924  1.00  0.00    -0.031 C 
ATOM      2  C   UNL     1       9.536  -2.862   4.155  1.00  0.00    -0.031 C 
ENDROOT
BRANCH   1   3
ATOM      3  C   UNL     1       7.074  -2.690   3.600  1.00  0.00     0.027 C 
BRANCH   3   4
ATOM      4  C   UNL     1       6.146  -2.580   4.819  1.00  0.00     0.004 C 
BRANCH   4   5
ATOM      5  C   UNL     1       6.213  -1.192   5.474  1.00  0.00     0.000 C 
BRANCH   5   6
ATOM      6  C   UNL     1       6.440  -1.309   6.986  1.00  0.00     0.000 C 
BRANCH   6   7
ATOM      7  C   UNL     1       7.784  -1.990   7.289  1.00  0.00     0.000 C 
BRANCH   7   8
ATOM      8  C   UNL     1       7.634  -3.229   8.191  1.00  0.00     0.006 C 
BRANCH   8   9
ATOM      9  C   UNL     1       8.163  -4.532   7.570  1.00  0.00     0.053 C 
BRANCH   9  10
ATOM     10  C   UNL     1       7.063  -5.512   7.302  1.00  0.00     0.041 C 
ATOM     11  O   UNL     1       7.329  -6.729   7.117  1.00  0.00    -0.550 OA
ATOM     12  O   UNL     1       5.740  -5.088   7.289  1.00  0.00    -0.550 OA
ENDBRANCH   9  10
ENDBRANCH   8   9
ENDBRANCH   7   8
ENDBRANCH   6   7
ENDBRANCH   5   6
ENDBRANCH   4   5
ENDBRANCH   3   4
ENDBRANCH   1   3
BRANCH   2  13
ATOM     13  C   UNL     1       9.770  -1.372   4.225  1.00  0.00     0.027 C 
BRANCH  13  14
ATOM     14  C   UNL     1       9.923  -0.750   2.829  1.00  0.00     0.004 C 
BRANCH  14  15
ATOM     15  C   UNL     1       8.969   0.437   2.616  1.00  0.00     0.000 C 
BRANCH  15  16
ATOM     16  C   UNL     1       8.039   0.247   1.405  1.00  0.00     0.000 C 
BRANCH  16  17
ATOM     17  C   UNL     1       7.015   1.378   1.182  1.00  0.00    -0.000 C 
BRANCH  17  18
ATOM     18  C   UNL     1       7.615   2.792   1.089  1.00  0.00    -0.000 C 
BRANCH  18  19
ATOM     19  C   UNL     1       7.123   3.568  -0.141  1.00  0.00    -0.003 C 
ATOM     20  C   UNL     1       6.605   2.620  -1.218  1.00  0.00     0.004 C 
ENDBRANCH  18  19
ENDBRANCH  17  18
ENDBRANCH  16  17
ENDBRANCH  15  16
ENDBRANCH  14  15
ENDBRANCH  13  14
ENDBRANCH   2  13
TORSDOF 15
ENDMDL
MODEL 8
REMARK VINA RESULT:    -4.631      2.204      3.235
REMARK INTER + INTRA:         -11.107
REMARK INTER:                  -8.103
REMARK INTRA:                  -3.004
REMARK UNBOUND:                -2.415
REMARK SMILES CCCCCCCCC=CCCCCCCCC(=O)[O-]
REMARK SMILES IDX 10 1 9 2 11 3 12 4 13 5 14 6 15 7 16 8 17 9 18 10 19 11
REMARK SMILES IDX 20 12 8 13 7 14 6 15 5 16 4 17 3 18 2 19 1 20
REMARK H PARENT
REMARK Flexibility Score: inf
ROOT
ATOM      1  C   UNL     1       8.885   0.251   4.239  1.00  0.00    -0.031 C 
ATOM      2  C   UNL     1       9.169  -0.877   3.562  1.00  0.00    -0.031 C 
ENDROOT
BRANCH   1   3
ATOM      3  C   UNL     1       8.165   0.299   5.565  1.00  0.00     0.027 C 
BRANCH   3   4
ATOM      4  C   UNL     1       6.743   0.862   5.424  1.00  0.00     0.004 C 
BRANCH   4   5
ATOM      5  C   UNL     1       6.423   1.270   3.979  1.00  0.00     0.000 C 
BRANCH   5   6
ATOM      6  C   UNL     1       5.262   0.439   3.418  1.00  0.00     0.000 C 
BRANCH   6   7
ATOM      7  C   UNL     1       5.338   0.353   1.886  1.00  0.00     0.000 C 
BRANCH   7   8
ATOM      8  C   UNL     1       6.714   0.768   1.333  1.00  0.00     0.006 C 
BRANCH   8   9
ATOM      9  C   UNL     1       6.681   1.990   0.401  1.00  0.00     0.053 C 
BRANCH   9  10
ATOM     10  C   UNL     1       7.580   3.086   0.882  1.00  0.00     0.041 C 
ATOM     11  O   UNL     1       8.602   2.815   1.565  1.00  0.00    -0.550 OA
ATOM     12  O   UNL     1       7.307   4.407   0.548  1.00  0.00    -0.550 OA
ENDBRANCH   9  10
ENDBRANCH   8   9
ENDBRANCH   7   8
ENDBRANCH   6   7
ENDBRANCH   5   6
ENDBRANCH   4   5
ENDBRANCH   3   4
ENDBRANCH   1   3
BRANCH   2  13
ATOM     13  C   UNL     1       8.725  -2.260   3.973  1.00  0.00     0.027 C 
BRANCH  13  14
ATOM     14  C   UNL     1       7.387  -2.648   3.326  1.00  0.00     0.004 C 
BRANCH  14  15
ATOM     15  C   UNL     1       6.280  -2.862   4.370  1.00  0.00     0.000 C 
BRANCH  15  16
ATOM     16  C   UNL     1       6.831  -3.202   5.767  1.00  0.00     0.000 C 
BRANCH  16  17
ATOM     17  C   UNL     1       6.070  -2.562   6.945  1.00  0.00    -0.000 C 
BRANCH  17  18
ATOM     18  C   UNL     1       4.538  -2.674   6.870  1.00  0.00    -0.000 C 
BRANCH  18  19
ATOM     19  C   UNL     1       3.820  -1.518   7.582  1.00  0.00    -0.003 C 
ATOM     20  C   UNL     1       3.460  -0.407   6.600  1.00  0.00     0.004 C 
ENDBRANCH  18  19
ENDBRANCH  17  18
ENDBRANCH  16  17
ENDBRANCH  15  16
ENDBRANCH  14  15
ENDBRANCH  13  14
ENDBRANCH   2  13
TORSDOF 15
ENDMDL
MODEL 9
REMARK VINA RESULT:    -4.598      3.443      5.611
REMARK INTER + INTRA:         -11.046
REMARK INTER:                  -8.151
REMARK INTRA:                  -2.895
REMARK UNBOUND:                -2.415
REMARK SMILES CCCCCCCCC=CCCCCCCCC(=O)[O-]
REMARK SMILES IDX 10 1 9 2 11 3 12 4 13 5 14 6 15 7 16 8 17 9 18 10 19 11
REMARK SMILES IDX 20 12 8 13 7 14 6 15 5 16 4 17 3 18 2 19 1 20
REMARK H PARENT
REMARK Flexibility Score: inf
ROOT
ATOM      1  C   UNL     1       8.984  -3.245   4.899  1.00  0.00    -0.031 C 
ATOM      2  C   UNL     1       7.914  -3.306   4.085  1.00  0.00    -0.031 C 
ENDROOT
BRANCH   1   3
ATOM      3  C   UNL     1       9.667  -1.968   5.327  1.00  0.00     0.027 C 
BRANCH   3   4
ATOM      4  C   UNL     1       9.607  -1.769   6.849  1.00  0.00     0.004 C 
BRANCH   4   5
ATOM      5  C   UNL     1       8.839  -0.496   7.235  1.00  0.00     0.000 C 
BRANCH   5   6
ATOM      6  C   UNL     1       8.540   0.362   6.000  1.00  0.00     0.000 C 
BRANCH   6   7
ATOM      7  C   UNL     1       7.030   0.601   5.850  1.00  0.00     0.000 C 
BRANCH   7   8
ATOM      8  C   UNL     1       6.194  -0.226   6.845  1.00  0.00     0.006 C 
BRANCH   8   9
ATOM      9  C   UNL     1       5.072  -1.052   6.196  1.00  0.00     0.053 C 
BRANCH   9  10
ATOM     10  C   UNL     1       5.256  -2.521   6.420  1.00  0.00     0.041 C 
ATOM     11  O   UNL     1       6.006  -2.933   7.344  1.00  0.00    -0.550 OA
ATOM     12  O   UNL     1       4.573  -3.437   5.629  1.00  0.00    -0.550 OA
ENDBRANCH   9  10
ENDBRANCH   8   9
ENDBRANCH   7   8
ENDBRANCH   6   7
ENDBRANCH   5   6
ENDBRANCH   4   5
ENDBRANCH   3   4
ENDBRANCH   1   3
BRANCH   2  13
ATOM     13  C   UNL     1       7.292  -2.116   3.395  1.00  0.00     0.027 C 
BRANCH  13  14
ATOM     14  C   UNL     1       6.043  -2.508   2.592  1.00  0.00     0.004 C 
BRANCH  14  15
ATOM     15  C   UNL     1       5.674  -1.450   1.540  1.00  0.00     0.000 C 
BRANCH  15  16
ATOM     16  C   UNL     1       5.986  -0.015   2.001  1.00  0.00     0.000 C 
BRANCH  16  17
ATOM     17  C   UNL     1       6.800   0.831   1.002  1.00  0.00    -0.000 C 
BRANCH  17  18
ATOM     18  C   UNL     1       7.770   1.841   1.639  1.00  0.00    -0.000 C 
BRANCH  18  19
ATOM     19  C   UNL     1       8.753   1.186   2.621  1.00  0.00    -0.003 C 
ATOM     20  C   UNL     1       9.551   0.077   1.942  1.00  0.00     0.004 C 
ENDBRANCH  18  19
ENDBRANCH  17  18
ENDBRANCH  16  17
ENDBRANCH  15  16
ENDBRANCH  14  15
ENDBRANCH  13  14
ENDBRANCH   2  13
TORSDOF 15
ENDMDL
