MODEL 1
REMARK VINA RESULT:    -2.799      0.000      0.000
REMARK INTER + INTRA:          -2.881
REMARK INTER:                  -2.881
REMARK INTRA:                   0.000
REMARK UNBOUND:                 0.000
REMARK SMILES CC1(C)[C@@H]2CC[C@@](C)(C2)[C@H]1O
REMARK SMILES IDX 1 1 2 2 4 3 5 4 6 5 7 6 9 7 10 8 8 9 3 10 11 11
REMARK H PARENT 11 12
REMARK Flexibility Score: inf
ROOT
ATOM      1  C   UNL     1     127.297 127.323 117.376  1.00  0.00     0.014 C 
ATOM      2  C   UNL     1     126.984 128.035 118.718  1.00  0.00    -0.006 C 
ATOM      3  C   UNL     1     125.947 129.187 118.481  1.00  0.00    -0.002 C 
ATOM      4  C   UNL     1     125.820 130.097 119.721  1.00  0.00     0.005 C 
ATOM      5  C   UNL     1     125.135 129.180 120.748  1.00  0.00     0.010 C 
ATOM      6  C   UNL     1     124.872 127.890 119.935  1.00  0.00    -0.006 C 
ATOM      7  C   UNL     1     124.617 128.458 118.554  1.00  0.00     0.013 C 
ATOM      8  C   UNL     1     126.225 127.136 119.753  1.00  0.00     0.126 C 
ATOM      9  C   UNL     1     123.722 127.047 120.501  1.00  0.00     0.014 C 
ATOM     10  C   UNL     1     128.334 128.531 119.296  1.00  0.00     0.014 C 
ENDROOT
BRANCH   8  11
ATOM     11  O   UNL     1     126.069 125.800 119.328  1.00  0.00    -0.392 OA
ATOM     12  H   UNL     1     126.483 125.197 119.997  1.00  0.00     0.211 HD
ENDBRANCH   8  11
TORSDOF 1
ENDMDL
MODEL 2
REMARK VINA RESULT:    -2.749     14.041     15.178
REMARK INTER + INTRA:          -2.830
REMARK INTER:                  -2.830
REMARK INTRA:                   0.000
REMARK UNBOUND:                 0.000
REMARK SMILES CC1(C)[C@@H]2CC[C@@](C)(C2)[C@H]1O
REMARK SMILES IDX 1 1 2 2 4 3 5 4 6 5 7 6 9 7 10 8 8 9 3 10 11 11
REMARK H PARENT 11 12
REMARK Flexibility Score: inf
ROOT
ATOM      1  C   UNL     1     127.370 111.760 117.508  1.00  0.00     0.014 C 
ATOM      2  C   UNL     1     128.060 112.137 118.845  1.00  0.00    -0.006 C 
ATOM      3  C   UNL     1     129.240 113.133 118.575  1.00  0.00    -0.002 C 
ATOM      4  C   UNL     1     130.125 113.314 119.827  1.00  0.00     0.005 C 
ATOM      5  C   UNL     1     129.200 114.078 120.791  1.00  0.00     0.010 C 
ATOM      6  C   UNL     1     127.935 114.319 119.934  1.00  0.00    -0.006 C 
ATOM      7  C   UNL     1     128.539 114.481 118.553  1.00  0.00     0.013 C 
ATOM      8  C   UNL     1     127.155 112.974 119.814  1.00  0.00     0.126 C 
ATOM      9  C   UNL     1     127.106 115.518 120.412  1.00  0.00     0.014 C 
ATOM     10  C   UNL     1     128.513 110.813 119.512  1.00  0.00     0.014 C 
ENDROOT
BRANCH   8  11
ATOM     11  O   UNL     1     125.832 113.132 119.350  1.00  0.00    -0.392 OA
ATOM     12  H   UNL     1     125.211 112.703 119.991  1.00  0.00     0.211 HD
ENDBRANCH   8  11
TORSDOF 1
ENDMDL
MODEL 3
REMARK VINA RESULT:    -2.633     12.272     13.402
REMARK INTER + INTRA:          -2.710
REMARK INTER:                  -2.710
REMARK INTRA:                   0.000
REMARK UNBOUND:                 0.000
REMARK SMILES CC1(C)[C@@H]2CC[C@@](C)(C2)[C@H]1O
REMARK SMILES IDX 1 1 2 2 4 3 5 4 6 5 7 6 9 7 10 8 8 9 3 10 11 11
REMARK H PARENT 11 12
REMARK Flexibility Score: inf
ROOT
ATOM      1  C   UNL     1     113.868 127.680 114.878  1.00  0.00     0.014 C 
ATOM      2  C   UNL     1     113.247 128.788 115.768  1.00  0.00    -0.006 C 
ATOM      3  C   UNL     1     111.763 128.422 116.118  1.00  0.00    -0.002 C 
ATOM      4  C   UNL     1     111.023 129.615 116.759  1.00  0.00     0.005 C 
ATOM      5  C   UNL     1     111.711 129.748 118.128  1.00  0.00     0.010 C 
ATOM      6  C   UNL     1     112.694 128.554 118.135  1.00  0.00    -0.006 C 
ATOM      7  C   UNL     1     111.919 127.527 117.335  1.00  0.00     0.013 C 
ATOM      8  C   UNL     1     113.890 128.893 117.194  1.00  0.00     0.126 C 
ATOM      9  C   UNL     1     113.080 128.102 119.550  1.00  0.00     0.014 C 
ATOM     10  C   UNL     1     113.386 130.124 114.995  1.00  0.00     0.014 C 
ENDROOT
BRANCH   8  11
ATOM     11  O   UNL     1     115.003 128.044 117.372  1.00  0.00    -0.392 OA
ATOM     12  H   UNL     1     115.355 128.160 118.291  1.00  0.00     0.211 HD
ENDBRANCH   8  11
TORSDOF 1
ENDMDL
MODEL 4
REMARK VINA RESULT:    -2.612      1.199      3.154
REMARK INTER + INTRA:          -2.689
REMARK INTER:                  -2.689
REMARK INTRA:                   0.000
REMARK UNBOUND:                 0.000
REMARK SMILES CC1(C)[C@@H]2CC[C@@](C)(C2)[C@H]1O
REMARK SMILES IDX 1 1 2 2 4 3 5 4 6 5 7 6 9 7 10 8 8 9 3 10 11 11
REMARK H PARENT 11 12
REMARK Flexibility Score: inf
ROOT
ATOM      1  C   UNL     1     125.548 126.141 120.043  1.00  0.00     0.014 C 
ATOM      2  C   UNL     1     125.540 127.542 119.376  1.00  0.00    -0.006 C 
ATOM      3  C   UNL     1     126.150 128.602 120.357  1.00  0.00    -0.002 C 
ATOM      4  C   UNL     1     125.907 130.041 119.855  1.00  0.00     0.005 C 
ATOM      5  C   UNL     1     126.802 130.123 118.607  1.00  0.00     0.010 C 
ATOM      6  C   UNL     1     127.516 128.751 118.605  1.00  0.00    -0.006 C 
ATOM      7  C   UNL     1     127.641 128.481 120.091  1.00  0.00     0.013 C 
ATOM      8  C   UNL     1     126.499 127.664 118.142  1.00  0.00     0.126 C 
ATOM      9  C   UNL     1     128.849 128.769 117.846  1.00  0.00     0.014 C 
ATOM     10  C   UNL     1     124.074 127.846 118.975  1.00  0.00     0.014 C 
ENDROOT
BRANCH   8  11
ATOM     11  O   UNL     1     127.107 126.444 117.780  1.00  0.00    -0.392 OA
ATOM     12  H   UNL     1     127.270 125.909 118.598  1.00  0.00     0.211 HD
ENDBRANCH   8  11
TORSDOF 1
ENDMDL
MODEL 5
REMARK VINA RESULT:    -2.584     14.631     15.879
REMARK INTER + INTRA:          -2.660
REMARK INTER:                  -2.660
REMARK INTRA:                   0.000
REMARK UNBOUND:                 0.000
REMARK SMILES CC1(C)[C@@H]2CC[C@@](C)(C2)[C@H]1O
REMARK SMILES IDX 1 1 2 2 4 3 5 4 6 5 7 6 9 7 10 8 8 9 3 10 11 11
REMARK H PARENT 11 12
REMARK Flexibility Score: inf
ROOT
ATOM      1  C   UNL     1     126.175 113.655 120.119  1.00  0.00     0.014 C 
ATOM      2  C   UNL     1     127.563 113.638 119.425  1.00  0.00    -0.006 C 
ATOM      3  C   UNL     1     128.635 113.031 120.394  1.00  0.00    -0.002 C 
ATOM      4  C   UNL     1     130.067 113.250 119.861  1.00  0.00     0.005 C 
ATOM      5  C   UNL     1     130.115 112.335 118.625  1.00  0.00     0.010 C 
ATOM      6  C   UNL     1     128.735 111.637 118.661  1.00  0.00    -0.006 C 
ATOM      7  C   UNL     1     128.493 111.537 120.154  1.00  0.00     0.013 C 
ATOM      8  C   UNL     1     127.651 112.659 118.203  1.00  0.00     0.126 C 
ATOM      9  C   UNL     1     128.723 110.292 117.922  1.00  0.00     0.014 C 
ATOM     10  C   UNL     1     127.875 115.094 118.996  1.00  0.00     0.014 C 
ENDROOT
BRANCH   8  11
ATOM     11  O   UNL     1     126.417 112.060 117.875  1.00  0.00    -0.392 OA
ATOM     12  H   UNL     1     126.541 111.478 117.083  1.00  0.00     0.211 HD
ENDBRANCH   8  11
TORSDOF 1
ENDMDL
MODEL 6
REMARK VINA RESULT:    -2.576     11.652     13.256
REMARK INTER + INTRA:          -2.651
REMARK INTER:                  -2.651
REMARK INTRA:                   0.000
REMARK UNBOUND:                 0.000
REMARK SMILES CC1(C)[C@@H]2CC[C@@](C)(C2)[C@H]1O
REMARK SMILES IDX 1 1 2 2 4 3 5 4 6 5 7 6 9 7 10 8 8 9 3 10 11 11
REMARK H PARENT 11 12
REMARK Flexibility Score: inf
ROOT
ATOM      1  C   UNL     1     112.538 130.125 118.741  1.00  0.00     0.014 C 
ATOM      2  C   UNL     1     112.883 128.984 117.748  1.00  0.00    -0.006 C 
ATOM      3  C   UNL     1     112.055 129.160 116.427  1.00  0.00    -0.002 C 
ATOM      4  C   UNL     1     112.151 127.907 115.530  1.00  0.00     0.005 C 
ATOM      5  C   UNL     1     113.616 127.933 115.063  1.00  0.00     0.010 C 
ATOM      6  C   UNL     1     114.149 129.250 115.677  1.00  0.00    -0.006 C 
ATOM      7  C   UNL     1     112.911 130.123 115.623  1.00  0.00     0.013 C 
ATOM      8  C   UNL     1     114.354 129.034 117.207  1.00  0.00     0.126 C 
ATOM      9  C   UNL     1     115.361 129.815 114.925  1.00  0.00     0.014 C 
ATOM     10  C   UNL     1     112.602 127.646 118.477  1.00  0.00     0.014 C 
ENDROOT
BRANCH   8  11
ATOM     11  O   UNL     1     115.141 130.035 117.814  1.00  0.00    -0.392 OA
ATOM     12  H   UNL     1     115.173 130.827 117.219  1.00  0.00     0.211 HD
ENDBRANCH   8  11
TORSDOF 1
ENDMDL
MODEL 7
REMARK VINA RESULT:    -2.521      3.303      5.513
REMARK INTER + INTRA:          -2.595
REMARK INTER:                  -2.595
REMARK INTRA:                   0.000
REMARK UNBOUND:                 0.000
REMARK SMILES CC1(C)[C@@H]2CC[C@@](C)(C2)[C@H]1O
REMARK SMILES IDX 1 1 2 2 4 3 5 4 6 5 7 6 9 7 10 8 8 9 3 10 11 11
REMARK H PARENT 11 12
REMARK Flexibility Score: inf
ROOT
ATOM      1  C   UNL     1     129.941 126.690 118.817  1.00  0.00     0.014 C 
ATOM      2  C   UNL     1     128.860 126.259 117.790  1.00  0.00    -0.006 C 
ATOM      3  C   UNL     1     129.062 127.040 116.445  1.00  0.00    -0.002 C 
ATOM      4  C   UNL     1     127.856 126.856 115.500  1.00  0.00     0.005 C 
ATOM      5  C   UNL     1     127.961 125.376 115.095  1.00  0.00     0.010 C 
ATOM      6  C   UNL     1     129.268 124.923 115.788  1.00  0.00    -0.006 C 
ATOM      7  C   UNL     1     130.094 126.192 115.720  1.00  0.00     0.013 C 
ATOM      8  C   UNL     1     128.992 124.771 117.315  1.00  0.00     0.126 C 
ATOM      9  C   UNL     1     129.913 123.705 115.113  1.00  0.00     0.014 C 
ATOM     10  C   UNL     1     127.480 126.513 118.448  1.00  0.00     0.014 C 
ENDROOT
BRANCH   8  11
ATOM     11  O   UNL     1     129.995 124.051 117.997  1.00  0.00    -0.392 OA
ATOM     12  H   UNL     1     130.723 123.829 117.362  1.00  0.00     0.211 HD
ENDBRANCH   8  11
TORSDOF 1
ENDMDL
MODEL 8
REMARK VINA RESULT:    -2.467      1.611      2.823
REMARK INTER + INTRA:          -2.539
REMARK INTER:                  -2.539
REMARK INTRA:                   0.000
REMARK UNBOUND:                 0.000
REMARK SMILES CC1(C)[C@@H]2CC[C@@](C)(C2)[C@H]1O
REMARK SMILES IDX 1 1 2 2 4 3 5 4 6 5 7 6 9 7 10 8 8 9 3 10 11 11
REMARK H PARENT 11 12
REMARK Flexibility Score: inf
ROOT
ATOM      1  C   UNL     1     128.455 124.819 118.440  1.00  0.00     0.014 C 
ATOM      2  C   UNL     1     128.509 126.316 118.847  1.00  0.00    -0.006 C 
ATOM      3  C   UNL     1     128.737 127.206 117.576  1.00  0.00    -0.002 C 
ATOM      4  C   UNL     1     129.076 128.662 117.960  1.00  0.00     0.005 C 
ATOM      5  C   UNL     1     127.752 129.177 118.549  1.00  0.00     0.010 C 
ATOM      6  C   UNL     1     126.795 127.980 118.341  1.00  0.00    -0.006 C 
ATOM      7  C   UNL     1     127.326 127.397 117.047  1.00  0.00     0.013 C 
ATOM      8  C   UNL     1     127.148 126.877 119.386  1.00  0.00     0.126 C 
ATOM      9  C   UNL     1     125.318 128.392 118.297  1.00  0.00     0.014 C 
ATOM     10  C   UNL     1     129.630 126.458 119.908  1.00  0.00     0.014 C 
ENDROOT
BRANCH   8  11
ATOM     11  O   UNL     1     126.148 125.891 119.522  1.00  0.00    -0.392 OA
ATOM     12  H   UNL     1     125.395 126.109 118.916  1.00  0.00     0.211 HD
ENDBRANCH   8  11
TORSDOF 1
ENDMDL
MODEL 9
REMARK VINA RESULT:    -2.438     18.800     20.987
REMARK INTER + INTRA:          -2.509
REMARK INTER:                  -2.509
REMARK INTRA:                   0.000
REMARK UNBOUND:                 0.000
REMARK SMILES CC1(C)[C@@H]2CC[C@@](C)(C2)[C@H]1O
REMARK SMILES IDX 1 1 2 2 4 3 5 4 6 5 7 6 9 7 10 8 8 9 3 10 11 11
REMARK H PARENT 11 12
REMARK Flexibility Score: inf
ROOT
ATOM      1  C   UNL     1     111.785 111.035 117.877  1.00  0.00     0.014 C 
ATOM      2  C   UNL     1     112.437 110.959 119.283  1.00  0.00    -0.006 C 
ATOM      3  C   UNL     1     113.817 110.221 119.192  1.00  0.00    -0.002 C 
ATOM      4  C   UNL     1     114.367 109.875 120.592  1.00  0.00     0.005 C 
ATOM      5  C   UNL     1     114.716 111.256 121.172  1.00  0.00     0.010 C 
ATOM      6  C   UNL     1     114.410 112.211 119.994  1.00  0.00    -0.006 C 
ATOM      7  C   UNL     1     114.769 111.341 118.807  1.00  0.00     0.013 C 
ATOM      8  C   UNL     1     112.862 112.353 119.862  1.00  0.00     0.126 C 
ATOM      9  C   UNL     1     115.185 113.532 120.075  1.00  0.00     0.014 C 
ATOM     10  C   UNL     1     111.422 110.254 120.218  1.00  0.00     0.014 C 
ENDROOT
BRANCH   8  11
ATOM     11  O   UNL     1     112.465 113.440 119.056  1.00  0.00    -0.392 OA
ATOM     12  H   UNL     1     112.033 113.094 118.236  1.00  0.00     0.211 HD
ENDBRANCH   8  11
TORSDOF 1
ENDMDL
