MODEL 1
REMARK VINA RESULT:    53.699      0.000      0.000
REMARK INTER + INTRA:          73.001
REMARK INTER:                  70.964
REMARK INTRA:                   2.036
REMARK UNBOUND:                 2.036
REMARK SMILES CC[C@@H](C=C[C@@H](C)[C@@H]1CC[C@@H]2C3=CC[C@@H]4C[C@H](O)CC[C@]4(C)[C@@H]3CC[C@]21C)C(C)C
REMARK SMILES IDX 6 1 7 2 5 3 4 4 3 5 2 6 1 7 28 8 29 9 30 10 8 11 9 12 26 13
REMARK SMILES IDX 10 14 11 15 25 16 27 17 12 18 24 19 23 20 13 21 21 22 14 23
REMARK SMILES IDX 15 24 20 25 22 26 16 27 19 28 17 29 18 30
REMARK H PARENT 18 31
REMARK Flexibility Score: inf
ROOT
ATOM      1  C   UNL     1     -30.551  25.572   6.942  1.00  0.00     0.012 C 
ATOM      2  C   UNL     1     -31.178  25.878   5.571  1.00  0.00     0.012 C 
ENDROOT
BRANCH   1   3
ATOM      3  C   UNL     1     -29.225  24.869   6.750  1.00  0.00    -0.028 C 
ATOM      4  C   UNL     1     -29.020  23.594   7.124  1.00  0.00    -0.027 C 
BRANCH   4   5
ATOM      5  C   UNL     1     -27.657  22.943   7.005  1.00  0.00     0.014 C 
BRANCH   5   6
ATOM      6  C   UNL     1     -27.511  21.885   8.131  1.00  0.00     0.004 C 
ATOM      7  C   UNL     1     -27.772  20.450   7.677  1.00  0.00     0.004 C 
ENDBRANCH   5   6
BRANCH   5   8
ATOM      8  C   UNL     1     -26.552  24.051   6.953  1.00  0.00    -0.011 C 
ATOM      9  C   UNL     1     -25.177  23.505   6.538  1.00  0.00     0.008 C 
ATOM     10  C   UNL     1     -26.443  24.885   8.240  1.00  0.00     0.008 C 
ENDBRANCH   5   8
ENDBRANCH   4   5
ENDBRANCH   1   3
BRANCH   1  11
ATOM     11  C   UNL     1     -31.520  24.752   7.852  1.00  0.00     0.002 C 
ATOM     12  C   UNL     1     -30.821  23.551   8.543  1.00  0.00     0.005 C 
ATOM     13  C   UNL     1     -32.766  24.113   7.171  1.00  0.00    -0.023 C 
ATOM     14  C   UNL     1     -31.858  22.423   8.644  1.00  0.00     0.009 C 
ATOM     15  C   UNL     1     -33.167  23.087   8.235  1.00  0.00     0.021 C 
ATOM     16  C   UNL     1     -33.977  25.062   6.969  1.00  0.00     0.008 C 
ATOM     17  C   UNL     1     -32.376  23.435   5.819  1.00  0.00     0.012 C 
ATOM     18  C   UNL     1     -34.359  22.260   7.795  1.00  0.00    -0.067 C 
ATOM     19  C   UNL     1     -35.233  24.287   6.511  1.00  0.00     0.009 C 
ATOM     20  C   UNL     1     -35.601  23.077   7.430  1.00  0.00     0.021 C 
ATOM     21  C   UNL     1     -34.424  20.943   8.055  1.00  0.00    -0.027 C 
ATOM     22  C   UNL     1     -36.853  22.239   6.929  1.00  0.00    -0.023 C 
ATOM     23  C   UNL     1     -35.595  20.109   7.661  1.00  0.00     0.031 C 
ATOM     24  C   UNL     1     -36.927  20.887   7.713  1.00  0.00     0.002 C 
ATOM     25  C   UNL     1     -36.797  21.933   5.401  1.00  0.00     0.010 C 
ATOM     26  C   UNL     1     -38.125  23.086   7.234  1.00  0.00     0.012 C 
ATOM     27  C   UNL     1     -38.090  19.978   7.236  1.00  0.00     0.036 C 
ATOM     28  C   UNL     1     -37.958  21.048   4.910  1.00  0.00     0.032 C 
ATOM     29  C   UNL     1     -38.125  19.745   5.712  1.00  0.00     0.114 C 
BRANCH  29  30
ATOM     30  O   UNL     1     -37.149  18.807   5.340  1.00  0.00    -0.393 OA
ATOM     31  H   UNL     1     -36.935  18.272   6.149  1.00  0.00     0.210 HD
ENDBRANCH  29  30
ENDBRANCH   1  11
TORSDOF 6
ENDMDL
