MODEL 1
REMARK VINA RESULT:    -2.806      0.000      0.000
REMARK INTER + INTRA:         -10.294
REMARK INTER:                  -6.088
REMARK INTRA:                  -4.206
REMARK UNBOUND:                -4.206
REMARK SMILES CCCCCCCCCCCCCCCCCCCCCC(=O)[O-]
REMARK SMILES IDX 12 1 11 2 10 3 9 4 8 5 7 6 6 7 5 8 4 9 3 10 2 11 1 12 13 13
REMARK SMILES IDX 14 14 15 15 16 16 17 17 18 18 19 19 20 20 21 21 22 22 23 23
REMARK SMILES IDX 24 24
REMARK H PARENT
REMARK Flexibility Score: inf
ROOT
ATOM      1  C   UNL     1      10.963   1.690  30.925  1.00  0.00     0.000 C 
ENDROOT
BRANCH   1   2
ATOM      2  C   UNL     1      12.039   1.288  29.895  1.00  0.00     0.000 C 
BRANCH   2   3
ATOM      3  C   UNL     1      11.563   1.388  28.435  1.00  0.00     0.000 C 
BRANCH   3   4
ATOM      4  C   UNL     1      12.722   1.337  27.425  1.00  0.00    -0.000 C 
BRANCH   4   5
ATOM      5  C   UNL     1      13.907   2.225  27.837  1.00  0.00    -0.000 C 
BRANCH   5   6
ATOM      6  C   UNL     1      13.866   3.608  27.166  1.00  0.00    -0.000 C 
BRANCH   6   7
ATOM      7  C   UNL     1      13.342   4.714  28.103  1.00  0.00    -0.000 C 
BRANCH   7   8
ATOM      8  C   UNL     1      14.170   4.932  29.383  1.00  0.00    -0.000 C 
BRANCH   8   9
ATOM      9  C   UNL     1      13.376   4.829  30.699  1.00  0.00    -0.000 C 
BRANCH   9  10
ATOM     10  C   UNL     1      13.973   3.827  31.710  1.00  0.00    -0.000 C 
BRANCH  10  11
ATOM     11  C   UNL     1      15.263   3.171  31.194  1.00  0.00    -0.003 C 
ATOM     12  C   UNL     1      15.305   1.687  31.544  1.00  0.00     0.004 C 
ENDBRANCH  10  11
ENDBRANCH   9  10
ENDBRANCH   8   9
ENDBRANCH   7   8
ENDBRANCH   6   7
ENDBRANCH   5   6
ENDBRANCH   4   5
ENDBRANCH   3   4
ENDBRANCH   2   3
ENDBRANCH   1   2
BRANCH   1  13
ATOM     13  C   UNL     1       9.807   2.477  30.283  1.00  0.00     0.000 C 
BRANCH  13  14
ATOM     14  C   UNL     1       9.927   3.997  30.497  1.00  0.00     0.000 C 
BRANCH  14  15
ATOM     15  C   UNL     1       9.862   4.839  29.210  1.00  0.00     0.000 C 
BRANCH  15  16
ATOM     16  C   UNL     1       9.491   6.306  29.472  1.00  0.00     0.000 C 
BRANCH  16  17
ATOM     17  C   UNL     1       9.261   6.555  30.970  1.00  0.00     0.000 C 
BRANCH  17  18
ATOM     18  C   UNL     1      10.196   7.634  31.539  1.00  0.00     0.000 C 
BRANCH  18  19
ATOM     19  C   UNL     1      11.177   7.074  32.584  1.00  0.00     0.000 C 
BRANCH  19  20
ATOM     20  C   UNL     1      10.491   6.146  33.605  1.00  0.00     0.006 C 
BRANCH  20  21
ATOM     21  C   UNL     1      11.375   4.988  34.096  1.00  0.00     0.053 C 
BRANCH  21  22
ATOM     22  C   UNL     1      10.630   3.689  34.127  1.00  0.00     0.041 C 
ATOM     23  O   UNL     1      11.245   2.610  34.332  1.00  0.00    -0.550 OA
ATOM     24  O   UNL     1       9.260   3.668  33.895  1.00  0.00    -0.550 OA
ENDBRANCH  21  22
ENDBRANCH  20  21
ENDBRANCH  19  20
ENDBRANCH  18  19
ENDBRANCH  17  18
ENDBRANCH  16  17
ENDBRANCH  15  16
ENDBRANCH  14  15
ENDBRANCH  13  14
ENDBRANCH   1  13
TORSDOF 20
ENDMDL
MODEL 2
REMARK VINA RESULT:    -2.802      9.031     11.914
REMARK INTER + INTRA:         -10.285
REMARK INTER:                  -6.562
REMARK INTRA:                  -3.723
REMARK UNBOUND:                -4.206
REMARK SMILES CCCCCCCCCCCCCCCCCCCCCC(=O)[O-]
REMARK SMILES IDX 12 1 11 2 10 3 9 4 8 5 7 6 6 7 5 8 4 9 3 10 2 11 1 12 13 13
REMARK SMILES IDX 14 14 15 15 16 16 17 17 18 18 19 19 20 20 21 21 22 22 23 23
REMARK SMILES IDX 24 24
REMARK H PARENT
REMARK Flexibility Score: inf
ROOT
ATOM      1  C   UNL     1      21.801   3.131  36.397  1.00  0.00     0.000 C 
ENDROOT
BRANCH   1   2
ATOM      2  C   UNL     1      22.329   4.238  35.461  1.00  0.00     0.000 C 
BRANCH   2   3
ATOM      3  C   UNL     1      21.712   5.621  35.733  1.00  0.00     0.000 C 
BRANCH   3   4
ATOM      4  C   UNL     1      20.175   5.601  35.722  1.00  0.00    -0.000 C 
BRANCH   4   5
ATOM      5  C   UNL     1      19.591   5.668  34.301  1.00  0.00    -0.000 C 
BRANCH   5   6
ATOM      6  C   UNL     1      18.528   4.585  34.051  1.00  0.00    -0.000 C 
BRANCH   6   7
ATOM      7  C   UNL     1      19.138   3.199  33.764  1.00  0.00    -0.000 C 
BRANCH   7   8
ATOM      8  C   UNL     1      19.853   3.069  32.405  1.00  0.00    -0.000 C 
BRANCH   8   9
ATOM      9  C   UNL     1      21.282   2.498  32.471  1.00  0.00    -0.000 C 
BRANCH   9  10
ATOM     10  C   UNL     1      22.355   3.436  31.880  1.00  0.00    -0.000 C 
BRANCH  10  11
ATOM     11  C   UNL     1      21.772   4.784  31.429  1.00  0.00    -0.003 C 
ATOM     12  C   UNL     1      22.519   5.950  32.069  1.00  0.00     0.004 C 
ENDBRANCH  10  11
ENDBRANCH   9  10
ENDBRANCH   8   9
ENDBRANCH   7   8
ENDBRANCH   6   7
ENDBRANCH   5   6
ENDBRANCH   4   5
ENDBRANCH   3   4
ENDBRANCH   2   3
ENDBRANCH   1   2
BRANCH   1  13
ATOM     13  C   UNL     1      22.911   2.537  37.281  1.00  0.00     0.000 C 
BRANCH  13  14
ATOM     14  C   UNL     1      22.718   2.851  38.776  1.00  0.00     0.000 C 
BRANCH  14  15
ATOM     15  C   UNL     1      21.658   3.925  39.081  1.00  0.00     0.000 C 
BRANCH  15  16
ATOM     16  C   UNL     1      22.268   5.305  39.365  1.00  0.00     0.000 C 
BRANCH  16  17
ATOM     17  C   UNL     1      21.191   6.298  39.824  1.00  0.00     0.000 C 
BRANCH  17  18
ATOM     18  C   UNL     1      21.065   7.508  38.886  1.00  0.00     0.000 C 
BRANCH  18  19
ATOM     19  C   UNL     1      22.266   8.465  38.991  1.00  0.00     0.000 C 
BRANCH  19  20
ATOM     20  C   UNL     1      22.483   9.289  37.708  1.00  0.00     0.006 C 
BRANCH  20  21
ATOM     21  C   UNL     1      21.185   9.793  37.058  1.00  0.00     0.053 C 
BRANCH  21  22
ATOM     22  C   UNL     1      21.047   9.319  35.644  1.00  0.00     0.041 C 
ATOM     23  O   UNL     1      19.910   9.057  35.170  1.00  0.00    -0.550 OA
ATOM     24  O   UNL     1      22.179   9.134  34.859  1.00  0.00    -0.550 OA
ENDBRANCH  21  22
ENDBRANCH  20  21
ENDBRANCH  19  20
ENDBRANCH  18  19
ENDBRANCH  17  18
ENDBRANCH  16  17
ENDBRANCH  15  16
ENDBRANCH  14  15
ENDBRANCH  13  14
ENDBRANCH   1  13
TORSDOF 20
ENDMDL
MODEL 3
REMARK VINA RESULT:    -2.789      2.545      5.909
REMARK INTER + INTRA:         -10.256
REMARK INTER:                  -6.484
REMARK INTRA:                  -3.772
REMARK UNBOUND:                -4.206
REMARK SMILES CCCCCCCCCCCCCCCCCCCCCC(=O)[O-]
REMARK SMILES IDX 12 1 11 2 10 3 9 4 8 5 7 6 6 7 5 8 4 9 3 10 2 11 1 12 13 13
REMARK SMILES IDX 14 14 15 15 16 16 17 17 18 18 19 19 20 20 21 21 22 22 23 23
REMARK SMILES IDX 24 24
REMARK H PARENT
REMARK Flexibility Score: inf
ROOT
ATOM      1  C   UNL     1      10.362   6.463  34.347  1.00  0.00     0.000 C 
ENDROOT
BRANCH   1   2
ATOM      2  C   UNL     1      11.274   6.990  33.219  1.00  0.00     0.000 C 
BRANCH   2   3
ATOM      3  C   UNL     1      10.539   7.876  32.198  1.00  0.00     0.000 C 
BRANCH   3   4
ATOM      4  C   UNL     1       9.618   7.072  31.265  1.00  0.00    -0.000 C 
BRANCH   4   5
ATOM      5  C   UNL     1      10.288   6.724  29.925  1.00  0.00    -0.000 C 
BRANCH   5   6
ATOM      6  C   UNL     1       9.940   5.305  29.445  1.00  0.00    -0.000 C 
BRANCH   6   7
ATOM      7  C   UNL     1       9.746   4.309  30.605  1.00  0.00    -0.000 C 
BRANCH   7   8
ATOM      8  C   UNL     1       9.689   2.827  30.191  1.00  0.00    -0.000 C 
BRANCH   8   9
ATOM      9  C   UNL     1       8.979   1.896  31.193  1.00  0.00    -0.000 C 
BRANCH   9  10
ATOM     10  C   UNL     1       9.735   1.726  32.528  1.00  0.00    -0.000 C 
BRANCH  10  11
ATOM     11  C   UNL     1      10.359   0.330  32.675  1.00  0.00    -0.003 C 
ATOM     12  C   UNL     1      11.841   0.348  32.315  1.00  0.00     0.004 C 
ENDBRANCH  10  11
ENDBRANCH   9  10
ENDBRANCH   8   9
ENDBRANCH   7   8
ENDBRANCH   6   7
ENDBRANCH   5   6
ENDBRANCH   4   5
ENDBRANCH   3   4
ENDBRANCH   2   3
ENDBRANCH   1   2
BRANCH   1  13
ATOM     13  C   UNL     1      10.123   4.947  34.243  1.00  0.00     0.000 C 
BRANCH  13  14
ATOM     14  C   UNL     1      10.793   4.154  35.380  1.00  0.00     0.000 C 
BRANCH  14  15
ATOM     15  C   UNL     1      12.032   3.342  34.960  1.00  0.00     0.000 C 
BRANCH  15  16
ATOM     16  C   UNL     1      13.334   4.152  35.041  1.00  0.00     0.000 C 
BRANCH  16  17
ATOM     17  C   UNL     1      13.852   4.498  33.637  1.00  0.00     0.000 C 
BRANCH  17  18
ATOM     18  C   UNL     1      13.134   3.711  32.531  1.00  0.00     0.000 C 
BRANCH  18  19
ATOM     19  C   UNL     1      13.125   4.457  31.185  1.00  0.00     0.000 C 
BRANCH  19  20
ATOM     20  C   UNL     1      13.780   3.646  30.052  1.00  0.00     0.006 C 
BRANCH  20  21
ATOM     21  C   UNL     1      14.022   4.447  28.763  1.00  0.00     0.053 C 
BRANCH  21  22
ATOM     22  C   UNL     1      13.152   3.975  27.639  1.00  0.00     0.041 C 
ATOM     23  O   UNL     1      12.230   3.145  27.855  1.00  0.00    -0.550 OA
ATOM     24  O   UNL     1      13.382   4.425  26.344  1.00  0.00    -0.550 OA
ENDBRANCH  21  22
ENDBRANCH  20  21
ENDBRANCH  19  20
ENDBRANCH  18  19
ENDBRANCH  17  18
ENDBRANCH  16  17
ENDBRANCH  15  16
ENDBRANCH  14  15
ENDBRANCH  13  14
ENDBRANCH   1  13
TORSDOF 20
ENDMDL
MODEL 4
REMARK VINA RESULT:    -2.747      1.944      4.726
REMARK INTER + INTRA:         -10.165
REMARK INTER:                  -6.417
REMARK INTRA:                  -3.748
REMARK UNBOUND:                -4.206
REMARK SMILES CCCCCCCCCCCCCCCCCCCCCC(=O)[O-]
REMARK SMILES IDX 12 1 11 2 10 3 9 4 8 5 7 6 6 7 5 8 4 9 3 10 2 11 1 12 13 13
REMARK SMILES IDX 14 14 15 15 16 16 17 17 18 18 19 19 20 20 21 21 22 22 23 23
REMARK SMILES IDX 24 24
REMARK H PARENT
REMARK Flexibility Score: inf
ROOT
ATOM      1  C   UNL     1      10.190   6.980  30.249  1.00  0.00     0.000 C 
ENDROOT
BRANCH   1   2
ATOM      2  C   UNL     1       9.193   6.339  29.262  1.00  0.00     0.000 C 
BRANCH   2   3
ATOM      3  C   UNL     1       9.480   4.855  28.973  1.00  0.00     0.000 C 
BRANCH   3   4
ATOM      4  C   UNL     1       9.724   4.036  30.251  1.00  0.00    -0.000 C 
BRANCH   4   5
ATOM      5  C   UNL     1       9.570   2.523  30.024  1.00  0.00    -0.000 C 
BRANCH   5   6
ATOM      6  C   UNL     1      10.641   1.705  30.766  1.00  0.00    -0.000 C 
BRANCH   6   7
ATOM      7  C   UNL     1      11.940   1.541  29.952  1.00  0.00    -0.000 C 
BRANCH   7   8
ATOM      8  C   UNL     1      11.742   1.344  28.437  1.00  0.00    -0.000 C 
BRANCH   8   9
ATOM      9  C   UNL     1      12.696   2.158  27.543  1.00  0.00    -0.000 C 
BRANCH   9  10
ATOM     10  C   UNL     1      12.469   3.683  27.617  1.00  0.00    -0.000 C 
BRANCH  10  11
ATOM     11  C   UNL     1      13.783   4.466  27.767  1.00  0.00    -0.003 C 
ATOM     12  C   UNL     1      14.985   3.527  27.771  1.00  0.00     0.004 C 
ENDBRANCH  10  11
ENDBRANCH   9  10
ENDBRANCH   8   9
ENDBRANCH   7   8
ENDBRANCH   6   7
ENDBRANCH   5   6
ENDBRANCH   4   5
ENDBRANCH   3   4
ENDBRANCH   2   3
ENDBRANCH   1   2
BRANCH   1  13
ATOM     13  C   UNL     1       9.529   7.352  31.587  1.00  0.00     0.000 C 
BRANCH  13  14
ATOM     14  C   UNL     1      10.528   7.920  32.612  1.00  0.00     0.000 C 
BRANCH  14  15
ATOM     15  C   UNL     1      10.826   6.995  33.805  1.00  0.00     0.000 C 
BRANCH  15  16
ATOM     16  C   UNL     1      10.194   5.603  33.658  1.00  0.00     0.000 C 
BRANCH  16  17
ATOM     17  C   UNL     1      11.272   4.527  33.465  1.00  0.00     0.000 C 
BRANCH  17  18
ATOM     18  C   UNL     1      12.632   5.119  33.063  1.00  0.00     0.000 C 
BRANCH  18  19
ATOM     19  C   UNL     1      12.973   4.864  31.584  1.00  0.00     0.000 C 
BRANCH  19  20
ATOM     20  C   UNL     1      14.464   4.542  31.366  1.00  0.00     0.006 C 
BRANCH  20  21
ATOM     21  C   UNL     1      14.830   3.068  31.602  1.00  0.00     0.053 C 
BRANCH  21  22
ATOM     22  C   UNL     1      15.735   2.898  32.783  1.00  0.00     0.041 C 
ATOM     23  O   UNL     1      16.077   1.747  33.160  1.00  0.00    -0.550 OA
ATOM     24  O   UNL     1      16.174   4.012  33.489  1.00  0.00    -0.550 OA
ENDBRANCH  21  22
ENDBRANCH  20  21
ENDBRANCH  19  20
ENDBRANCH  18  19
ENDBRANCH  17  18
ENDBRANCH  16  17
ENDBRANCH  15  16
ENDBRANCH  14  15
ENDBRANCH  13  14
ENDBRANCH   1  13
TORSDOF 20
ENDMDL
MODEL 5
REMARK VINA RESULT:    -2.746      2.463      5.651
REMARK INTER + INTRA:         -10.162
REMARK INTER:                  -6.522
REMARK INTRA:                  -3.640
REMARK UNBOUND:                -4.206
REMARK SMILES CCCCCCCCCCCCCCCCCCCCCC(=O)[O-]
REMARK SMILES IDX 12 1 11 2 10 3 9 4 8 5 7 6 6 7 5 8 4 9 3 10 2 11 1 12 13 13
REMARK SMILES IDX 14 14 15 15 16 16 17 17 18 18 19 19 20 20 21 21 22 22 23 23
REMARK SMILES IDX 24 24
REMARK H PARENT
REMARK Flexibility Score: inf
ROOT
ATOM      1  C   UNL     1       9.821   5.108  33.105  1.00  0.00     0.000 C 
ENDROOT
BRANCH   1   2
ATOM      2  C   UNL     1      10.925   6.127  33.457  1.00  0.00     0.000 C 
BRANCH   2   3
ATOM      3  C   UNL     1      10.876   7.406  32.603  1.00  0.00     0.000 C 
BRANCH   3   4
ATOM      4  C   UNL     1       9.663   7.447  31.660  1.00  0.00    -0.000 C 
BRANCH   4   5
ATOM      5  C   UNL     1      10.063   7.416  30.176  1.00  0.00    -0.000 C 
BRANCH   5   6
ATOM      6  C   UNL     1       9.080   6.601  29.318  1.00  0.00    -0.000 C 
BRANCH   6   7
ATOM      7  C   UNL     1       9.464   5.112  29.217  1.00  0.00    -0.000 C 
BRANCH   7   8
ATOM      8  C   UNL     1      10.972   4.817  29.332  1.00  0.00    -0.000 C 
BRANCH   8   9
ATOM      9  C   UNL     1      11.339   3.325  29.434  1.00  0.00    -0.000 C 
BRANCH   9  10
ATOM     10  C   UNL     1      11.426   2.802  30.883  1.00  0.00    -0.000 C 
BRANCH  10  11
ATOM     11  C   UNL     1      10.530   1.576  31.119  1.00  0.00    -0.003 C 
ATOM     12  C   UNL     1       9.058   1.974  31.190  1.00  0.00     0.004 C 
ENDBRANCH  10  11
ENDBRANCH   9  10
ENDBRANCH   8   9
ENDBRANCH   7   8
ENDBRANCH   6   7
ENDBRANCH   5   6
ENDBRANCH   4   5
ENDBRANCH   3   4
ENDBRANCH   2   3
ENDBRANCH   1   2
BRANCH   1  13
ATOM     13  C   UNL     1       8.876   4.841  34.290  1.00  0.00     0.000 C 
BRANCH  13  14
ATOM     14  C   UNL     1       9.250   5.647  35.547  1.00  0.00     0.000 C 
BRANCH  14  15
ATOM     15  C   UNL     1       9.128   4.874  36.872  1.00  0.00     0.000 C 
BRANCH  15  16
ATOM     16  C   UNL     1      10.328   3.953  37.140  1.00  0.00     0.000 C 
BRANCH  16  17
ATOM     17  C   UNL     1      11.641   4.749  37.146  1.00  0.00     0.000 C 
BRANCH  17  18
ATOM     18  C   UNL     1      12.760   4.046  36.363  1.00  0.00     0.000 C 
BRANCH  18  19
ATOM     19  C   UNL     1      12.220   3.148  35.236  1.00  0.00     0.000 C 
BRANCH  19  20
ATOM     20  C   UNL     1      13.193   3.037  34.047  1.00  0.00     0.006 C 
BRANCH  20  21
ATOM     21  C   UNL     1      13.841   4.369  33.638  1.00  0.00     0.053 C 
BRANCH  21  22
ATOM     22  C   UNL     1      14.730   4.215  32.442  1.00  0.00     0.041 C 
ATOM     23  O   UNL     1      14.413   4.744  31.344  1.00  0.00    -0.550 OA
ATOM     24  O   UNL     1      15.891   3.458  32.531  1.00  0.00    -0.550 OA
ENDBRANCH  21  22
ENDBRANCH  20  21
ENDBRANCH  19  20
ENDBRANCH  18  19
ENDBRANCH  17  18
ENDBRANCH  16  17
ENDBRANCH  15  16
ENDBRANCH  14  15
ENDBRANCH  13  14
ENDBRANCH   1  13
TORSDOF 20
ENDMDL
MODEL 6
REMARK VINA RESULT:    -2.743      2.493      6.120
REMARK INTER + INTRA:         -10.156
REMARK INTER:                  -6.650
REMARK INTRA:                  -3.506
REMARK UNBOUND:                -4.206
REMARK SMILES CCCCCCCCCCCCCCCCCCCCCC(=O)[O-]
REMARK SMILES IDX 12 1 11 2 10 3 9 4 8 5 7 6 6 7 5 8 4 9 3 10 2 11 1 12 13 13
REMARK SMILES IDX 14 14 15 15 16 16 17 17 18 18 19 19 20 20 21 21 22 22 23 23
REMARK SMILES IDX 24 24
REMARK H PARENT
REMARK Flexibility Score: inf
ROOT
ATOM      1  C   UNL     1      10.545   6.368  34.052  1.00  0.00     0.000 C 
ENDROOT
BRANCH   1   2
ATOM      2  C   UNL     1      11.126   7.462  33.130  1.00  0.00     0.000 C 
BRANCH   2   3
ATOM      3  C   UNL     1      10.204   7.828  31.954  1.00  0.00     0.000 C 
BRANCH   3   4
ATOM      4  C   UNL     1       9.487   6.607  31.355  1.00  0.00    -0.000 C 
BRANCH   4   5
ATOM      5  C   UNL     1      10.107   6.147  30.025  1.00  0.00    -0.000 C 
BRANCH   5   6
ATOM      6  C   UNL     1       9.911   4.643  29.774  1.00  0.00    -0.000 C 
BRANCH   6   7
ATOM      7  C   UNL     1       9.760   3.831  31.075  1.00  0.00    -0.000 C 
BRANCH   7   8
ATOM      8  C   UNL     1       9.546   2.318  30.880  1.00  0.00    -0.000 C 
BRANCH   8   9
ATOM      9  C   UNL     1      10.736   1.432  31.295  1.00  0.00    -0.000 C 
BRANCH   9  10
ATOM     10  C   UNL     1      11.868   1.381  30.247  1.00  0.00    -0.000 C 
BRANCH  10  11
ATOM     11  C   UNL     1      11.336   1.397  28.806  1.00  0.00    -0.003 C 
ATOM     12  C   UNL     1      12.311   2.098  27.865  1.00  0.00     0.004 C 
ENDBRANCH  10  11
ENDBRANCH   9  10
ENDBRANCH   8   9
ENDBRANCH   7   8
ENDBRANCH   6   7
ENDBRANCH   5   6
ENDBRANCH   4   5
ENDBRANCH   3   4
ENDBRANCH   2   3
ENDBRANCH   1   2
BRANCH   1  13
ATOM     13  C   UNL     1      11.463   5.138  34.147  1.00  0.00     0.000 C 
BRANCH  13  14
ATOM     14  C   UNL     1      12.809   5.339  33.426  1.00  0.00     0.000 C 
BRANCH  14  15
ATOM     15  C   UNL     1      13.152   4.261  32.382  1.00  0.00     0.000 C 
BRANCH  15  16
ATOM     16  C   UNL     1      13.387   4.839  30.979  1.00  0.00     0.000 C 
BRANCH  16  17
ATOM     17  C   UNL     1      14.417   4.003  30.206  1.00  0.00     0.000 C 
BRANCH  17  18
ATOM     18  C   UNL     1      14.998   4.753  28.997  1.00  0.00     0.000 C 
BRANCH  18  19
ATOM     19  C   UNL     1      16.438   4.321  28.671  1.00  0.00     0.000 C 
BRANCH  19  20
ATOM     20  C   UNL     1      17.460   4.831  29.705  1.00  0.00     0.006 C 
BRANCH  20  21
ATOM     21  C   UNL     1      18.127   3.720  30.531  1.00  0.00     0.053 C 
BRANCH  21  22
ATOM     22  C   UNL     1      18.078   4.008  32.000  1.00  0.00     0.041 C 
ATOM     23  O   UNL     1      19.142   4.185  32.648  1.00  0.00    -0.550 OA
ATOM     24  O   UNL     1      16.855   4.047  32.660  1.00  0.00    -0.550 OA
ENDBRANCH  21  22
ENDBRANCH  20  21
ENDBRANCH  19  20
ENDBRANCH  18  19
ENDBRANCH  17  18
ENDBRANCH  16  17
ENDBRANCH  15  16
ENDBRANCH  14  15
ENDBRANCH  13  14
ENDBRANCH   1  13
TORSDOF 20
ENDMDL
MODEL 7
REMARK VINA RESULT:    -2.742      9.441     12.382
REMARK INTER + INTRA:         -10.154
REMARK INTER:                  -6.908
REMARK INTRA:                  -3.246
REMARK UNBOUND:                -4.206
REMARK SMILES CCCCCCCCCCCCCCCCCCCCCC(=O)[O-]
REMARK SMILES IDX 12 1 11 2 10 3 9 4 8 5 7 6 6 7 5 8 4 9 3 10 2 11 1 12 13 13
REMARK SMILES IDX 14 14 15 15 16 16 17 17 18 18 19 19 20 20 21 21 22 22 23 23
REMARK SMILES IDX 24 24
REMARK H PARENT
REMARK Flexibility Score: inf
ROOT
ATOM      1  C   UNL     1      19.376   8.288  35.614  1.00  0.00     0.000 C 
ENDROOT
BRANCH   1   2
ATOM      2  C   UNL     1      20.436   9.410  35.594  1.00  0.00     0.000 C 
BRANCH   2   3
ATOM      3  C   UNL     1      20.995   9.753  36.985  1.00  0.00     0.000 C 
BRANCH   3   4
ATOM      4  C   UNL     1      19.970   9.535  38.111  1.00  0.00    -0.000 C 
BRANCH   4   5
ATOM      5  C   UNL     1      20.459   8.537  39.173  1.00  0.00    -0.000 C 
BRANCH   5   6
ATOM      6  C   UNL     1      21.952   8.201  39.023  1.00  0.00    -0.000 C 
BRANCH   6   7
ATOM      7  C   UNL     1      22.216   6.689  38.880  1.00  0.00    -0.000 C 
BRANCH   7   8
ATOM      8  C   UNL     1      21.443   5.996  37.741  1.00  0.00    -0.000 C 
BRANCH   8   9
ATOM      9  C   UNL     1      21.750   4.497  37.563  1.00  0.00    -0.000 C 
BRANCH   9  10
ATOM     10  C   UNL     1      22.294   4.135  36.165  1.00  0.00    -0.000 C 
BRANCH  10  11
ATOM     11  C   UNL     1      21.432   3.080  35.455  1.00  0.00    -0.003 C 
ATOM     12  C   UNL     1      19.946   3.333  35.689  1.00  0.00     0.004 C 
ENDBRANCH  10  11
ENDBRANCH   9  10
ENDBRANCH   8   9
ENDBRANCH   7   8
ENDBRANCH   6   7
ENDBRANCH   5   6
ENDBRANCH   4   5
ENDBRANCH   3   4
ENDBRANCH   2   3
ENDBRANCH   1   2
BRANCH   1  13
ATOM     13  C   UNL     1      19.843   7.031  34.860  1.00  0.00     0.000 C 
BRANCH  13  14
ATOM     14  C   UNL     1      21.252   7.184  34.257  1.00  0.00     0.000 C 
BRANCH  14  15
ATOM     15  C   UNL     1      21.588   6.184  33.136  1.00  0.00     0.000 C 
BRANCH  15  16
ATOM     16  C   UNL     1      20.355   5.431  32.616  1.00  0.00     0.000 C 
BRANCH  16  17
ATOM     17  C   UNL     1      20.768   4.257  31.716  1.00  0.00     0.000 C 
BRANCH  17  18
ATOM     18  C   UNL     1      22.230   3.835  31.929  1.00  0.00     0.000 C 
BRANCH  18  19
ATOM     19  C   UNL     1      22.551   2.473  31.290  1.00  0.00     0.000 C 
BRANCH  19  20
ATOM     20  C   UNL     1      21.364   1.894  30.497  1.00  0.00     0.006 C 
BRANCH  20  21
ATOM     21  C   UNL     1      21.642   1.705  28.997  1.00  0.00     0.053 C 
BRANCH  21  22
ATOM     22  C   UNL     1      21.907   3.008  28.308  1.00  0.00     0.041 C 
ATOM     23  O   UNL     1      20.993   3.867  28.202  1.00  0.00    -0.550 OA
ATOM     24  O   UNL     1      23.156   3.259  27.752  1.00  0.00    -0.550 OA
ENDBRANCH  21  22
ENDBRANCH  20  21
ENDBRANCH  19  20
ENDBRANCH  18  19
ENDBRANCH  17  18
ENDBRANCH  16  17
ENDBRANCH  15  16
ENDBRANCH  14  15
ENDBRANCH  13  14
ENDBRANCH   1  13
TORSDOF 20
ENDMDL
MODEL 8
REMARK VINA RESULT:    -2.735      2.456      5.767
REMARK INTER + INTRA:         -10.139
REMARK INTER:                  -6.052
REMARK INTRA:                  -4.087
REMARK UNBOUND:                -4.206
REMARK SMILES CCCCCCCCCCCCCCCCCCCCCC(=O)[O-]
REMARK SMILES IDX 12 1 11 2 10 3 9 4 8 5 7 6 6 7 5 8 4 9 3 10 2 11 1 12 13 13
REMARK SMILES IDX 14 14 15 15 16 16 17 17 18 18 19 19 20 20 21 21 22 22 23 23
REMARK SMILES IDX 24 24
REMARK H PARENT
REMARK Flexibility Score: inf
ROOT
ATOM      1  C   UNL     1      10.039   7.590  31.833  1.00  0.00     0.000 C 
ENDROOT
BRANCH   1   2
ATOM      2  C   UNL     1      11.065   6.978  32.810  1.00  0.00     0.000 C 
BRANCH   2   3
ATOM      3  C   UNL     1      10.429   6.093  33.896  1.00  0.00     0.000 C 
BRANCH   3   4
ATOM      4  C   UNL     1       9.236   5.275  33.375  1.00  0.00    -0.000 C 
BRANCH   4   5
ATOM      5  C   UNL     1       9.497   3.760  33.406  1.00  0.00    -0.000 C 
BRANCH   5   6
ATOM      6  C   UNL     1      10.911   3.416  33.905  1.00  0.00    -0.000 C 
BRANCH   6   7
ATOM      7  C   UNL     1      11.881   3.062  32.760  1.00  0.00    -0.000 C 
BRANCH   7   8
ATOM      8  C   UNL     1      13.368   3.334  33.057  1.00  0.00    -0.000 C 
BRANCH   8   9
ATOM      9  C   UNL     1      14.013   4.438  32.198  1.00  0.00    -0.000 C 
BRANCH   9  10
ATOM     10  C   UNL     1      13.200   4.801  30.937  1.00  0.00    -0.000 C 
BRANCH  10  11
ATOM     11  C   UNL     1      14.068   4.839  29.670  1.00  0.00    -0.003 C 
ATOM     12  C   UNL     1      13.289   5.399  28.484  1.00  0.00     0.004 C 
ENDBRANCH  10  11
ENDBRANCH   9  10
ENDBRANCH   8   9
ENDBRANCH   7   8
ENDBRANCH   6   7
ENDBRANCH   5   6
ENDBRANCH   4   5
ENDBRANCH   3   4
ENDBRANCH   2   3
ENDBRANCH   1   2
BRANCH   1  13
ATOM     13  C   UNL     1      10.353   7.244  30.367  1.00  0.00     0.000 C 
BRANCH  13  14
ATOM     14  C   UNL     1       9.103   6.824  29.570  1.00  0.00     0.000 C 
BRANCH  14  15
ATOM     15  C   UNL     1       9.178   5.421  28.942  1.00  0.00     0.000 C 
BRANCH  15  16
ATOM     16  C   UNL     1       9.919   4.408  29.825  1.00  0.00     0.000 C 
BRANCH  16  17
ATOM     17  C   UNL     1       9.177   3.064  29.862  1.00  0.00     0.000 C 
BRANCH  17  18
ATOM     18  C   UNL     1      10.133   1.862  29.909  1.00  0.00     0.000 C 
BRANCH  18  19
ATOM     19  C   UNL     1      11.438   2.115  29.134  1.00  0.00     0.000 C 
BRANCH  19  20
ATOM     20  C   UNL     1      12.527   1.072  29.449  1.00  0.00     0.006 C 
BRANCH  20  21
ATOM     21  C   UNL     1      13.406   0.696  28.245  1.00  0.00     0.053 C 
BRANCH  21  22
ATOM     22  C   UNL     1      14.643   1.536  28.171  1.00  0.00     0.041 C 
ATOM     23  O   UNL     1      14.873   2.240  27.153  1.00  0.00    -0.550 OA
ATOM     24  O   UNL     1      15.562   1.515  29.214  1.00  0.00    -0.550 OA
ENDBRANCH  21  22
ENDBRANCH  20  21
ENDBRANCH  19  20
ENDBRANCH  18  19
ENDBRANCH  17  18
ENDBRANCH  16  17
ENDBRANCH  15  16
ENDBRANCH  14  15
ENDBRANCH  13  14
ENDBRANCH   1  13
TORSDOF 20
ENDMDL
