MODEL 1
REMARK VINA RESULT:    -4.069      0.000      0.000
REMARK INTER + INTRA:          -9.189
REMARK INTER:                  -7.400
REMARK INTRA:                  -1.790
REMARK UNBOUND:                -1.790
REMARK SMILES CCCCCCCCCCCCCCCC(=O)[O-]
REMARK SMILES IDX 9 1 10 2 11 3 12 4 13 5 14 6 15 7 16 8 17 9 18 10 8 11 7 12
REMARK SMILES IDX 6 13 5 14 4 15 3 16 2 17 1 18
REMARK H PARENT
REMARK Flexibility Score: inf
ROOT
ATOM      1  C   UNL     1     172.764 176.653 151.599  1.00  0.00     0.000 C 
ENDROOT
BRANCH   1   2
ATOM      2  C   UNL     1     172.948 177.983 152.351  1.00  0.00     0.000 C 
BRANCH   2   3
ATOM      3  C   UNL     1     173.550 177.785 153.751  1.00  0.00     0.000 C 
BRANCH   3   4
ATOM      4  C   UNL     1     175.050 178.125 153.803  1.00  0.00     0.000 C 
BRANCH   4   5
ATOM      5  C   UNL     1     175.910 176.908 154.210  1.00  0.00     0.000 C 
BRANCH   5   6
ATOM      6  C   UNL     1     175.085 175.729 154.761  1.00  0.00     0.006 C 
BRANCH   6   7
ATOM      7  C   UNL     1     175.856 174.402 154.823  1.00  0.00     0.053 C 
BRANCH   7   8
ATOM      8  C   UNL     1     176.590 174.244 156.119  1.00  0.00     0.041 C 
ATOM      9  O   UNL     1     177.737 174.744 156.262  1.00  0.00    -0.550 OA
ATOM     10  O   UNL     1     176.000 173.565 157.179  1.00  0.00    -0.550 OA
ENDBRANCH   7   8
ENDBRANCH   6   7
ENDBRANCH   5   6
ENDBRANCH   4   5
ENDBRANCH   3   4
ENDBRANCH   2   3
ENDBRANCH   1   2
BRANCH   1  11
ATOM     11  C   UNL     1     173.988 176.271 150.746  1.00  0.00     0.000 C 
BRANCH  11  12
ATOM     12  C   UNL     1     174.695 174.966 151.154  1.00  0.00    -0.000 C 
BRANCH  12  13
ATOM     13  C   UNL     1     176.229 175.066 151.082  1.00  0.00    -0.000 C 
BRANCH  13  14
ATOM     14  C   UNL     1     176.929 173.703 151.242  1.00  0.00    -0.000 C 
BRANCH  14  15
ATOM     15  C   UNL     1     177.245 172.965 149.929  1.00  0.00    -0.000 C 
BRANCH  15  16
ATOM     16  C   UNL     1     176.308 171.773 149.669  1.00  0.00    -0.000 C 
BRANCH  16  17
ATOM     17  C   UNL     1     176.649 170.556 150.544  1.00  0.00    -0.003 C 
ATOM     18  C   UNL     1     175.430 169.986 151.269  1.00  0.00     0.004 C 
ENDBRANCH  16  17
ENDBRANCH  15  16
ENDBRANCH  14  15
ENDBRANCH  13  14
ENDBRANCH  12  13
ENDBRANCH  11  12
ENDBRANCH   1  11
TORSDOF 14
ENDMDL
MODEL 2
REMARK VINA RESULT:    -4.059      1.231      2.040
REMARK INTER + INTRA:          -9.170
REMARK INTER:                  -7.059
REMARK INTRA:                  -2.111
REMARK UNBOUND:                -1.790
REMARK SMILES CCCCCCCCCCCCCCCC(=O)[O-]
REMARK SMILES IDX 9 1 10 2 11 3 12 4 13 5 14 6 15 7 16 8 17 9 18 10 8 11 7 12
REMARK SMILES IDX 6 13 5 14 4 15 3 16 2 17 1 18
REMARK H PARENT
REMARK Flexibility Score: inf
ROOT
ATOM      1  C   UNL     1     174.157 175.644 150.878  1.00  0.00     0.000 C 
ENDROOT
BRANCH   1   2
ATOM      2  C   UNL     1     175.090 176.856 150.713  1.00  0.00     0.000 C 
BRANCH   2   3
ATOM      3  C   UNL     1     174.670 178.043 151.596  1.00  0.00     0.000 C 
BRANCH   3   4
ATOM      4  C   UNL     1     175.424 178.079 152.936  1.00  0.00     0.000 C 
BRANCH   4   5
ATOM      5  C   UNL     1     174.486 177.845 154.141  1.00  0.00     0.000 C 
BRANCH   5   6
ATOM      6  C   UNL     1     174.450 176.380 154.615  1.00  0.00     0.006 C 
BRANCH   6   7
ATOM      7  C   UNL     1     175.807 175.666 154.542  1.00  0.00     0.053 C 
BRANCH   7   8
ATOM      8  C   UNL     1     176.227 175.126 155.875  1.00  0.00     0.041 C 
ATOM      9  O   UNL     1     177.379 174.642 156.028  1.00  0.00    -0.550 OA
ATOM     10  O   UNL     1     175.355 175.178 156.956  1.00  0.00    -0.550 OA
ENDBRANCH   7   8
ENDBRANCH   6   7
ENDBRANCH   5   6
ENDBRANCH   4   5
ENDBRANCH   3   4
ENDBRANCH   2   3
ENDBRANCH   1   2
BRANCH   1  11
ATOM     11  C   UNL     1     174.905 174.360 151.282  1.00  0.00     0.000 C 
BRANCH  11  12
ATOM     12  C   UNL     1     176.440 174.428 151.172  1.00  0.00    -0.000 C 
BRANCH  12  13
ATOM     13  C   UNL     1     177.020 173.377 150.209  1.00  0.00    -0.000 C 
BRANCH  13  14
ATOM     14  C   UNL     1     176.058 172.202 149.952  1.00  0.00    -0.000 C 
BRANCH  14  15
ATOM     15  C   UNL     1     176.516 170.840 150.504  1.00  0.00    -0.000 C 
BRANCH  15  16
ATOM     16  C   UNL     1     175.802 170.451 151.810  1.00  0.00    -0.000 C 
BRANCH  16  17
ATOM     17  C   UNL     1     176.651 170.752 153.056  1.00  0.00    -0.003 C 
ATOM     18  C   UNL     1     176.100 171.914 153.882  1.00  0.00     0.004 C 
ENDBRANCH  16  17
ENDBRANCH  15  16
ENDBRANCH  14  15
ENDBRANCH  13  14
ENDBRANCH  12  13
ENDBRANCH  11  12
ENDBRANCH   1  11
TORSDOF 14
ENDMDL
MODEL 3
REMARK VINA RESULT:    -3.982      2.189      5.694
REMARK INTER + INTRA:          -9.031
REMARK INTER:                  -7.006
REMARK INTRA:                  -2.025
REMARK UNBOUND:                -1.790
REMARK SMILES CCCCCCCCCCCCCCCC(=O)[O-]
REMARK SMILES IDX 9 1 10 2 11 3 12 4 13 5 14 6 15 7 16 8 17 9 18 10 8 11 7 12
REMARK SMILES IDX 6 13 5 14 4 15 3 16 2 17 1 18
REMARK H PARENT
REMARK Flexibility Score: inf
ROOT
ATOM      1  C   UNL     1     174.058 175.474 151.062  1.00  0.00     0.000 C 
ENDROOT
BRANCH   1   2
ATOM      2  C   UNL     1     174.904 174.289 151.561  1.00  0.00     0.000 C 
BRANCH   2   3
ATOM      3  C   UNL     1     176.407 174.498 151.314  1.00  0.00     0.000 C 
BRANCH   3   4
ATOM      4  C   UNL     1     177.001 173.446 150.361  1.00  0.00     0.000 C 
BRANCH   4   5
ATOM      5  C   UNL     1     176.008 172.300 150.065  1.00  0.00     0.000 C 
BRANCH   5   6
ATOM      6  C   UNL     1     176.598 170.898 150.307  1.00  0.00     0.006 C 
BRANCH   6   7
ATOM      7  C   UNL     1     175.926 170.126 151.451  1.00  0.00     0.053 C 
BRANCH   7   8
ATOM      8  C   UNL     1     176.062 170.839 152.762  1.00  0.00     0.041 C 
ATOM      9  O   UNL     1     177.203 171.066 153.243  1.00  0.00    -0.550 OA
ATOM     10  O   UNL     1     174.931 171.274 153.442  1.00  0.00    -0.550 OA
ENDBRANCH   7   8
ENDBRANCH   6   7
ENDBRANCH   5   6
ENDBRANCH   4   5
ENDBRANCH   3   4
ENDBRANCH   2   3
ENDBRANCH   1   2
BRANCH   1  11
ATOM     11  C   UNL     1     174.901 176.723 150.743  1.00  0.00     0.000 C 
BRANCH  11  12
ATOM     12  C   UNL     1     174.717 177.907 151.710  1.00  0.00    -0.000 C 
BRANCH  12  13
ATOM     13  C   UNL     1     175.557 177.772 152.992  1.00  0.00    -0.000 C 
BRANCH  13  14
ATOM     14  C   UNL     1     174.737 177.282 154.199  1.00  0.00    -0.000 C 
BRANCH  14  15
ATOM     15  C   UNL     1     173.254 177.699 154.204  1.00  0.00    -0.000 C 
BRANCH  15  16
ATOM     16  C   UNL     1     172.294 176.503 154.083  1.00  0.00    -0.000 C 
BRANCH  16  17
ATOM     17  C   UNL     1     170.927 176.904 153.505  1.00  0.00    -0.003 C 
ATOM     18  C   UNL     1     171.019 177.431 152.073  1.00  0.00     0.004 C 
ENDBRANCH  16  17
ENDBRANCH  15  16
ENDBRANCH  14  15
ENDBRANCH  13  14
ENDBRANCH  12  13
ENDBRANCH  11  12
ENDBRANCH   1  11
TORSDOF 14
ENDMDL
MODEL 4
REMARK VINA RESULT:    -3.974     10.087     12.442
REMARK INTER + INTRA:          -9.015
REMARK INTER:                  -6.753
REMARK INTRA:                  -2.263
REMARK UNBOUND:                -1.790
REMARK SMILES CCCCCCCCCCCCCCCC(=O)[O-]
REMARK SMILES IDX 9 1 10 2 11 3 12 4 13 5 14 6 15 7 16 8 17 9 18 10 8 11 7 12
REMARK SMILES IDX 6 13 5 14 4 15 3 16 2 17 1 18
REMARK H PARENT
REMARK Flexibility Score: inf
ROOT
ATOM      1  C   UNL     1     166.105 177.998 152.340  1.00  0.00     0.000 C 
ENDROOT
BRANCH   1   2
ATOM      2  C   UNL     1     164.663 177.459 152.352  1.00  0.00     0.000 C 
BRANCH   2   3
ATOM      3  C   UNL     1     163.902 177.792 151.059  1.00  0.00     0.000 C 
BRANCH   3   4
ATOM      4  C   UNL     1     162.377 177.804 151.258  1.00  0.00     0.000 C 
BRANCH   4   5
ATOM      5  C   UNL     1     161.685 176.626 150.535  1.00  0.00     0.000 C 
BRANCH   5   6
ATOM      6  C   UNL     1     160.337 176.226 151.165  1.00  0.00     0.006 C 
BRANCH   6   7
ATOM      7  C   UNL     1     160.387 174.920 151.972  1.00  0.00     0.053 C 
BRANCH   7   8
ATOM      8  C   UNL     1     160.397 175.177 153.448  1.00  0.00     0.041 C 
ATOM      9  O   UNL     1     160.725 174.261 154.247  1.00  0.00    -0.550 OA
ATOM     10  O   UNL     1     160.066 176.433 153.941  1.00  0.00    -0.550 OA
ENDBRANCH   7   8
ENDBRANCH   6   7
ENDBRANCH   5   6
ENDBRANCH   4   5
ENDBRANCH   3   4
ENDBRANCH   2   3
ENDBRANCH   1   2
BRANCH   1  11
ATOM     11  C   UNL     1     167.161 176.885 152.213  1.00  0.00     0.000 C 
BRANCH  11  12
ATOM     12  C   UNL     1     168.047 176.956 150.956  1.00  0.00    -0.000 C 
BRANCH  12  13
ATOM     13  C   UNL     1     167.269 176.685 149.657  1.00  0.00    -0.000 C 
BRANCH  13  14
ATOM     14  C   UNL     1     166.988 175.189 149.426  1.00  0.00    -0.000 C 
BRANCH  14  15
ATOM     15  C   UNL     1     165.538 174.741 149.690  1.00  0.00    -0.000 C 
BRANCH  15  16
ATOM     16  C   UNL     1     165.405 173.838 150.928  1.00  0.00    -0.000 C 
BRANCH  16  17
ATOM     17  C   UNL     1     164.011 173.925 151.571  1.00  0.00    -0.003 C 
ATOM     18  C   UNL     1     164.065 174.020 153.095  1.00  0.00     0.004 C 
ENDBRANCH  16  17
ENDBRANCH  15  16
ENDBRANCH  14  15
ENDBRANCH  13  14
ENDBRANCH  12  13
ENDBRANCH  11  12
ENDBRANCH   1  11
TORSDOF 14
ENDMDL
MODEL 5
REMARK VINA RESULT:    -3.969      1.568      5.505
REMARK INTER + INTRA:          -9.006
REMARK INTER:                  -7.164
REMARK INTRA:                  -1.842
REMARK UNBOUND:                -1.790
REMARK SMILES CCCCCCCCCCCCCCCC(=O)[O-]
REMARK SMILES IDX 9 1 10 2 11 3 12 4 13 5 14 6 15 7 16 8 17 9 18 10 8 11 7 12
REMARK SMILES IDX 6 13 5 14 4 15 3 16 2 17 1 18
REMARK H PARENT
REMARK Flexibility Score: inf
ROOT
ATOM      1  C   UNL     1     175.761 174.767 151.357  1.00  0.00     0.000 C 
ENDROOT
BRANCH   1   2
ATOM      2  C   UNL     1     177.064 174.255 150.718  1.00  0.00     0.000 C 
BRANCH   2   3
ATOM      3  C   UNL     1     176.890 172.879 150.055  1.00  0.00     0.000 C 
BRANCH   3   4
ATOM      4  C   UNL     1     175.797 172.032 150.730  1.00  0.00     0.000 C 
BRANCH   4   5
ATOM      5  C   UNL     1     176.335 170.670 151.223  1.00  0.00     0.000 C 
BRANCH   5   6
ATOM      6  C   UNL     1     176.394 170.552 152.758  1.00  0.00     0.006 C 
BRANCH   6   7
ATOM      7  C   UNL     1     175.860 171.786 153.500  1.00  0.00     0.053 C 
BRANCH   7   8
ATOM      8  C   UNL     1     176.949 172.513 154.229  1.00  0.00     0.041 C 
ATOM      9  O   UNL     1     178.044 172.752 153.655  1.00  0.00    -0.550 OA
ATOM     10  O   UNL     1     176.749 172.946 155.534  1.00  0.00    -0.550 OA
ENDBRANCH   7   8
ENDBRANCH   6   7
ENDBRANCH   5   6
ENDBRANCH   4   5
ENDBRANCH   3   4
ENDBRANCH   2   3
ENDBRANCH   1   2
BRANCH   1  11
ATOM     11  C   UNL     1     175.346 176.158 150.842  1.00  0.00     0.000 C 
BRANCH  11  12
ATOM     12  C   UNL     1     173.828 176.406 150.762  1.00  0.00    -0.000 C 
BRANCH  12  13
ATOM     13  C   UNL     1     173.440 177.861 151.076  1.00  0.00    -0.000 C 
BRANCH  13  14
ATOM     14  C   UNL     1     172.694 178.009 152.415  1.00  0.00    -0.000 C 
BRANCH  14  15
ATOM     15  C   UNL     1     172.471 176.700 153.195  1.00  0.00    -0.000 C 
BRANCH  15  16
ATOM     16  C   UNL     1     173.321 176.610 154.473  1.00  0.00    -0.000 C 
BRANCH  16  17
ATOM     17  C   UNL     1     174.424 177.680 154.521  1.00  0.00    -0.003 C 
ATOM     18  C   UNL     1     175.830 177.089 154.407  1.00  0.00     0.004 C 
ENDBRANCH  16  17
ENDBRANCH  15  16
ENDBRANCH  14  15
ENDBRANCH  13  14
ENDBRANCH  12  13
ENDBRANCH  11  12
ENDBRANCH   1  11
TORSDOF 14
ENDMDL
MODEL 6
REMARK VINA RESULT:    -3.964     11.307     13.544
REMARK INTER + INTRA:          -8.998
REMARK INTER:                  -7.011
REMARK INTRA:                  -1.987
REMARK UNBOUND:                -1.790
REMARK SMILES CCCCCCCCCCCCCCCC(=O)[O-]
REMARK SMILES IDX 9 1 10 2 11 3 12 4 13 5 14 6 15 7 16 8 17 9 18 10 8 11 7 12
REMARK SMILES IDX 6 13 5 14 4 15 3 16 2 17 1 18
REMARK H PARENT
REMARK Flexibility Score: inf
ROOT
ATOM      1  C   UNL     1     161.352 177.278 150.730  1.00  0.00     0.000 C 
ENDROOT
BRANCH   1   2
ATOM      2  C   UNL     1     160.167 177.116 151.699  1.00  0.00     0.000 C 
BRANCH   2   3
ATOM      3  C   UNL     1     159.861 175.642 152.010  1.00  0.00     0.000 C 
BRANCH   3   4
ATOM      4  C   UNL     1     160.365 175.215 153.399  1.00  0.00     0.000 C 
BRANCH   4   5
ATOM      5  C   UNL     1     161.650 174.361 153.317  1.00  0.00     0.000 C 
BRANCH   5   6
ATOM      6  C   UNL     1     161.809 173.618 151.978  1.00  0.00     0.006 C 
BRANCH   6   7
ATOM      7  C   UNL     1     161.512 172.113 152.058  1.00  0.00     0.053 C 
BRANCH   7   8
ATOM      8  C   UNL     1     160.054 171.822 151.878  1.00  0.00     0.041 C 
ATOM      9  O   UNL     1     159.566 171.726 150.721  1.00  0.00    -0.550 OA
ATOM     10  O   UNL     1     159.237 171.635 152.986  1.00  0.00    -0.550 OA
ENDBRANCH   7   8
ENDBRANCH   6   7
ENDBRANCH   5   6
ENDBRANCH   4   5
ENDBRANCH   3   4
ENDBRANCH   2   3
ENDBRANCH   1   2
BRANCH   1  11
ATOM     11  C   UNL     1     162.642 177.745 151.430  1.00  0.00     0.000 C 
BRANCH  11  12
ATOM     12  C   UNL     1     163.936 177.060 150.954  1.00  0.00    -0.000 C 
BRANCH  12  13
ATOM     13  C   UNL     1     164.606 176.214 152.051  1.00  0.00    -0.000 C 
BRANCH  13  14
ATOM     14  C   UNL     1     165.169 174.881 151.522  1.00  0.00    -0.000 C 
BRANCH  14  15
ATOM     15  C   UNL     1     165.355 174.802 149.995  1.00  0.00    -0.000 C 
BRANCH  15  16
ATOM     16  C   UNL     1     166.831 174.855 149.567  1.00  0.00    -0.000 C 
BRANCH  16  17
ATOM     17  C   UNL     1     167.287 176.278 149.204  1.00  0.00    -0.003 C 
ATOM     18  C   UNL     1     168.034 176.970 150.343  1.00  0.00     0.004 C 
ENDBRANCH  16  17
ENDBRANCH  15  16
ENDBRANCH  14  15
ENDBRANCH  13  14
ENDBRANCH  12  13
ENDBRANCH  11  12
ENDBRANCH   1  11
TORSDOF 14
ENDMDL
MODEL 7
REMARK VINA RESULT:    -3.898     10.666     13.332
REMARK INTER + INTRA:          -8.877
REMARK INTER:                  -7.029
REMARK INTRA:                  -1.849
REMARK UNBOUND:                -1.790
REMARK SMILES CCCCCCCCCCCCCCCC(=O)[O-]
REMARK SMILES IDX 9 1 10 2 11 3 12 4 13 5 14 6 15 7 16 8 17 9 18 10 8 11 7 12
REMARK SMILES IDX 6 13 5 14 4 15 3 16 2 17 1 18
REMARK H PARENT
REMARK Flexibility Score: inf
ROOT
ATOM      1  C   UNL     1     161.557 176.768 150.759  1.00  0.00     0.000 C 
ENDROOT
BRANCH   1   2
ATOM      2  C   UNL     1     163.089 176.687 150.873  1.00  0.00     0.000 C 
BRANCH   2   3
ATOM      3  C   UNL     1     163.670 177.794 151.767  1.00  0.00     0.000 C 
BRANCH   3   4
ATOM      4  C   UNL     1     165.206 177.847 151.720  1.00  0.00     0.000 C 
BRANCH   4   5
ATOM      5  C   UNL     1     165.748 177.803 150.273  1.00  0.00     0.000 C 
BRANCH   5   6
ATOM      6  C   UNL     1     167.181 177.248 150.171  1.00  0.00     0.006 C 
BRANCH   6   7
ATOM      7  C   UNL     1     167.281 175.903 149.437  1.00  0.00     0.053 C 
BRANCH   7   8
ATOM      8  C   UNL     1     166.325 174.892 149.994  1.00  0.00     0.041 C 
ATOM      9  O   UNL     1     165.398 174.436 149.274  1.00  0.00    -0.550 OA
ATOM     10  O   UNL     1     166.470 174.437 151.298  1.00  0.00    -0.550 OA
ENDBRANCH   7   8
ENDBRANCH   6   7
ENDBRANCH   5   6
ENDBRANCH   4   5
ENDBRANCH   3   4
ENDBRANCH   2   3
ENDBRANCH   1   2
BRANCH   1  11
ATOM     11  C   UNL     1     160.982 178.084 151.314  1.00  0.00     0.000 C 
BRANCH  11  12
ATOM     12  C   UNL     1     160.104 177.942 152.571  1.00  0.00    -0.000 C 
BRANCH  12  13
ATOM     13  C   UNL     1     160.894 178.123 153.879  1.00  0.00    -0.000 C 
BRANCH  13  14
ATOM     14  C   UNL     1     160.757 176.922 154.834  1.00  0.00    -0.000 C 
BRANCH  14  15
ATOM     15  C   UNL     1     161.657 175.715 154.511  1.00  0.00    -0.000 C 
BRANCH  15  16
ATOM     16  C   UNL     1     160.859 174.442 154.184  1.00  0.00    -0.000 C 
BRANCH  16  17
ATOM     17  C   UNL     1     161.094 173.954 152.745  1.00  0.00    -0.003 C 
ATOM     18  C   UNL     1     159.794 173.639 152.006  1.00  0.00     0.004 C 
ENDBRANCH  16  17
ENDBRANCH  15  16
ENDBRANCH  14  15
ENDBRANCH  13  14
ENDBRANCH  12  13
ENDBRANCH  11  12
ENDBRANCH   1  11
TORSDOF 14
ENDMDL
MODEL 8
REMARK VINA RESULT:    -3.885      9.399     12.214
REMARK INTER + INTRA:          -8.854
REMARK INTER:                  -6.824
REMARK INTRA:                  -2.030
REMARK UNBOUND:                -1.790
REMARK SMILES CCCCCCCCCCCCCCCC(=O)[O-]
REMARK SMILES IDX 9 1 10 2 11 3 12 4 13 5 14 6 15 7 16 8 17 9 18 10 8 11 7 12
REMARK SMILES IDX 6 13 5 14 4 15 3 16 2 17 1 18
REMARK H PARENT
REMARK Flexibility Score: inf
ROOT
ATOM      1  C   UNL     1     164.301 175.451 152.257  1.00  0.00     0.000 C 
ENDROOT
BRANCH   1   2
ATOM      2  C   UNL     1     164.761 174.326 151.313  1.00  0.00     0.000 C 
BRANCH   2   3
ATOM      3  C   UNL     1     165.185 174.856 149.933  1.00  0.00     0.000 C 
BRANCH   3   4
ATOM      4  C   UNL     1     166.705 174.780 149.713  1.00  0.00     0.000 C 
BRANCH   4   5
ATOM      5  C   UNL     1     167.286 176.110 149.185  1.00  0.00     0.000 C 
BRANCH   5   6
ATOM      6  C   UNL     1     168.004 176.939 150.267  1.00  0.00     0.006 C 
BRANCH   6   7
ATOM      7  C   UNL     1     168.634 176.096 151.385  1.00  0.00     0.053 C 
BRANCH   7   8
ATOM      8  C   UNL     1     168.047 176.418 152.725  1.00  0.00     0.041 C 
ATOM      9  O   UNL     1     167.926 177.616 153.091  1.00  0.00    -0.550 OA
ATOM     10  O   UNL     1     167.612 175.397 153.561  1.00  0.00    -0.550 OA
ENDBRANCH   7   8
ENDBRANCH   6   7
ENDBRANCH   5   6
ENDBRANCH   4   5
ENDBRANCH   3   4
ENDBRANCH   2   3
ENDBRANCH   1   2
BRANCH   1  11
ATOM     11  C   UNL     1     164.473 176.855 151.648  1.00  0.00     0.000 C 
BRANCH  11  12
ATOM     12  C   UNL     1     163.184 177.691 151.545  1.00  0.00    -0.000 C 
BRANCH  12  13
ATOM     13  C   UNL     1     162.114 177.038 150.654  1.00  0.00    -0.000 C 
BRANCH  13  14
ATOM     14  C   UNL     1     160.682 177.482 151.010  1.00  0.00    -0.000 C 
BRANCH  14  15
ATOM     15  C   UNL     1     160.088 176.841 152.277  1.00  0.00    -0.000 C 
BRANCH  15  16
ATOM     16  C   UNL     1     159.738 175.355 152.091  1.00  0.00    -0.000 C 
BRANCH  16  17
ATOM     17  C   UNL     1     160.687 174.426 152.865  1.00  0.00    -0.003 C 
ATOM     18  C   UNL     1     161.222 173.278 152.009  1.00  0.00     0.004 C 
ENDBRANCH  16  17
ENDBRANCH  15  16
ENDBRANCH  14  15
ENDBRANCH  13  14
ENDBRANCH  12  13
ENDBRANCH  11  12
ENDBRANCH   1  11
TORSDOF 14
ENDMDL
