MODEL 1
REMARK VINA RESULT:     4.211      0.000      0.000
REMARK INTER + INTRA:          11.338
REMARK INTER:                  11.103
REMARK INTRA:                   0.235
REMARK UNBOUND:                 0.235
REMARK SMILES CCCCCCCCCCCCCCCCCCCCCCCCCCCCCC(=O)[O-]
REMARK SMILES IDX 16 1 17 2 18 3 19 4 20 5 21 6 22 7 23 8 24 9 25 10 26 11
REMARK SMILES IDX 27 12 28 13 29 14 30 15 31 16 32 17 15 18 14 19 13 20 12 21
REMARK SMILES IDX 11 22 10 23 9 24 8 25 7 26 6 27 5 28 4 29 3 30 2 31 1 32
REMARK H PARENT
REMARK Flexibility Score: inf
ROOT
ATOM      1  C   UNL     1       2.172 -36.942  20.278  1.00  0.00     0.000 C 
ENDROOT
BRANCH   1   2
ATOM      2  C   UNL     1       2.126 -35.713  21.204  1.00  0.00     0.000 C 
BRANCH   2   3
ATOM      3  C   UNL     1       3.430 -34.892  21.263  1.00  0.00     0.000 C 
BRANCH   3   4
ATOM      4  C   UNL     1       3.665 -34.128  22.582  1.00  0.00     0.000 C 
BRANCH   4   5
ATOM      5  C   UNL     1       5.143 -33.829  22.912  1.00  0.00     0.000 C 
BRANCH   5   6
ATOM      6  C   UNL     1       6.121 -34.980  22.616  1.00  0.00     0.000 C 
BRANCH   6   7
ATOM      7  C   UNL     1       5.970 -36.149  23.603  1.00  0.00     0.000 C 
BRANCH   7   8
ATOM      8  C   UNL     1       5.832 -35.690  25.064  1.00  0.00     0.000 C 
BRANCH   8   9
ATOM      9  C   UNL     1       5.523 -36.811  26.080  1.00  0.00     0.000 C 
BRANCH   9  10
ATOM     10  C   UNL     1       4.194 -37.555  25.854  1.00  0.00     0.000 C 
BRANCH  10  11
ATOM     11  C   UNL     1       3.432 -37.836  27.160  1.00  0.00     0.000 C 
BRANCH  11  12
ATOM     12  C   UNL     1       1.913 -37.621  27.024  1.00  0.00     0.000 C 
BRANCH  12  13
ATOM     13  C   UNL     1       1.407 -36.230  27.463  1.00  0.00     0.006 C 
BRANCH  13  14
ATOM     14  C   UNL     1       2.201 -35.588  28.612  1.00  0.00     0.053 C 
BRANCH  14  15
ATOM     15  C   UNL     1       1.387 -34.581  29.364  1.00  0.00     0.041 C 
ATOM     16  O   UNL     1       1.813 -34.105  30.449  1.00  0.00    -0.550 OA
ATOM     17  O   UNL     1       0.149 -34.180  28.873  1.00  0.00    -0.550 OA
ENDBRANCH  14  15
ENDBRANCH  13  14
ENDBRANCH  12  13
ENDBRANCH  11  12
ENDBRANCH  10  11
ENDBRANCH   9  10
ENDBRANCH   8   9
ENDBRANCH   7   8
ENDBRANCH   6   7
ENDBRANCH   5   6
ENDBRANCH   4   5
ENDBRANCH   3   4
ENDBRANCH   2   3
ENDBRANCH   1   2
BRANCH   1  18
ATOM     18  C   UNL     1       3.584 -37.540  20.150  1.00  0.00     0.000 C 
BRANCH  18  19
ATOM     19  C   UNL     1       4.397 -36.876  19.026  1.00  0.00     0.000 C 
BRANCH  19  20
ATOM     20  C   UNL     1       5.717 -36.277  19.543  1.00  0.00     0.000 C 
BRANCH  20  21
ATOM     21  C   UNL     1       5.855 -34.779  19.234  1.00  0.00     0.000 C 
BRANCH  21  22
ATOM     22  C   UNL     1       5.005 -34.336  18.026  1.00  0.00     0.000 C 
BRANCH  22  23
ATOM     23  C   UNL     1       4.513 -35.526  17.173  1.00  0.00     0.000 C 
BRANCH  23  24
ATOM     24  C   UNL     1       3.162 -35.286  16.470  1.00  0.00    -0.000 C 
BRANCH  24  25
ATOM     25  C   UNL     1       2.288 -36.537  16.273  1.00  0.00    -0.000 C 
BRANCH  25  26
ATOM     26  C   UNL     1       2.062 -36.883  14.791  1.00  0.00    -0.000 C 
BRANCH  26  27
ATOM     27  C   UNL     1       3.294 -36.593  13.914  1.00  0.00    -0.000 C 
BRANCH  27  28
ATOM     28  C   UNL     1       4.541 -37.437  14.241  1.00  0.00    -0.000 C 
BRANCH  28  29
ATOM     29  C   UNL     1       4.207 -38.906  14.548  1.00  0.00    -0.000 C 
BRANCH  29  30
ATOM     30  C   UNL     1       5.215 -39.853  13.875  1.00  0.00    -0.000 C 
BRANCH  30  31
ATOM     31  C   UNL     1       5.486 -41.116  14.709  1.00  0.00    -0.003 C 
ATOM     32  C   UNL     1       4.756 -42.348  14.174  1.00  0.00     0.004 C 
ENDBRANCH  30  31
ENDBRANCH  29  30
ENDBRANCH  28  29
ENDBRANCH  27  28
ENDBRANCH  26  27
ENDBRANCH  25  26
ENDBRANCH  24  25
ENDBRANCH  23  24
ENDBRANCH  22  23
ENDBRANCH  21  22
ENDBRANCH  20  21
ENDBRANCH  19  20
ENDBRANCH  18  19
ENDBRANCH   1  18
TORSDOF 28
ENDMDL
MODEL 2
REMARK VINA RESULT:     5.281      1.531      2.840
REMARK INTER + INTRA:          14.161
REMARK INTER:                  14.974
REMARK INTRA:                  -0.814
REMARK UNBOUND:                 0.235
REMARK SMILES CCCCCCCCCCCCCCCCCCCCCCCCCCCCCC(=O)[O-]
REMARK SMILES IDX 16 1 17 2 18 3 19 4 20 5 21 6 22 7 23 8 24 9 25 10 26 11
REMARK SMILES IDX 27 12 28 13 29 14 30 15 31 16 32 17 15 18 14 19 13 20 12 21
REMARK SMILES IDX 11 22 10 23 9 24 8 25 7 26 6 27 5 28 4 29 3 30 2 31 1 32
REMARK H PARENT
REMARK Flexibility Score: inf
ROOT
ATOM      1  C   UNL     1       4.877 -37.723  22.784  1.00  0.00     0.000 C 
ENDROOT
BRANCH   1   2
ATOM      2  C   UNL     1       6.125 -37.069  22.163  1.00  0.00     0.000 C 
BRANCH   2   3
ATOM      3  C   UNL     1       5.953 -35.591  21.759  1.00  0.00     0.000 C 
BRANCH   3   4
ATOM      4  C   UNL     1       5.122 -34.736  22.738  1.00  0.00     0.000 C 
BRANCH   4   5
ATOM      5  C   UNL     1       5.940 -33.784  23.636  1.00  0.00     0.000 C 
BRANCH   5   6
ATOM      6  C   UNL     1       6.088 -34.238  25.099  1.00  0.00     0.000 C 
BRANCH   6   7
ATOM      7  C   UNL     1       6.125 -35.768  25.239  1.00  0.00     0.000 C 
BRANCH   7   8
ATOM      8  C   UNL     1       4.748 -36.379  25.551  1.00  0.00     0.000 C 
BRANCH   8   9
ATOM      9  C   UNL     1       4.780 -37.796  26.162  1.00  0.00     0.000 C 
BRANCH   9  10
ATOM     10  C   UNL     1       3.628 -38.121  27.131  1.00  0.00     0.000 C 
BRANCH  10  11
ATOM     11  C   UNL     1       2.239 -37.845  26.531  1.00  0.00     0.000 C 
BRANCH  11  12
ATOM     12  C   UNL     1       1.240 -37.296  27.565  1.00  0.00     0.000 C 
BRANCH  12  13
ATOM     13  C   UNL     1       1.070 -35.762  27.562  1.00  0.00     0.006 C 
BRANCH  13  14
ATOM     14  C   UNL     1       2.014 -35.007  28.512  1.00  0.00     0.053 C 
BRANCH  14  15
ATOM     15  C   UNL     1       1.274 -34.361  29.643  1.00  0.00     0.041 C 
ATOM     16  O   UNL     1       0.076 -34.005  29.495  1.00  0.00    -0.550 OA
ATOM     17  O   UNL     1       1.916 -34.137  30.856  1.00  0.00    -0.550 OA
ENDBRANCH  14  15
ENDBRANCH  13  14
ENDBRANCH  12  13
ENDBRANCH  11  12
ENDBRANCH  10  11
ENDBRANCH   9  10
ENDBRANCH   8   9
ENDBRANCH   7   8
ENDBRANCH   6   7
ENDBRANCH   5   6
ENDBRANCH   4   5
ENDBRANCH   3   4
ENDBRANCH   2   3
ENDBRANCH   1   2
BRANCH   1  18
ATOM     18  C   UNL     1       4.932 -39.260  22.755  1.00  0.00     0.000 C 
BRANCH  18  19
ATOM     19  C   UNL     1       5.904 -39.789  21.687  1.00  0.00     0.000 C 
BRANCH  19  20
ATOM     20  C   UNL     1       5.304 -39.713  20.271  1.00  0.00     0.000 C 
BRANCH  20  21
ATOM     21  C   UNL     1       5.726 -38.446  19.512  1.00  0.00     0.000 C 
BRANCH  21  22
ATOM     22  C   UNL     1       4.534 -37.704  18.876  1.00  0.00     0.000 C 
BRANCH  22  23
ATOM     23  C   UNL     1       3.729 -36.876  19.901  1.00  0.00     0.000 C 
BRANCH  23  24
ATOM     24  C   UNL     1       2.248 -37.286  20.026  1.00  0.00    -0.000 C 
BRANCH  24  25
ATOM     25  C   UNL     1       1.714 -38.189  18.901  1.00  0.00    -0.000 C 
BRANCH  25  26
ATOM     26  C   UNL     1       1.061 -37.397  17.756  1.00  0.00    -0.000 C 
BRANCH  26  27
ATOM     27  C   UNL     1       2.029 -36.402  17.089  1.00  0.00    -0.000 C 
BRANCH  27  28
ATOM     28  C   UNL     1       1.720 -36.080  15.614  1.00  0.00    -0.000 C 
BRANCH  28  29
ATOM     29  C   UNL     1       2.981 -35.769  14.791  1.00  0.00    -0.000 C 
BRANCH  29  30
ATOM     30  C   UNL     1       4.008 -36.908  14.900  1.00  0.00    -0.000 C 
BRANCH  30  31
ATOM     31  C   UNL     1       3.749 -38.035  13.888  1.00  0.00    -0.003 C 
ATOM     32  C   UNL     1       4.789 -39.154  13.968  1.00  0.00     0.004 C 
ENDBRANCH  30  31
ENDBRANCH  29  30
ENDBRANCH  28  29
ENDBRANCH  27  28
ENDBRANCH  26  27
ENDBRANCH  25  26
ENDBRANCH  24  25
ENDBRANCH  23  24
ENDBRANCH  22  23
ENDBRANCH  21  22
ENDBRANCH  20  21
ENDBRANCH  19  20
ENDBRANCH  18  19
ENDBRANCH   1  18
TORSDOF 28
ENDMDL
MODEL 3
REMARK VINA RESULT:     5.787      3.059      9.786
REMARK INTER + INTRA:          15.493
REMARK INTER:                  16.326
REMARK INTRA:                  -0.833
REMARK UNBOUND:                 0.235
REMARK SMILES CCCCCCCCCCCCCCCCCCCCCCCCCCCCCC(=O)[O-]
REMARK SMILES IDX 16 1 17 2 18 3 19 4 20 5 21 6 22 7 23 8 24 9 25 10 26 11
REMARK SMILES IDX 27 12 28 13 29 14 30 15 31 16 32 17 15 18 14 19 13 20 12 21
REMARK SMILES IDX 11 22 10 23 9 24 8 25 7 26 6 27 5 28 4 29 3 30 2 31 1 32
REMARK H PARENT
REMARK Flexibility Score: inf
ROOT
ATOM      1  C   UNL     1       3.637 -35.251  21.899  1.00  0.00     0.000 C 
ENDROOT
BRANCH   1   2
ATOM      2  C   UNL     1       4.800 -34.242  21.893  1.00  0.00     0.000 C 
BRANCH   2   3
ATOM      3  C   UNL     1       6.121 -34.774  21.301  1.00  0.00     0.000 C 
BRANCH   3   4
ATOM      4  C   UNL     1       6.000 -35.426  19.909  1.00  0.00     0.000 C 
BRANCH   4   5
ATOM      5  C   UNL     1       6.125 -34.454  18.717  1.00  0.00     0.000 C 
BRANCH   5   6
ATOM      6  C   UNL     1       4.798 -33.840  18.237  1.00  0.00     0.000 C 
BRANCH   6   7
ATOM      7  C   UNL     1       3.939 -34.841  17.446  1.00  0.00     0.000 C 
BRANCH   7   8
ATOM      8  C   UNL     1       4.681 -36.149  17.124  1.00  0.00     0.000 C 
BRANCH   8   9
ATOM      9  C   UNL     1       3.776 -37.377  16.883  1.00  0.00     0.000 C 
BRANCH   9  10
ATOM     10  C   UNL     1       3.449 -37.673  15.408  1.00  0.00     0.000 C 
BRANCH  10  11
ATOM     11  C   UNL     1       2.726 -36.512  14.705  1.00  0.00     0.000 C 
BRANCH  11  12
ATOM     12  C   UNL     1       1.304 -36.279  15.245  1.00  0.00     0.000 C 
BRANCH  12  13
ATOM     13  C   UNL     1       1.176 -36.298  16.784  1.00  0.00     0.006 C 
BRANCH  13  14
ATOM     14  C   UNL     1       0.298 -37.428  17.344  1.00  0.00     0.053 C 
BRANCH  14  15
ATOM     15  C   UNL     1       0.693 -37.808  18.739  1.00  0.00     0.041 C 
ATOM     16  O   UNL     1       1.259 -38.911  18.959  1.00  0.00    -0.550 OA
ATOM     17  O   UNL     1       0.418 -36.949  19.798  1.00  0.00    -0.550 OA
ENDBRANCH  14  15
ENDBRANCH  13  14
ENDBRANCH  12  13
ENDBRANCH  11  12
ENDBRANCH  10  11
ENDBRANCH   9  10
ENDBRANCH   8   9
ENDBRANCH   7   8
ENDBRANCH   6   7
ENDBRANCH   5   6
ENDBRANCH   4   5
ENDBRANCH   3   4
ENDBRANCH   2   3
ENDBRANCH   1   2
BRANCH   1  18
ATOM     18  C   UNL     1       3.568 -36.090  20.611  1.00  0.00     0.000 C 
BRANCH  18  19
ATOM     19  C   UNL     1       3.587 -37.601  20.898  1.00  0.00     0.000 C 
BRANCH  19  20
ATOM     20  C   UNL     1       4.732 -38.316  20.158  1.00  0.00     0.000 C 
BRANCH  20  21
ATOM     21  C   UNL     1       5.850 -38.785  21.100  1.00  0.00     0.000 C 
BRANCH  21  22
ATOM     22  C   UNL     1       5.335 -39.688  22.239  1.00  0.00     0.000 C 
BRANCH  22  23
ATOM     23  C   UNL     1       5.448 -39.022  23.628  1.00  0.00     0.000 C 
BRANCH  23  24
ATOM     24  C   UNL     1       5.969 -37.573  23.597  1.00  0.00    -0.000 C 
BRANCH  24  25
ATOM     25  C   UNL     1       5.738 -36.759  24.881  1.00  0.00    -0.000 C 
BRANCH  25  26
ATOM     26  C   UNL     1       4.812 -37.470  25.883  1.00  0.00    -0.000 C 
BRANCH  26  27
ATOM     27  C   UNL     1       3.807 -36.513  26.552  1.00  0.00    -0.000 C 
BRANCH  27  28
ATOM     28  C   UNL     1       2.510 -37.175  27.055  1.00  0.00    -0.000 C 
BRANCH  28  29
ATOM     29  C   UNL     1       1.516 -36.168  27.656  1.00  0.00    -0.000 C 
BRANCH  29  30
ATOM     30  C   UNL     1       2.236 -35.151  28.556  1.00  0.00    -0.000 C 
BRANCH  30  31
ATOM     31  C   UNL     1       1.271 -34.391  29.479  1.00  0.00    -0.003 C 
ATOM     32  C   UNL     1      -0.165 -34.377  28.954  1.00  0.00     0.004 C 
ENDBRANCH  30  31
ENDBRANCH  29  30
ENDBRANCH  28  29
ENDBRANCH  27  28
ENDBRANCH  26  27
ENDBRANCH  25  26
ENDBRANCH  24  25
ENDBRANCH  23  24
ENDBRANCH  22  23
ENDBRANCH  21  22
ENDBRANCH  20  21
ENDBRANCH  19  20
ENDBRANCH  18  19
ENDBRANCH   1  18
TORSDOF 28
ENDMDL
MODEL 4
REMARK VINA RESULT:     6.614      3.358      9.866
REMARK INTER + INTRA:          17.675
REMARK INTER:                  16.090
REMARK INTRA:                   1.585
REMARK UNBOUND:                 0.235
REMARK SMILES CCCCCCCCCCCCCCCCCCCCCCCCCCCCCC(=O)[O-]
REMARK SMILES IDX 16 1 17 2 18 3 19 4 20 5 21 6 22 7 23 8 24 9 25 10 26 11
REMARK SMILES IDX 27 12 28 13 29 14 30 15 31 16 32 17 15 18 14 19 13 20 12 21
REMARK SMILES IDX 11 22 10 23 9 24 8 25 7 26 6 27 5 28 4 29 3 30 2 31 1 32
REMARK H PARENT
REMARK Flexibility Score: inf
ROOT
ATOM      1  C   UNL     1       5.409 -36.516  24.064  1.00  0.00     0.000 C 
ENDROOT
BRANCH   1   2
ATOM      2  C   UNL     1       6.088 -35.273  24.666  1.00  0.00     0.000 C 
BRANCH   2   3
ATOM      3  C   UNL     1       6.039 -34.011  23.781  1.00  0.00     0.000 C 
BRANCH   3   4
ATOM      4  C   UNL     1       5.833 -34.274  22.276  1.00  0.00     0.000 C 
BRANCH   4   5
ATOM      5  C   UNL     1       4.400 -34.681  21.872  1.00  0.00     0.000 C 
BRANCH   5   6
ATOM      6  C   UNL     1       4.256 -35.210  20.434  1.00  0.00     0.000 C 
BRANCH   6   7
ATOM      7  C   UNL     1       5.570 -35.124  19.641  1.00  0.00     0.000 C 
BRANCH   7   8
ATOM      8  C   UNL     1       5.443 -34.299  18.350  1.00  0.00     0.000 C 
BRANCH   8   9
ATOM      9  C   UNL     1       4.202 -34.615  17.487  1.00  0.00     0.000 C 
BRANCH   9  10
ATOM     10  C   UNL     1       4.164 -36.032  16.883  1.00  0.00     0.000 C 
BRANCH  10  11
ATOM     11  C   UNL     1       3.594 -36.063  15.455  1.00  0.00     0.000 C 
BRANCH  11  12
ATOM     12  C   UNL     1       2.098 -36.425  15.417  1.00  0.00     0.000 C 
BRANCH  12  13
ATOM     13  C   UNL     1       1.407 -36.501  16.795  1.00  0.00     0.006 C 
BRANCH  13  14
ATOM     14  C   UNL     1       2.200 -37.258  17.873  1.00  0.00     0.053 C 
BRANCH  14  15
ATOM     15  C   UNL     1       1.327 -37.699  19.008  1.00  0.00     0.041 C 
ATOM     16  O   UNL     1       1.837 -38.012  20.115  1.00  0.00    -0.550 OA
ATOM     17  O   UNL     1      -0.051 -37.779  18.835  1.00  0.00    -0.550 OA
ENDBRANCH  14  15
ENDBRANCH  13  14
ENDBRANCH  12  13
ENDBRANCH  11  12
ENDBRANCH  10  11
ENDBRANCH   9  10
ENDBRANCH   8   9
ENDBRANCH   7   8
ENDBRANCH   6   7
ENDBRANCH   5   6
ENDBRANCH   4   5
ENDBRANCH   3   4
ENDBRANCH   2   3
ENDBRANCH   1   2
BRANCH   1  18
ATOM     18  C   UNL     1       6.122 -37.035  22.804  1.00  0.00     0.000 C 
BRANCH  18  19
ATOM     19  C   UNL     1       5.230 -37.974  21.973  1.00  0.00     0.000 C 
BRANCH  19  20
ATOM     20  C   UNL     1       6.057 -38.931  21.097  1.00  0.00     0.000 C 
BRANCH  20  21
ATOM     21  C   UNL     1       6.125 -40.355  21.670  1.00  0.00     0.000 C 
BRANCH  21  22
ATOM     22  C   UNL     1       5.073 -40.610  22.768  1.00  0.00     0.000 C 
BRANCH  22  23
ATOM     23  C   UNL     1       5.665 -41.307  24.012  1.00  0.00     0.000 C 
BRANCH  23  24
ATOM     24  C   UNL     1       5.362 -40.593  25.344  1.00  0.00    -0.000 C 
BRANCH  24  25
ATOM     25  C   UNL     1       5.024 -39.096  25.231  1.00  0.00    -0.000 C 
BRANCH  25  26
ATOM     26  C   UNL     1       4.434 -38.515  26.527  1.00  0.00    -0.000 C 
BRANCH  26  27
ATOM     27  C   UNL     1       3.275 -37.534  26.269  1.00  0.00    -0.000 C 
BRANCH  27  28
ATOM     28  C   UNL     1       2.167 -37.538  27.340  1.00  0.00    -0.000 C 
BRANCH  28  29
ATOM     29  C   UNL     1       1.473 -36.174  27.490  1.00  0.00    -0.000 C 
BRANCH  29  30
ATOM     30  C   UNL     1       2.131 -35.338  28.599  1.00  0.00    -0.000 C 
BRANCH  30  31
ATOM     31  C   UNL     1       1.105 -34.723  29.564  1.00  0.00    -0.003 C 
ATOM     32  C   UNL     1       1.255 -33.207  29.702  1.00  0.00     0.004 C 
ENDBRANCH  30  31
ENDBRANCH  29  30
ENDBRANCH  28  29
ENDBRANCH  27  28
ENDBRANCH  26  27
ENDBRANCH  25  26
ENDBRANCH  24  25
ENDBRANCH  23  24
ENDBRANCH  22  23
ENDBRANCH  21  22
ENDBRANCH  20  21
ENDBRANCH  19  20
ENDBRANCH  18  19
ENDBRANCH   1  18
TORSDOF 28
ENDMDL
MODEL 5
REMARK VINA RESULT:     6.708      4.355     10.208
REMARK INTER + INTRA:          17.923
REMARK INTER:                  15.532
REMARK INTRA:                   2.391
REMARK UNBOUND:                 0.235
REMARK SMILES CCCCCCCCCCCCCCCCCCCCCCCCCCCCCC(=O)[O-]
REMARK SMILES IDX 16 1 17 2 18 3 19 4 20 5 21 6 22 7 23 8 24 9 25 10 26 11
REMARK SMILES IDX 27 12 28 13 29 14 30 15 31 16 32 17 15 18 14 19 13 20 12 21
REMARK SMILES IDX 11 22 10 23 9 24 8 25 7 26 6 27 5 28 4 29 3 30 2 31 1 32
REMARK H PARENT
REMARK Flexibility Score: inf
ROOT
ATOM      1  C   UNL     1       5.271 -36.920  22.369  1.00  0.00     0.000 C 
ENDROOT
BRANCH   1   2
ATOM      2  C   UNL     1       6.120 -36.272  23.478  1.00  0.00     0.000 C 
BRANCH   2   3
ATOM      3  C   UNL     1       5.965 -34.743  23.608  1.00  0.00     0.000 C 
BRANCH   3   4
ATOM      4  C   UNL     1       4.873 -34.118  22.716  1.00  0.00     0.000 C 
BRANCH   4   5
ATOM      5  C   UNL     1       4.614 -34.851  21.383  1.00  0.00     0.000 C 
BRANCH   5   6
ATOM      6  C   UNL     1       4.614 -33.951  20.135  1.00  0.00     0.000 C 
BRANCH   6   7
ATOM      7  C   UNL     1       5.136 -34.678  18.885  1.00  0.00     0.000 C 
BRANCH   7   8
ATOM      8  C   UNL     1       5.187 -36.206  19.054  1.00  0.00     0.000 C 
BRANCH   8   9
ATOM      9  C   UNL     1       4.066 -36.986  18.334  1.00  0.00     0.000 C 
BRANCH   9  10
ATOM     10  C   UNL     1       2.842 -37.331  19.202  1.00  0.00     0.000 C 
BRANCH  10  11
ATOM     11  C   UNL     1       1.695 -37.969  18.400  1.00  0.00     0.000 C 
BRANCH  11  12
ATOM     12  C   UNL     1       1.019 -36.979  17.434  1.00  0.00     0.000 C 
BRANCH  12  13
ATOM     13  C   UNL     1       1.972 -36.277  16.442  1.00  0.00     0.006 C 
BRANCH  13  14
ATOM     14  C   UNL     1       2.030 -36.914  15.044  1.00  0.00     0.053 C 
BRANCH  14  15
ATOM     15  C   UNL     1       3.433 -37.229  14.628  1.00  0.00     0.041 C 
ATOM     16  O   UNL     1       3.886 -38.397  14.759  1.00  0.00    -0.550 OA
ATOM     17  O   UNL     1       4.248 -36.227  14.112  1.00  0.00    -0.550 OA
ENDBRANCH  14  15
ENDBRANCH  13  14
ENDBRANCH  12  13
ENDBRANCH  11  12
ENDBRANCH  10  11
ENDBRANCH   9  10
ENDBRANCH   8   9
ENDBRANCH   7   8
ENDBRANCH   6   7
ENDBRANCH   5   6
ENDBRANCH   4   5
ENDBRANCH   3   4
ENDBRANCH   2   3
ENDBRANCH   1   2
BRANCH   1  18
ATOM     18  C   UNL     1       6.121 -37.657  21.320  1.00  0.00     0.000 C 
BRANCH  18  19
ATOM     19  C   UNL     1       5.701 -39.128  21.158  1.00  0.00     0.000 C 
BRANCH  19  20
ATOM     20  C   UNL     1       5.751 -39.894  22.492  1.00  0.00     0.000 C 
BRANCH  20  21
ATOM     21  C   UNL     1       6.026 -41.394  22.308  1.00  0.00     0.000 C 
BRANCH  21  22
ATOM     22  C   UNL     1       5.566 -42.239  23.512  1.00  0.00     0.000 C 
BRANCH  22  23
ATOM     23  C   UNL     1       5.554 -41.440  24.834  1.00  0.00     0.000 C 
BRANCH  23  24
ATOM     24  C   UNL     1       4.908 -40.045  24.726  1.00  0.00    -0.000 C 
BRANCH  24  25
ATOM     25  C   UNL     1       5.166 -39.103  25.915  1.00  0.00    -0.000 C 
BRANCH  25  26
ATOM     26  C   UNL     1       5.003 -37.618  25.550  1.00  0.00    -0.000 C 
BRANCH  26  27
ATOM     27  C   UNL     1       3.780 -36.968  26.223  1.00  0.00    -0.000 C 
BRANCH  27  28
ATOM     28  C   UNL     1       2.688 -37.952  26.684  1.00  0.00    -0.000 C 
BRANCH  28  29
ATOM     29  C   UNL     1       1.841 -37.407  27.847  1.00  0.00    -0.000 C 
BRANCH  29  30
ATOM     30  C   UNL     1       1.563 -35.906  27.672  1.00  0.00    -0.000 C 
BRANCH  30  31
ATOM     31  C   UNL     1       2.141 -35.060  28.818  1.00  0.00    -0.003 C 
ATOM     32  C   UNL     1       1.066 -34.293  29.588  1.00  0.00     0.004 C 
ENDBRANCH  30  31
ENDBRANCH  29  30
ENDBRANCH  28  29
ENDBRANCH  27  28
ENDBRANCH  26  27
ENDBRANCH  25  26
ENDBRANCH  24  25
ENDBRANCH  23  24
ENDBRANCH  22  23
ENDBRANCH  21  22
ENDBRANCH  20  21
ENDBRANCH  19  20
ENDBRANCH  18  19
ENDBRANCH   1  18
TORSDOF 28
ENDMDL
MODEL 6
REMARK VINA RESULT:     6.891      1.745      5.265
REMARK INTER + INTRA:          18.404
REMARK INTER:                  18.328
REMARK INTRA:                   0.076
REMARK UNBOUND:                 0.235
REMARK SMILES CCCCCCCCCCCCCCCCCCCCCCCCCCCCCC(=O)[O-]
REMARK SMILES IDX 16 1 17 2 18 3 19 4 20 5 21 6 22 7 23 8 24 9 25 10 26 11
REMARK SMILES IDX 27 12 28 13 29 14 30 15 31 16 32 17 15 18 14 19 13 20 12 21
REMARK SMILES IDX 11 22 10 23 9 24 8 25 7 26 6 27 5 28 4 29 3 30 2 31 1 32
REMARK H PARENT
REMARK Flexibility Score: inf
ROOT
ATOM      1  C   UNL     1       4.609 -34.965  18.539  1.00  0.00     0.000 C 
ENDROOT
BRANCH   1   2
ATOM      2  C   UNL     1       5.992 -35.424  19.036  1.00  0.00     0.000 C 
BRANCH   2   3
ATOM      3  C   UNL     1       5.965 -36.425  20.208  1.00  0.00     0.000 C 
BRANCH   3   4
ATOM      4  C   UNL     1       5.846 -37.907  19.801  1.00  0.00     0.000 C 
BRANCH   4   5
ATOM      5  C   UNL     1       5.072 -38.800  20.795  1.00  0.00     0.000 C 
BRANCH   5   6
ATOM      6  C   UNL     1       5.859 -39.202  22.056  1.00  0.00     0.000 C 
BRANCH   6   7
ATOM      7  C   UNL     1       6.124 -38.009  22.988  1.00  0.00     0.000 C 
BRANCH   7   8
ATOM      8  C   UNL     1       4.963 -37.732  23.958  1.00  0.00     0.000 C 
BRANCH   8   9
ATOM      9  C   UNL     1       5.063 -38.443  25.325  1.00  0.00     0.000 C 
BRANCH   9  10
ATOM     10  C   UNL     1       4.589 -37.615  26.534  1.00  0.00     0.000 C 
BRANCH  10  11
ATOM     11  C   UNL     1       3.236 -36.923  26.296  1.00  0.00     0.000 C 
BRANCH  11  12
ATOM     12  C   UNL     1       2.082 -37.583  27.072  1.00  0.00     0.000 C 
BRANCH  12  13
ATOM     13  C   UNL     1       1.447 -36.707  28.173  1.00  0.00     0.006 C 
BRANCH  13  14
ATOM     14  C   UNL     1       2.061 -35.305  28.315  1.00  0.00     0.053 C 
BRANCH  14  15
ATOM     15  C   UNL     1       1.377 -34.496  29.373  1.00  0.00     0.041 C 
ATOM     16  O   UNL     1       0.171 -34.160  29.233  1.00  0.00    -0.550 OA
ATOM     17  O   UNL     1       2.077 -34.098  30.507  1.00  0.00    -0.550 OA
ENDBRANCH  14  15
ENDBRANCH  13  14
ENDBRANCH  12  13
ENDBRANCH  11  12
ENDBRANCH  10  11
ENDBRANCH   9  10
ENDBRANCH   8   9
ENDBRANCH   7   8
ENDBRANCH   6   7
ENDBRANCH   5   6
ENDBRANCH   4   5
ENDBRANCH   3   4
ENDBRANCH   2   3
ENDBRANCH   1   2
BRANCH   1  18
ATOM     18  C   UNL     1       4.290 -35.460  17.119  1.00  0.00     0.000 C 
BRANCH  18  19
ATOM     19  C   UNL     1       3.872 -36.941  17.098  1.00  0.00     0.000 C 
BRANCH  19  20
ATOM     20  C   UNL     1       3.357 -37.377  15.714  1.00  0.00     0.000 C 
BRANCH  20  21
ATOM     21  C   UNL     1       2.288 -36.429  15.150  1.00  0.00     0.000 C 
BRANCH  21  22
ATOM     22  C   UNL     1       1.468 -35.727  16.250  1.00  0.00     0.000 C 
BRANCH  22  23
ATOM     23  C   UNL     1       0.491 -36.682  16.969  1.00  0.00     0.000 C 
BRANCH  23  24
ATOM     24  C   UNL     1       1.151 -37.590  18.025  1.00  0.00    -0.000 C 
BRANCH  24  25
ATOM     25  C   UNL     1       0.956 -37.153  19.487  1.00  0.00    -0.000 C 
BRANCH  25  26
ATOM     26  C   UNL     1       2.177 -37.460  20.372  1.00  0.00    -0.000 C 
BRANCH  26  27
ATOM     27  C   UNL     1       3.043 -36.217  20.649  1.00  0.00    -0.000 C 
BRANCH  27  28
ATOM     28  C   UNL     1       2.511 -35.283  21.753  1.00  0.00    -0.000 C 
BRANCH  28  29
ATOM     29  C   UNL     1       3.532 -34.216  22.180  1.00  0.00    -0.000 C 
BRANCH  29  30
ATOM     30  C   UNL     1       4.951 -34.803  22.244  1.00  0.00    -0.000 C 
BRANCH  30  31
ATOM     31  C   UNL     1       5.854 -34.061  23.242  1.00  0.00    -0.003 C 
ATOM     32  C   UNL     1       5.751 -34.617  24.662  1.00  0.00     0.004 C 
ENDBRANCH  30  31
ENDBRANCH  29  30
ENDBRANCH  28  29
ENDBRANCH  27  28
ENDBRANCH  26  27
ENDBRANCH  25  26
ENDBRANCH  24  25
ENDBRANCH  23  24
ENDBRANCH  22  23
ENDBRANCH  21  22
ENDBRANCH  20  21
ENDBRANCH  19  20
ENDBRANCH  18  19
ENDBRANCH   1  18
TORSDOF 28
ENDMDL
MODEL 7
REMARK VINA RESULT:     6.905      1.258      2.360
REMARK INTER + INTRA:          18.443
REMARK INTER:                  18.475
REMARK INTRA:                  -0.032
REMARK UNBOUND:                 0.235
REMARK SMILES CCCCCCCCCCCCCCCCCCCCCCCCCCCCCC(=O)[O-]
REMARK SMILES IDX 16 1 17 2 18 3 19 4 20 5 21 6 22 7 23 8 24 9 25 10 26 11
REMARK SMILES IDX 27 12 28 13 29 14 30 15 31 16 32 17 15 18 14 19 13 20 12 21
REMARK SMILES IDX 11 22 10 23 9 24 8 25 7 26 6 27 5 28 4 29 3 30 2 31 1 32
REMARK H PARENT
REMARK Flexibility Score: inf
ROOT
ATOM      1  C   UNL     1       1.127 -36.712  20.463  1.00  0.00     0.000 C 
ENDROOT
BRANCH   1   2
ATOM      2  C   UNL     1       1.641 -35.753  21.553  1.00  0.00     0.000 C 
BRANCH   2   3
ATOM      3  C   UNL     1       3.023 -35.129  21.272  1.00  0.00     0.000 C 
BRANCH   3   4
ATOM      4  C   UNL     1       3.650 -34.367  22.457  1.00  0.00     0.000 C 
BRANCH   4   5
ATOM      5  C   UNL     1       5.192 -34.410  22.522  1.00  0.00     0.000 C 
BRANCH   5   6
ATOM      6  C   UNL     1       5.800 -33.909  23.844  1.00  0.00     0.000 C 
BRANCH   6   7
ATOM      7  C   UNL     1       6.038 -35.047  24.850  1.00  0.00     0.000 C 
BRANCH   7   8
ATOM      8  C   UNL     1       5.648 -36.429  24.301  1.00  0.00     0.000 C 
BRANCH   8   9
ATOM      9  C   UNL     1       5.627 -37.569  25.342  1.00  0.00     0.000 C 
BRANCH   9  10
ATOM     10  C   UNL     1       4.718 -37.330  26.561  1.00  0.00     0.000 C 
BRANCH  10  11
ATOM     11  C   UNL     1       3.222 -37.479  26.236  1.00  0.00     0.000 C 
BRANCH  11  12
ATOM     12  C   UNL     1       2.340 -37.542  27.497  1.00  0.00     0.000 C 
BRANCH  12  13
ATOM     13  C   UNL     1       1.452 -36.302  27.738  1.00  0.00     0.006 C 
BRANCH  13  14
ATOM     14  C   UNL     1       2.179 -35.101  28.363  1.00  0.00     0.053 C 
BRANCH  14  15
ATOM     15  C   UNL     1       1.374 -34.461  29.451  1.00  0.00     0.041 C 
ATOM     16  O   UNL     1       0.169 -34.155  29.251  1.00  0.00    -0.550 OA
ATOM     17  O   UNL     1       1.961 -34.186  30.682  1.00  0.00    -0.550 OA
ENDBRANCH  14  15
ENDBRANCH  13  14
ENDBRANCH  12  13
ENDBRANCH  11  12
ENDBRANCH  10  11
ENDBRANCH   9  10
ENDBRANCH   8   9
ENDBRANCH   7   8
ENDBRANCH   6   7
ENDBRANCH   5   6
ENDBRANCH   4   5
ENDBRANCH   3   4
ENDBRANCH   2   3
ENDBRANCH   1   2
BRANCH   1  18
ATOM     18  C   UNL     1       2.229 -37.628  19.906  1.00  0.00     0.000 C 
BRANCH  18  19
ATOM     19  C   UNL     1       3.527 -37.544  20.728  1.00  0.00     0.000 C 
BRANCH  19  20
ATOM     20  C   UNL     1       4.671 -38.351  20.086  1.00  0.00     0.000 C 
BRANCH  20  21
ATOM     21  C   UNL     1       5.867 -37.475  19.686  1.00  0.00     0.000 C 
BRANCH  21  22
ATOM     22  C   UNL     1       6.125 -36.323  20.678  1.00  0.00     0.000 C 
BRANCH  22  23
ATOM     23  C   UNL     1       6.125 -34.937  19.999  1.00  0.00     0.000 C 
BRANCH  23  24
ATOM     24  C   UNL     1       5.714 -34.958  18.513  1.00  0.00    -0.000 C 
BRANCH  24  25
ATOM     25  C   UNL     1       4.459 -34.141  18.162  1.00  0.00    -0.000 C 
BRANCH  25  26
ATOM     26  C   UNL     1       4.014 -34.324  16.701  1.00  0.00    -0.000 C 
BRANCH  26  27
ATOM     27  C   UNL     1       2.847 -35.318  16.551  1.00  0.00    -0.000 C 
BRANCH  27  28
ATOM     28  C   UNL     1       3.201 -36.789  16.841  1.00  0.00    -0.000 C 
BRANCH  28  29
ATOM     29  C   UNL     1       2.661 -37.758  15.777  1.00  0.00    -0.000 C 
BRANCH  29  30
ATOM     30  C   UNL     1       3.788 -38.631  15.202  1.00  0.00    -0.000 C 
BRANCH  30  31
ATOM     31  C   UNL     1       4.374 -38.059  13.902  1.00  0.00    -0.003 C 
ATOM     32  C   UNL     1       4.416 -36.531  13.893  1.00  0.00     0.004 C 
ENDBRANCH  30  31
ENDBRANCH  29  30
ENDBRANCH  28  29
ENDBRANCH  27  28
ENDBRANCH  26  27
ENDBRANCH  25  26
ENDBRANCH  24  25
ENDBRANCH  23  24
ENDBRANCH  22  23
ENDBRANCH  21  22
ENDBRANCH  20  21
ENDBRANCH  19  20
ENDBRANCH  18  19
ENDBRANCH   1  18
TORSDOF 28
ENDMDL
