MODEL 1
REMARK VINA RESULT:    -4.181      0.000      0.000
REMARK INTER + INTRA:         -13.994
REMARK INTER:                 -11.026
REMARK INTRA:                  -2.969
REMARK UNBOUND:                -2.969
REMARK SMILES CCCCCCCCCCCCCCCCCCCCCCCCCCCCCC(=O)[O-]
REMARK SMILES IDX 16 1 17 2 18 3 19 4 20 5 21 6 22 7 23 8 24 9 25 10 26 11
REMARK SMILES IDX 27 12 28 13 29 14 30 15 31 16 32 17 15 18 14 19 13 20 12 21
REMARK SMILES IDX 11 22 10 23 9 24 8 25 7 26 6 27 5 28 4 29 3 30 2 31 1 32
REMARK H PARENT
REMARK Flexibility Score: inf
ROOT
ATOM      1  C   UNL     1      -1.126   6.046 -54.152  1.00  0.00     0.000 C 
ENDROOT
BRANCH   1   2
ATOM      2  C   UNL     1      -0.128   6.744 -53.216  1.00  0.00     0.000 C 
BRANCH   2   3
ATOM      3  C   UNL     1      -0.127   6.100 -51.824  1.00  0.00     0.000 C 
BRANCH   3   4
ATOM      4  C   UNL     1      -1.269   5.080 -51.694  1.00  0.00     0.000 C 
BRANCH   4   5
ATOM      5  C   UNL     1      -2.019   5.202 -50.359  1.00  0.00     0.000 C 
BRANCH   5   6
ATOM      6  C   UNL     1      -1.083   5.554 -49.190  1.00  0.00     0.000 C 
BRANCH   6   7
ATOM      7  C   UNL     1      -1.850   5.814 -47.884  1.00  0.00     0.000 C 
BRANCH   7   8
ATOM      8  C   UNL     1      -3.360   6.002 -48.115  1.00  0.00     0.000 C 
BRANCH   8   9
ATOM      9  C   UNL     1      -4.071   6.616 -46.900  1.00  0.00     0.000 C 
BRANCH   9  10
ATOM     10  C   UNL     1      -4.504   8.074 -47.136  1.00  0.00     0.000 C 
BRANCH  10  11
ATOM     11  C   UNL     1      -5.000   8.760 -45.853  1.00  0.00     0.000 C 
BRANCH  11  12
ATOM     12  C   UNL     1      -3.864   9.449 -45.074  1.00  0.00     0.000 C 
BRANCH  12  13
ATOM     13  C   UNL     1      -3.129  10.506 -45.912  1.00  0.00     0.006 C 
BRANCH  13  14
ATOM     14  C   UNL     1      -2.745  11.750 -45.096  1.00  0.00     0.053 C 
BRANCH  14  15
ATOM     15  C   UNL     1      -1.733  12.575 -45.828  1.00  0.00     0.041 C 
ATOM     16  O   UNL     1      -1.152  12.112 -46.846  1.00  0.00    -0.550 OA
ATOM     17  O   UNL     1      -1.424  13.856 -45.382  1.00  0.00    -0.550 OA
ENDBRANCH  14  15
ENDBRANCH  13  14
ENDBRANCH  12  13
ENDBRANCH  11  12
ENDBRANCH  10  11
ENDBRANCH   9  10
ENDBRANCH   8   9
ENDBRANCH   7   8
ENDBRANCH   6   7
ENDBRANCH   5   6
ENDBRANCH   4   5
ENDBRANCH   3   4
ENDBRANCH   2   3
ENDBRANCH   1   2
BRANCH   1  18
ATOM     18  C   UNL     1      -0.441   5.342 -55.335  1.00  0.00     0.000 C 
BRANCH  18  19
ATOM     19  C   UNL     1      -1.430   4.943 -56.439  1.00  0.00     0.000 C 
BRANCH  19  20
ATOM     20  C   UNL     1      -2.876   5.246 -56.029  1.00  0.00     0.000 C 
BRANCH  20  21
ATOM     21  C   UNL     1      -3.843   4.919 -57.176  1.00  0.00     0.000 C 
BRANCH  21  22
ATOM     22  C   UNL     1      -5.299   5.286 -56.855  1.00  0.00     0.000 C 
BRANCH  22  23
ATOM     23  C   UNL     1      -5.494   6.798 -56.627  1.00  0.00     0.000 C 
BRANCH  23  24
ATOM     24  C   UNL     1      -5.856   7.553 -57.922  1.00  0.00    -0.000 C 
BRANCH  24  25
ATOM     25  C   UNL     1      -5.066   8.855 -58.133  1.00  0.00    -0.000 C 
BRANCH  25  26
ATOM     26  C   UNL     1      -3.590   8.747 -57.712  1.00  0.00    -0.000 C 
BRANCH  26  27
ATOM     27  C   UNL     1      -2.636   8.706 -58.917  1.00  0.00    -0.000 C 
BRANCH  27  28
ATOM     28  C   UNL     1      -1.639   7.536 -58.844  1.00  0.00    -0.000 C 
BRANCH  28  29
ATOM     29  C   UNL     1      -2.004   6.395 -59.808  1.00  0.00    -0.000 C 
BRANCH  29  30
ATOM     30  C   UNL     1      -3.433   6.533 -60.362  1.00  0.00    -0.000 C 
BRANCH  30  31
ATOM     31  C   UNL     1      -3.964   5.220 -60.955  1.00  0.00    -0.003 C 
ATOM     32  C   UNL     1      -4.225   5.315 -62.457  1.00  0.00     0.004 C 
ENDBRANCH  30  31
ENDBRANCH  29  30
ENDBRANCH  28  29
ENDBRANCH  27  28
ENDBRANCH  26  27
ENDBRANCH  25  26
ENDBRANCH  24  25
ENDBRANCH  23  24
ENDBRANCH  22  23
ENDBRANCH  21  22
ENDBRANCH  20  21
ENDBRANCH  19  20
ENDBRANCH  18  19
ENDBRANCH   1  18
TORSDOF 28
ENDMDL
MODEL 2
REMARK VINA RESULT:    -3.969      1.536      3.221
REMARK INTER + INTRA:         -13.435
REMARK INTER:                 -10.658
REMARK INTRA:                  -2.778
REMARK UNBOUND:                -2.969
REMARK SMILES CCCCCCCCCCCCCCCCCCCCCCCCCCCCCC(=O)[O-]
REMARK SMILES IDX 16 1 17 2 18 3 19 4 20 5 21 6 22 7 23 8 24 9 25 10 26 11
REMARK SMILES IDX 27 12 28 13 29 14 30 15 31 16 32 17 15 18 14 19 13 20 12 21
REMARK SMILES IDX 11 22 10 23 9 24 8 25 7 26 6 27 5 28 4 29 3 30 2 31 1 32
REMARK H PARENT
REMARK Flexibility Score: inf
ROOT
ATOM      1  C   UNL     1      -1.367   4.950 -52.376  1.00  0.00     0.000 C 
ENDROOT
BRANCH   1   2
ATOM      2  C   UNL     1      -1.287   5.375 -50.902  1.00  0.00     0.000 C 
BRANCH   2   3
ATOM      3  C   UNL     1       0.147   5.748 -50.508  1.00  0.00     0.000 C 
BRANCH   3   4
ATOM      4  C   UNL     1       0.257   5.967 -48.991  1.00  0.00     0.000 C 
BRANCH   4   5
ATOM      5  C   UNL     1      -1.030   5.583 -48.246  1.00  0.00     0.000 C 
BRANCH   5   6
ATOM      6  C   UNL     1      -1.348   6.546 -47.089  1.00  0.00     0.000 C 
BRANCH   6   7
ATOM      7  C   UNL     1      -2.794   6.406 -46.589  1.00  0.00     0.000 C 
BRANCH   7   8
ATOM      8  C   UNL     1      -3.751   5.910 -47.689  1.00  0.00     0.000 C 
BRANCH   8   9
ATOM      9  C   UNL     1      -5.190   6.406 -47.485  1.00  0.00     0.000 C 
BRANCH   9  10
ATOM     10  C   UNL     1      -5.403   7.843 -47.991  1.00  0.00     0.000 C 
BRANCH  10  11
ATOM     11  C   UNL     1      -5.372   8.880 -46.857  1.00  0.00     0.000 C 
BRANCH  11  12
ATOM     12  C   UNL     1      -4.125   9.782 -46.915  1.00  0.00     0.000 C 
BRANCH  12  13
ATOM     13  C   UNL     1      -3.399   9.876 -45.564  1.00  0.00     0.006 C 
BRANCH  13  14
ATOM     14  C   UNL     1      -2.797  11.266 -45.308  1.00  0.00     0.053 C 
BRANCH  14  15
ATOM     15  C   UNL     1      -1.502  11.427 -46.041  1.00  0.00     0.041 C 
ATOM     16  O   UNL     1      -1.426  12.202 -47.032  1.00  0.00    -0.550 OA
ATOM     17  O   UNL     1      -0.377  10.717 -45.634  1.00  0.00    -0.550 OA
ENDBRANCH  14  15
ENDBRANCH  13  14
ENDBRANCH  12  13
ENDBRANCH  11  12
ENDBRANCH  10  11
ENDBRANCH   9  10
ENDBRANCH   8   9
ENDBRANCH   7   8
ENDBRANCH   6   7
ENDBRANCH   5   6
ENDBRANCH   4   5
ENDBRANCH   3   4
ENDBRANCH   2   3
ENDBRANCH   1   2
BRANCH   1  18
ATOM     18  C   UNL     1      -1.858   6.080 -53.296  1.00  0.00     0.000 C 
BRANCH  18  19
ATOM     19  C   UNL     1      -0.704   6.872 -53.927  1.00  0.00     0.000 C 
BRANCH  19  20
ATOM     20  C   UNL     1       0.313   5.938 -54.595  1.00  0.00     0.000 C 
BRANCH  20  21
ATOM     21  C   UNL     1      -0.386   5.003 -55.592  1.00  0.00     0.000 C 
BRANCH  21  22
ATOM     22  C   UNL     1      -0.046   5.324 -57.055  1.00  0.00     0.000 C 
BRANCH  22  23
ATOM     23  C   UNL     1      -1.153   4.883 -58.033  1.00  0.00     0.000 C 
BRANCH  23  24
ATOM     24  C   UNL     1      -2.156   6.013 -58.344  1.00  0.00    -0.000 C 
BRANCH  24  25
ATOM     25  C   UNL     1      -2.788   6.654 -57.098  1.00  0.00    -0.000 C 
BRANCH  25  26
ATOM     26  C   UNL     1      -3.861   5.771 -56.437  1.00  0.00    -0.000 C 
BRANCH  26  27
ATOM     27  C   UNL     1      -4.603   4.887 -57.453  1.00  0.00    -0.000 C 
BRANCH  27  28
ATOM     28  C   UNL     1      -5.792   5.610 -58.110  1.00  0.00    -0.000 C 
BRANCH  28  29
ATOM     29  C   UNL     1      -6.322   6.767 -57.248  1.00  0.00    -0.000 C 
BRANCH  29  30
ATOM     30  C   UNL     1      -6.415   8.088 -58.034  1.00  0.00    -0.000 C 
BRANCH  30  31
ATOM     31  C   UNL     1      -5.202   8.999 -57.799  1.00  0.00    -0.003 C 
ATOM     32  C   UNL     1      -4.356   9.190 -59.057  1.00  0.00     0.004 C 
ENDBRANCH  30  31
ENDBRANCH  29  30
ENDBRANCH  28  29
ENDBRANCH  27  28
ENDBRANCH  26  27
ENDBRANCH  25  26
ENDBRANCH  24  25
ENDBRANCH  23  24
ENDBRANCH  22  23
ENDBRANCH  21  22
ENDBRANCH  20  21
ENDBRANCH  19  20
ENDBRANCH  18  19
ENDBRANCH   1  18
TORSDOF 28
ENDMDL
MODEL 3
REMARK VINA RESULT:    -3.655      3.105      4.333
REMARK INTER + INTRA:         -12.606
REMARK INTER:                 -10.226
REMARK INTRA:                  -2.380
REMARK UNBOUND:                -2.969
REMARK SMILES CCCCCCCCCCCCCCCCCCCCCCCCCCCCCC(=O)[O-]
REMARK SMILES IDX 16 1 17 2 18 3 19 4 20 5 21 6 22 7 23 8 24 9 25 10 26 11
REMARK SMILES IDX 27 12 28 13 29 14 30 15 31 16 32 17 15 18 14 19 13 20 12 21
REMARK SMILES IDX 11 22 10 23 9 24 8 25 7 26 6 27 5 28 4 29 3 30 2 31 1 32
REMARK H PARENT
REMARK Flexibility Score: inf
ROOT
ATOM      1  C   UNL     1      -0.906   6.512 -53.702  1.00  0.00     0.000 C 
ENDROOT
BRANCH   1   2
ATOM      2  C   UNL     1      -0.370   6.518 -52.263  1.00  0.00     0.000 C 
BRANCH   2   3
ATOM      3  C   UNL     1      -0.745   5.227 -51.524  1.00  0.00     0.000 C 
BRANCH   3   4
ATOM      4  C   UNL     1       0.076   5.079 -50.234  1.00  0.00     0.000 C 
BRANCH   4   5
ATOM      5  C   UNL     1      -0.569   5.797 -49.039  1.00  0.00     0.000 C 
BRANCH   5   6
ATOM      6  C   UNL     1       0.425   6.029 -47.887  1.00  0.00     0.000 C 
BRANCH   6   7
ATOM      7  C   UNL     1      -0.105   7.031 -46.849  1.00  0.00     0.000 C 
BRANCH   7   8
ATOM      8  C   UNL     1      -1.429   6.574 -46.212  1.00  0.00     0.000 C 
BRANCH   8   9
ATOM      9  C   UNL     1      -2.010   7.617 -45.246  1.00  0.00     0.000 C 
BRANCH   9  10
ATOM     10  C   UNL     1      -3.475   7.970 -45.559  1.00  0.00     0.000 C 
BRANCH  10  11
ATOM     11  C   UNL     1      -3.742   8.107 -47.067  1.00  0.00     0.000 C 
BRANCH  11  12
ATOM     12  C   UNL     1      -5.085   8.796 -47.369  1.00  0.00     0.000 C 
BRANCH  12  13
ATOM     13  C   UNL     1      -6.060   7.884 -48.130  1.00  0.00     0.006 C 
BRANCH  13  14
ATOM     14  C   UNL     1      -6.400   6.602 -47.355  1.00  0.00     0.053 C 
BRANCH  14  15
ATOM     15  C   UNL     1      -7.272   5.702 -48.175  1.00  0.00     0.041 C 
ATOM     16  O   UNL     1      -6.895   5.317 -49.314  1.00  0.00    -0.550 OA
ATOM     17  O   UNL     1      -8.507   5.290 -47.683  1.00  0.00    -0.550 OA
ENDBRANCH  14  15
ENDBRANCH  13  14
ENDBRANCH  12  13
ENDBRANCH  11  12
ENDBRANCH  10  11
ENDBRANCH   9  10
ENDBRANCH   8   9
ENDBRANCH   7   8
ENDBRANCH   6   7
ENDBRANCH   5   6
ENDBRANCH   4   5
ENDBRANCH   3   4
ENDBRANCH   2   3
ENDBRANCH   1   2
BRANCH   1  18
ATOM     18  C   UNL     1      -0.794   5.133 -54.373  1.00  0.00     0.000 C 
BRANCH  18  19
ATOM     19  C   UNL     1      -1.764   4.970 -55.552  1.00  0.00     0.000 C 
BRANCH  19  20
ATOM     20  C   UNL     1      -1.086   5.313 -56.884  1.00  0.00     0.000 C 
BRANCH  20  21
ATOM     21  C   UNL     1      -1.964   4.875 -58.066  1.00  0.00     0.000 C 
BRANCH  21  22
ATOM     22  C   UNL     1      -1.639   5.627 -59.365  1.00  0.00     0.000 C 
BRANCH  22  23
ATOM     23  C   UNL     1      -2.509   6.884 -59.557  1.00  0.00     0.000 C 
BRANCH  23  24
ATOM     24  C   UNL     1      -1.853   8.156 -58.983  1.00  0.00    -0.000 C 
BRANCH  24  25
ATOM     25  C   UNL     1      -2.808   9.354 -58.854  1.00  0.00    -0.000 C 
BRANCH  25  26
ATOM     26  C   UNL     1      -4.265   8.944 -58.577  1.00  0.00    -0.000 C 
BRANCH  26  27
ATOM     27  C   UNL     1      -4.552   8.772 -57.076  1.00  0.00    -0.000 C 
BRANCH  27  28
ATOM     28  C   UNL     1      -4.067   7.417 -56.532  1.00  0.00    -0.000 C 
BRANCH  28  29
ATOM     29  C   UNL     1      -5.212   6.400 -56.391  1.00  0.00    -0.000 C 
BRANCH  29  30
ATOM     30  C   UNL     1      -5.907   6.113 -57.734  1.00  0.00    -0.000 C 
BRANCH  30  31
ATOM     31  C   UNL     1      -7.430   6.291 -57.659  1.00  0.00    -0.003 C 
ATOM     32  C   UNL     1      -7.883   7.679 -58.112  1.00  0.00     0.004 C 
ENDBRANCH  30  31
ENDBRANCH  29  30
ENDBRANCH  28  29
ENDBRANCH  27  28
ENDBRANCH  26  27
ENDBRANCH  25  26
ENDBRANCH  24  25
ENDBRANCH  23  24
ENDBRANCH  22  23
ENDBRANCH  21  22
ENDBRANCH  20  21
ENDBRANCH  19  20
ENDBRANCH  18  19
ENDBRANCH   1  18
TORSDOF 28
ENDMDL
MODEL 4
REMARK VINA RESULT:    -3.512      2.375      3.176
REMARK INTER + INTRA:         -12.229
REMARK INTER:                  -8.665
REMARK INTRA:                  -3.564
REMARK UNBOUND:                -2.969
REMARK SMILES CCCCCCCCCCCCCCCCCCCCCCCCCCCCCC(=O)[O-]
REMARK SMILES IDX 16 1 17 2 18 3 19 4 20 5 21 6 22 7 23 8 24 9 25 10 26 11
REMARK SMILES IDX 27 12 28 13 29 14 30 15 31 16 32 17 15 18 14 19 13 20 12 21
REMARK SMILES IDX 11 22 10 23 9 24 8 25 7 26 6 27 5 28 4 29 3 30 2 31 1 32
REMARK H PARENT
REMARK Flexibility Score: inf
ROOT
ATOM      1  C   UNL     1      -1.181   7.131 -54.561  1.00  0.00     0.000 C 
ENDROOT
BRANCH   1   2
ATOM      2  C   UNL     1      -0.327   7.188 -53.286  1.00  0.00     0.000 C 
BRANCH   2   3
ATOM      3  C   UNL     1       0.219   5.802 -52.920  1.00  0.00     0.000 C 
BRANCH   3   4
ATOM      4  C   UNL     1      -0.825   4.995 -52.134  1.00  0.00     0.000 C 
BRANCH   4   5
ATOM      5  C   UNL     1      -1.115   5.595 -50.750  1.00  0.00     0.000 C 
BRANCH   5   6
ATOM      6  C   UNL     1       0.164   5.802 -49.920  1.00  0.00     0.000 C 
BRANCH   6   7
ATOM      7  C   UNL     1      -0.122   5.884 -48.413  1.00  0.00     0.000 C 
BRANCH   7   8
ATOM      8  C   UNL     1       1.058   5.382 -47.561  1.00  0.00     0.000 C 
BRANCH   8   9
ATOM      9  C   UNL     1       0.875   5.680 -46.065  1.00  0.00     0.000 C 
BRANCH   9  10
ATOM     10  C   UNL     1      -0.605   5.741 -45.646  1.00  0.00     0.000 C 
BRANCH  10  11
ATOM     11  C   UNL     1      -0.976   7.075 -44.979  1.00  0.00     0.000 C 
BRANCH  11  12
ATOM     12  C   UNL     1      -2.462   7.435 -45.164  1.00  0.00     0.000 C 
BRANCH  12  13
ATOM     13  C   UNL     1      -3.137   6.611 -46.271  1.00  0.00     0.006 C 
BRANCH  13  14
ATOM     14  C   UNL     1      -3.604   7.474 -47.453  1.00  0.00     0.053 C 
BRANCH  14  15
ATOM     15  C   UNL     1      -5.093   7.418 -47.597  1.00  0.00     0.041 C 
ATOM     16  O   UNL     1      -5.751   8.472 -47.804  1.00  0.00    -0.550 OA
ATOM     17  O   UNL     1      -5.758   6.200 -47.496  1.00  0.00    -0.550 OA
ENDBRANCH  14  15
ENDBRANCH  13  14
ENDBRANCH  12  13
ENDBRANCH  11  12
ENDBRANCH  10  11
ENDBRANCH   9  10
ENDBRANCH   8   9
ENDBRANCH   7   8
ENDBRANCH   6   7
ENDBRANCH   5   6
ENDBRANCH   4   5
ENDBRANCH   3   4
ENDBRANCH   2   3
ENDBRANCH   1   2
BRANCH   1  18
ATOM     18  C   UNL     1      -0.565   6.237 -55.651  1.00  0.00     0.000 C 
BRANCH  18  19
ATOM     19  C   UNL     1      -1.433   5.011 -55.968  1.00  0.00     0.000 C 
BRANCH  19  20
ATOM     20  C   UNL     1      -2.924   5.323 -55.795  1.00  0.00     0.000 C 
BRANCH  20  21
ATOM     21  C   UNL     1      -3.718   4.875 -57.031  1.00  0.00     0.000 C 
BRANCH  21  22
ATOM     22  C   UNL     1      -5.230   5.097 -56.886  1.00  0.00     0.000 C 
BRANCH  22  23
ATOM     23  C   UNL     1      -5.603   6.588 -56.765  1.00  0.00     0.000 C 
BRANCH  23  24
ATOM     24  C   UNL     1      -6.337   7.121 -58.011  1.00  0.00    -0.000 C 
BRANCH  24  25
ATOM     25  C   UNL     1      -6.064   8.602 -58.318  1.00  0.00    -0.000 C 
BRANCH  25  26
ATOM     26  C   UNL     1      -4.959   9.212 -57.437  1.00  0.00    -0.000 C 
BRANCH  26  27
ATOM     27  C   UNL     1      -3.622   9.351 -58.182  1.00  0.00    -0.000 C 
BRANCH  27  28
ATOM     28  C   UNL     1      -2.756   8.083 -58.085  1.00  0.00    -0.000 C 
BRANCH  28  29
ATOM     29  C   UNL     1      -1.963   7.816 -59.375  1.00  0.00    -0.000 C 
BRANCH  29  30
ATOM     30  C   UNL     1      -1.915   6.320 -59.733  1.00  0.00    -0.000 C 
BRANCH  30  31
ATOM     31  C   UNL     1      -2.831   5.966 -60.913  1.00  0.00    -0.003 C 
ATOM     32  C   UNL     1      -4.208   5.478 -60.463  1.00  0.00     0.004 C 
ENDBRANCH  30  31
ENDBRANCH  29  30
ENDBRANCH  28  29
ENDBRANCH  27  28
ENDBRANCH  26  27
ENDBRANCH  25  26
ENDBRANCH  24  25
ENDBRANCH  23  24
ENDBRANCH  22  23
ENDBRANCH  21  22
ENDBRANCH  20  21
ENDBRANCH  19  20
ENDBRANCH  18  19
ENDBRANCH   1  18
TORSDOF 28
ENDMDL
MODEL 5
REMARK VINA RESULT:    -3.220      1.450      2.747
REMARK INTER + INTRA:         -11.460
REMARK INTER:                  -9.312
REMARK INTRA:                  -2.148
REMARK UNBOUND:                -2.969
REMARK SMILES CCCCCCCCCCCCCCCCCCCCCCCCCCCCCC(=O)[O-]
REMARK SMILES IDX 16 1 17 2 18 3 19 4 20 5 21 6 22 7 23 8 24 9 25 10 26 11
REMARK SMILES IDX 27 12 28 13 29 14 30 15 31 16 32 17 15 18 14 19 13 20 12 21
REMARK SMILES IDX 11 22 10 23 9 24 8 25 7 26 6 27 5 28 4 29 3 30 2 31 1 32
REMARK H PARENT
REMARK Flexibility Score: inf
ROOT
ATOM      1  C   UNL     1      -1.024   6.606 -53.640  1.00  0.00     0.000 C 
ENDROOT
BRANCH   1   2
ATOM      2  C   UNL     1      -0.405   6.524 -52.236  1.00  0.00     0.000 C 
BRANCH   2   3
ATOM      3  C   UNL     1      -0.466   5.094 -51.685  1.00  0.00     0.000 C 
BRANCH   3   4
ATOM      4  C   UNL     1       0.150   5.024 -50.280  1.00  0.00     0.000 C 
BRANCH   4   5
ATOM      5  C   UNL     1      -0.741   5.677 -49.212  1.00  0.00     0.000 C 
BRANCH   5   6
ATOM      6  C   UNL     1      -0.133   5.583 -47.802  1.00  0.00     0.000 C 
BRANCH   6   7
ATOM      7  C   UNL     1      -1.090   6.099 -46.716  1.00  0.00     0.000 C 
BRANCH   7   8
ATOM      8  C   UNL     1      -2.404   5.299 -46.660  1.00  0.00     0.000 C 
BRANCH   8   9
ATOM      9  C   UNL     1      -3.353   5.799 -45.560  1.00  0.00     0.000 C 
BRANCH   9  10
ATOM     10  C   UNL     1      -4.458   6.723 -46.101  1.00  0.00     0.000 C 
BRANCH  10  11
ATOM     11  C   UNL     1      -3.941   7.704 -47.165  1.00  0.00     0.000 C 
BRANCH  11  12
ATOM     12  C   UNL     1      -4.544   9.113 -47.012  1.00  0.00     0.000 C 
BRANCH  12  13
ATOM     13  C   UNL     1      -3.577  10.100 -46.338  1.00  0.00     0.006 C 
BRANCH  13  14
ATOM     14  C   UNL     1      -2.455   9.395 -45.562  1.00  0.00     0.053 C 
BRANCH  14  15
ATOM     15  C   UNL     1      -1.212  10.230 -45.549  1.00  0.00     0.041 C 
ATOM     16  O   UNL     1      -0.093   9.709 -45.800  1.00  0.00    -0.550 OA
ATOM     17  O   UNL     1      -1.288  11.587 -45.251  1.00  0.00    -0.550 OA
ENDBRANCH  14  15
ENDBRANCH  13  14
ENDBRANCH  12  13
ENDBRANCH  11  12
ENDBRANCH  10  11
ENDBRANCH   9  10
ENDBRANCH   8   9
ENDBRANCH   7   8
ENDBRANCH   6   7
ENDBRANCH   5   6
ENDBRANCH   4   5
ENDBRANCH   3   4
ENDBRANCH   2   3
ENDBRANCH   1   2
BRANCH   1  18
ATOM     18  C   UNL     1      -1.049   5.248 -54.361  1.00  0.00     0.000 C 
BRANCH  18  19
ATOM     19  C   UNL     1      -2.058   5.211 -55.517  1.00  0.00     0.000 C 
BRANCH  19  20
ATOM     20  C   UNL     1      -1.376   5.495 -56.861  1.00  0.00     0.000 C 
BRANCH  20  21
ATOM     21  C   UNL     1      -2.196   4.905 -58.018  1.00  0.00     0.000 C 
BRANCH  21  22
ATOM     22  C   UNL     1      -1.820   5.498 -59.383  1.00  0.00     0.000 C 
BRANCH  22  23
ATOM     23  C   UNL     1      -2.572   6.809 -59.688  1.00  0.00     0.000 C 
BRANCH  23  24
ATOM     24  C   UNL     1      -2.133   7.972 -58.775  1.00  0.00    -0.000 C 
BRANCH  24  25
ATOM     25  C   UNL     1      -3.068   9.193 -58.818  1.00  0.00    -0.000 C 
BRANCH  25  26
ATOM     26  C   UNL     1      -4.542   8.822 -59.059  1.00  0.00    -0.000 C 
BRANCH  26  27
ATOM     27  C   UNL     1      -5.317   8.611 -57.749  1.00  0.00    -0.000 C 
BRANCH  27  28
ATOM     28  C   UNL     1      -4.710   7.501 -56.874  1.00  0.00    -0.000 C 
BRANCH  28  29
ATOM     29  C   UNL     1      -5.729   6.401 -56.533  1.00  0.00    -0.000 C 
BRANCH  29  30
ATOM     30  C   UNL     1      -5.608   5.182 -57.466  1.00  0.00    -0.000 C 
BRANCH  30  31
ATOM     31  C   UNL     1      -6.917   4.875 -58.207  1.00  0.00    -0.003 C 
ATOM     32  C   UNL     1      -8.104   5.665 -57.657  1.00  0.00     0.004 C 
ENDBRANCH  30  31
ENDBRANCH  29  30
ENDBRANCH  28  29
ENDBRANCH  27  28
ENDBRANCH  26  27
ENDBRANCH  25  26
ENDBRANCH  24  25
ENDBRANCH  23  24
ENDBRANCH  22  23
ENDBRANCH  21  22
ENDBRANCH  20  21
ENDBRANCH  19  20
ENDBRANCH  18  19
ENDBRANCH   1  18
TORSDOF 28
ENDMDL
MODEL 6
REMARK VINA RESULT:    -3.188      1.860      4.625
REMARK INTER + INTRA:         -11.374
REMARK INTER:                  -9.042
REMARK INTRA:                  -2.332
REMARK UNBOUND:                -2.969
REMARK SMILES CCCCCCCCCCCCCCCCCCCCCCCCCCCCCC(=O)[O-]
REMARK SMILES IDX 16 1 17 2 18 3 19 4 20 5 21 6 22 7 23 8 24 9 25 10 26 11
REMARK SMILES IDX 27 12 28 13 29 14 30 15 31 16 32 17 15 18 14 19 13 20 12 21
REMARK SMILES IDX 11 22 10 23 9 24 8 25 7 26 6 27 5 28 4 29 3 30 2 31 1 32
REMARK H PARENT
REMARK Flexibility Score: inf
ROOT
ATOM      1  C   UNL     1      -3.493   4.929 -49.951  1.00  0.00     0.000 C 
ENDROOT
BRANCH   1   2
ATOM      2  C   UNL     1      -4.646   5.054 -48.943  1.00  0.00     0.000 C 
BRANCH   2   3
ATOM      3  C   UNL     1      -5.118   6.507 -48.815  1.00  0.00     0.000 C 
BRANCH   3   4
ATOM      4  C   UNL     1      -6.053   6.672 -47.606  1.00  0.00     0.000 C 
BRANCH   4   5
ATOM      5  C   UNL     1      -6.573   5.328 -47.075  1.00  0.00     0.000 C 
BRANCH   5   6
ATOM      6  C   UNL     1      -6.139   5.062 -45.623  1.00  0.00     0.000 C 
BRANCH   6   7
ATOM      7  C   UNL     1      -4.611   5.057 -45.461  1.00  0.00     0.000 C 
BRANCH   7   8
ATOM      8  C   UNL     1      -4.075   6.385 -44.894  1.00  0.00     0.000 C 
BRANCH   8   9
ATOM      9  C   UNL     1      -2.940   6.974 -45.744  1.00  0.00     0.000 C 
BRANCH   9  10
ATOM     10  C   UNL     1      -2.205   8.128 -45.040  1.00  0.00     0.000 C 
BRANCH  10  11
ATOM     11  C   UNL     1      -3.073   9.390 -44.909  1.00  0.00     0.000 C 
BRANCH  11  12
ATOM     12  C   UNL     1      -3.407  10.023 -46.272  1.00  0.00     0.000 C 
BRANCH  12  13
ATOM     13  C   UNL     1      -3.106  11.529 -46.315  1.00  0.00     0.006 C 
BRANCH  13  14
ATOM     14  C   UNL     1      -1.604  11.831 -46.428  1.00  0.00     0.053 C 
BRANCH  14  15
ATOM     15  C   UNL     1      -1.210  12.923 -45.482  1.00  0.00     0.041 C 
ATOM     16  O   UNL     1      -2.080  13.710 -45.022  1.00  0.00    -0.550 OA
ATOM     17  O   UNL     1       0.123  13.077 -45.112  1.00  0.00    -0.550 OA
ENDBRANCH  14  15
ENDBRANCH  13  14
ENDBRANCH  12  13
ENDBRANCH  11  12
ENDBRANCH  10  11
ENDBRANCH   9  10
ENDBRANCH   8   9
ENDBRANCH   7   8
ENDBRANCH   6   7
ENDBRANCH   5   6
ENDBRANCH   4   5
ENDBRANCH   3   4
ENDBRANCH   2   3
ENDBRANCH   1   2
BRANCH   1  18
ATOM     18  C   UNL     1      -2.159   5.457 -49.397  1.00  0.00     0.000 C 
BRANCH  18  19
ATOM     19  C   UNL     1      -0.970   5.132 -50.312  1.00  0.00     0.000 C 
BRANCH  19  20
ATOM     20  C   UNL     1      -1.428   4.875 -51.752  1.00  0.00     0.000 C 
BRANCH  20  21
ATOM     21  C   UNL     1      -1.497   6.192 -52.540  1.00  0.00     0.000 C 
BRANCH  21  22
ATOM     22  C   UNL     1      -0.112   6.773 -52.859  1.00  0.00     0.000 C 
BRANCH  22  23
ATOM     23  C   UNL     1       0.216   6.734 -54.364  1.00  0.00     0.000 C 
BRANCH  23  24
ATOM     24  C   UNL     1       0.291   5.297 -54.920  1.00  0.00    -0.000 C 
BRANCH  24  25
ATOM     25  C   UNL     1      -0.771   4.978 -55.985  1.00  0.00    -0.000 C 
BRANCH  25  26
ATOM     26  C   UNL     1      -0.263   5.166 -57.425  1.00  0.00    -0.000 C 
BRANCH  26  27
ATOM     27  C   UNL     1      -1.397   5.496 -58.410  1.00  0.00    -0.000 C 
BRANCH  27  28
ATOM     28  C   UNL     1      -2.635   6.087 -57.713  1.00  0.00    -0.000 C 
BRANCH  28  29
ATOM     29  C   UNL     1      -2.553   7.616 -57.574  1.00  0.00    -0.000 C 
BRANCH  29  30
ATOM     30  C   UNL     1      -3.656   8.179 -56.659  1.00  0.00    -0.000 C 
BRANCH  30  31
ATOM     31  C   UNL     1      -4.976   8.416 -57.406  1.00  0.00    -0.003 C 
ATOM     32  C   UNL     1      -4.769   9.039 -58.786  1.00  0.00     0.004 C 
ENDBRANCH  30  31
ENDBRANCH  29  30
ENDBRANCH  28  29
ENDBRANCH  27  28
ENDBRANCH  26  27
ENDBRANCH  25  26
ENDBRANCH  24  25
ENDBRANCH  23  24
ENDBRANCH  22  23
ENDBRANCH  21  22
ENDBRANCH  20  21
ENDBRANCH  19  20
ENDBRANCH  18  19
ENDBRANCH   1  18
TORSDOF 28
ENDMDL
MODEL 7
REMARK VINA RESULT:    -3.028      3.523     10.613
REMARK INTER + INTRA:         -10.952
REMARK INTER:                  -9.764
REMARK INTRA:                  -1.188
REMARK UNBOUND:                -2.969
REMARK SMILES CCCCCCCCCCCCCCCCCCCCCCCCCCCCCC(=O)[O-]
REMARK SMILES IDX 16 1 17 2 18 3 19 4 20 5 21 6 22 7 23 8 24 9 25 10 26 11
REMARK SMILES IDX 27 12 28 13 29 14 30 15 31 16 32 17 15 18 14 19 13 20 12 21
REMARK SMILES IDX 11 22 10 23 9 24 8 25 7 26 6 27 5 28 4 29 3 30 2 31 1 32
REMARK H PARENT
REMARK Flexibility Score: inf
ROOT
ATOM      1  C   UNL     1      -2.175   5.366 -54.088  1.00  0.00     0.000 C 
ENDROOT
BRANCH   1   2
ATOM      2  C   UNL     1      -1.523   4.894 -55.396  1.00  0.00     0.000 C 
BRANCH   2   3
ATOM      3  C   UNL     1      -1.806   5.871 -56.543  1.00  0.00     0.000 C 
BRANCH   3   4
ATOM      4  C   UNL     1      -0.531   6.143 -57.356  1.00  0.00     0.000 C 
BRANCH   4   5
ATOM      5  C   UNL     1      -0.831   6.692 -58.759  1.00  0.00     0.000 C 
BRANCH   5   6
ATOM      6  C   UNL     1      -1.682   5.723 -59.598  1.00  0.00     0.000 C 
BRANCH   6   7
ATOM      7  C   UNL     1      -2.994   6.363 -60.081  1.00  0.00     0.000 C 
BRANCH   7   8
ATOM      8  C   UNL     1      -4.203   5.426 -59.908  1.00  0.00     0.000 C 
BRANCH   8   9
ATOM      9  C   UNL     1      -4.378   4.950 -58.458  1.00  0.00     0.000 C 
BRANCH   9  10
ATOM     10  C   UNL     1      -5.849   4.946 -58.004  1.00  0.00     0.000 C 
BRANCH  10  11
ATOM     11  C   UNL     1      -6.213   6.180 -57.163  1.00  0.00     0.000 C 
BRANCH  11  12
ATOM     12  C   UNL     1      -6.571   7.401 -58.029  1.00  0.00     0.000 C 
BRANCH  12  13
ATOM     13  C   UNL     1      -5.758   8.651 -57.657  1.00  0.00     0.006 C 
BRANCH  13  14
ATOM     14  C   UNL     1      -4.769   9.065 -58.757  1.00  0.00     0.053 C 
BRANCH  14  15
ATOM     15  C   UNL     1      -3.404   9.295 -58.185  1.00  0.00     0.041 C 
ATOM     16  O   UNL     1      -2.491   9.787 -58.901  1.00  0.00    -0.550 OA
ATOM     17  O   UNL     1      -3.137   8.961 -56.861  1.00  0.00    -0.550 OA
ENDBRANCH  14  15
ENDBRANCH  13  14
ENDBRANCH  12  13
ENDBRANCH  11  12
ENDBRANCH  10  11
ENDBRANCH   9  10
ENDBRANCH   8   9
ENDBRANCH   7   8
ENDBRANCH   6   7
ENDBRANCH   5   6
ENDBRANCH   4   5
ENDBRANCH   3   4
ENDBRANCH   2   3
ENDBRANCH   1   2
BRANCH   1  18
ATOM     18  C   UNL     1      -1.450   6.569 -53.461  1.00  0.00     0.000 C 
BRANCH  18  19
ATOM     19  C   UNL     1      -0.110   6.183 -52.820  1.00  0.00     0.000 C 
BRANCH  19  20
ATOM     20  C   UNL     1      -0.228   4.875 -52.028  1.00  0.00     0.000 C 
BRANCH  20  21
ATOM     21  C   UNL     1      -0.534   5.163 -50.551  1.00  0.00     0.000 C 
BRANCH  21  22
ATOM     22  C   UNL     1       0.723   5.171 -49.668  1.00  0.00     0.000 C 
BRANCH  22  23
ATOM     23  C   UNL     1       0.575   6.082 -48.434  1.00  0.00     0.000 C 
BRANCH  23  24
ATOM     24  C   UNL     1      -0.860   6.093 -47.871  1.00  0.00    -0.000 C 
BRANCH  24  25
ATOM     25  C   UNL     1      -1.092   7.128 -46.757  1.00  0.00    -0.000 C 
BRANCH  25  26
ATOM     26  C   UNL     1      -2.403   6.906 -45.983  1.00  0.00    -0.000 C 
BRANCH  26  27
ATOM     27  C   UNL     1      -3.188   5.686 -46.493  1.00  0.00    -0.000 C 
BRANCH  27  28
ATOM     28  C   UNL     1      -3.151   5.557 -48.026  1.00  0.00    -0.000 C 
BRANCH  28  29
ATOM     29  C   UNL     1      -4.533   5.768 -48.665  1.00  0.00    -0.000 C 
BRANCH  29  30
ATOM     30  C   UNL     1      -5.514   6.476 -47.713  1.00  0.00    -0.000 C 
BRANCH  30  31
ATOM     31  C   UNL     1      -6.965   6.414 -48.211  1.00  0.00    -0.003 C 
ATOM     32  C   UNL     1      -7.246   5.172 -49.056  1.00  0.00     0.004 C 
ENDBRANCH  30  31
ENDBRANCH  29  30
ENDBRANCH  28  29
ENDBRANCH  27  28
ENDBRANCH  26  27
ENDBRANCH  25  26
ENDBRANCH  24  25
ENDBRANCH  23  24
ENDBRANCH  22  23
ENDBRANCH  21  22
ENDBRANCH  20  21
ENDBRANCH  19  20
ENDBRANCH  18  19
ENDBRANCH   1  18
TORSDOF 28
ENDMDL
MODEL 8
REMARK VINA RESULT:    -3.009      3.303     11.209
REMARK INTER + INTRA:         -10.903
REMARK INTER:                  -8.588
REMARK INTRA:                  -2.315
REMARK UNBOUND:                -2.969
REMARK SMILES CCCCCCCCCCCCCCCCCCCCCCCCCCCCCC(=O)[O-]
REMARK SMILES IDX 16 1 17 2 18 3 19 4 20 5 21 6 22 7 23 8 24 9 25 10 26 11
REMARK SMILES IDX 27 12 28 13 29 14 30 15 31 16 32 17 15 18 14 19 13 20 12 21
REMARK SMILES IDX 11 22 10 23 9 24 8 25 7 26 6 27 5 28 4 29 3 30 2 31 1 32
REMARK H PARENT
REMARK Flexibility Score: inf
ROOT
ATOM      1  C   UNL     1      -1.912   6.615 -54.970  1.00  0.00     0.000 C 
ENDROOT
BRANCH   1   2
ATOM      2  C   UNL     1      -1.245   6.063 -56.239  1.00  0.00     0.000 C 
BRANCH   2   3
ATOM      3  C   UNL     1      -0.770   7.196 -57.157  1.00  0.00     0.000 C 
BRANCH   3   4
ATOM      4  C   UNL     1      -0.521   6.677 -58.581  1.00  0.00     0.000 C 
BRANCH   4   5
ATOM      5  C   UNL     1      -1.753   6.826 -59.487  1.00  0.00     0.000 C 
BRANCH   5   6
ATOM      6  C   UNL     1      -2.542   5.513 -59.627  1.00  0.00     0.000 C 
BRANCH   6   7
ATOM      7  C   UNL     1      -3.955   5.735 -60.188  1.00  0.00     0.000 C 
BRANCH   7   8
ATOM      8  C   UNL     1      -5.027   4.954 -59.407  1.00  0.00     0.000 C 
BRANCH   8   9
ATOM      9  C   UNL     1      -4.789   4.982 -57.889  1.00  0.00     0.000 C 
BRANCH   9  10
ATOM     10  C   UNL     1      -6.094   4.883 -57.079  1.00  0.00     0.000 C 
BRANCH  10  11
ATOM     11  C   UNL     1      -6.761   6.251 -56.862  1.00  0.00     0.000 C 
BRANCH  11  12
ATOM     12  C   UNL     1      -6.832   7.086 -58.154  1.00  0.00     0.000 C 
BRANCH  12  13
ATOM     13  C   UNL     1      -6.329   8.524 -57.958  1.00  0.00     0.006 C 
BRANCH  13  14
ATOM     14  C   UNL     1      -4.886   8.583 -57.434  1.00  0.00     0.053 C 
BRANCH  14  15
ATOM     15  C   UNL     1      -4.018   9.382 -58.355  1.00  0.00     0.041 C 
ATOM     16  O   UNL     1      -2.956   9.909 -57.929  1.00  0.00    -0.550 OA
ATOM     17  O   UNL     1      -4.385   9.551 -59.687  1.00  0.00    -0.550 OA
ENDBRANCH  14  15
ENDBRANCH  13  14
ENDBRANCH  12  13
ENDBRANCH  11  12
ENDBRANCH  10  11
ENDBRANCH   9  10
ENDBRANCH   8   9
ENDBRANCH   7   8
ENDBRANCH   6   7
ENDBRANCH   5   6
ENDBRANCH   4   5
ENDBRANCH   3   4
ENDBRANCH   2   3
ENDBRANCH   1   2
BRANCH   1  18
ATOM     18  C   UNL     1      -0.903   6.902 -53.845  1.00  0.00     0.000 C 
BRANCH  18  19
ATOM     19  C   UNL     1      -0.488   5.633 -53.086  1.00  0.00     0.000 C 
BRANCH  19  20
ATOM     20  C   UNL     1      -1.654   5.068 -52.266  1.00  0.00     0.000 C 
BRANCH  20  21
ATOM     21  C   UNL     1      -1.628   5.625 -50.835  1.00  0.00     0.000 C 
BRANCH  21  22
ATOM     22  C   UNL     1      -0.583   4.939 -49.943  1.00  0.00     0.000 C 
BRANCH  22  23
ATOM     23  C   UNL     1      -0.682   5.376 -48.469  1.00  0.00     0.000 C 
BRANCH  23  24
ATOM     24  C   UNL     1      -2.091   5.873 -48.089  1.00  0.00    -0.000 C 
BRANCH  24  25
ATOM     25  C   UNL     1      -2.217   6.361 -46.636  1.00  0.00    -0.000 C 
BRANCH  25  26
ATOM     26  C   UNL     1      -3.666   6.671 -46.221  1.00  0.00    -0.000 C 
BRANCH  26  27
ATOM     27  C   UNL     1      -4.050   8.137 -46.479  1.00  0.00    -0.000 C 
BRANCH  27  28
ATOM     28  C   UNL     1      -4.382   8.899 -45.184  1.00  0.00    -0.000 C 
BRANCH  28  29
ATOM     29  C   UNL     1      -3.363  10.009 -44.881  1.00  0.00    -0.000 C 
BRANCH  29  30
ATOM     30  C   UNL     1      -2.762  10.617 -46.162  1.00  0.00    -0.000 C 
BRANCH  30  31
ATOM     31  C   UNL     1      -1.299  11.045 -45.981  1.00  0.00    -0.003 C 
ATOM     32  C   UNL     1      -1.045  12.482 -46.434  1.00  0.00     0.004 C 
ENDBRANCH  30  31
ENDBRANCH  29  30
ENDBRANCH  28  29
ENDBRANCH  27  28
ENDBRANCH  26  27
ENDBRANCH  25  26
ENDBRANCH  24  25
ENDBRANCH  23  24
ENDBRANCH  22  23
ENDBRANCH  21  22
ENDBRANCH  20  21
ENDBRANCH  19  20
ENDBRANCH  18  19
ENDBRANCH   1  18
TORSDOF 28
ENDMDL
MODEL 9
REMARK VINA RESULT:    -2.591      1.464      2.024
REMARK INTER + INTRA:          -9.800
REMARK INTER:                  -7.873
REMARK INTRA:                  -1.928
REMARK UNBOUND:                -2.969
REMARK SMILES CCCCCCCCCCCCCCCCCCCCCCCCCCCCCC(=O)[O-]
REMARK SMILES IDX 16 1 17 2 18 3 19 4 20 5 21 6 22 7 23 8 24 9 25 10 26 11
REMARK SMILES IDX 27 12 28 13 29 14 30 15 31 16 32 17 15 18 14 19 13 20 12 21
REMARK SMILES IDX 11 22 10 23 9 24 8 25 7 26 6 27 5 28 4 29 3 30 2 31 1 32
REMARK H PARENT
REMARK Flexibility Score: inf
ROOT
ATOM      1  C   UNL     1      -0.513   7.511 -54.477  1.00  0.00     0.000 C 
ENDROOT
BRANCH   1   2
ATOM      2  C   UNL     1      -0.002   7.115 -53.084  1.00  0.00     0.000 C 
BRANCH   2   3
ATOM      3  C   UNL     1       0.304   5.614 -53.009  1.00  0.00     0.000 C 
BRANCH   3   4
ATOM      4  C   UNL     1      -0.780   4.876 -52.208  1.00  0.00     0.000 C 
BRANCH   4   5
ATOM      5  C   UNL     1      -1.067   5.540 -50.854  1.00  0.00     0.000 C 
BRANCH   5   6
ATOM      6  C   UNL     1       0.172   5.577 -49.943  1.00  0.00     0.000 C 
BRANCH   6   7
ATOM      7  C   UNL     1      -0.189   5.844 -48.473  1.00  0.00     0.000 C 
BRANCH   7   8
ATOM      8  C   UNL     1       0.799   5.182 -47.495  1.00  0.00     0.000 C 
BRANCH   8   9
ATOM      9  C   UNL     1       0.791   5.846 -46.110  1.00  0.00     0.000 C 
BRANCH   9  10
ATOM     10  C   UNL     1      -0.525   6.585 -45.809  1.00  0.00     0.000 C 
BRANCH  10  11
ATOM     11  C   UNL     1      -0.419   8.101 -46.040  1.00  0.00     0.000 C 
BRANCH  11  12
ATOM     12  C   UNL     1      -1.797   8.778 -46.164  1.00  0.00     0.000 C 
BRANCH  12  13
ATOM     13  C   UNL     1      -2.050   9.811 -45.055  1.00  0.00     0.006 C 
BRANCH  13  14
ATOM     14  C   UNL     1      -2.704  11.097 -45.581  1.00  0.00     0.053 C 
BRANCH  14  15
ATOM     15  C   UNL     1      -1.668  12.132 -45.891  1.00  0.00     0.041 C 
ATOM     16  O   UNL     1      -1.251  12.280 -47.072  1.00  0.00    -0.550 OA
ATOM     17  O   UNL     1      -1.155  12.932 -44.875  1.00  0.00    -0.550 OA
ENDBRANCH  14  15
ENDBRANCH  13  14
ENDBRANCH  12  13
ENDBRANCH  11  12
ENDBRANCH  10  11
ENDBRANCH   9  10
ENDBRANCH   8   9
ENDBRANCH   7   8
ENDBRANCH   6   7
ENDBRANCH   5   6
ENDBRANCH   4   5
ENDBRANCH   3   4
ENDBRANCH   2   3
ENDBRANCH   1   2
BRANCH   1  18
ATOM     18  C   UNL     1      -0.138   6.487 -55.562  1.00  0.00     0.000 C 
BRANCH  18  19
ATOM     19  C   UNL     1      -1.014   5.227 -55.513  1.00  0.00     0.000 C 
BRANCH  19  20
ATOM     20  C   UNL     1      -2.503   5.586 -55.445  1.00  0.00     0.000 C 
BRANCH  20  21
ATOM     21  C   UNL     1      -3.256   5.000 -56.648  1.00  0.00     0.000 C 
BRANCH  21  22
ATOM     22  C   UNL     1      -4.776   4.951 -56.439  1.00  0.00     0.000 C 
BRANCH  22  23
ATOM     23  C   UNL     1      -5.424   6.350 -56.470  1.00  0.00     0.000 C 
BRANCH  23  24
ATOM     24  C   UNL     1      -6.369   6.540 -57.673  1.00  0.00    -0.000 C 
BRANCH  24  25
ATOM     25  C   UNL     1      -6.180   7.873 -58.417  1.00  0.00    -0.000 C 
BRANCH  25  26
ATOM     26  C   UNL     1      -4.990   8.697 -57.896  1.00  0.00    -0.000 C 
BRANCH  26  27
ATOM     27  C   UNL     1      -3.765   8.611 -58.822  1.00  0.00    -0.000 C 
BRANCH  27  28
ATOM     28  C   UNL     1      -2.529   8.029 -58.116  1.00  0.00    -0.000 C 
BRANCH  28  29
ATOM     29  C   UNL     1      -1.480   7.505 -59.111  1.00  0.00    -0.000 C 
BRANCH  29  30
ATOM     30  C   UNL     1      -1.837   6.110 -59.656  1.00  0.00    -0.000 C 
BRANCH  30  31
ATOM     31  C   UNL     1      -3.077   6.132 -60.561  1.00  0.00    -0.003 C 
ATOM     32  C   UNL     1      -3.935   4.875 -60.415  1.00  0.00     0.004 C 
ENDBRANCH  30  31
ENDBRANCH  29  30
ENDBRANCH  28  29
ENDBRANCH  27  28
ENDBRANCH  26  27
ENDBRANCH  25  26
ENDBRANCH  24  25
ENDBRANCH  23  24
ENDBRANCH  22  23
ENDBRANCH  21  22
ENDBRANCH  20  21
ENDBRANCH  19  20
ENDBRANCH  18  19
ENDBRANCH   1  18
TORSDOF 28
ENDMDL
