MODEL 1
REMARK VINA RESULT:     3.749      0.000      0.000
REMARK INTER + INTRA:           5.490
REMARK INTER:                   7.036
REMARK INTRA:                  -1.546
REMARK UNBOUND:                -1.546
REMARK SMILES CCCCCCCCC=CCCCCCCCC(=O)[O-]
REMARK SMILES IDX 10 1 9 2 11 3 12 4 13 5 14 6 15 7 16 8 17 9 18 10 19 11
REMARK SMILES IDX 20 12 8 13 7 14 6 15 5 16 4 17 3 18 2 19 1 20
REMARK H PARENT
REMARK Flexibility Score: inf
ROOT
ATOM      1  C   UNL     1      12.059  22.352  34.133  1.00  0.00    -0.031 C 
ATOM      2  C   UNL     1      11.724  21.952  32.897  1.00  0.00    -0.031 C 
ENDROOT
BRANCH   1   3
ATOM      3  C   UNL     1      12.474  21.366  35.191  1.00  0.00     0.027 C 
BRANCH   3   4
ATOM      4  C   UNL     1      11.786  19.999  35.031  1.00  0.00     0.004 C 
BRANCH   4   5
ATOM      5  C   UNL     1      12.749  18.875  34.590  1.00  0.00     0.000 C 
BRANCH   5   6
ATOM      6  C   UNL     1      12.568  18.443  33.118  1.00  0.00     0.000 C 
BRANCH   6   7
ATOM      7  C   UNL     1      13.599  19.067  32.163  1.00  0.00     0.000 C 
BRANCH   7   8
ATOM      8  C   UNL     1      14.963  19.301  32.833  1.00  0.00     0.006 C 
BRANCH   8   9
ATOM      9  C   UNL     1      16.037  19.733  31.826  1.00  0.00     0.053 C 
BRANCH   9  10
ATOM     10  C   UNL     1      17.411  19.688  32.425  1.00  0.00     0.041 C 
ATOM     11  O   UNL     1      17.751  20.533  33.294  1.00  0.00    -0.550 OA
ATOM     12  O   UNL     1      18.298  18.684  32.056  1.00  0.00    -0.550 OA
ENDBRANCH   9  10
ENDBRANCH   8   9
ENDBRANCH   7   8
ENDBRANCH   6   7
ENDBRANCH   5   6
ENDBRANCH   4   5
ENDBRANCH   3   4
ENDBRANCH   1   3
BRANCH   2  13
ATOM     13  C   UNL     1      11.342  22.932  31.821  1.00  0.00     0.027 C 
BRANCH  13  14
ATOM     14  C   UNL     1      10.721  22.214  30.617  1.00  0.00     0.004 C 
BRANCH  14  15
ATOM     15  C   UNL     1      11.113  20.726  30.566  1.00  0.00     0.000 C 
BRANCH  15  16
ATOM     16  C   UNL     1      10.284  19.939  29.530  1.00  0.00     0.000 C 
BRANCH  16  17
ATOM     17  C   UNL     1       8.790  20.319  29.516  1.00  0.00    -0.000 C 
BRANCH  17  18
ATOM     18  C   UNL     1       8.267  20.837  28.165  1.00  0.00    -0.000 C 
BRANCH  18  19
ATOM     19  C   UNL     1       6.739  20.993  28.140  1.00  0.00    -0.003 C 
ATOM     20  C   UNL     1       6.147  20.798  29.532  1.00  0.00     0.004 C 
ENDBRANCH  18  19
ENDBRANCH  17  18
ENDBRANCH  16  17
ENDBRANCH  15  16
ENDBRANCH  14  15
ENDBRANCH  13  14
ENDBRANCH   2  13
TORSDOF 15
ENDMDL
MODEL 2
REMARK VINA RESULT:     4.634      3.382      5.560
REMARK INTER + INTRA:           7.151
REMARK INTER:                   7.894
REMARK INTRA:                  -0.743
REMARK UNBOUND:                -1.546
REMARK SMILES CCCCCCCCC=CCCCCCCCC(=O)[O-]
REMARK SMILES IDX 10 1 9 2 11 3 12 4 13 5 14 6 15 7 16 8 17 9 18 10 19 11
REMARK SMILES IDX 20 12 8 13 7 14 6 15 5 16 4 17 3 18 2 19 1 20
REMARK H PARENT
REMARK Flexibility Score: inf
ROOT
ATOM      1  C   UNL     1       9.157  20.015  28.815  1.00  0.00    -0.031 C 
ATOM      2  C   UNL     1       8.052  20.717  29.111  1.00  0.00    -0.031 C 
ENDROOT
BRANCH   1   3
ATOM      3  C   UNL     1      10.154  19.638  29.876  1.00  0.00     0.027 C 
BRANCH   3   4
ATOM      4  C   UNL     1      10.981  20.840  30.368  1.00  0.00     0.004 C 
BRANCH   4   5
ATOM      5  C   UNL     1      11.996  20.474  31.473  1.00  0.00     0.000 C 
BRANCH   5   6
ATOM      6  C   UNL     1      12.209  18.953  31.642  1.00  0.00     0.000 C 
BRANCH   6   7
ATOM      7  C   UNL     1      12.543  18.537  33.083  1.00  0.00     0.000 C 
BRANCH   7   8
ATOM      8  C   UNL     1      13.062  19.707  33.935  1.00  0.00     0.006 C 
BRANCH   8   9
ATOM      9  C   UNL     1      12.099  20.067  35.073  1.00  0.00     0.053 C 
BRANCH   9  10
ATOM     10  C   UNL     1      11.885  21.548  35.173  1.00  0.00     0.041 C 
ATOM     11  O   UNL     1      11.455  22.055  36.242  1.00  0.00    -0.550 OA
ATOM     12  O   UNL     1      12.204  22.371  34.100  1.00  0.00    -0.550 OA
ENDBRANCH   9  10
ENDBRANCH   8   9
ENDBRANCH   7   8
ENDBRANCH   6   7
ENDBRANCH   5   6
ENDBRANCH   4   5
ENDBRANCH   3   4
ENDBRANCH   1   3
BRANCH   2  13
ATOM     13  C   UNL     1       7.030  21.068  28.064  1.00  0.00     0.027 C 
BRANCH  13  14
ATOM     14  C   UNL     1       7.644  21.945  26.966  1.00  0.00     0.004 C 
BRANCH  14  15
ATOM     15  C   UNL     1       6.615  22.323  25.885  1.00  0.00     0.000 C 
BRANCH  15  16
ATOM     16  C   UNL     1       6.411  23.849  25.781  1.00  0.00     0.000 C 
BRANCH  16  17
ATOM     17  C   UNL     1       5.171  24.359  26.541  1.00  0.00    -0.000 C 
BRANCH  17  18
ATOM     18  C   UNL     1       5.082  25.889  26.678  1.00  0.00    -0.000 C 
BRANCH  18  19
ATOM     19  C   UNL     1       4.124  26.330  27.795  1.00  0.00    -0.003 C 
ATOM     20  C   UNL     1       3.082  25.254  28.079  1.00  0.00     0.004 C 
ENDBRANCH  18  19
ENDBRANCH  17  18
ENDBRANCH  16  17
ENDBRANCH  15  16
ENDBRANCH  14  15
ENDBRANCH  13  14
ENDBRANCH   2  13
TORSDOF 15
ENDMDL
MODEL 3
REMARK VINA RESULT:     4.761      3.931      7.512
REMARK INTER + INTRA:           7.390
REMARK INTER:                   8.356
REMARK INTRA:                  -0.966
REMARK UNBOUND:                -1.546
REMARK SMILES CCCCCCCCC=CCCCCCCCC(=O)[O-]
REMARK SMILES IDX 10 1 9 2 11 3 12 4 13 5 14 6 15 7 16 8 17 9 18 10 19 11
REMARK SMILES IDX 20 12 8 13 7 14 6 15 5 16 4 17 3 18 2 19 1 20
REMARK H PARENT
REMARK Flexibility Score: inf
ROOT
ATOM      1  C   UNL     1      12.488  21.700  34.237  1.00  0.00    -0.031 C 
ATOM      2  C   UNL     1      11.610  20.949  34.919  1.00  0.00    -0.031 C 
ENDROOT
BRANCH   1   3
ATOM      3  C   UNL     1      12.080  23.001  33.603  1.00  0.00     0.027 C 
BRANCH   3   4
ATOM      4  C   UNL     1      11.398  22.808  32.236  1.00  0.00     0.004 C 
BRANCH   4   5
ATOM      5  C   UNL     1      11.719  21.449  31.578  1.00  0.00     0.000 C 
BRANCH   5   6
ATOM      6  C   UNL     1      10.935  21.189  30.273  1.00  0.00     0.000 C 
BRANCH   6   7
ATOM      7  C   UNL     1      10.461  19.736  30.119  1.00  0.00     0.000 C 
BRANCH   7   8
ATOM      8  C   UNL     1       9.280  19.595  29.145  1.00  0.00     0.006 C 
BRANCH   8   9
ATOM      9  C   UNL     1       8.667  20.953  28.777  1.00  0.00     0.053 C 
BRANCH   9  10
ATOM     10  C   UNL     1       7.178  20.868  28.629  1.00  0.00     0.041 C 
ATOM     11  O   UNL     1       6.646  20.987  27.494  1.00  0.00    -0.550 OA
ATOM     12  O   UNL     1       6.381  20.613  29.739  1.00  0.00    -0.550 OA
ENDBRANCH   9  10
ENDBRANCH   8   9
ENDBRANCH   7   8
ENDBRANCH   6   7
ENDBRANCH   5   6
ENDBRANCH   4   5
ENDBRANCH   3   4
ENDBRANCH   1   3
BRANCH   2  13
ATOM     13  C   UNL     1      12.015  19.664  35.588  1.00  0.00     0.027 C 
BRANCH  13  14
ATOM     14  C   UNL     1      13.041  18.900  34.742  1.00  0.00     0.004 C 
BRANCH  14  15
ATOM     15  C   UNL     1      12.531  18.641  33.312  1.00  0.00     0.000 C 
BRANCH  15  16
ATOM     16  C   UNL     1      13.629  18.867  32.252  1.00  0.00     0.000 C 
BRANCH  16  17
ATOM     17  C   UNL     1      14.901  19.534  32.812  1.00  0.00    -0.000 C 
BRANCH  17  18
ATOM     18  C   UNL     1      16.065  19.645  31.813  1.00  0.00    -0.000 C 
BRANCH  18  19
ATOM     19  C   UNL     1      17.431  19.770  32.504  1.00  0.00    -0.003 C 
ATOM     20  C   UNL     1      18.451  18.826  31.877  1.00  0.00     0.004 C 
ENDBRANCH  18  19
ENDBRANCH  17  18
ENDBRANCH  16  17
ENDBRANCH  15  16
ENDBRANCH  14  15
ENDBRANCH  13  14
ENDBRANCH   2  13
TORSDOF 15
ENDMDL
MODEL 4
REMARK VINA RESULT:     5.432      5.811      9.962
REMARK INTER + INTRA:           8.649
REMARK INTER:                   9.395
REMARK INTRA:                  -0.747
REMARK UNBOUND:                -1.546
REMARK SMILES CCCCCCCCC=CCCCCCCCC(=O)[O-]
REMARK SMILES IDX 10 1 9 2 11 3 12 4 13 5 14 6 15 7 16 8 17 9 18 10 19 11
REMARK SMILES IDX 20 12 8 13 7 14 6 15 5 16 4 17 3 18 2 19 1 20
REMARK H PARENT
REMARK Flexibility Score: inf
ROOT
ATOM      1  C   UNL     1       9.049  21.007  29.092  1.00  0.00    -0.031 C 
ATOM      2  C   UNL     1       9.967  20.401  29.860  1.00  0.00    -0.031 C 
ENDROOT
BRANCH   1   3
ATOM      3  C   UNL     1       7.748  20.336  28.746  1.00  0.00     0.027 C 
BRANCH   3   4
ATOM      4  C   UNL     1       6.796  21.253  27.958  1.00  0.00     0.004 C 
BRANCH   4   5
ATOM      5  C   UNL     1       7.471  21.948  26.756  1.00  0.00     0.000 C 
BRANCH   5   6
ATOM      6  C   UNL     1       6.495  22.767  25.882  1.00  0.00     0.000 C 
BRANCH   6   7
ATOM      7  C   UNL     1       6.490  24.269  26.209  1.00  0.00     0.000 C 
BRANCH   7   8
ATOM      8  C   UNL     1       5.111  24.917  26.005  1.00  0.00     0.006 C 
BRANCH   8   9
ATOM      9  C   UNL     1       4.759  25.899  27.130  1.00  0.00     0.053 C 
BRANCH   9  10
ATOM     10  C   UNL     1       3.416  25.601  27.727  1.00  0.00     0.041 C 
ATOM     11  O   UNL     1       3.161  25.943  28.912  1.00  0.00    -0.550 OA
ATOM     12  O   UNL     1       2.434  24.986  26.961  1.00  0.00    -0.550 OA
ENDBRANCH   9  10
ENDBRANCH   8   9
ENDBRANCH   7   8
ENDBRANCH   6   7
ENDBRANCH   5   6
ENDBRANCH   4   5
ENDBRANCH   3   4
ENDBRANCH   1   3
BRANCH   2  13
ATOM     13  C   UNL     1      11.255  21.077  30.242  1.00  0.00     0.027 C 
BRANCH  13  14
ATOM     14  C   UNL     1      11.787  20.537  31.575  1.00  0.00     0.004 C 
BRANCH  14  15
ATOM     15  C   UNL     1      12.047  19.021  31.521  1.00  0.00     0.000 C 
BRANCH  15  16
ATOM     16  C   UNL     1      12.741  18.502  32.798  1.00  0.00     0.000 C 
BRANCH  16  17
ATOM     17  C   UNL     1      13.049  19.609  33.826  1.00  0.00    -0.000 C 
BRANCH  17  18
ATOM     18  C   UNL     1      12.108  19.640  35.044  1.00  0.00    -0.000 C 
BRANCH  18  19
ATOM     19  C   UNL     1      11.756  21.068  35.485  1.00  0.00    -0.003 C 
ATOM     20  C   UNL     1      12.322  22.097  34.511  1.00  0.00     0.004 C 
ENDBRANCH  18  19
ENDBRANCH  17  18
ENDBRANCH  16  17
ENDBRANCH  15  16
ENDBRANCH  14  15
ENDBRANCH  13  14
ENDBRANCH   2  13
TORSDOF 15
ENDMDL
MODEL 5
REMARK VINA RESULT:     5.592      3.262      7.053
REMARK INTER + INTRA:           8.950
REMARK INTER:                   8.872
REMARK INTRA:                   0.078
REMARK UNBOUND:                -1.546
REMARK SMILES CCCCCCCCC=CCCCCCCCC(=O)[O-]
REMARK SMILES IDX 10 1 9 2 11 3 12 4 13 5 14 6 15 7 16 8 17 9 18 10 19 11
REMARK SMILES IDX 20 12 8 13 7 14 6 15 5 16 4 17 3 18 2 19 1 20
REMARK H PARENT
REMARK Flexibility Score: inf
ROOT
ATOM      1  C   UNL     1      12.025  20.294  35.484  1.00  0.00    -0.031 C 
ATOM      2  C   UNL     1      12.071  19.787  34.242  1.00  0.00    -0.031 C 
ENDROOT
BRANCH   1   3
ATOM      3  C   UNL     1      11.795  21.760  35.724  1.00  0.00     0.027 C 
BRANCH   3   4
ATOM      4  C   UNL     1      12.176  22.628  34.511  1.00  0.00     0.004 C 
BRANCH   4   5
ATOM      5  C   UNL     1      11.797  21.990  33.158  1.00  0.00     0.000 C 
BRANCH   5   6
ATOM      6  C   UNL     1      11.418  23.019  32.069  1.00  0.00     0.000 C 
BRANCH   6   7
ATOM      7  C   UNL     1      10.655  22.408  30.884  1.00  0.00     0.000 C 
BRANCH   7   8
ATOM      8  C   UNL     1      11.260  21.075  30.412  1.00  0.00     0.006 C 
BRANCH   8   9
ATOM      9  C   UNL     1      10.208  19.963  30.315  1.00  0.00     0.053 C 
BRANCH   9  10
ATOM     10  C   UNL     1       9.358  20.106  29.089  1.00  0.00     0.041 C 
ATOM     11  O   UNL     1       9.666  19.497  28.030  1.00  0.00    -0.550 OA
ATOM     12  O   UNL     1       8.203  20.877  29.128  1.00  0.00    -0.550 OA
ENDBRANCH   9  10
ENDBRANCH   8   9
ENDBRANCH   7   8
ENDBRANCH   6   7
ENDBRANCH   5   6
ENDBRANCH   4   5
ENDBRANCH   3   4
ENDBRANCH   1   3
BRANCH   2  13
ATOM     13  C   UNL     1      12.265  18.316  33.990  1.00  0.00     0.027 C 
BRANCH  13  14
ATOM     14  C   UNL     1      12.633  18.052  32.525  1.00  0.00     0.004 C 
BRANCH  14  15
ATOM     15  C   UNL     1      13.541  19.153  31.949  1.00  0.00     0.000 C 
BRANCH  15  16
ATOM     16  C   UNL     1      14.829  19.340  32.778  1.00  0.00     0.000 C 
BRANCH  16  17
ATOM     17  C   UNL     1      16.001  19.936  31.973  1.00  0.00    -0.000 C 
BRANCH  17  18
ATOM     18  C   UNL     1      17.257  20.256  32.801  1.00  0.00    -0.000 C 
BRANCH  18  19
ATOM     19  C   UNL     1      18.307  19.135  32.744  1.00  0.00    -0.003 C 
ATOM     20  C   UNL     1      18.446  18.589  31.326  1.00  0.00     0.004 C 
ENDBRANCH  18  19
ENDBRANCH  17  18
ENDBRANCH  16  17
ENDBRANCH  15  16
ENDBRANCH  14  15
ENDBRANCH  13  14
ENDBRANCH   2  13
TORSDOF 15
ENDMDL
MODEL 6
REMARK VINA RESULT:     5.994      3.318      4.760
REMARK INTER + INTRA:           9.704
REMARK INTER:                  10.523
REMARK INTRA:                  -0.819
REMARK UNBOUND:                -1.546
REMARK SMILES CCCCCCCCC=CCCCCCCCC(=O)[O-]
REMARK SMILES IDX 10 1 9 2 11 3 12 4 13 5 14 6 15 7 16 8 17 9 18 10 19 11
REMARK SMILES IDX 20 12 8 13 7 14 6 15 5 16 4 17 3 18 2 19 1 20
REMARK H PARENT
REMARK Flexibility Score: inf
ROOT
ATOM      1  C   UNL     1      11.843  19.272  31.634  1.00  0.00    -0.031 C 
ATOM      2  C   UNL     1      12.242  20.517  31.333  1.00  0.00    -0.031 C 
ENDROOT
BRANCH   1   3
ATOM      3  C   UNL     1      12.767  18.293  32.305  1.00  0.00     0.027 C 
BRANCH   3   4
ATOM      4  C   UNL     1      13.269  18.792  33.672  1.00  0.00     0.004 C 
BRANCH   4   5
ATOM      5  C   UNL     1      12.183  18.769  34.769  1.00  0.00     0.000 C 
BRANCH   5   6
ATOM      6  C   UNL     1      11.967  20.135  35.459  1.00  0.00     0.000 C 
BRANCH   6   7
ATOM      7  C   UNL     1      12.327  21.336  34.571  1.00  0.00     0.000 C 
BRANCH   7   8
ATOM      8  C   UNL     1      12.051  22.685  35.255  1.00  0.00     0.006 C 
BRANCH   8   9
ATOM      9  C   UNL     1      11.032  22.559  36.395  1.00  0.00     0.053 C 
BRANCH   9  10
ATOM     10  C   UNL     1      10.961  23.811  37.218  1.00  0.00     0.041 C 
ATOM     11  O   UNL     1      11.874  24.674  37.137  1.00  0.00    -0.550 OA
ATOM     12  O   UNL     1       9.865  24.043  38.039  1.00  0.00    -0.550 OA
ENDBRANCH   9  10
ENDBRANCH   8   9
ENDBRANCH   7   8
ENDBRANCH   6   7
ENDBRANCH   5   6
ENDBRANCH   4   5
ENDBRANCH   3   4
ENDBRANCH   1   3
BRANCH   2  13
ATOM     13  C   UNL     1      11.316  21.516  30.694  1.00  0.00     0.027 C 
BRANCH  13  14
ATOM     14  C   UNL     1       9.977  20.867  30.323  1.00  0.00     0.004 C 
BRANCH  14  15
ATOM     15  C   UNL     1      10.126  19.851  29.176  1.00  0.00     0.000 C 
BRANCH  15  16
ATOM     16  C   UNL     1       8.960  19.933  28.169  1.00  0.00     0.000 C 
BRANCH  16  17
ATOM     17  C   UNL     1       7.974  21.083  28.457  1.00  0.00    -0.000 C 
BRANCH  17  18
ATOM     18  C   UNL     1       6.488  20.705  28.339  1.00  0.00    -0.000 C 
BRANCH  18  19
ATOM     19  C   UNL     1       5.838  20.420  29.701  1.00  0.00    -0.003 C 
ATOM     20  C   UNL     1       5.592  21.713  30.471  1.00  0.00     0.004 C 
ENDBRANCH  18  19
ENDBRANCH  17  18
ENDBRANCH  16  17
ENDBRANCH  15  16
ENDBRANCH  14  15
ENDBRANCH  13  14
ENDBRANCH   2  13
TORSDOF 15
ENDMDL
MODEL 7
REMARK VINA RESULT:     6.006      4.239      7.558
REMARK INTER + INTRA:           9.726
REMARK INTER:                  11.316
REMARK INTRA:                  -1.591
REMARK UNBOUND:                -1.546
REMARK SMILES CCCCCCCCC=CCCCCCCCC(=O)[O-]
REMARK SMILES IDX 10 1 9 2 11 3 12 4 13 5 14 6 15 7 16 8 17 9 18 10 19 11
REMARK SMILES IDX 20 12 8 13 7 14 6 15 5 16 4 17 3 18 2 19 1 20
REMARK H PARENT
REMARK Flexibility Score: inf
ROOT
ATOM      1  C   UNL     1      11.411  22.816  32.050  1.00  0.00    -0.031 C 
ATOM      2  C   UNL     1      11.797  22.048  33.080  1.00  0.00    -0.031 C 
ENDROOT
BRANCH   1   3
ATOM      3  C   UNL     1      10.775  22.222  30.824  1.00  0.00     0.027 C 
BRANCH   3   4
ATOM      4  C   UNL     1      11.300  20.810  30.508  1.00  0.00     0.004 C 
BRANCH   4   5
ATOM      5  C   UNL     1      10.177  19.766  30.324  1.00  0.00     0.000 C 
BRANCH   5   6
ATOM      6  C   UNL     1       9.876  19.429  28.847  1.00  0.00     0.000 C 
BRANCH   6   7
ATOM      7  C   UNL     1       8.998  20.476  28.144  1.00  0.00     0.000 C 
BRANCH   7   8
ATOM      8  C   UNL     1       7.930  21.076  29.073  1.00  0.00     0.006 C 
BRANCH   8   9
ATOM      9  C   UNL     1       6.506  20.739  28.614  1.00  0.00     0.053 C 
BRANCH   9  10
ATOM     10  C   UNL     1       5.549  20.681  29.767  1.00  0.00     0.041 C 
ATOM     11  O   UNL     1       4.826  19.665  29.938  1.00  0.00    -0.550 OA
ATOM     12  O   UNL     1       5.490  21.729  30.677  1.00  0.00    -0.550 OA
ENDBRANCH   9  10
ENDBRANCH   8   9
ENDBRANCH   7   8
ENDBRANCH   6   7
ENDBRANCH   5   6
ENDBRANCH   4   5
ENDBRANCH   3   4
ENDBRANCH   1   3
BRANCH   2  13
ATOM     13  C   UNL     1      12.401  22.635  34.327  1.00  0.00     0.027 C 
BRANCH  13  14
ATOM     14  C   UNL     1      11.650  22.163  35.578  1.00  0.00     0.004 C 
BRANCH  14  15
ATOM     15  C   UNL     1      11.267  20.675  35.495  1.00  0.00     0.000 C 
BRANCH  15  16
ATOM     16  C   UNL     1      12.422  19.749  35.930  1.00  0.00     0.000 C 
BRANCH  16  17
ATOM     17  C   UNL     1      13.030  18.933  34.772  1.00  0.00    -0.000 C 
BRANCH  17  18
ATOM     18  C   UNL     1      12.023  18.492  33.696  1.00  0.00    -0.000 C 
BRANCH  18  19
ATOM     19  C   UNL     1      12.633  18.465  32.286  1.00  0.00    -0.003 C 
ATOM     20  C   UNL     1      13.977  19.188  32.259  1.00  0.00     0.004 C 
ENDBRANCH  18  19
ENDBRANCH  17  18
ENDBRANCH  16  17
ENDBRANCH  15  16
ENDBRANCH  14  15
ENDBRANCH  13  14
ENDBRANCH   2  13
TORSDOF 15
ENDMDL
MODEL 8
REMARK VINA RESULT:     6.197      5.370      9.430
REMARK INTER + INTRA:          10.085
REMARK INTER:                  10.768
REMARK INTRA:                  -0.683
REMARK UNBOUND:                -1.546
REMARK SMILES CCCCCCCCC=CCCCCCCCC(=O)[O-]
REMARK SMILES IDX 10 1 9 2 11 3 12 4 13 5 14 6 15 7 16 8 17 9 18 10 19 11
REMARK SMILES IDX 20 12 8 13 7 14 6 15 5 16 4 17 3 18 2 19 1 20
REMARK H PARENT
REMARK Flexibility Score: inf
ROOT
ATOM      1  C   UNL     1      10.141  20.261  29.891  1.00  0.00    -0.031 C 
ATOM      2  C   UNL     1      10.805  21.323  30.372  1.00  0.00    -0.031 C 
ENDROOT
BRANCH   1   3
ATOM      3  C   UNL     1       9.240  20.376  28.692  1.00  0.00     0.027 C 
BRANCH   3   4
ATOM      4  C   UNL     1       7.817  20.833  29.060  1.00  0.00     0.004 C 
BRANCH   4   5
ATOM      5  C   UNL     1       6.919  21.091  27.831  1.00  0.00     0.000 C 
BRANCH   5   6
ATOM      6  C   UNL     1       7.475  22.165  26.869  1.00  0.00     0.000 C 
BRANCH   6   7
ATOM      7  C   UNL     1       6.418  22.739  25.912  1.00  0.00     0.000 C 
BRANCH   7   8
ATOM      8  C   UNL     1       6.082  24.209  26.212  1.00  0.00     0.006 C 
BRANCH   8   9
ATOM      9  C   UNL     1       4.593  24.412  26.520  1.00  0.00     0.053 C 
BRANCH   9  10
ATOM     10  C   UNL     1       4.360  25.639  27.350  1.00  0.00     0.041 C 
ATOM     11  O   UNL     1       5.149  26.616  27.271  1.00  0.00    -0.550 OA
ATOM     12  O   UNL     1       3.246  25.719  28.177  1.00  0.00    -0.550 OA
ENDBRANCH   9  10
ENDBRANCH   8   9
ENDBRANCH   7   8
ENDBRANCH   6   7
ENDBRANCH   5   6
ENDBRANCH   4   5
ENDBRANCH   3   4
ENDBRANCH   1   3
BRANCH   2  13
ATOM     13  C   UNL     1      11.737  21.213  31.548  1.00  0.00     0.027 C 
BRANCH  13  14
ATOM     14  C   UNL     1      11.438  22.295  32.592  1.00  0.00     0.004 C 
BRANCH  14  15
ATOM     15  C   UNL     1      12.373  22.196  33.811  1.00  0.00     0.000 C 
BRANCH  15  16
ATOM     16  C   UNL     1      11.686  21.531  35.021  1.00  0.00     0.000 C 
BRANCH  16  17
ATOM     17  C   UNL     1      12.281  20.158  35.392  1.00  0.00    -0.000 C 
BRANCH  17  18
ATOM     18  C   UNL     1      12.001  19.037  34.377  1.00  0.00    -0.000 C 
BRANCH  18  19
ATOM     19  C   UNL     1      13.154  18.834  33.383  1.00  0.00    -0.003 C 
ATOM     20  C   UNL     1      12.680  18.084  32.142  1.00  0.00     0.004 C 
ENDBRANCH  18  19
ENDBRANCH  17  18
ENDBRANCH  16  17
ENDBRANCH  15  16
ENDBRANCH  14  15
ENDBRANCH  13  14
ENDBRANCH   2  13
TORSDOF 15
ENDMDL
MODEL 9
REMARK VINA RESULT:     6.442      2.776      4.666
REMARK INTER + INTRA:          10.545
REMARK INTER:                  11.532
REMARK INTRA:                  -0.987
REMARK UNBOUND:                -1.546
REMARK SMILES CCCCCCCCC=CCCCCCCCC(=O)[O-]
REMARK SMILES IDX 10 1 9 2 11 3 12 4 13 5 14 6 15 7 16 8 17 9 18 10 19 11
REMARK SMILES IDX 20 12 8 13 7 14 6 15 5 16 4 17 3 18 2 19 1 20
REMARK H PARENT
REMARK Flexibility Score: inf
ROOT
ATOM      1  C   UNL     1      11.003  20.706  30.501  1.00  0.00    -0.031 C 
ATOM      2  C   UNL     1      10.380  19.716  29.844  1.00  0.00    -0.031 C 
ENDROOT
BRANCH   1   3
ATOM      3  C   UNL     1      12.059  20.419  31.533  1.00  0.00     0.027 C 
BRANCH   3   4
ATOM      4  C   UNL     1      12.435  18.928  31.599  1.00  0.00     0.004 C 
BRANCH   4   5
ATOM      5  C   UNL     1      13.606  18.633  32.561  1.00  0.00     0.000 C 
BRANCH   5   6
ATOM      6  C   UNL     1      13.310  19.000  34.032  1.00  0.00     0.000 C 
BRANCH   6   7
ATOM      7  C   UNL     1      11.863  18.707  34.460  1.00  0.00     0.000 C 
BRANCH   7   8
ATOM      8  C   UNL     1      11.296  19.776  35.408  1.00  0.00     0.006 C 
BRANCH   8   9
ATOM      9  C   UNL     1      12.337  20.841  35.772  1.00  0.00     0.053 C 
BRANCH   9  10
ATOM     10  C   UNL     1      11.902  22.212  35.349  1.00  0.00     0.041 C 
ATOM     11  O   UNL     1      12.066  22.589  34.159  1.00  0.00    -0.550 OA
ATOM     12  O   UNL     1      11.274  23.055  36.258  1.00  0.00    -0.550 OA
ENDBRANCH   9  10
ENDBRANCH   8   9
ENDBRANCH   7   8
ENDBRANCH   6   7
ENDBRANCH   5   6
ENDBRANCH   4   5
ENDBRANCH   3   4
ENDBRANCH   1   3
BRANCH   2  13
ATOM     13  C   UNL     1       9.349  19.992  28.783  1.00  0.00     0.027 C 
BRANCH  13  14
ATOM     14  C   UNL     1       8.441  21.160  29.187  1.00  0.00     0.004 C 
BRANCH  14  15
ATOM     15  C   UNL     1       6.949  20.797  29.080  1.00  0.00     0.000 C 
BRANCH  15  16
ATOM     16  C   UNL     1       6.432  20.873  27.629  1.00  0.00     0.000 C 
BRANCH  16  17
ATOM     17  C   UNL     1       7.191  21.893  26.756  1.00  0.00    -0.000 C 
BRANCH  17  18
ATOM     18  C   UNL     1       6.347  22.550  25.650  1.00  0.00    -0.000 C 
BRANCH  18  19
ATOM     19  C   UNL     1       6.711  24.025  25.422  1.00  0.00    -0.003 C 
ATOM     20  C   UNL     1       5.733  24.947  26.143  1.00  0.00     0.004 C 
ENDBRANCH  18  19
ENDBRANCH  17  18
ENDBRANCH  16  17
ENDBRANCH  15  16
ENDBRANCH  14  15
ENDBRANCH  13  14
ENDBRANCH   2  13
TORSDOF 15
ENDMDL
