MODEL 1
REMARK VINA RESULT:    -6.852      0.000      0.000
REMARK INTER + INTRA:          -8.365
REMARK INTER:                  -8.253
REMARK INTRA:                  -0.112
REMARK UNBOUND:                -0.112
REMARK SMILES O=c1c(O)c(-c2ccc(O)c(O)c2)oc2cc(O)cc(O)c12
REMARK SMILES IDX 5 1 3 2 2 3 1 4 22 5 20 6 19 7 17 8 16 9 15 10 14 11 6 12
REMARK SMILES IDX 7 13 8 14 9 15 13 16 11 17 10 18 12 20 4 22 21 24 18 26
REMARK H PARENT 10 19 12 21 4 23 21 25 18 27
REMARK Flexibility Score: inf
ROOT
ATOM      1  C   UNL     1      81.962   1.923  -0.131  1.00  0.00     0.180 A 
ATOM      2  C   UNL     1      82.795   1.085   0.632  1.00  0.00     0.208 A 
ATOM      3  C   UNL     1      84.187   1.222   0.519  1.00  0.00     0.238 A 
ATOM      4  O   UNL     1      84.926   0.508   1.246  1.00  0.00    -0.285 OA
ATOM      5  C   UNL     1      84.731   2.184  -0.367  1.00  0.00     0.111 A 
ATOM      6  C   UNL     1      86.126   2.382  -0.591  1.00  0.00     0.134 A 
ATOM      7  C   UNL     1      86.553   3.448  -1.392  1.00  0.00     0.093 A 
ATOM      8  C   UNL     1      85.635   4.283  -2.028  1.00  0.00     0.123 A 
ATOM      9  C   UNL     1      84.266   4.062  -1.863  1.00  0.00     0.094 A 
ATOM     10  C   UNL     1      83.811   3.028  -1.042  1.00  0.00     0.146 A 
ATOM     11  O   UNL     1      82.502   2.859  -0.903  1.00  0.00    -0.452 OA
ENDROOT
BRANCH   1  12
ATOM     12  C   UNL     1      80.486   1.820  -0.083  1.00  0.00     0.025 A 
ATOM     13  C   UNL     1      79.724   2.962   0.213  1.00  0.00     0.016 A 
ATOM     14  C   UNL     1      78.328   2.893   0.242  1.00  0.00     0.051 A 
ATOM     15  C   UNL     1      77.675   1.686  -0.041  1.00  0.00     0.157 A 
ATOM     16  C   UNL     1      79.825   0.616  -0.387  1.00  0.00     0.062 A 
ATOM     17  C   UNL     1      78.424   0.548  -0.360  1.00  0.00     0.158 A 
BRANCH  15  18
ATOM     18  O   UNL     1      76.283   1.613  -0.011  1.00  0.00    -0.504 OA
ATOM     19  H   UNL     1      75.766   1.067  -0.691  1.00  0.00     0.293 HD
ENDBRANCH  15  18
BRANCH  17  20
ATOM     20  O   UNL     1      77.771  -0.648  -0.654  1.00  0.00    -0.504 OA
ATOM     21  H   UNL     1      76.945  -0.671  -1.240  1.00  0.00     0.293 HD
ENDBRANCH  17  20
ENDBRANCH   1  12
BRANCH   2  22
ATOM     22  O   UNL     1      82.237   0.158   1.518  1.00  0.00    -0.502 OA
ATOM     23  H   UNL     1      81.512   0.406   2.179  1.00  0.00     0.293 HD
ENDBRANCH   2  22
BRANCH   6  24
ATOM     24  O   UNL     1      87.125   1.549  -0.078  1.00  0.00    -0.507 OA
ATOM     25  H   UNL     1      87.156   1.206   0.870  1.00  0.00     0.293 HD
ENDBRANCH   6  24
BRANCH   8  26
ATOM     26  O   UNL     1      86.094   5.325  -2.830  1.00  0.00    -0.508 OA
ATOM     27  H   UNL     1      85.754   6.272  -2.715  1.00  0.00     0.293 HD
ENDBRANCH   8  26
TORSDOF 6
ENDMDL
MODEL 2
REMARK VINA RESULT:    -6.689      1.272      3.058
REMARK INTER + INTRA:          -8.170
REMARK INTER:                  -8.074
REMARK INTRA:                  -0.095
REMARK UNBOUND:                -0.112
REMARK SMILES O=c1c(O)c(-c2ccc(O)c(O)c2)oc2cc(O)cc(O)c12
REMARK SMILES IDX 5 1 3 2 2 3 1 4 22 5 20 6 19 7 17 8 16 9 15 10 14 11 6 12
REMARK SMILES IDX 7 13 8 14 9 15 13 16 11 17 10 18 12 20 4 22 21 24 18 26
REMARK H PARENT 10 19 12 21 4 23 21 25 18 27
REMARK Flexibility Score: inf
ROOT
ATOM      1  C   UNL     1      82.077   1.889   0.001  1.00  0.00     0.180 A 
ATOM      2  C   UNL     1      82.745   2.805  -0.830  1.00  0.00     0.208 A 
ATOM      3  C   UNL     1      84.147   2.872  -0.782  1.00  0.00     0.238 A 
ATOM      4  O   UNL     1      84.743   3.654  -1.568  1.00  0.00    -0.285 OA
ATOM      5  C   UNL     1      84.862   2.033   0.107  1.00  0.00     0.111 A 
ATOM      6  C   UNL     1      86.279   2.043   0.267  1.00  0.00     0.134 A 
ATOM      7  C   UNL     1      86.891   1.080   1.080  1.00  0.00     0.093 A 
ATOM      8  C   UNL     1      86.131   0.150   1.788  1.00  0.00     0.123 A 
ATOM      9  C   UNL     1      84.739   0.168   1.685  1.00  0.00     0.094 A 
ATOM     10  C   UNL     1      84.103   1.093   0.854  1.00  0.00     0.146 A 
ATOM     11  O   UNL     1      82.779   1.071   0.775  1.00  0.00    -0.452 OA
ENDROOT
BRANCH   1  12
ATOM     12  C   UNL     1      80.601   1.779   0.024  1.00  0.00     0.025 A 
ATOM     13  C   UNL     1      79.829   2.908   0.344  1.00  0.00     0.016 A 
ATOM     14  C   UNL     1      78.433   2.832   0.351  1.00  0.00     0.051 A 
ATOM     15  C   UNL     1      77.790   1.631   0.023  1.00  0.00     0.157 A 
ATOM     16  C   UNL     1      79.949   0.582  -0.325  1.00  0.00     0.062 A 
ATOM     17  C   UNL     1      78.549   0.506  -0.320  1.00  0.00     0.158 A 
BRANCH  15  18
ATOM     18  O   UNL     1      76.398   1.552   0.031  1.00  0.00    -0.504 OA
ATOM     19  H   UNL     1      75.905   0.827  -0.479  1.00  0.00     0.293 HD
ENDBRANCH  15  18
BRANCH  17  20
ATOM     20  O   UNL     1      77.906  -0.683  -0.660  1.00  0.00    -0.504 OA
ATOM     21  H   UNL     1      77.175  -0.709  -1.361  1.00  0.00     0.293 HD
ENDBRANCH  17  20
ENDBRANCH   1  12
BRANCH   2  22
ATOM     22  O   UNL     1      82.021   3.609  -1.717  1.00  0.00    -0.502 OA
ATOM     23  H   UNL     1      81.798   3.314  -2.659  1.00  0.00     0.293 HD
ENDBRANCH   2  22
BRANCH   6  24
ATOM     24  O   UNL     1      87.125   2.988  -0.323  1.00  0.00    -0.507 OA
ATOM     25  H   UNL     1      87.404   2.984  -1.292  1.00  0.00     0.293 HD
ENDBRANCH   6  24
BRANCH   8  26
ATOM     26  O   UNL     1      86.771  -0.784   2.600  1.00  0.00    -0.508 OA
ATOM     27  H   UNL     1      86.997  -1.713   2.263  1.00  0.00     0.293 HD
ENDBRANCH   8  26
TORSDOF 6
ENDMDL
MODEL 3
REMARK VINA RESULT:    -6.457      8.324      9.569
REMARK INTER + INTRA:          -7.890
REMARK INTER:                  -7.836
REMARK INTRA:                  -0.054
REMARK UNBOUND:                -0.112
REMARK SMILES O=c1c(O)c(-c2ccc(O)c(O)c2)oc2cc(O)cc(O)c12
REMARK SMILES IDX 5 1 3 2 2 3 1 4 22 5 20 6 19 7 17 8 16 9 15 10 14 11 6 12
REMARK SMILES IDX 7 13 8 14 9 15 13 16 11 17 10 18 12 20 4 22 21 24 18 26
REMARK H PARENT 10 19 12 21 4 23 21 25 18 27
REMARK Flexibility Score: inf
ROOT
ATOM      1  C   UNL     1      84.480  -2.486  -7.085  1.00  0.00     0.180 A 
ATOM      2  C   UNL     1      83.556  -2.390  -8.140  1.00  0.00     0.208 A 
ATOM      3  C   UNL     1      83.477  -1.194  -8.871  1.00  0.00     0.238 A 
ATOM      4  O   UNL     1      82.687  -1.133  -9.849  1.00  0.00    -0.285 OA
ATOM      5  C   UNL     1      84.313  -0.103  -8.528  1.00  0.00     0.111 A 
ATOM      6  C   UNL     1      84.290   1.169  -9.174  1.00  0.00     0.134 A 
ATOM      7  C   UNL     1      85.250   2.132  -8.839  1.00  0.00     0.093 A 
ATOM      8  C   UNL     1      86.190   1.893  -7.836  1.00  0.00     0.123 A 
ATOM      9  C   UNL     1      86.183   0.673  -7.157  1.00  0.00     0.094 A 
ATOM     10  C   UNL     1      85.261  -0.320  -7.494  1.00  0.00     0.146 A 
ATOM     11  O   UNL     1      85.295  -1.469  -6.831  1.00  0.00    -0.452 OA
ENDROOT
BRANCH   1  12
ATOM     12  C   UNL     1      84.603  -3.705  -6.255  1.00  0.00     0.025 A 
ATOM     13  C   UNL     1      83.466  -4.220  -5.611  1.00  0.00     0.016 A 
ATOM     14  C   UNL     1      83.555  -5.382  -4.838  1.00  0.00     0.051 A 
ATOM     15  C   UNL     1      84.778  -6.054  -4.713  1.00  0.00     0.157 A 
ATOM     16  C   UNL     1      85.824  -4.395  -6.142  1.00  0.00     0.062 A 
ATOM     17  C   UNL     1      85.913  -5.562  -5.369  1.00  0.00     0.158 A 
BRANCH  15  18
ATOM     18  O   UNL     1      84.871  -7.211  -3.943  1.00  0.00    -0.504 OA
ATOM     19  H   UNL     1      84.700  -8.128  -4.340  1.00  0.00     0.293 HD
ENDBRANCH  15  18
BRANCH  17  20
ATOM     20  O   UNL     1      87.125  -6.241  -5.254  1.00  0.00    -0.504 OA
ATOM     21  H   UNL     1      87.715  -6.138  -4.436  1.00  0.00     0.293 HD
ENDBRANCH  17  20
ENDBRANCH   1  12
BRANCH   2  22
ATOM     22  O   UNL     1      82.756  -3.487  -8.476  1.00  0.00    -0.502 OA
ATOM     23  H   UNL     1      82.657  -4.293  -7.872  1.00  0.00     0.293 HD
ENDBRANCH   2  22
BRANCH   6  24
ATOM     24  O   UNL     1      83.336   1.545 -10.125  1.00  0.00    -0.507 OA
ATOM     25  H   UNL     1      82.925   0.923 -10.803  1.00  0.00     0.293 HD
ENDBRANCH   6  24
BRANCH   8  26
ATOM     26  O   UNL     1      87.120   2.879  -7.517  1.00  0.00    -0.508 OA
ATOM     27  H   UNL     1      86.832   3.802  -7.216  1.00  0.00     0.293 HD
ENDBRANCH   8  26
TORSDOF 6
ENDMDL
MODEL 4
REMARK VINA RESULT:    -6.153      4.372      7.161
REMARK INTER + INTRA:          -7.523
REMARK INTER:                  -7.200
REMARK INTRA:                  -0.323
REMARK UNBOUND:                -0.112
REMARK SMILES O=c1c(O)c(-c2ccc(O)c(O)c2)oc2cc(O)cc(O)c12
REMARK SMILES IDX 5 1 3 2 2 3 1 4 22 5 20 6 19 7 17 8 16 9 15 10 14 11 6 12
REMARK SMILES IDX 7 13 8 14 9 15 13 16 11 17 10 18 12 20 4 22 21 24 18 26
REMARK H PARENT 10 19 12 21 4 23 21 25 18 27
REMARK Flexibility Score: inf
ROOT
ATOM      1  C   UNL     1      86.000   1.177   2.657  1.00  0.00     0.180 A 
ATOM      2  C   UNL     1      86.476  -0.125   2.891  1.00  0.00     0.208 A 
ATOM      3  C   UNL     1      86.638  -0.565   4.214  1.00  0.00     0.238 A 
ATOM      4  O   UNL     1      87.012  -1.750   4.417  1.00  0.00    -0.285 OA
ATOM      5  C   UNL     1      86.338   0.308   5.288  1.00  0.00     0.111 A 
ATOM      6  C   UNL     1      86.503  -0.018   6.667  1.00  0.00     0.134 A 
ATOM      7  C   UNL     1      86.052   0.875   7.647  1.00  0.00     0.093 A 
ATOM      8  C   UNL     1      85.502   2.109   7.299  1.00  0.00     0.123 A 
ATOM      9  C   UNL     1      85.390   2.462   5.953  1.00  0.00     0.094 A 
ATOM     10  C   UNL     1      85.798   1.578   4.952  1.00  0.00     0.146 A 
ATOM     11  O   UNL     1      85.665   1.948   3.685  1.00  0.00    -0.452 OA
ENDROOT
BRANCH   1  12
ATOM     12  C   UNL     1      85.827   1.719   1.291  1.00  0.00     0.025 A 
ATOM     13  C   UNL     1      86.912   2.338   0.650  1.00  0.00     0.016 A 
ATOM     14  C   UNL     1      86.777   2.837  -0.648  1.00  0.00     0.051 A 
ATOM     15  C   UNL     1      85.559   2.711  -1.330  1.00  0.00     0.157 A 
ATOM     16  C   UNL     1      84.612   1.575   0.594  1.00  0.00     0.062 A 
ATOM     17  C   UNL     1      84.477   2.075  -0.709  1.00  0.00     0.158 A 
BRANCH  15  18
ATOM     18  O   UNL     1      85.420   3.209  -2.624  1.00  0.00    -0.504 OA
ATOM     19  H   UNL     1      86.142   3.078  -3.323  1.00  0.00     0.293 HD
ENDBRANCH  15  18
BRANCH  17  20
ATOM     20  O   UNL     1      83.272   1.938  -1.395  1.00  0.00    -0.504 OA
ATOM     21  H   UNL     1      83.235   1.561  -2.335  1.00  0.00     0.293 HD
ENDBRANCH  17  20
ENDBRANCH   1  12
BRANCH   2  22
ATOM     22  O   UNL     1      86.745  -0.979   1.816  1.00  0.00    -0.502 OA
ATOM     23  H   UNL     1      87.647  -1.006   1.357  1.00  0.00     0.293 HD
ENDBRANCH   2  22
BRANCH   6  24
ATOM     24  O   UNL     1      87.125  -1.184   7.125  1.00  0.00    -0.507 OA
ATOM     25  H   UNL     1      88.091  -1.247   7.405  1.00  0.00     0.293 HD
ENDBRANCH   6  24
BRANCH   8  26
ATOM     26  O   UNL     1      85.078   2.980   8.300  1.00  0.00    -0.508 OA
ATOM     27  H   UNL     1      84.812   2.643   9.218  1.00  0.00     0.293 HD
ENDBRANCH   8  26
TORSDOF 6
ENDMDL
MODEL 5
REMARK VINA RESULT:    -6.046      3.908      6.525
REMARK INTER + INTRA:          -7.395
REMARK INTER:                  -7.087
REMARK INTRA:                  -0.308
REMARK UNBOUND:                -0.112
REMARK SMILES O=c1c(O)c(-c2ccc(O)c(O)c2)oc2cc(O)cc(O)c12
REMARK SMILES IDX 5 1 3 2 2 3 1 4 22 5 20 6 19 7 17 8 16 9 15 10 14 11 6 12
REMARK SMILES IDX 7 13 8 14 9 15 13 16 11 17 10 18 12 20 4 22 21 24 18 26
REMARK H PARENT 10 19 12 21 4 23 21 25 18 27
REMARK Flexibility Score: inf
ROOT
ATOM      1  C   UNL     1      86.061   2.512  -2.525  1.00  0.00     0.180 A 
ATOM      2  C   UNL     1      86.363   3.873  -2.699  1.00  0.00     0.208 A 
ATOM      3  C   UNL     1      86.536   4.372  -4.000  1.00  0.00     0.238 A 
ATOM      4  O   UNL     1      86.752   5.603  -4.152  1.00  0.00    -0.285 OA
ATOM      5  C   UNL     1      86.421   3.501  -5.110  1.00  0.00     0.111 A 
ATOM      6  C   UNL     1      86.615   3.889  -6.469  1.00  0.00     0.134 A 
ATOM      7  C   UNL     1      86.348   2.974  -7.495  1.00  0.00     0.093 A 
ATOM      8  C   UNL     1      85.956   1.666  -7.209  1.00  0.00     0.123 A 
ATOM      9  C   UNL     1      85.820   1.258  -5.880  1.00  0.00     0.094 A 
ATOM     10  C   UNL     1      86.045   2.159  -4.837  1.00  0.00     0.146 A 
ATOM     11  O   UNL     1      85.895   1.734  -3.589  1.00  0.00    -0.452 OA
ENDROOT
BRANCH   1  12
ATOM     12  C   UNL     1      85.890   1.908  -1.184  1.00  0.00     0.025 A 
ATOM     13  C   UNL     1      86.985   1.293  -0.558  1.00  0.00     0.016 A 
ATOM     14  C   UNL     1      86.851   0.735   0.717  1.00  0.00     0.051 A 
ATOM     15  C   UNL     1      85.624   0.800   1.390  1.00  0.00     0.157 A 
ATOM     16  C   UNL     1      84.665   1.989  -0.496  1.00  0.00     0.062 A 
ATOM     17  C   UNL     1      84.531   1.432   0.784  1.00  0.00     0.158 A 
BRANCH  15  18
ATOM     18  O   UNL     1      85.486   0.244   2.660  1.00  0.00    -0.504 OA
ATOM     19  H   UNL     1      84.584   0.188   3.120  1.00  0.00     0.293 HD
ENDBRANCH  15  18
BRANCH  17  20
ATOM     20  O   UNL     1      83.315   1.507   1.462  1.00  0.00    -0.504 OA
ATOM     21  H   UNL     1      83.273   1.552   2.474  1.00  0.00     0.293 HD
ENDBRANCH  17  20
ENDBRANCH   1  12
BRANCH   2  22
ATOM     22  O   UNL     1      86.451   4.722  -1.591  1.00  0.00    -0.502 OA
ATOM     23  H   UNL     1      86.815   4.413  -0.698  1.00  0.00     0.293 HD
ENDBRANCH   2  22
BRANCH   6  24
ATOM     24  O   UNL     1      87.093   5.144  -6.862  1.00  0.00    -0.507 OA
ATOM     25  H   UNL     1      87.273   5.912  -6.234  1.00  0.00     0.293 HD
ENDBRANCH   6  24
BRANCH   8  26
ATOM     26  O   UNL     1      85.714   0.777  -8.253  1.00  0.00    -0.508 OA
ATOM     27  H   UNL     1      86.402   0.090  -8.534  1.00  0.00     0.293 HD
ENDBRANCH   8  26
TORSDOF 6
ENDMDL
MODEL 6
REMARK VINA RESULT:    -6.029      6.679      8.325
REMARK INTER + INTRA:          -7.374
REMARK INTER:                  -7.336
REMARK INTRA:                  -0.038
REMARK UNBOUND:                -0.112
REMARK SMILES O=c1c(O)c(-c2ccc(O)c(O)c2)oc2cc(O)cc(O)c12
REMARK SMILES IDX 5 1 3 2 2 3 1 4 22 5 20 6 19 7 17 8 16 9 15 10 14 11 6 12
REMARK SMILES IDX 7 13 8 14 9 15 13 16 11 17 10 18 12 20 4 22 21 24 18 26
REMARK H PARENT 10 19 12 21 4 23 21 25 18 27
REMARK Flexibility Score: inf
ROOT
ATOM      1  C   UNL     1      85.426   2.158   6.620  1.00  0.00     0.180 A 
ATOM      2  C   UNL     1      85.914   0.976   7.203  1.00  0.00     0.208 A 
ATOM      3  C   UNL     1      86.389  -0.050   6.370  1.00  0.00     0.238 A 
ATOM      4  O   UNL     1      86.875  -1.083   6.900  1.00  0.00    -0.285 OA
ATOM      5  C   UNL     1      86.355   0.113   4.964  1.00  0.00     0.111 A 
ATOM      6  C   UNL     1      86.774  -0.875   4.024  1.00  0.00     0.134 A 
ATOM      7  C   UNL     1      86.818  -0.558   2.660  1.00  0.00     0.093 A 
ATOM      8  C   UNL     1      86.399   0.689   2.198  1.00  0.00     0.123 A 
ATOM      9  C   UNL     1      85.932   1.644   3.104  1.00  0.00     0.094 A 
ATOM     10  C   UNL     1      85.910   1.368   4.472  1.00  0.00     0.146 A 
ATOM     11  O   UNL     1      85.469   2.307   5.301  1.00  0.00    -0.452 OA
ENDROOT
BRANCH   1  12
ATOM     12  C   UNL     1      84.887   3.272   7.432  1.00  0.00     0.025 A 
ATOM     13  C   UNL     1      85.325   4.583   7.184  1.00  0.00     0.016 A 
ATOM     14  C   UNL     1      84.813   5.652   7.924  1.00  0.00     0.051 A 
ATOM     15  C   UNL     1      83.844   5.428   8.911  1.00  0.00     0.157 A 
ATOM     16  C   UNL     1      83.899   3.055   8.410  1.00  0.00     0.062 A 
ATOM     17  C   UNL     1      83.384   4.128   9.152  1.00  0.00     0.158 A 
BRANCH  15  18
ATOM     18  O   UNL     1      83.333   6.492   9.652  1.00  0.00    -0.504 OA
ATOM     19  H   UNL     1      82.697   6.341  10.427  1.00  0.00     0.293 HD
ENDBRANCH  15  18
BRANCH  17  20
ATOM     20  O   UNL     1      82.410   3.910  10.125  1.00  0.00    -0.504 OA
ATOM     21  H   UNL     1      82.498   4.292  11.059  1.00  0.00     0.293 HD
ENDBRANCH  17  20
ENDBRANCH   1  12
BRANCH   2  22
ATOM     22  O   UNL     1      85.959   0.845   8.595  1.00  0.00    -0.502 OA
ATOM     23  H   UNL     1      85.310   0.260   9.106  1.00  0.00     0.293 HD
ENDBRANCH   2  22
BRANCH   6  24
ATOM     24  O   UNL     1      87.125  -2.184   4.371  1.00  0.00    -0.507 OA
ATOM     25  H   UNL     1      87.857  -2.429   5.019  1.00  0.00     0.293 HD
ENDBRANCH   6  24
BRANCH   8  26
ATOM     26  O   UNL     1      86.442   0.966   0.833  1.00  0.00    -0.508 OA
ATOM     27  H   UNL     1      86.090   1.839   0.458  1.00  0.00     0.293 HD
ENDBRANCH   8  26
TORSDOF 6
ENDMDL
MODEL 7
REMARK VINA RESULT:    -5.895      7.148      9.734
REMARK INTER + INTRA:          -7.213
REMARK INTER:                  -7.282
REMARK INTRA:                   0.069
REMARK UNBOUND:                -0.112
REMARK SMILES O=c1c(O)c(-c2ccc(O)c(O)c2)oc2cc(O)cc(O)c12
REMARK SMILES IDX 5 1 3 2 2 3 1 4 22 5 20 6 19 7 17 8 16 9 15 10 14 11 6 12
REMARK SMILES IDX 7 13 8 14 9 15 13 16 11 17 10 18 12 20 4 22 21 24 18 26
REMARK H PARENT 10 19 12 21 4 23 21 25 18 27
REMARK Flexibility Score: inf
ROOT
ATOM      1  C   UNL     1      84.798   0.731  -7.207  1.00  0.00     0.180 A 
ATOM      2  C   UNL     1      83.569   0.663  -7.886  1.00  0.00     0.208 A 
ATOM      3  C   UNL     1      83.045  -0.595  -8.223  1.00  0.00     0.238 A 
ATOM      4  O   UNL     1      81.918  -0.652  -8.781  1.00  0.00    -0.285 OA
ATOM      5  C   UNL     1      83.764  -1.769  -7.890  1.00  0.00     0.111 A 
ATOM      6  C   UNL     1      83.347  -3.094  -8.218  1.00  0.00     0.134 A 
ATOM      7  C   UNL     1      84.070  -4.188  -7.726  1.00  0.00     0.093 A 
ATOM      8  C   UNL     1      85.231  -4.004  -6.974  1.00  0.00     0.123 A 
ATOM      9  C   UNL     1      85.680  -2.711  -6.698  1.00  0.00     0.094 A 
ATOM     10  C   UNL     1      84.960  -1.601  -7.145  1.00  0.00     0.146 A 
ATOM     11  O   UNL     1      85.416  -0.390  -6.852  1.00  0.00    -0.452 OA
ENDROOT
BRANCH   1  12
ATOM     12  C   UNL     1      85.425   2.021  -6.842  1.00  0.00     0.025 A 
ATOM     13  C   UNL     1      85.493   3.051  -7.793  1.00  0.00     0.016 A 
ATOM     14  C   UNL     1      86.061   4.284  -7.463  1.00  0.00     0.051 A 
ATOM     15  C   UNL     1      86.556   4.510  -6.172  1.00  0.00     0.157 A 
ATOM     16  C   UNL     1      85.904   2.260  -5.540  1.00  0.00     0.062 A 
ATOM     17  C   UNL     1      86.473   3.498  -5.208  1.00  0.00     0.158 A 
BRANCH  15  18
ATOM     18  O   UNL     1      87.125   5.738  -5.839  1.00  0.00    -0.504 OA
ATOM     19  H   UNL     1      86.736   6.612  -6.176  1.00  0.00     0.293 HD
ENDBRANCH  15  18
BRANCH  17  20
ATOM     20  O   UNL     1      86.953   3.731  -3.920  1.00  0.00    -0.504 OA
ATOM     21  H   UNL     1      87.589   4.494  -3.720  1.00  0.00     0.293 HD
ENDBRANCH  17  20
ENDBRANCH   1  12
BRANCH   2  22
ATOM     22  O   UNL     1      82.865   1.834  -8.185  1.00  0.00    -0.502 OA
ATOM     23  H   UNL     1      82.097   1.852  -8.844  1.00  0.00     0.293 HD
ENDBRANCH   2  22
BRANCH   6  24
ATOM     24  O   UNL     1      82.254  -3.388  -9.039  1.00  0.00    -0.507 OA
ATOM     25  H   UNL     1      82.313  -3.878  -9.919  1.00  0.00     0.293 HD
ENDBRANCH   6  24
BRANCH   8  26
ATOM     26  O   UNL     1      85.935  -5.114  -6.514  1.00  0.00    -0.508 OA
ATOM     27  H   UNL     1      86.935  -5.079  -6.355  1.00  0.00     0.293 HD
ENDBRANCH   8  26
TORSDOF 6
ENDMDL
MODEL 8
REMARK VINA RESULT:    -5.814      8.744     10.416
REMARK INTER + INTRA:          -7.116
REMARK INTER:                  -7.180
REMARK INTRA:                   0.064
REMARK UNBOUND:                -0.112
REMARK SMILES O=c1c(O)c(-c2ccc(O)c(O)c2)oc2cc(O)cc(O)c12
REMARK SMILES IDX 5 1 3 2 2 3 1 4 22 5 20 6 19 7 17 8 16 9 15 10 14 11 6 12
REMARK SMILES IDX 7 13 8 14 9 15 13 16 11 17 10 18 12 20 4 22 21 24 18 26
REMARK H PARENT 10 19 12 21 4 23 21 25 18 27
REMARK Flexibility Score: inf
ROOT
ATOM      1  C   UNL     1      84.683   5.494   7.181  1.00  0.00     0.180 A 
ATOM      2  C   UNL     1      83.443   5.403   7.836  1.00  0.00     0.208 A 
ATOM      3  C   UNL     1      83.000   4.149   8.286  1.00  0.00     0.238 A 
ATOM      4  O   UNL     1      81.915   4.082   8.920  1.00  0.00    -0.285 OA
ATOM      5  C   UNL     1      83.796   2.999   8.061  1.00  0.00     0.111 A 
ATOM      6  C   UNL     1      83.429   1.673   8.439  1.00  0.00     0.134 A 
ATOM      7  C   UNL     1      84.350   0.630   8.284  1.00  0.00     0.093 A 
ATOM      8  C   UNL     1      85.600   0.853   7.707  1.00  0.00     0.123 A 
ATOM      9  C   UNL     1      85.947   2.136   7.280  1.00  0.00     0.094 A 
ATOM     10  C   UNL     1      85.063   3.203   7.454  1.00  0.00     0.146 A 
ATOM     11  O   UNL     1      85.436   4.409   7.044  1.00  0.00    -0.452 OA
ENDROOT
BRANCH   1  12
ATOM     12  C   UNL     1      85.204   6.777   6.657  1.00  0.00     0.025 A 
ATOM     13  C   UNL     1      86.566   7.083   6.808  1.00  0.00     0.016 A 
ATOM     14  C   UNL     1      87.084   8.279   6.302  1.00  0.00     0.051 A 
ATOM     15  C   UNL     1      86.250   9.178   5.624  1.00  0.00     0.157 A 
ATOM     16  C   UNL     1      84.375   7.674   5.957  1.00  0.00     0.062 A 
ATOM     17  C   UNL     1      84.895   8.873   5.448  1.00  0.00     0.158 A 
BRANCH  15  18
ATOM     18  O   UNL     1      86.762  10.372   5.120  1.00  0.00    -0.504 OA
ATOM     19  H   UNL     1      86.159  11.080   4.717  1.00  0.00     0.293 HD
ENDBRANCH  15  18
BRANCH  17  20
ATOM     20  O   UNL     1      84.071   9.763   4.761  1.00  0.00    -0.504 OA
ATOM     21  H   UNL     1      84.012  10.740   5.021  1.00  0.00     0.293 HD
ENDBRANCH  17  20
ENDBRANCH   1  12
BRANCH   2  22
ATOM     22  O   UNL     1      82.683   6.554   8.067  1.00  0.00    -0.502 OA
ATOM     23  H   UNL     1      82.331   7.132   7.314  1.00  0.00     0.293 HD
ENDBRANCH   2  22
BRANCH   6  24
ATOM     24  O   UNL     1      82.171   1.324   8.939  1.00  0.00    -0.507 OA
ATOM     25  H   UNL     1      81.757   0.408   8.865  1.00  0.00     0.293 HD
ENDBRANCH   6  24
BRANCH   8  26
ATOM     26  O   UNL     1      86.486  -0.211   7.554  1.00  0.00    -0.508 OA
ATOM     27  H   UNL     1      87.000  -0.353   6.692  1.00  0.00     0.293 HD
ENDBRANCH   8  26
TORSDOF 6
ENDMDL
MODEL 9
REMARK VINA RESULT:    -5.703      6.037      8.093
REMARK INTER + INTRA:          -6.981
REMARK INTER:                  -7.045
REMARK INTRA:                   0.064
REMARK UNBOUND:                -0.112
REMARK SMILES O=c1c(O)c(-c2ccc(O)c(O)c2)oc2cc(O)cc(O)c12
REMARK SMILES IDX 5 1 3 2 2 3 1 4 22 5 20 6 19 7 17 8 16 9 15 10 14 11 6 12
REMARK SMILES IDX 7 13 8 14 9 15 13 16 11 17 10 18 12 20 4 22 21 24 18 26
REMARK H PARENT 10 19 12 21 4 23 21 25 18 27
REMARK Flexibility Score: inf
ROOT
ATOM      1  C   UNL     1      85.346   1.429  -6.688  1.00  0.00     0.180 A 
ATOM      2  C   UNL     1      85.743   2.624  -7.312  1.00  0.00     0.208 A 
ATOM      3  C   UNL     1      86.264   3.664  -6.525  1.00  0.00     0.238 A 
ATOM      4  O   UNL     1      86.669   4.710  -7.096  1.00  0.00    -0.285 OA
ATOM      5  C   UNL     1      86.366   3.501  -5.122  1.00  0.00     0.111 A 
ATOM      6  C   UNL     1      86.842   4.502  -4.223  1.00  0.00     0.134 A 
ATOM      7  C   UNL     1      87.022   4.187  -2.871  1.00  0.00     0.093 A 
ATOM      8  C   UNL     1      86.684   2.929  -2.373  1.00  0.00     0.123 A 
ATOM      9  C   UNL     1      86.162   1.961  -3.233  1.00  0.00     0.094 A 
ATOM     10  C   UNL     1      86.005   2.234  -4.594  1.00  0.00     0.146 A 
ATOM     11  O   UNL     1      85.515   1.283  -5.379  1.00  0.00    -0.452 OA
ENDROOT
BRANCH   1  12
ATOM     12  C   UNL     1      84.765   0.300  -7.448  1.00  0.00     0.025 A 
ATOM     13  C   UNL     1      85.147  -1.014  -7.133  1.00  0.00     0.016 A 
ATOM     14  C   UNL     1      84.595  -2.097  -7.824  1.00  0.00     0.051 A 
ATOM     15  C   UNL     1      83.642  -1.882  -8.828  1.00  0.00     0.157 A 
ATOM     16  C   UNL     1      83.792   0.509  -8.444  1.00  0.00     0.062 A 
ATOM     17  C   UNL     1      83.237  -0.578  -9.135  1.00  0.00     0.158 A 
BRANCH  15  18
ATOM     18  O   UNL     1      83.091  -2.959  -9.520  1.00  0.00    -0.504 OA
ATOM     19  H   UNL     1      82.105  -3.186  -9.451  1.00  0.00     0.293 HD
ENDBRANCH  15  18
BRANCH  17  20
ATOM     20  O   UNL     1      82.278  -0.368 -10.125  1.00  0.00    -0.504 OA
ATOM     21  H   UNL     1      81.577  -1.067 -10.342  1.00  0.00     0.293 HD
ENDBRANCH  17  20
ENDBRANCH   1  12
BRANCH   2  22
ATOM     22  O   UNL     1      85.654   2.756  -8.702  1.00  0.00    -0.502 OA
ATOM     23  H   UNL     1      85.122   2.113  -9.275  1.00  0.00     0.293 HD
ENDBRANCH   2  22
BRANCH   6  24
ATOM     24  O   UNL     1      87.122   5.820  -4.599  1.00  0.00    -0.507 OA
ATOM     25  H   UNL     1      87.374   6.558  -3.960  1.00  0.00     0.293 HD
ENDBRANCH   6  24
BRANCH   8  26
ATOM     26  O   UNL     1      86.862   2.654  -1.019  1.00  0.00    -0.508 OA
ATOM     27  H   UNL     1      87.675   2.985  -0.514  1.00  0.00     0.293 HD
ENDBRANCH   8  26
TORSDOF 6
ENDMDL
