MODEL 1
REMARK VINA RESULT:    -3.362      0.000      0.000
REMARK INTER + INTRA:         -12.317
REMARK INTER:                  -7.686
REMARK INTRA:                  -4.631
REMARK UNBOUND:                -4.631
REMARK SMILES CCCCCCCCCCCCCCCCCCCCCCCC(=O)[O-]
REMARK SMILES IDX 13 1 14 2 15 3 16 4 17 5 18 6 19 7 20 8 21 9 22 10 23 11
REMARK SMILES IDX 24 12 25 13 26 14 12 15 11 16 10 17 9 18 8 19 7 20 6 21 5 22
REMARK SMILES IDX 4 23 3 24 2 25 1 26
REMARK H PARENT
REMARK Flexibility Score: inf
ROOT
ATOM      1  C   UNL     1      18.977  -5.103  28.354  1.00  0.00     0.000 C 
ENDROOT
BRANCH   1   2
ATOM      2  C   UNL     1      17.471  -5.248  28.627  1.00  0.00     0.000 C 
BRANCH   2   3
ATOM      3  C   UNL     1      17.182  -6.053  29.902  1.00  0.00     0.000 C 
BRANCH   3   4
ATOM      4  C   UNL     1      17.174  -5.145  31.140  1.00  0.00     0.000 C 
BRANCH   4   5
ATOM      5  C   UNL     1      18.442  -5.296  32.001  1.00  0.00     0.000 C 
BRANCH   5   6
ATOM      6  C   UNL     1      18.479  -6.550  32.899  1.00  0.00     0.000 C 
BRANCH   6   7
ATOM      7  C   UNL     1      19.844  -6.848  33.547  1.00  0.00     0.000 C 
BRANCH   7   8
ATOM      8  C   UNL     1      20.049  -8.314  33.973  1.00  0.00     0.000 C 
BRANCH   8   9
ATOM      9  C   UNL     1      18.728  -9.100  34.135  1.00  0.00     0.000 C 
BRANCH   9  10
ATOM     10  C   UNL     1      18.761 -10.456  33.415  1.00  0.00     0.006 C 
BRANCH  10  11
ATOM     11  C   UNL     1      20.173 -11.048  33.424  1.00  0.00     0.053 C 
BRANCH  11  12
ATOM     12  C   UNL     1      20.126 -12.526  33.193  1.00  0.00     0.041 C 
ATOM     13  O   UNL     1      19.644 -12.983  32.123  1.00  0.00    -0.550 OA
ATOM     14  O   UNL     1      20.583 -13.400  34.171  1.00  0.00    -0.550 OA
ENDBRANCH  11  12
ENDBRANCH  10  11
ENDBRANCH   9  10
ENDBRANCH   8   9
ENDBRANCH   7   8
ENDBRANCH   6   7
ENDBRANCH   5   6
ENDBRANCH   4   5
ENDBRANCH   3   4
ENDBRANCH   2   3
ENDBRANCH   1   2
BRANCH   1  15
ATOM     15  C   UNL     1      19.555  -6.309  27.594  1.00  0.00     0.000 C 
BRANCH  15  16
ATOM     16  C   UNL     1      20.891  -6.793  28.180  1.00  0.00     0.000 C 
BRANCH  16  17
ATOM     17  C   UNL     1      20.881  -6.816  29.720  1.00  0.00     0.000 C 
BRANCH  17  18
ATOM     18  C   UNL     1      20.903  -8.243  30.291  1.00  0.00    -0.000 C 
BRANCH  18  19
ATOM     19  C   UNL     1      19.513  -8.905  30.268  1.00  0.00    -0.000 C 
BRANCH  19  20
ATOM     20  C   UNL     1      19.550 -10.355  29.751  1.00  0.00    -0.000 C 
BRANCH  20  21
ATOM     21  C   UNL     1      20.505 -10.603  28.570  1.00  0.00    -0.000 C 
BRANCH  21  22
ATOM     22  C   UNL     1      19.887 -10.242  27.210  1.00  0.00    -0.000 C 
BRANCH  22  23
ATOM     23  C   UNL     1      18.714 -11.175  26.873  1.00  0.00    -0.000 C 
BRANCH  23  24
ATOM     24  C   UNL     1      17.481 -10.401  26.358  1.00  0.00    -0.000 C 
BRANCH  24  25
ATOM     25  C   UNL     1      17.248  -9.064  27.079  1.00  0.00    -0.003 C 
ATOM     26  C   UNL     1      16.298  -9.183  28.269  1.00  0.00     0.004 C 
ENDBRANCH  24  25
ENDBRANCH  23  24
ENDBRANCH  22  23
ENDBRANCH  21  22
ENDBRANCH  20  21
ENDBRANCH  19  20
ENDBRANCH  18  19
ENDBRANCH  17  18
ENDBRANCH  16  17
ENDBRANCH  15  16
ENDBRANCH   1  15
TORSDOF 22
ENDMDL
MODEL 2
REMARK VINA RESULT:    -3.353      2.431      5.350
REMARK INTER + INTRA:         -12.297
REMARK INTER:                  -7.736
REMARK INTRA:                  -4.561
REMARK UNBOUND:                -4.631
REMARK SMILES CCCCCCCCCCCCCCCCCCCCCCCC(=O)[O-]
REMARK SMILES IDX 13 1 14 2 15 3 16 4 17 5 18 6 19 7 20 8 21 9 22 10 23 11
REMARK SMILES IDX 24 12 25 13 26 14 12 15 11 16 10 17 9 18 8 19 7 20 6 21 5 22
REMARK SMILES IDX 4 23 3 24 2 25 1 26
REMARK H PARENT
REMARK Flexibility Score: inf
ROOT
ATOM      1  C   UNL     1      18.328  -7.786  32.580  1.00  0.00     0.000 C 
ENDROOT
BRANCH   1   2
ATOM      2  C   UNL     1      17.769  -6.565  33.328  1.00  0.00     0.000 C 
BRANCH   2   3
ATOM      3  C   UNL     1      16.572  -5.932  32.604  1.00  0.00     0.000 C 
BRANCH   3   4
ATOM      4  C   UNL     1      17.015  -4.749  31.731  1.00  0.00     0.000 C 
BRANCH   4   5
ATOM      5  C   UNL     1      16.756  -4.983  30.231  1.00  0.00     0.000 C 
BRANCH   5   6
ATOM      6  C   UNL     1      17.986  -5.436  29.417  1.00  0.00     0.000 C 
BRANCH   6   7
ATOM      7  C   UNL     1      19.348  -5.140  30.073  1.00  0.00     0.000 C 
BRANCH   7   8
ATOM      8  C   UNL     1      20.433  -6.201  29.811  1.00  0.00     0.000 C 
BRANCH   8   9
ATOM      9  C   UNL     1      20.629  -6.527  28.314  1.00  0.00     0.000 C 
BRANCH   9  10
ATOM     10  C   UNL     1      20.440  -8.020  28.009  1.00  0.00     0.006 C 
BRANCH  10  11
ATOM     11  C   UNL     1      19.106  -8.271  27.301  1.00  0.00     0.053 C 
BRANCH  11  12
ATOM     12  C   UNL     1      19.005  -9.695  26.855  1.00  0.00     0.041 C 
ATOM     13  O   UNL     1      20.031 -10.426  26.836  1.00  0.00    -0.550 OA
ATOM     14  O   UNL     1      17.787 -10.208  26.428  1.00  0.00    -0.550 OA
ENDBRANCH  11  12
ENDBRANCH  10  11
ENDBRANCH   9  10
ENDBRANCH   8   9
ENDBRANCH   7   8
ENDBRANCH   6   7
ENDBRANCH   5   6
ENDBRANCH   4   5
ENDBRANCH   3   4
ENDBRANCH   2   3
ENDBRANCH   1   2
BRANCH   1  15
ATOM     15  C   UNL     1      17.286  -8.433  31.651  1.00  0.00     0.000 C 
BRANCH  15  16
ATOM     16  C   UNL     1      17.921  -9.359  30.602  1.00  0.00     0.000 C 
BRANCH  16  17
ATOM     17  C   UNL     1      19.400  -9.659  30.905  1.00  0.00     0.000 C 
BRANCH  17  18
ATOM     18  C   UNL     1      19.879 -10.978  30.277  1.00  0.00    -0.000 C 
BRANCH  18  19
ATOM     19  C   UNL     1      21.216 -11.458  30.870  1.00  0.00    -0.000 C 
BRANCH  19  20
ATOM     20  C   UNL     1      21.133 -12.878  31.461  1.00  0.00    -0.000 C 
BRANCH  20  21
ATOM     21  C   UNL     1      19.878 -13.161  32.307  1.00  0.00    -0.000 C 
BRANCH  21  22
ATOM     22  C   UNL     1      19.892 -12.438  33.663  1.00  0.00    -0.000 C 
BRANCH  22  23
ATOM     23  C   UNL     1      18.597 -11.641  33.875  1.00  0.00    -0.000 C 
BRANCH  23  24
ATOM     24  C   UNL     1      17.455 -12.126  32.956  1.00  0.00    -0.000 C 
BRANCH  24  25
ATOM     25  C   UNL     1      16.065 -11.632  33.388  1.00  0.00    -0.003 C 
ATOM     26  C   UNL     1      16.122 -10.481  34.391  1.00  0.00     0.004 C 
ENDBRANCH  24  25
ENDBRANCH  23  24
ENDBRANCH  22  23
ENDBRANCH  21  22
ENDBRANCH  20  21
ENDBRANCH  19  20
ENDBRANCH  18  19
ENDBRANCH  17  18
ENDBRANCH  16  17
ENDBRANCH  15  16
ENDBRANCH   1  15
TORSDOF 22
ENDMDL
MODEL 3
REMARK VINA RESULT:    -3.325      2.868      4.537
REMARK INTER + INTRA:         -12.232
REMARK INTER:                  -7.871
REMARK INTRA:                  -4.361
REMARK UNBOUND:                -4.631
REMARK SMILES CCCCCCCCCCCCCCCCCCCCCCCC(=O)[O-]
REMARK SMILES IDX 13 1 14 2 15 3 16 4 17 5 18 6 19 7 20 8 21 9 22 10 23 11
REMARK SMILES IDX 24 12 25 13 26 14 12 15 11 16 10 17 9 18 8 19 7 20 6 21 5 22
REMARK SMILES IDX 4 23 3 24 2 25 1 26
REMARK H PARENT
REMARK Flexibility Score: inf
ROOT
ATOM      1  C   UNL     1      20.000  -4.790  30.995  1.00  0.00     0.000 C 
ENDROOT
BRANCH   1   2
ATOM      2  C   UNL     1      18.621  -4.995  31.642  1.00  0.00     0.000 C 
BRANCH   2   3
ATOM      3  C   UNL     1      17.578  -5.521  30.645  1.00  0.00     0.000 C 
BRANCH   3   4
ATOM      4  C   UNL     1      16.938  -6.823  31.148  1.00  0.00     0.000 C 
BRANCH   4   5
ATOM      5  C   UNL     1      17.479  -7.263  32.521  1.00  0.00     0.000 C 
BRANCH   5   6
ATOM      6  C   UNL     1      18.147  -8.654  32.548  1.00  0.00     0.000 C 
BRANCH   6   7
ATOM      7  C   UNL     1      19.676  -8.646  32.368  1.00  0.00     0.000 C 
BRANCH   7   8
ATOM      8  C   UNL     1      20.431  -7.696  33.316  1.00  0.00     0.000 C 
BRANCH   8   9
ATOM      9  C   UNL     1      20.898  -8.372  34.625  1.00  0.00     0.000 C 
BRANCH   9  10
ATOM     10  C   UNL     1      20.065  -7.937  35.839  1.00  0.00     0.006 C 
BRANCH  10  11
ATOM     11  C   UNL     1      19.649  -6.468  35.722  1.00  0.00     0.053 C 
BRANCH  11  12
ATOM     12  C   UNL     1      20.398  -5.628  36.708  1.00  0.00     0.041 C 
ATOM     13  O   UNL     1      21.657  -5.660  36.740  1.00  0.00    -0.550 OA
ATOM     14  O   UNL     1      19.706  -4.835  37.615  1.00  0.00    -0.550 OA
ENDBRANCH  11  12
ENDBRANCH  10  11
ENDBRANCH   9  10
ENDBRANCH   8   9
ENDBRANCH   7   8
ENDBRANCH   6   7
ENDBRANCH   5   6
ENDBRANCH   4   5
ENDBRANCH   3   4
ENDBRANCH   2   3
ENDBRANCH   1   2
BRANCH   1  15
ATOM     15  C   UNL     1      20.120  -5.495  29.632  1.00  0.00     0.000 C 
BRANCH  15  16
ATOM     16  C   UNL     1      21.027  -6.735  29.684  1.00  0.00     0.000 C 
BRANCH  16  17
ATOM     17  C   UNL     1      20.743  -7.716  28.532  1.00  0.00     0.000 C 
BRANCH  17  18
ATOM     18  C   UNL     1      19.249  -7.804  28.182  1.00  0.00    -0.000 C 
BRANCH  18  19
ATOM     19  C   UNL     1      18.568  -9.029  28.819  1.00  0.00    -0.000 C 
BRANCH  19  20
ATOM     20  C   UNL     1      19.398 -10.318  28.673  1.00  0.00    -0.000 C 
BRANCH  20  21
ATOM     21  C   UNL     1      19.650 -11.084  29.983  1.00  0.00    -0.000 C 
BRANCH  21  22
ATOM     22  C   UNL     1      21.143 -11.298  30.276  1.00  0.00    -0.000 C 
BRANCH  22  23
ATOM     23  C   UNL     1      21.348 -12.430  31.294  1.00  0.00    -0.000 C 
BRANCH  23  24
ATOM     24  C   UNL     1      20.014 -12.928  31.890  1.00  0.00    -0.000 C 
BRANCH  24  25
ATOM     25  C   UNL     1      20.061 -13.142  33.411  1.00  0.00    -0.003 C 
ATOM     26  C   UNL     1      19.682 -11.893  34.205  1.00  0.00     0.004 C 
ENDBRANCH  24  25
ENDBRANCH  23  24
ENDBRANCH  22  23
ENDBRANCH  21  22
ENDBRANCH  20  21
ENDBRANCH  19  20
ENDBRANCH  18  19
ENDBRANCH  17  18
ENDBRANCH  16  17
ENDBRANCH  15  16
ENDBRANCH   1  15
TORSDOF 22
ENDMDL
MODEL 4
REMARK VINA RESULT:    -3.295      2.399      6.325
REMARK INTER + INTRA:         -12.163
REMARK INTER:                  -7.559
REMARK INTRA:                  -4.604
REMARK UNBOUND:                -4.631
REMARK SMILES CCCCCCCCCCCCCCCCCCCCCCCC(=O)[O-]
REMARK SMILES IDX 13 1 14 2 15 3 16 4 17 5 18 6 19 7 20 8 21 9 22 10 23 11
REMARK SMILES IDX 24 12 25 13 26 14 12 15 11 16 10 17 9 18 8 19 7 20 6 21 5 22
REMARK SMILES IDX 4 23 3 24 2 25 1 26
REMARK H PARENT
REMARK Flexibility Score: inf
ROOT
ATOM      1  C   UNL     1      20.417 -11.004  29.648  1.00  0.00     0.000 C 
ENDROOT
BRANCH   1   2
ATOM      2  C   UNL     1      20.740  -9.580  29.169  1.00  0.00     0.000 C 
BRANCH   2   3
ATOM      3  C   UNL     1      20.761  -8.565  30.321  1.00  0.00     0.000 C 
BRANCH   3   4
ATOM      4  C   UNL     1      20.949  -7.134  29.795  1.00  0.00     0.000 C 
BRANCH   4   5
ATOM      5  C   UNL     1      20.784  -7.033  28.268  1.00  0.00     0.000 C 
BRANCH   5   6
ATOM      6  C   UNL     1      19.875  -5.885  27.781  1.00  0.00     0.000 C 
BRANCH   6   7
ATOM      7  C   UNL     1      18.629  -5.628  28.650  1.00  0.00     0.000 C 
BRANCH   7   8
ATOM      8  C   UNL     1      17.425  -6.533  28.331  1.00  0.00     0.000 C 
BRANCH   8   9
ATOM      9  C   UNL     1      17.244  -7.696  29.333  1.00  0.00     0.000 C 
BRANCH   9  10
ATOM     10  C   UNL     1      17.210  -9.066  28.641  1.00  0.00     0.006 C 
BRANCH  10  11
ATOM     11  C   UNL     1      17.618  -8.948  27.169  1.00  0.00     0.053 C 
BRANCH  11  12
ATOM     12  C   UNL     1      17.550 -10.282  26.495  1.00  0.00     0.041 C 
ATOM     13  O   UNL     1      18.340 -11.203  26.835  1.00  0.00    -0.550 OA
ATOM     14  O   UNL     1      16.640 -10.499  25.468  1.00  0.00    -0.550 OA
ENDBRANCH  11  12
ENDBRANCH  10  11
ENDBRANCH   9  10
ENDBRANCH   8   9
ENDBRANCH   7   8
ENDBRANCH   6   7
ENDBRANCH   5   6
ENDBRANCH   4   5
ENDBRANCH   3   4
ENDBRANCH   2   3
ENDBRANCH   1   2
BRANCH   1  15
ATOM     15  C   UNL     1      20.920 -11.271  31.077  1.00  0.00     0.000 C 
BRANCH  15  16
ATOM     16  C   UNL     1      20.601 -12.694  31.561  1.00  0.00     0.000 C 
BRANCH  16  17
ATOM     17  C   UNL     1      20.704 -12.828  33.092  1.00  0.00     0.000 C 
BRANCH  17  18
ATOM     18  C   UNL     1      19.341 -13.070  33.759  1.00  0.00    -0.000 C 
BRANCH  18  19
ATOM     19  C   UNL     1      18.165 -12.814  32.799  1.00  0.00    -0.000 C 
BRANCH  19  20
ATOM     20  C   UNL     1      17.392 -11.524  33.129  1.00  0.00    -0.000 C 
BRANCH  20  21
ATOM     21  C   UNL     1      17.572 -10.377  32.119  1.00  0.00    -0.000 C 
BRANCH  21  22
ATOM     22  C   UNL     1      18.109  -9.089  32.761  1.00  0.00    -0.000 C 
BRANCH  22  23
ATOM     23  C   UNL     1      18.722  -9.375  34.140  1.00  0.00    -0.000 C 
BRANCH  23  24
ATOM     24  C   UNL     1      20.263  -9.270  34.128  1.00  0.00    -0.000 C 
BRANCH  24  25
ATOM     25  C   UNL     1      20.781  -7.838  33.927  1.00  0.00    -0.003 C 
ATOM     26  C   UNL     1      20.198  -6.843  34.929  1.00  0.00     0.004 C 
ENDBRANCH  24  25
ENDBRANCH  23  24
ENDBRANCH  22  23
ENDBRANCH  21  22
ENDBRANCH  20  21
ENDBRANCH  19  20
ENDBRANCH  18  19
ENDBRANCH  17  18
ENDBRANCH  16  17
ENDBRANCH  15  16
ENDBRANCH   1  15
TORSDOF 22
ENDMDL
MODEL 5
REMARK VINA RESULT:    -3.271      2.189      5.214
REMARK INTER + INTRA:         -12.108
REMARK INTER:                  -7.941
REMARK INTRA:                  -4.167
REMARK UNBOUND:                -4.631
REMARK SMILES CCCCCCCCCCCCCCCCCCCCCCCC(=O)[O-]
REMARK SMILES IDX 13 1 14 2 15 3 16 4 17 5 18 6 19 7 20 8 21 9 22 10 23 11
REMARK SMILES IDX 24 12 25 13 26 14 12 15 11 16 10 17 9 18 8 19 7 20 6 21 5 22
REMARK SMILES IDX 4 23 3 24 2 25 1 26
REMARK H PARENT
REMARK Flexibility Score: inf
ROOT
ATOM      1  C   UNL     1      20.824  -6.814  29.799  1.00  0.00     0.000 C 
ENDROOT
BRANCH   1   2
ATOM      2  C   UNL     1      20.720  -7.462  28.410  1.00  0.00     0.000 C 
BRANCH   2   3
ATOM      3  C   UNL     1      20.678  -8.995  28.480  1.00  0.00     0.000 C 
BRANCH   3   4
ATOM      4  C   UNL     1      20.744  -9.485  29.934  1.00  0.00     0.000 C 
BRANCH   4   5
ATOM      5  C   UNL     1      20.191 -10.912  30.110  1.00  0.00     0.000 C 
BRANCH   5   6
ATOM      6  C   UNL     1      21.161 -11.913  30.771  1.00  0.00     0.000 C 
BRANCH   6   7
ATOM      7  C   UNL     1      20.880 -12.209  32.256  1.00  0.00     0.000 C 
BRANCH   7   8
ATOM      8  C   UNL     1      19.673 -13.130  32.512  1.00  0.00     0.000 C 
BRANCH   8   9
ATOM      9  C   UNL     1      18.340 -12.367  32.685  1.00  0.00     0.000 C 
BRANCH   9  10
ATOM     10  C   UNL     1      17.185 -13.292  33.095  1.00  0.00     0.006 C 
BRANCH  10  11
ATOM     11  C   UNL     1      16.793 -13.065  34.558  1.00  0.00     0.053 C 
BRANCH  11  12
ATOM     12  C   UNL     1      17.035 -14.300  35.367  1.00  0.00     0.041 C 
ATOM     13  O   UNL     1      18.137 -14.904  35.284  1.00  0.00    -0.550 OA
ATOM     14  O   UNL     1      16.032 -14.804  36.186  1.00  0.00    -0.550 OA
ENDBRANCH  11  12
ENDBRANCH  10  11
ENDBRANCH   9  10
ENDBRANCH   8   9
ENDBRANCH   7   8
ENDBRANCH   6   7
ENDBRANCH   5   6
ENDBRANCH   4   5
ENDBRANCH   3   4
ENDBRANCH   2   3
ENDBRANCH   1   2
BRANCH   1  15
ATOM     15  C   UNL     1      20.154  -5.430  29.853  1.00  0.00     0.000 C 
BRANCH  15  16
ATOM     16  C   UNL     1      19.782  -5.007  31.283  1.00  0.00     0.000 C 
BRANCH  16  17
ATOM     17  C   UNL     1      18.267  -5.095  31.544  1.00  0.00     0.000 C 
BRANCH  17  18
ATOM     18  C   UNL     1      17.469  -5.475  30.287  1.00  0.00    -0.000 C 
BRANCH  18  19
ATOM     19  C   UNL     1      16.621  -6.743  30.491  1.00  0.00    -0.000 C 
BRANCH  19  20
ATOM     20  C   UNL     1      17.461  -8.033  30.478  1.00  0.00    -0.000 C 
BRANCH  20  21
ATOM     21  C   UNL     1      17.147  -9.029  31.609  1.00  0.00    -0.000 C 
BRANCH  21  22
ATOM     22  C   UNL     1      17.648  -8.555  32.983  1.00  0.00    -0.000 C 
BRANCH  22  23
ATOM     23  C   UNL     1      19.166  -8.325  32.966  1.00  0.00    -0.000 C 
BRANCH  23  24
ATOM     24  C   UNL     1      19.910  -9.256  33.948  1.00  0.00    -0.000 C 
BRANCH  24  25
ATOM     25  C   UNL     1      19.062  -9.675  35.160  1.00  0.00    -0.003 C 
ATOM     26  C   UNL     1      19.580 -10.937  35.847  1.00  0.00     0.004 C 
ENDBRANCH  24  25
ENDBRANCH  23  24
ENDBRANCH  22  23
ENDBRANCH  21  22
ENDBRANCH  20  21
ENDBRANCH  19  20
ENDBRANCH  18  19
ENDBRANCH  17  18
ENDBRANCH  16  17
ENDBRANCH  15  16
ENDBRANCH   1  15
TORSDOF 22
ENDMDL
MODEL 6
REMARK VINA RESULT:    -3.261      1.550      3.735
REMARK INTER + INTRA:         -12.087
REMARK INTER:                  -6.989
REMARK INTRA:                  -5.098
REMARK UNBOUND:                -4.631
REMARK SMILES CCCCCCCCCCCCCCCCCCCCCCCC(=O)[O-]
REMARK SMILES IDX 13 1 14 2 15 3 16 4 17 5 18 6 19 7 20 8 21 9 22 10 23 11
REMARK SMILES IDX 24 12 25 13 26 14 12 15 11 16 10 17 9 18 8 19 7 20 6 21 5 22
REMARK SMILES IDX 4 23 3 24 2 25 1 26
REMARK H PARENT
REMARK Flexibility Score: inf
ROOT
ATOM      1  C   UNL     1      16.600  -7.826  30.355  1.00  0.00     0.000 C 
ENDROOT
BRANCH   1   2
ATOM      2  C   UNL     1      17.127  -9.077  29.635  1.00  0.00     0.000 C 
BRANCH   2   3
ATOM      3  C   UNL     1      18.259  -8.752  28.650  1.00  0.00     0.000 C 
BRANCH   3   4
ATOM      4  C   UNL     1      19.305  -9.877  28.617  1.00  0.00     0.000 C 
BRANCH   4   5
ATOM      5  C   UNL     1      20.732  -9.373  28.901  1.00  0.00     0.000 C 
BRANCH   5   6
ATOM      6  C   UNL     1      20.816  -8.014  29.627  1.00  0.00     0.000 C 
BRANCH   6   7
ATOM      7  C   UNL     1      21.144  -8.097  31.130  1.00  0.00     0.000 C 
BRANCH   7   8
ATOM      8  C   UNL     1      20.016  -7.618  32.062  1.00  0.00     0.000 C 
BRANCH   8   9
ATOM      9  C   UNL     1      19.236  -8.771  32.733  1.00  0.00     0.000 C 
BRANCH   9  10
ATOM     10  C   UNL     1      20.035 -10.082  32.759  1.00  0.00     0.006 C 
BRANCH  10  11
ATOM     11  C   UNL     1      19.276 -11.203  32.044  1.00  0.00     0.053 C 
BRANCH  11  12
ATOM     12  C   UNL     1      20.214 -12.288  31.619  1.00  0.00     0.041 C 
ATOM     13  O   UNL     1      21.365 -11.998  31.196  1.00  0.00    -0.550 OA
ATOM     14  O   UNL     1      19.808 -13.616  31.656  1.00  0.00    -0.550 OA
ENDBRANCH  11  12
ENDBRANCH  10  11
ENDBRANCH   9  10
ENDBRANCH   8   9
ENDBRANCH   7   8
ENDBRANCH   6   7
ENDBRANCH   5   6
ENDBRANCH   4   5
ENDBRANCH   3   4
ENDBRANCH   2   3
ENDBRANCH   1   2
BRANCH   1  15
ATOM     15  C   UNL     1      16.764  -6.550  29.511  1.00  0.00     0.000 C 
BRANCH  15  16
ATOM     16  C   UNL     1      17.565  -5.458  30.238  1.00  0.00     0.000 C 
BRANCH  16  17
ATOM     17  C   UNL     1      18.852  -5.076  29.482  1.00  0.00     0.000 C 
BRANCH  17  18
ATOM     18  C   UNL     1      18.612  -4.845  27.982  1.00  0.00    -0.000 C 
BRANCH  18  19
ATOM     19  C   UNL     1      19.604  -5.628  27.103  1.00  0.00    -0.000 C 
BRANCH  19  20
ATOM     20  C   UNL     1      19.052  -5.927  25.698  1.00  0.00    -0.000 C 
BRANCH  20  21
ATOM     21  C   UNL     1      18.183  -7.194  25.594  1.00  0.00    -0.000 C 
BRANCH  21  22
ATOM     22  C   UNL     1      16.683  -6.909  25.766  1.00  0.00    -0.000 C 
BRANCH  22  23
ATOM     23  C   UNL     1      15.878  -8.216  25.825  1.00  0.00    -0.000 C 
BRANCH  23  24
ATOM     24  C   UNL     1      16.701  -9.431  25.348  1.00  0.00    -0.000 C 
BRANCH  24  25
ATOM     25  C   UNL     1      16.355 -10.736  26.083  1.00  0.00    -0.003 C 
ATOM     26  C   UNL     1      17.511 -11.734  26.111  1.00  0.00     0.004 C 
ENDBRANCH  24  25
ENDBRANCH  23  24
ENDBRANCH  22  23
ENDBRANCH  21  22
ENDBRANCH  20  21
ENDBRANCH  19  20
ENDBRANCH  18  19
ENDBRANCH  17  18
ENDBRANCH  16  17
ENDBRANCH  15  16
ENDBRANCH   1  15
TORSDOF 22
ENDMDL
MODEL 7
REMARK VINA RESULT:    -3.259      1.641      4.007
REMARK INTER + INTRA:         -12.082
REMARK INTER:                  -7.256
REMARK INTRA:                  -4.826
REMARK UNBOUND:                -4.631
REMARK SMILES CCCCCCCCCCCCCCCCCCCCCCCC(=O)[O-]
REMARK SMILES IDX 13 1 14 2 15 3 16 4 17 5 18 6 19 7 20 8 21 9 22 10 23 11
REMARK SMILES IDX 24 12 25 13 26 14 12 15 11 16 10 17 9 18 8 19 7 20 6 21 5 22
REMARK SMILES IDX 4 23 3 24 2 25 1 26
REMARK H PARENT
REMARK Flexibility Score: inf
ROOT
ATOM      1  C   UNL     1      18.612  -7.394  32.499  1.00  0.00     0.000 C 
ENDROOT
BRANCH   1   2
ATOM      2  C   UNL     1      19.560  -6.190  32.600  1.00  0.00     0.000 C 
BRANCH   2   3
ATOM      3  C   UNL     1      19.179  -5.061  31.632  1.00  0.00     0.000 C 
BRANCH   3   4
ATOM      4  C   UNL     1      20.182  -4.963  30.473  1.00  0.00     0.000 C 
BRANCH   4   5
ATOM      5  C   UNL     1      19.581  -5.402  29.124  1.00  0.00     0.000 C 
BRANCH   5   6
ATOM      6  C   UNL     1      20.608  -5.856  28.066  1.00  0.00     0.000 C 
BRANCH   6   7
ATOM      7  C   UNL     1      20.970  -7.352  28.109  1.00  0.00     0.000 C 
BRANCH   7   8
ATOM      8  C   UNL     1      19.967  -8.236  28.874  1.00  0.00     0.000 C 
BRANCH   8   9
ATOM      9  C   UNL     1      20.620  -9.105  29.971  1.00  0.00     0.000 C 
BRANCH   9  10
ATOM     10  C   UNL     1      19.806 -10.371  30.279  1.00  0.00     0.006 C 
BRANCH  10  11
ATOM     11  C   UNL     1      20.146 -10.917  31.668  1.00  0.00     0.053 C 
BRANCH  11  12
ATOM     12  C   UNL     1      20.767 -12.274  31.564  1.00  0.00     0.041 C 
ATOM     13  O   UNL     1      21.660 -12.496  30.704  1.00  0.00    -0.550 OA
ATOM     14  O   UNL     1      20.337 -13.303  32.392  1.00  0.00    -0.550 OA
ENDBRANCH  11  12
ENDBRANCH  10  11
ENDBRANCH   9  10
ENDBRANCH   8   9
ENDBRANCH   7   8
ENDBRANCH   6   7
ENDBRANCH   5   6
ENDBRANCH   4   5
ENDBRANCH   3   4
ENDBRANCH   2   3
ENDBRANCH   1   2
BRANCH   1  15
ATOM     15  C   UNL     1      17.338  -7.073  31.699  1.00  0.00     0.000 C 
BRANCH  15  16
ATOM     16  C   UNL     1      16.801  -8.288  30.926  1.00  0.00     0.000 C 
BRANCH  16  17
ATOM     17  C   UNL     1      16.337  -7.919  29.505  1.00  0.00     0.000 C 
BRANCH  17  18
ATOM     18  C   UNL     1      16.179  -6.403  29.308  1.00  0.00    -0.000 C 
BRANCH  18  19
ATOM     19  C   UNL     1      16.357  -5.982  27.837  1.00  0.00    -0.000 C 
BRANCH  19  20
ATOM     20  C   UNL     1      16.774  -7.151  26.926  1.00  0.00    -0.000 C 
BRANCH  20  21
ATOM     21  C   UNL     1      17.618  -6.756  25.701  1.00  0.00    -0.000 C 
BRANCH  21  22
ATOM     22  C   UNL     1      18.745  -7.756  25.400  1.00  0.00    -0.000 C 
BRANCH  22  23
ATOM     23  C   UNL     1      18.176  -9.095  24.908  1.00  0.00    -0.000 C 
BRANCH  23  24
ATOM     24  C   UNL     1      19.117 -10.279  25.219  1.00  0.00    -0.000 C 
BRANCH  24  25
ATOM     25  C   UNL     1      18.885 -10.902  26.605  1.00  0.00    -0.003 C 
ATOM     26  C   UNL     1      17.454 -10.726  27.110  1.00  0.00     0.004 C 
ENDBRANCH  24  25
ENDBRANCH  23  24
ENDBRANCH  22  23
ENDBRANCH  21  22
ENDBRANCH  20  21
ENDBRANCH  19  20
ENDBRANCH  18  19
ENDBRANCH  17  18
ENDBRANCH  16  17
ENDBRANCH  15  16
ENDBRANCH   1  15
TORSDOF 22
ENDMDL
MODEL 8
REMARK VINA RESULT:    -3.208      2.326      5.401
REMARK INTER + INTRA:         -11.964
REMARK INTER:                  -7.499
REMARK INTRA:                  -4.465
REMARK UNBOUND:                -4.631
REMARK SMILES CCCCCCCCCCCCCCCCCCCCCCCC(=O)[O-]
REMARK SMILES IDX 13 1 14 2 15 3 16 4 17 5 18 6 19 7 20 8 21 9 22 10 23 11
REMARK SMILES IDX 24 12 25 13 26 14 12 15 11 16 10 17 9 18 8 19 7 20 6 21 5 22
REMARK SMILES IDX 4 23 3 24 2 25 1 26
REMARK H PARENT
REMARK Flexibility Score: inf
ROOT
ATOM      1  C   UNL     1      19.719  -5.415  32.018  1.00  0.00     0.000 C 
ENDROOT
BRANCH   1   2
ATOM      2  C   UNL     1      19.796  -5.120  30.511  1.00  0.00     0.000 C 
BRANCH   2   3
ATOM      3  C   UNL     1      20.170  -6.363  29.690  1.00  0.00     0.000 C 
BRANCH   3   4
ATOM      4  C   UNL     1      19.059  -6.721  28.691  1.00  0.00     0.000 C 
BRANCH   4   5
ATOM      5  C   UNL     1      18.203  -5.506  28.290  1.00  0.00     0.000 C 
BRANCH   5   6
ATOM      6  C   UNL     1      16.687  -5.663  28.534  1.00  0.00     0.000 C 
BRANCH   6   7
ATOM      7  C   UNL     1      16.297  -6.797  29.501  1.00  0.00     0.000 C 
BRANCH   7   8
ATOM      8  C   UNL     1      15.196  -7.738  28.979  1.00  0.00     0.000 C 
BRANCH   8   9
ATOM      9  C   UNL     1      15.680  -9.186  28.745  1.00  0.00     0.000 C 
BRANCH   9  10
ATOM     10  C   UNL     1      16.022  -9.459  27.273  1.00  0.00     0.006 C 
BRANCH  10  11
ATOM     11  C   UNL     1      17.537  -9.437  27.048  1.00  0.00     0.053 C 
BRANCH  11  12
ATOM     12  C   UNL     1      18.032 -10.794  26.661  1.00  0.00     0.041 C 
ATOM     13  O   UNL     1      17.213 -11.715  26.397  1.00  0.00    -0.550 OA
ATOM     14  O   UNL     1      19.396 -11.054  26.624  1.00  0.00    -0.550 OA
ENDBRANCH  11  12
ENDBRANCH  10  11
ENDBRANCH   9  10
ENDBRANCH   8   9
ENDBRANCH   7   8
ENDBRANCH   6   7
ENDBRANCH   5   6
ENDBRANCH   4   5
ENDBRANCH   3   4
ENDBRANCH   2   3
ENDBRANCH   1   2
BRANCH   1  15
ATOM     15  C   UNL     1      18.614  -6.429  32.362  1.00  0.00     0.000 C 
BRANCH  15  16
ATOM     16  C   UNL     1      19.059  -7.456  33.414  1.00  0.00     0.000 C 
BRANCH  16  17
ATOM     17  C   UNL     1      19.096  -8.890  32.853  1.00  0.00     0.000 C 
BRANCH  17  18
ATOM     18  C   UNL     1      18.187  -9.071  31.628  1.00  0.00    -0.000 C 
BRANCH  18  19
ATOM     19  C   UNL     1      18.864  -9.885  30.510  1.00  0.00    -0.000 C 
BRANCH  19  20
ATOM     20  C   UNL     1      20.333 -10.225  30.824  1.00  0.00    -0.000 C 
BRANCH  20  21
ATOM     21  C   UNL     1      20.865 -11.503  30.151  1.00  0.00    -0.000 C 
BRANCH  21  22
ATOM     22  C   UNL     1      21.442 -12.514  31.153  1.00  0.00    -0.000 C 
BRANCH  22  23
ATOM     23  C   UNL     1      21.117 -12.105  32.598  1.00  0.00    -0.000 C 
BRANCH  23  24
ATOM     24  C   UNL     1      20.243 -13.154  33.319  1.00  0.00    -0.000 C 
BRANCH  24  25
ATOM     25  C   UNL     1      18.904 -12.595  33.826  1.00  0.00    -0.003 C 
ATOM     26  C   UNL     1      17.786 -12.683  32.790  1.00  0.00     0.004 C 
ENDBRANCH  24  25
ENDBRANCH  23  24
ENDBRANCH  22  23
ENDBRANCH  21  22
ENDBRANCH  20  21
ENDBRANCH  19  20
ENDBRANCH  18  19
ENDBRANCH  17  18
ENDBRANCH  16  17
ENDBRANCH  15  16
ENDBRANCH   1  15
TORSDOF 22
ENDMDL
MODEL 9
REMARK VINA RESULT:    -3.197      2.392      4.134
REMARK INTER + INTRA:         -11.939
REMARK INTER:                  -7.173
REMARK INTRA:                  -4.766
REMARK UNBOUND:                -4.631
REMARK SMILES CCCCCCCCCCCCCCCCCCCCCCCC(=O)[O-]
REMARK SMILES IDX 13 1 14 2 15 3 16 4 17 5 18 6 19 7 20 8 21 9 22 10 23 11
REMARK SMILES IDX 24 12 25 13 26 14 12 15 11 16 10 17 9 18 8 19 7 20 6 21 5 22
REMARK SMILES IDX 4 23 3 24 2 25 1 26
REMARK H PARENT
REMARK Flexibility Score: inf
ROOT
ATOM      1  C   UNL     1      18.512  -5.011  29.602  1.00  0.00     0.000 C 
ENDROOT
BRANCH   1   2
ATOM      2  C   UNL     1      17.112  -5.287  30.172  1.00  0.00     0.000 C 
BRANCH   2   3
ATOM      3  C   UNL     1      16.070  -5.537  29.073  1.00  0.00     0.000 C 
BRANCH   3   4
ATOM      4  C   UNL     1      15.606  -7.001  29.071  1.00  0.00     0.000 C 
BRANCH   4   5
ATOM      5  C   UNL     1      16.694  -7.971  28.573  1.00  0.00     0.000 C 
BRANCH   5   6
ATOM      6  C   UNL     1      17.026  -9.133  29.534  1.00  0.00     0.000 C 
BRANCH   6   7
ATOM      7  C   UNL     1      16.631  -8.895  31.004  1.00  0.00     0.000 C 
BRANCH   7   8
ATOM      8  C   UNL     1      17.767  -8.362  31.897  1.00  0.00     0.000 C 
BRANCH   8   9
ATOM      9  C   UNL     1      17.269  -7.525  33.096  1.00  0.00     0.000 C 
BRANCH   9  10
ATOM     10  C   UNL     1      18.370  -7.280  34.138  1.00  0.00     0.006 C 
BRANCH  10  11
ATOM     11  C   UNL     1      19.757  -7.530  33.540  1.00  0.00     0.053 C 
BRANCH  11  12
ATOM     12  C   UNL     1      20.821  -7.324  34.571  1.00  0.00     0.041 C 
ATOM     13  O   UNL     1      21.108  -6.160  34.960  1.00  0.00    -0.550 OA
ATOM     14  O   UNL     1      21.519  -8.412  35.080  1.00  0.00    -0.550 OA
ENDBRANCH  11  12
ENDBRANCH  10  11
ENDBRANCH   9  10
ENDBRANCH   8   9
ENDBRANCH   7   8
ENDBRANCH   6   7
ENDBRANCH   5   6
ENDBRANCH   4   5
ENDBRANCH   3   4
ENDBRANCH   2   3
ENDBRANCH   1   2
BRANCH   1  15
ATOM     15  C   UNL     1      19.629  -5.326  30.611  1.00  0.00     0.000 C 
BRANCH  15  16
ATOM     16  C   UNL     1      20.569  -6.442  30.126  1.00  0.00     0.000 C 
BRANCH  16  17
ATOM     17  C   UNL     1      20.282  -6.857  28.671  1.00  0.00     0.000 C 
BRANCH  17  18
ATOM     18  C   UNL     1      20.421  -8.371  28.448  1.00  0.00    -0.000 C 
BRANCH  18  19
ATOM     19  C   UNL     1      20.748  -9.127  29.748  1.00  0.00    -0.000 C 
BRANCH  19  20
ATOM     20  C   UNL     1      20.420 -10.629  29.667  1.00  0.00    -0.000 C 
BRANCH  20  21
ATOM     21  C   UNL     1      21.126 -11.510  30.713  1.00  0.00    -0.000 C 
BRANCH  21  22
ATOM     22  C   UNL     1      20.437 -11.480  32.086  1.00  0.00    -0.000 C 
BRANCH  22  23
ATOM     23  C   UNL     1      18.921 -11.691  31.947  1.00  0.00    -0.000 C 
BRANCH  23  24
ATOM     24  C   UNL     1      18.212 -11.757  33.317  1.00  0.00    -0.000 C 
BRANCH  24  25
ATOM     25  C   UNL     1      16.690 -11.939  33.214  1.00  0.00    -0.003 C 
ATOM     26  C   UNL     1      15.908 -10.953  34.079  1.00  0.00     0.004 C 
ENDBRANCH  24  25
ENDBRANCH  23  24
ENDBRANCH  22  23
ENDBRANCH  21  22
ENDBRANCH  20  21
ENDBRANCH  19  20
ENDBRANCH  18  19
ENDBRANCH  17  18
ENDBRANCH  16  17
ENDBRANCH  15  16
ENDBRANCH   1  15
TORSDOF 22
ENDMDL
