MODEL 1
REMARK VINA RESULT:    -3.926      0.000      0.000
REMARK INTER + INTRA:          -4.634
REMARK INTER:                  -4.500
REMARK INTRA:                  -0.134
REMARK UNBOUND:                -0.134
REMARK SMILES O=C([O-])C=Cc1ccc(O)cc1
REMARK SMILES IDX 6 1 7 2 12 3 8 4 11 5 9 6 5 7 4 8 2 9 1 10 3 11 10 12
REMARK H PARENT 10 13
REMARK Flexibility Score: inf
ROOT
ATOM      1  C   UNL     1      27.836  27.186  28.375  1.00  0.00    -0.025 A 
ATOM      2  C   UNL     1      28.968  26.416  28.692  1.00  0.00     0.012 A 
ATOM      3  C   UNL     1      26.597  26.844  28.956  1.00  0.00     0.012 A 
ATOM      4  C   UNL     1      28.863  25.315  29.548  1.00  0.00     0.047 A 
ATOM      5  C   UNL     1      26.497  25.743  29.813  1.00  0.00     0.047 A 
ATOM      6  C   UNL     1      27.629  24.975  30.109  1.00  0.00     0.115 A 
ENDROOT
BRANCH   1   7
ATOM      7  C   UNL     1      27.999  28.350  27.469  1.00  0.00     0.010 C 
ATOM      8  C   UNL     1      27.708  28.323  26.162  1.00  0.00     0.025 C 
BRANCH   8   9
ATOM      9  C   UNL     1      27.897  29.499  25.298  1.00  0.00     0.064 C 
ATOM     10  O   UNL     1      27.271  29.578  24.209  1.00  0.00    -0.545 OA
ATOM     11  O   UNL     1      28.755  30.530  25.668  1.00  0.00    -0.545 OA
ENDBRANCH   8   9
ENDBRANCH   1   7
BRANCH   6  12
ATOM     12  O   UNL     1      27.540  23.875  30.959  1.00  0.00    -0.508 OA
ATOM     13  H   UNL     1      27.233  23.973  31.920  1.00  0.00     0.293 HD
ENDBRANCH   6  12
TORSDOF 3
ENDMDL
MODEL 2
REMARK VINA RESULT:    -3.845      1.421      5.717
REMARK INTER + INTRA:          -4.541
REMARK INTER:                  -4.402
REMARK INTRA:                  -0.139
REMARK UNBOUND:                -0.134
REMARK SMILES O=C([O-])C=Cc1ccc(O)cc1
REMARK SMILES IDX 6 1 7 2 12 3 8 4 11 5 9 6 5 7 4 8 2 9 1 10 3 11 10 12
REMARK H PARENT 10 13
REMARK Flexibility Score: inf
ROOT
ATOM      1  C   UNL     1      28.016  27.947  26.928  1.00  0.00    -0.025 A 
ATOM      2  C   UNL     1      28.761  28.872  27.679  1.00  0.00     0.012 A 
ATOM      3  C   UNL     1      27.661  28.275  25.603  1.00  0.00     0.012 A 
ATOM      4  C   UNL     1      29.124  30.106  27.130  1.00  0.00     0.047 A 
ATOM      5  C   UNL     1      28.027  29.510  25.058  1.00  0.00     0.047 A 
ATOM      6  C   UNL     1      28.757  30.430  25.821  1.00  0.00     0.115 A 
ENDROOT
BRANCH   1   7
ATOM      7  C   UNL     1      27.663  26.647  27.551  1.00  0.00     0.010 C 
ATOM      8  C   UNL     1      26.956  26.531  28.682  1.00  0.00     0.025 C 
BRANCH   8   9
ATOM      9  C   UNL     1      26.639  25.220  29.271  1.00  0.00     0.064 C 
ATOM     10  O   UNL     1      25.734  24.511  28.758  1.00  0.00    -0.545 OA
ATOM     11  O   UNL     1      27.326  24.748  30.385  1.00  0.00    -0.545 OA
ENDBRANCH   8   9
ENDBRANCH   1   7
BRANCH   6  12
ATOM     12  O   UNL     1      29.125  31.663  25.288  1.00  0.00    -0.508 OA
ATOM     13  H   UNL     1      29.793  32.264  25.758  1.00  0.00     0.293 HD
ENDBRANCH   6  12
TORSDOF 3
ENDMDL
MODEL 3
REMARK VINA RESULT:    -3.591     15.645     16.260
REMARK INTER + INTRA:          -4.250
REMARK INTER:                  -4.099
REMARK INTRA:                  -0.151
REMARK UNBOUND:                -0.134
REMARK SMILES O=C([O-])C=Cc1ccc(O)cc1
REMARK SMILES IDX 6 1 7 2 12 3 8 4 11 5 9 6 5 7 4 8 2 9 1 10 3 11 10 12
REMARK H PARENT 10 13
REMARK Flexibility Score: inf
ROOT
ATOM      1  C   UNL     1      27.920  41.020  21.326  1.00  0.00    -0.025 A 
ATOM      2  C   UNL     1      26.660  40.897  20.716  1.00  0.00     0.012 A 
ATOM      3  C   UNL     1      29.059  40.556  20.636  1.00  0.00     0.012 A 
ATOM      4  C   UNL     1      26.535  40.303  19.456  1.00  0.00     0.047 A 
ATOM      5  C   UNL     1      28.928  39.963  19.375  1.00  0.00     0.047 A 
ATOM      6  C   UNL     1      27.666  39.833  18.784  1.00  0.00     0.115 A 
ENDROOT
BRANCH   1   7
ATOM      7  C   UNL     1      28.003  41.666  22.660  1.00  0.00     0.010 C 
ATOM      8  C   UNL     1      27.147  42.603  23.088  1.00  0.00     0.025 C 
BRANCH   8   9
ATOM      9  C   UNL     1      27.275  43.225  24.416  1.00  0.00     0.064 C 
ATOM     10  O   UNL     1      28.400  43.268  24.977  1.00  0.00    -0.545 OA
ATOM     11  O   UNL     1      26.170  43.771  25.061  1.00  0.00    -0.545 OA
ENDBRANCH   8   9
ENDBRANCH   1   7
BRANCH   6  12
ATOM     12  O   UNL     1      27.525  39.242  17.530  1.00  0.00    -0.508 OA
ATOM     13  H   UNL     1      28.304  39.180  16.885  1.00  0.00     0.293 HD
ENDBRANCH   6  12
TORSDOF 3
ENDMDL
MODEL 4
REMARK VINA RESULT:    -3.279     15.289     16.147
REMARK INTER + INTRA:          -3.892
REMARK INTER:                  -3.749
REMARK INTRA:                  -0.143
REMARK UNBOUND:                -0.134
REMARK SMILES O=C([O-])C=Cc1ccc(O)cc1
REMARK SMILES IDX 6 1 7 2 12 3 8 4 11 5 9 6 5 7 4 8 2 9 1 10 3 11 10 12
REMARK H PARENT 10 13
REMARK Flexibility Score: inf
ROOT
ATOM      1  C   UNL     1      27.842  42.123  21.910  1.00  0.00    -0.025 A 
ATOM      2  C   UNL     1      28.309  41.463  23.059  1.00  0.00     0.012 A 
ATOM      3  C   UNL     1      27.342  43.436  22.035  1.00  0.00     0.012 A 
ATOM      4  C   UNL     1      28.256  42.088  24.309  1.00  0.00     0.047 A 
ATOM      5  C   UNL     1      27.292  44.057  23.288  1.00  0.00     0.047 A 
ATOM      6  C   UNL     1      27.747  43.383  24.428  1.00  0.00     0.115 A 
ENDROOT
BRANCH   1   7
ATOM      7  C   UNL     1      27.927  41.423  20.604  1.00  0.00     0.010 C 
ATOM      8  C   UNL     1      27.510  40.165  20.405  1.00  0.00     0.025 C 
BRANCH   8   9
ATOM      9  C   UNL     1      27.625  39.506  19.094  1.00  0.00     0.064 C 
ATOM     10  O   UNL     1      28.764  39.228  18.635  1.00  0.00    -0.545 OA
ATOM     11  O   UNL     1      26.494  39.180  18.353  1.00  0.00    -0.545 OA
ENDBRANCH   8   9
ENDBRANCH   1   7
BRANCH   6  12
ATOM     12  O   UNL     1      27.700  43.992  25.680  1.00  0.00    -0.508 OA
ATOM     13  H   UNL     1      26.927  43.833  26.316  1.00  0.00     0.293 HD
ENDBRANCH   6  12
TORSDOF 3
ENDMDL
MODEL 5
REMARK VINA RESULT:    -3.125      3.100      4.404
REMARK INTER + INTRA:          -3.716
REMARK INTER:                  -3.574
REMARK INTRA:                  -0.141
REMARK UNBOUND:                -0.134
REMARK SMILES O=C([O-])C=Cc1ccc(O)cc1
REMARK SMILES IDX 6 1 7 2 12 3 8 4 11 5 9 6 5 7 4 8 2 9 1 10 3 11 10 12
REMARK H PARENT 10 13
REMARK Flexibility Score: inf
ROOT
ATOM      1  C   UNL     1      28.771  30.349  25.896  1.00  0.00    -0.025 A 
ATOM      2  C   UNL     1      29.125  30.162  27.243  1.00  0.00     0.012 A 
ATOM      3  C   UNL     1      28.071  29.322  25.229  1.00  0.00     0.012 A 
ATOM      4  C   UNL     1      28.810  28.970  27.904  1.00  0.00     0.047 A 
ATOM      5  C   UNL     1      27.758  28.132  25.893  1.00  0.00     0.047 A 
ATOM      6  C   UNL     1      28.129  27.952  27.231  1.00  0.00     0.115 A 
ENDROOT
BRANCH   1   7
ATOM      7  C   UNL     1      29.118  31.635  25.243  1.00  0.00     0.010 C 
ATOM      8  C   UNL     1      28.413  32.175  24.240  1.00  0.00     0.025 C 
BRANCH   8   9
ATOM      9  C   UNL     1      28.802  33.449  23.613  1.00  0.00     0.064 C 
ATOM     10  O   UNL     1      29.105  34.431  24.338  1.00  0.00    -0.545 OA
ATOM     11  O   UNL     1      28.843  33.584  22.229  1.00  0.00    -0.545 OA
ENDBRANCH   8   9
ENDBRANCH   1   7
BRANCH   6  12
ATOM     12  O   UNL     1      27.824  26.770  27.901  1.00  0.00    -0.508 OA
ATOM     13  H   UNL     1      28.437  25.963  27.856  1.00  0.00     0.293 HD
ENDBRANCH   6  12
TORSDOF 3
ENDMDL
MODEL 6
REMARK VINA RESULT:    -3.009      8.849     10.168
REMARK INTER + INTRA:          -3.583
REMARK INTER:                  -3.446
REMARK INTRA:                  -0.136
REMARK UNBOUND:                -0.134
REMARK SMILES O=C([O-])C=Cc1ccc(O)cc1
REMARK SMILES IDX 6 1 7 2 12 3 8 4 11 5 9 6 5 7 4 8 2 9 1 10 3 11 10 12
REMARK H PARENT 10 13
REMARK Flexibility Score: inf
ROOT
ATOM      1  C   UNL     1      19.804  24.650  24.352  1.00  0.00    -0.025 A 
ATOM      2  C   UNL     1      20.440  24.964  23.139  1.00  0.00     0.012 A 
ATOM      3  C   UNL     1      18.509  24.093  24.317  1.00  0.00     0.012 A 
ATOM      4  C   UNL     1      19.790  24.751  21.919  1.00  0.00     0.047 A 
ATOM      5  C   UNL     1      17.863  23.881  23.094  1.00  0.00     0.047 A 
ATOM      6  C   UNL     1      18.502  24.212  21.893  1.00  0.00     0.115 A 
ENDROOT
BRANCH   1   7
ATOM      7  C   UNL     1      20.538  24.885  25.620  1.00  0.00     0.010 C 
ATOM      8  C   UNL     1      20.320  25.934  26.424  1.00  0.00     0.025 C 
BRANCH   8   9
ATOM      9  C   UNL     1      21.081  26.133  27.668  1.00  0.00     0.064 C 
ATOM     10  O   UNL     1      22.208  25.589  27.802  1.00  0.00    -0.545 OA
ATOM     11  O   UNL     1      20.575  26.917  28.701  1.00  0.00    -0.545 OA
ENDBRANCH   8   9
ENDBRANCH   1   7
BRANCH   6  12
ATOM     12  O   UNL     1      17.867  24.007  20.670  1.00  0.00    -0.508 OA
ATOM     13  H   UNL     1      16.856  23.982  20.597  1.00  0.00     0.293 HD
ENDBRANCH   6  12
TORSDOF 3
ENDMDL
MODEL 7
REMARK VINA RESULT:    -2.890      3.677      4.589
REMARK INTER + INTRA:          -3.447
REMARK INTER:                  -3.308
REMARK INTRA:                  -0.139
REMARK UNBOUND:                -0.134
REMARK SMILES O=C([O-])C=Cc1ccc(O)cc1
REMARK SMILES IDX 6 1 7 2 12 3 8 4 11 5 9 6 5 7 4 8 2 9 1 10 3 11 10 12
REMARK H PARENT 10 13
REMARK Flexibility Score: inf
ROOT
ATOM      1  C   UNL     1      26.683  26.604  27.753  1.00  0.00    -0.025 A 
ATOM      2  C   UNL     1      26.176  25.294  27.744  1.00  0.00     0.012 A 
ATOM      3  C   UNL     1      27.562  27.001  26.724  1.00  0.00     0.012 A 
ATOM      4  C   UNL     1      26.555  24.391  26.746  1.00  0.00     0.047 A 
ATOM      5  C   UNL     1      27.938  26.094  25.727  1.00  0.00     0.047 A 
ATOM      6  C   UNL     1      27.438  24.786  25.737  1.00  0.00     0.115 A 
ENDROOT
BRANCH   1   7
ATOM      7  C   UNL     1      26.243  27.528  28.827  1.00  0.00     0.010 C 
ATOM      8  C   UNL     1      25.088  28.206  28.801  1.00  0.00     0.025 C 
BRANCH   8   9
ATOM      9  C   UNL     1      24.697  29.121  29.885  1.00  0.00     0.064 C 
ATOM     10  O   UNL     1      25.438  29.240  30.895  1.00  0.00    -0.545 OA
ATOM     11  O   UNL     1      23.522  29.862  29.810  1.00  0.00    -0.545 OA
ENDBRANCH   8   9
ENDBRANCH   1   7
BRANCH   6  12
ATOM     12  O   UNL     1      27.808  23.875  24.751  1.00  0.00    -0.508 OA
ATOM     13  H   UNL     1      28.486  24.115  24.037  1.00  0.00     0.293 HD
ENDBRANCH   6  12
TORSDOF 3
ENDMDL
MODEL 8
REMARK VINA RESULT:    -2.858      4.161      5.227
REMARK INTER + INTRA:          -3.410
REMARK INTER:                  -3.257
REMARK INTRA:                  -0.153
REMARK UNBOUND:                -0.134
REMARK SMILES O=C([O-])C=Cc1ccc(O)cc1
REMARK SMILES IDX 6 1 7 2 12 3 8 4 11 5 9 6 5 7 4 8 2 9 1 10 3 11 10 12
REMARK H PARENT 10 13
REMARK Flexibility Score: inf
ROOT
ATOM      1  C   UNL     1      25.053  26.673  28.413  1.00  0.00    -0.025 A 
ATOM      2  C   UNL     1      25.444  25.325  28.334  1.00  0.00     0.012 A 
ATOM      3  C   UNL     1      26.050  27.667  28.481  1.00  0.00     0.012 A 
ATOM      4  C   UNL     1      26.798  24.975  28.348  1.00  0.00     0.047 A 
ATOM      5  C   UNL     1      27.404  27.312  28.493  1.00  0.00     0.047 A 
ATOM      6  C   UNL     1      27.780  25.965  28.429  1.00  0.00     0.115 A 
ENDROOT
BRANCH   1   7
ATOM      7  C   UNL     1      23.605  26.994  28.386  1.00  0.00     0.010 C 
ATOM      8  C   UNL     1      22.655  26.123  28.023  1.00  0.00     0.025 C 
BRANCH   8   9
ATOM      9  C   UNL     1      21.230  26.490  28.000  1.00  0.00     0.064 C 
ATOM     10  O   UNL     1      20.749  27.176  28.939  1.00  0.00    -0.545 OA
ATOM     11  O   UNL     1      20.403  26.092  26.954  1.00  0.00    -0.545 OA
ENDBRANCH   8   9
ENDBRANCH   1   7
BRANCH   6  12
ATOM     12  O   UNL     1      29.125  25.601  28.443  1.00  0.00    -0.508 OA
ATOM     13  H   UNL     1      29.830  26.200  28.857  1.00  0.00     0.293 HD
ENDBRANCH   6  12
TORSDOF 3
ENDMDL
MODEL 9
REMARK VINA RESULT:    -2.692      1.285      5.741
REMARK INTER + INTRA:          -3.219
REMARK INTER:                  -3.084
REMARK INTRA:                  -0.136
REMARK UNBOUND:                -0.134
REMARK SMILES O=C([O-])C=Cc1ccc(O)cc1
REMARK SMILES IDX 6 1 7 2 12 3 8 4 11 5 9 6 5 7 4 8 2 9 1 10 3 11 10 12
REMARK H PARENT 10 13
REMARK Flexibility Score: inf
ROOT
ATOM      1  C   UNL     1      27.956  26.681  27.156  1.00  0.00    -0.025 A 
ATOM      2  C   UNL     1      28.856  26.517  26.089  1.00  0.00     0.012 A 
ATOM      3  C   UNL     1      27.179  27.856  27.216  1.00  0.00     0.012 A 
ATOM      4  C   UNL     1      28.995  27.513  25.117  1.00  0.00     0.047 A 
ATOM      5  C   UNL     1      27.321  28.849  26.241  1.00  0.00     0.047 A 
ATOM      6  C   UNL     1      28.232  28.680  25.191  1.00  0.00     0.115 A 
ENDROOT
BRANCH   1   7
ATOM      7  C   UNL     1      27.837  25.592  28.157  1.00  0.00     0.010 C 
ATOM      8  C   UNL     1      28.245  25.701  29.429  1.00  0.00     0.025 C 
BRANCH   8   9
ATOM      9  C   UNL     1      28.116  24.589  30.385  1.00  0.00     0.064 C 
ATOM     10  O   UNL     1      27.080  23.875  30.373  1.00  0.00    -0.545 OA
ATOM     11  O   UNL     1      29.125  24.312  31.302  1.00  0.00    -0.545 OA
ENDBRANCH   8   9
ENDBRANCH   1   7
BRANCH   6  12
ATOM     12  O   UNL     1      28.383  29.664  24.216  1.00  0.00    -0.508 OA
ATOM     13  H   UNL     1      27.631  30.305  23.991  1.00  0.00     0.293 HD
ENDBRANCH   6  12
TORSDOF 3
ENDMDL
