MODEL 1
REMARK VINA RESULT:    -9.265      0.000      0.000
REMARK INTER + INTRA:         -10.805
REMARK INTER:                 -10.890
REMARK INTRA:                   0.085
REMARK UNBOUND:                 0.085
REMARK SMILES O=c1c(O)c(-c2ccc(O)cc2)oc2cc(O)cc(O)c12
REMARK SMILES IDX 5 1 3 2 2 3 1 4 21 5 19 6 18 7 16 8 15 9 14 10 13 11 6 12
REMARK SMILES IDX 7 13 8 14 9 15 12 16 11 17 10 18 4 20 20 22 17 24
REMARK H PARENT 10 19 4 21 20 23 17 25
REMARK Flexibility Score: inf
ROOT
ATOM      1  C   UNL     1      -1.543  45.063   2.604  1.00  0.00     0.180 A 
ATOM      2  C   UNL     1      -2.499  45.111   1.572  1.00  0.00     0.208 A 
ATOM      3  C   UNL     1      -2.067  45.003   0.241  1.00  0.00     0.238 A 
ATOM      4  O   UNL     1      -2.914  45.055  -0.693  1.00  0.00    -0.285 OA
ATOM      5  C   UNL     1      -0.695  44.828  -0.034  1.00  0.00     0.111 A 
ATOM      6  C   UNL     1      -0.178  44.707  -1.346  1.00  0.00     0.134 A 
ATOM      7  C   UNL     1       1.200  44.526  -1.538  1.00  0.00     0.093 A 
ATOM      8  C   UNL     1       2.068  44.463  -0.446  1.00  0.00     0.123 A 
ATOM      9  C   UNL     1       1.563  44.583   0.854  1.00  0.00     0.094 A 
ATOM     10  C   UNL     1       0.193  44.766   1.064  1.00  0.00     0.146 A 
ATOM     11  O   UNL     1      -0.259  44.883   2.308  1.00  0.00    -0.452 OA
ENDROOT
BRANCH   1  12
ATOM     12  C   UNL     1      -1.918  45.190   4.031  1.00  0.00     0.021 A 
ATOM     13  C   UNL     1      -1.229  46.101   4.849  1.00  0.00     0.016 A 
ATOM     14  C   UNL     1      -1.582  46.253   6.193  1.00  0.00     0.047 A 
ATOM     15  C   UNL     1      -2.638  45.507   6.732  1.00  0.00     0.115 A 
ATOM     16  C   UNL     1      -2.991  44.459   4.575  1.00  0.00     0.016 A 
ATOM     17  C   UNL     1      -3.342  44.614   5.919  1.00  0.00     0.047 A 
BRANCH  15  18
ATOM     18  O   UNL     1      -2.999  45.650   8.071  1.00  0.00    -0.508 OA
ATOM     19  H   UNL     1      -2.858  44.901   8.740  1.00  0.00     0.293 HD
ENDBRANCH  15  18
ENDBRANCH   1  12
BRANCH   2  20
ATOM     20  O   UNL     1      -3.859  45.235   1.874  1.00  0.00    -0.502 OA
ATOM     21  H   UNL     1      -4.501  44.454   1.813  1.00  0.00     0.293 HD
ENDBRANCH   2  20
BRANCH   6  22
ATOM     22  O   UNL     1      -1.020  44.763  -2.459  1.00  0.00    -0.507 OA
ATOM     23  H   UNL     1      -1.827  44.158  -2.547  1.00  0.00     0.293 HD
ENDBRANCH   6  22
BRANCH   8  24
ATOM     24  O   UNL     1       3.433  44.283  -0.662  1.00  0.00    -0.508 OA
ATOM     25  H   UNL     1       3.829  44.307  -1.594  1.00  0.00     0.293 HD
ENDBRANCH   8  24
TORSDOF 5
ENDMDL
MODEL 2
REMARK VINA RESULT:    -9.198      1.351      2.328
REMARK INTER + INTRA:         -10.726
REMARK INTER:                 -10.494
REMARK INTRA:                  -0.232
REMARK UNBOUND:                 0.085
REMARK SMILES O=c1c(O)c(-c2ccc(O)cc2)oc2cc(O)cc(O)c12
REMARK SMILES IDX 5 1 3 2 2 3 1 4 21 5 19 6 18 7 16 8 15 9 14 10 13 11 6 12
REMARK SMILES IDX 7 13 8 14 9 15 12 16 11 17 10 18 4 20 20 22 17 24
REMARK H PARENT 10 19 4 21 20 23 17 25
REMARK Flexibility Score: inf
ROOT
ATOM      1  C   UNL     1      -0.756  44.862   0.776  1.00  0.00     0.180 A 
ATOM      2  C   UNL     1      -1.490  45.212  -0.374  1.00  0.00     0.208 A 
ATOM      3  C   UNL     1      -0.840  45.217  -1.618  1.00  0.00     0.238 A 
ATOM      4  O   UNL     1      -1.486  45.539  -2.653  1.00  0.00    -0.285 OA
ATOM      5  C   UNL     1       0.519  44.852  -1.696  1.00  0.00     0.111 A 
ATOM      6  C   UNL     1       1.245  44.827  -2.911  1.00  0.00     0.134 A 
ATOM      7  C   UNL     1       2.595  44.443  -2.908  1.00  0.00     0.093 A 
ATOM      8  C   UNL     1       3.230  44.085  -1.717  1.00  0.00     0.123 A 
ATOM      9  C   UNL     1       2.518  44.109  -0.513  1.00  0.00     0.094 A 
ATOM     10  C   UNL     1       1.173  44.490  -0.496  1.00  0.00     0.146 A 
ATOM     11  O   UNL     1       0.522  44.509   0.662  1.00  0.00    -0.452 OA
ENDROOT
BRANCH   1  12
ATOM     12  C   UNL     1      -1.364  44.852   2.126  1.00  0.00     0.021 A 
ATOM     13  C   UNL     1      -2.202  43.788   2.498  1.00  0.00     0.016 A 
ATOM     14  C   UNL     1      -2.769  43.747   3.775  1.00  0.00     0.047 A 
ATOM     15  C   UNL     1      -2.492  44.762   4.701  1.00  0.00     0.115 A 
ATOM     16  C   UNL     1      -1.074  45.856   3.068  1.00  0.00     0.016 A 
ATOM     17  C   UNL     1      -1.642  45.812   4.345  1.00  0.00     0.047 A 
BRANCH  15  18
ATOM     18  O   UNL     1      -3.052  44.732   5.977  1.00  0.00    -0.508 OA
ATOM     19  H   UNL     1      -3.731  45.423   6.274  1.00  0.00     0.293 HD
ENDBRANCH  15  18
ENDBRANCH   1  12
BRANCH   2  20
ATOM     20  O   UNL     1      -2.850  45.521  -0.276  1.00  0.00    -0.502 OA
ATOM     21  H   UNL     1      -3.543  44.836  -0.001  1.00  0.00     0.293 HD
ENDBRANCH   2  20
BRANCH   6  22
ATOM     22  O   UNL     1       0.638  45.177  -4.119  1.00  0.00    -0.507 OA
ATOM     23  H   UNL     1       0.972  45.952  -4.678  1.00  0.00     0.293 HD
ENDBRANCH   6  22
BRANCH   8  24
ATOM     24  O   UNL     1       4.571  43.708  -1.741  1.00  0.00    -0.508 OA
ATOM     25  H   UNL     1       5.204  43.954  -0.989  1.00  0.00     0.293 HD
ENDBRANCH   8  24
TORSDOF 5
ENDMDL
MODEL 3
REMARK VINA RESULT:    -8.748      1.494      6.622
REMARK INTER + INTRA:         -10.197
REMARK INTER:                 -10.271
REMARK INTRA:                   0.074
REMARK UNBOUND:                 0.085
REMARK SMILES O=c1c(O)c(-c2ccc(O)cc2)oc2cc(O)cc(O)c12
REMARK SMILES IDX 5 1 3 2 2 3 1 4 21 5 19 6 18 7 16 8 15 9 14 10 13 11 6 12
REMARK SMILES IDX 7 13 8 14 9 15 12 16 11 17 10 18 4 20 20 22 17 24
REMARK H PARENT 10 19 4 21 20 23 17 25
REMARK Flexibility Score: inf
ROOT
ATOM      1  C   UNL     1      -1.224  45.236   2.646  1.00  0.00     0.180 A 
ATOM      2  C   UNL     1      -2.483  44.707   2.990  1.00  0.00     0.208 A 
ATOM      3  C   UNL     1      -2.943  44.853   4.308  1.00  0.00     0.238 A 
ATOM      4  O   UNL     1      -4.065  44.373   4.630  1.00  0.00    -0.285 OA
ATOM      5  C   UNL     1      -2.152  45.540   5.250  1.00  0.00     0.111 A 
ATOM      6  C   UNL     1      -2.545  45.733   6.597  1.00  0.00     0.134 A 
ATOM      7  C   UNL     1      -1.704  46.437   7.473  1.00  0.00     0.093 A 
ATOM      8  C   UNL     1      -0.483  46.950   7.030  1.00  0.00     0.123 A 
ATOM      9  C   UNL     1      -0.089  46.761   5.701  1.00  0.00     0.094 A 
ATOM     10  C   UNL     1      -0.912  46.061   4.814  1.00  0.00     0.146 A 
ATOM     11  O   UNL     1      -0.511  45.891   3.558  1.00  0.00    -0.452 OA
ENDROOT
BRANCH   1  12
ATOM     12  C   UNL     1      -0.661  45.106   1.283  1.00  0.00     0.021 A 
ATOM     13  C   UNL     1       0.645  44.617   1.118  1.00  0.00     0.016 A 
ATOM     14  C   UNL     1       1.188  44.465  -0.161  1.00  0.00     0.047 A 
ATOM     15  C   UNL     1       0.426  44.786  -1.292  1.00  0.00     0.115 A 
ATOM     16  C   UNL     1      -1.428  45.407   0.141  1.00  0.00     0.016 A 
ATOM     17  C   UNL     1      -0.882  45.253  -1.137  1.00  0.00     0.047 A 
BRANCH  15  18
ATOM     18  O   UNL     1       0.957  44.638  -2.572  1.00  0.00    -0.508 OA
ATOM     19  H   UNL     1       1.897  44.947  -2.795  1.00  0.00     0.293 HD
ENDBRANCH  15  18
ENDBRANCH   1  12
BRANCH   2  20
ATOM     20  O   UNL     1      -3.270  44.074   2.024  1.00  0.00    -0.502 OA
ATOM     21  H   UNL     1      -3.136  43.103   1.766  1.00  0.00     0.293 HD
ENDBRANCH   2  20
BRANCH   6  22
ATOM     22  O   UNL     1      -3.760  45.235   7.070  1.00  0.00    -0.507 OA
ATOM     23  H   UNL     1      -4.083  45.423   8.011  1.00  0.00     0.293 HD
ENDBRANCH   6  22
BRANCH   8  24
ATOM     24  O   UNL     1       0.333  47.645   7.919  1.00  0.00    -0.508 OA
ATOM     25  H   UNL     1       0.943  48.391   7.607  1.00  0.00     0.293 HD
ENDBRANCH   8  24
TORSDOF 5
ENDMDL
MODEL 4
REMARK VINA RESULT:    -8.660      1.746      6.773
REMARK INTER + INTRA:         -10.094
REMARK INTER:                 -10.009
REMARK INTRA:                  -0.084
REMARK UNBOUND:                 0.085
REMARK SMILES O=c1c(O)c(-c2ccc(O)cc2)oc2cc(O)cc(O)c12
REMARK SMILES IDX 5 1 3 2 2 3 1 4 21 5 19 6 18 7 16 8 15 9 14 10 13 11 6 12
REMARK SMILES IDX 7 13 8 14 9 15 12 16 11 17 10 18 4 20 20 22 17 24
REMARK H PARENT 10 19 4 21 20 23 17 25
REMARK Flexibility Score: inf
ROOT
ATOM      1  C   UNL     1      -1.415  45.606   3.425  1.00  0.00     0.180 A 
ATOM      2  C   UNL     1      -2.646  45.229   3.995  1.00  0.00     0.208 A 
ATOM      3  C   UNL     1      -2.835  45.402   5.376  1.00  0.00     0.238 A 
ATOM      4  O   UNL     1      -3.931  45.059   5.899  1.00  0.00    -0.285 OA
ATOM      5  C   UNL     1      -1.805  45.965   6.155  1.00  0.00     0.111 A 
ATOM      6  C   UNL     1      -1.917  46.176   7.550  1.00  0.00     0.134 A 
ATOM      7  C   UNL     1      -0.849  46.751   8.256  1.00  0.00     0.093 A 
ATOM      8  C   UNL     1       0.326  47.118   7.595  1.00  0.00     0.123 A 
ATOM      9  C   UNL     1       0.443  46.911   6.216  1.00  0.00     0.094 A 
ATOM     10  C   UNL     1      -0.610  46.338   5.496  1.00  0.00     0.146 A 
ATOM     11  O   UNL     1      -0.471  46.147   4.189  1.00  0.00    -0.452 OA
ENDROOT
BRANCH   1  12
ATOM     12  C   UNL     1      -1.132  45.437   1.981  1.00  0.00     0.021 A 
ATOM     13  C   UNL     1      -1.908  46.134   1.039  1.00  0.00     0.016 A 
ATOM     14  C   UNL     1      -1.644  46.007  -0.328  1.00  0.00     0.047 A 
ATOM     15  C   UNL     1      -0.591  45.194  -0.769  1.00  0.00     0.115 A 
ATOM     16  C   UNL     1      -0.064  44.639   1.531  1.00  0.00     0.016 A 
ATOM     17  C   UNL     1       0.198  44.516   0.164  1.00  0.00     0.047 A 
BRANCH  15  18
ATOM     18  O   UNL     1      -0.319  45.060  -2.129  1.00  0.00    -0.508 OA
ATOM     19  H   UNL     1       0.331  44.361  -2.472  1.00  0.00     0.293 HD
ENDBRANCH  15  18
ENDBRANCH   1  12
BRANCH   2  20
ATOM     20  O   UNL     1      -3.670  44.720   3.192  1.00  0.00    -0.502 OA
ATOM     21  H   UNL     1      -4.093  43.815   3.360  1.00  0.00     0.293 HD
ENDBRANCH   2  20
BRANCH   6  22
ATOM     22  O   UNL     1      -3.078  45.823   8.240  1.00  0.00    -0.507 OA
ATOM     23  H   UNL     1      -3.927  46.372   8.172  1.00  0.00     0.293 HD
ENDBRANCH   6  22
BRANCH   8  24
ATOM     24  O   UNL     1       1.372  47.687   8.317  1.00  0.00    -0.508 OA
ATOM     25  H   UNL     1       2.339  47.488   8.094  1.00  0.00     0.293 HD
ENDBRANCH   8  24
TORSDOF 5
ENDMDL
MODEL 5
REMARK VINA RESULT:    -8.629      1.691      6.571
REMARK INTER + INTRA:         -10.057
REMARK INTER:                 -10.281
REMARK INTRA:                   0.224
REMARK UNBOUND:                 0.085
REMARK SMILES O=c1c(O)c(-c2ccc(O)cc2)oc2cc(O)cc(O)c12
REMARK SMILES IDX 5 1 3 2 2 3 1 4 21 5 19 6 18 7 16 8 15 9 14 10 13 11 6 12
REMARK SMILES IDX 7 13 8 14 9 15 12 16 11 17 10 18 4 20 20 22 17 24
REMARK H PARENT 10 19 4 21 20 23 17 25
REMARK Flexibility Score: inf
ROOT
ATOM      1  C   UNL     1      -0.771  45.066   0.383  1.00  0.00     0.180 A 
ATOM      2  C   UNL     1      -2.118  44.708   0.587  1.00  0.00     0.208 A 
ATOM      3  C   UNL     1      -2.665  44.831   1.874  1.00  0.00     0.238 A 
ATOM      4  O   UNL     1      -3.867  44.504   2.071  1.00  0.00    -0.285 OA
ATOM      5  C   UNL     1      -1.867  45.327   2.925  1.00  0.00     0.111 A 
ATOM      6  C   UNL     1      -2.343  45.484   4.250  1.00  0.00     0.134 A 
ATOM      7  C   UNL     1      -1.490  45.994   5.240  1.00  0.00     0.093 A 
ATOM      8  C   UNL     1      -0.174  46.347   4.933  1.00  0.00     0.123 A 
ATOM      9  C   UNL     1       0.302  46.193   3.627  1.00  0.00     0.094 A 
ATOM     10  C   UNL     1      -0.533  45.686   2.627  1.00  0.00     0.146 A 
ATOM     11  O   UNL     1      -0.053  45.544   1.396  1.00  0.00    -0.452 OA
ENDROOT
BRANCH   1  12
ATOM     12  C   UNL     1      -0.117  44.947  -0.940  1.00  0.00     0.021 A 
ATOM     13  C   UNL     1       1.214  44.504  -1.015  1.00  0.00     0.016 A 
ATOM     14  C   UNL     1       1.844  44.363  -2.256  1.00  0.00     0.047 A 
ATOM     15  C   UNL     1       1.146  44.648  -3.437  1.00  0.00     0.115 A 
ATOM     16  C   UNL     1      -0.818  45.211  -2.132  1.00  0.00     0.016 A 
ATOM     17  C   UNL     1      -0.186  45.068  -3.370  1.00  0.00     0.047 A 
BRANCH  15  18
ATOM     18  O   UNL     1       1.763  44.510  -4.678  1.00  0.00    -0.508 OA
ATOM     19  H   UNL     1       2.362  45.237  -5.055  1.00  0.00     0.293 HD
ENDBRANCH  15  18
ENDBRANCH   1  12
BRANCH   2  20
ATOM     20  O   UNL     1      -2.901  44.267  -0.483  1.00  0.00    -0.502 OA
ATOM     21  H   UNL     1      -2.798  43.344  -0.887  1.00  0.00     0.293 HD
ENDBRANCH   2  20
BRANCH   6  22
ATOM     22  O   UNL     1      -3.653  45.142   4.588  1.00  0.00    -0.507 OA
ATOM     23  H   UNL     1      -3.918  44.188   4.800  1.00  0.00     0.293 HD
ENDBRANCH   6  22
BRANCH   8  24
ATOM     24  O   UNL     1       0.653  46.850   5.935  1.00  0.00    -0.508 OA
ATOM     25  H   UNL     1       0.348  47.595   6.550  1.00  0.00     0.293 HD
ENDBRANCH   8  24
TORSDOF 5
ENDMDL
MODEL 6
REMARK VINA RESULT:    -8.119      2.562      7.618
REMARK INTER + INTRA:          -9.458
REMARK INTER:                  -9.712
REMARK INTRA:                   0.254
REMARK UNBOUND:                 0.085
REMARK SMILES O=c1c(O)c(-c2ccc(O)cc2)oc2cc(O)cc(O)c12
REMARK SMILES IDX 5 1 3 2 2 3 1 4 21 5 19 6 18 7 16 8 15 9 14 10 13 11 6 12
REMARK SMILES IDX 7 13 8 14 9 15 12 16 11 17 10 18 4 20 20 22 17 24
REMARK H PARENT 10 19 4 21 20 23 17 25
REMARK Flexibility Score: inf
ROOT
ATOM      1  C   UNL     1       1.675  44.494  -1.954  1.00  0.00     0.180 A 
ATOM      2  C   UNL     1       0.473  44.522  -2.686  1.00  0.00     0.208 A 
ATOM      3  C   UNL     1      -0.733  44.749  -2.003  1.00  0.00     0.238 A 
ATOM      4  O   UNL     1      -1.817  44.766  -2.648  1.00  0.00    -0.285 OA
ATOM      5  C   UNL     1      -0.714  44.964  -0.610  1.00  0.00     0.111 A 
ATOM      6  C   UNL     1      -1.884  45.203   0.151  1.00  0.00     0.134 A 
ATOM      7  C   UNL     1      -1.782  45.417   1.534  1.00  0.00     0.093 A 
ATOM      8  C   UNL     1      -0.538  45.396   2.168  1.00  0.00     0.123 A 
ATOM      9  C   UNL     1       0.621  45.160   1.421  1.00  0.00     0.094 A 
ATOM     10  C   UNL     1       0.540  44.943   0.042  1.00  0.00     0.146 A 
ATOM     11  O   UNL     1       1.655  44.715  -0.642  1.00  0.00    -0.452 OA
ENDROOT
BRANCH   1  12
ATOM     12  C   UNL     1       2.984  44.242  -2.599  1.00  0.00     0.021 A 
ATOM     13  C   UNL     1       3.245  44.787  -3.867  1.00  0.00     0.016 A 
ATOM     14  C   UNL     1       4.483  44.581  -4.485  1.00  0.00     0.047 A 
ATOM     15  C   UNL     1       5.479  43.840  -3.835  1.00  0.00     0.115 A 
ATOM     16  C   UNL     1       3.997  43.517  -1.944  1.00  0.00     0.016 A 
ATOM     17  C   UNL     1       5.233  43.314  -2.564  1.00  0.00     0.047 A 
BRANCH  15  18
ATOM     18  O   UNL     1       6.715  43.628  -4.441  1.00  0.00    -0.508 OA
ATOM     19  H   UNL     1       7.576  43.634  -3.905  1.00  0.00     0.293 HD
ENDBRANCH  15  18
ENDBRANCH   1  12
BRANCH   2  20
ATOM     20  O   UNL     1       0.488  44.357  -4.074  1.00  0.00    -0.502 OA
ATOM     21  H   UNL     1      -0.330  44.061  -4.594  1.00  0.00     0.293 HD
ENDBRANCH   2  20
BRANCH   6  22
ATOM     22  O   UNL     1      -3.142  45.231  -0.453  1.00  0.00    -0.507 OA
ATOM     23  H   UNL     1      -3.269  45.002  -1.431  1.00  0.00     0.293 HD
ENDBRANCH   6  22
BRANCH   8  24
ATOM     24  O   UNL     1      -0.464  45.612   3.543  1.00  0.00    -0.508 OA
ATOM     25  H   UNL     1      -0.886  44.970   4.203  1.00  0.00     0.293 HD
ENDBRANCH   8  24
TORSDOF 5
ENDMDL
MODEL 7
REMARK VINA RESULT:    -8.110      3.145      5.714
REMARK INTER + INTRA:          -9.447
REMARK INTER:                  -9.512
REMARK INTRA:                   0.065
REMARK UNBOUND:                 0.085
REMARK SMILES O=c1c(O)c(-c2ccc(O)cc2)oc2cc(O)cc(O)c12
REMARK SMILES IDX 5 1 3 2 2 3 1 4 21 5 19 6 18 7 16 8 15 9 14 10 13 11 6 12
REMARK SMILES IDX 7 13 8 14 9 15 12 16 11 17 10 18 4 20 20 22 17 24
REMARK H PARENT 10 19 4 21 20 23 17 25
REMARK Flexibility Score: inf
ROOT
ATOM      1  C   UNL     1      -0.770  46.614   7.395  1.00  0.00     0.180 A 
ATOM      2  C   UNL     1      -2.098  46.149   7.462  1.00  0.00     0.208 A 
ATOM      3  C   UNL     1      -2.711  45.675   6.292  1.00  0.00     0.238 A 
ATOM      4  O   UNL     1      -3.904  45.266   6.339  1.00  0.00    -0.285 OA
ATOM      5  C   UNL     1      -1.985  45.655   5.084  1.00  0.00     0.111 A 
ATOM      6  C   UNL     1      -2.529  45.190   3.862  1.00  0.00     0.134 A 
ATOM      7  C   UNL     1      -1.738  45.192   2.703  1.00  0.00     0.093 A 
ATOM      8  C   UNL     1      -0.419  45.649   2.741  1.00  0.00     0.123 A 
ATOM      9  C   UNL     1       0.123  46.111   3.946  1.00  0.00     0.094 A 
ATOM     10  C   UNL     1      -0.649  46.117   5.111  1.00  0.00     0.146 A 
ATOM     11  O   UNL     1      -0.111  46.566   6.240  1.00  0.00    -0.452 OA
ENDROOT
BRANCH   1  12
ATOM     12  C   UNL     1      -0.061  47.146   8.580  1.00  0.00     0.021 A 
ATOM     13  C   UNL     1      -0.037  46.393   9.766  1.00  0.00     0.016 A 
ATOM     14  C   UNL     1       0.646  46.866  10.891  1.00  0.00     0.047 A 
ATOM     15  C   UNL     1       1.326  48.089  10.839  1.00  0.00     0.115 A 
ATOM     16  C   UNL     1       0.642  48.364   8.530  1.00  0.00     0.016 A 
ATOM     17  C   UNL     1       1.324  48.833   9.656  1.00  0.00     0.047 A 
BRANCH  15  18
ATOM     18  O   UNL     1       2.010  48.570  11.954  1.00  0.00    -0.508 OA
ATOM     19  H   UNL     1       2.827  49.162  11.859  1.00  0.00     0.293 HD
ENDBRANCH  15  18
ENDBRANCH   1  12
BRANCH   2  20
ATOM     20  O   UNL     1      -2.778  46.133   8.683  1.00  0.00    -0.502 OA
ATOM     21  H   UNL     1      -2.441  46.630   9.499  1.00  0.00     0.293 HD
ENDBRANCH   2  20
BRANCH   6  22
ATOM     22  O   UNL     1      -3.843  44.725   3.791  1.00  0.00    -0.507 OA
ATOM     23  H   UNL     1      -4.114  43.830   4.180  1.00  0.00     0.293 HD
ENDBRANCH   6  22
BRANCH   8  24
ATOM     24  O   UNL     1       0.345  45.642   1.577  1.00  0.00    -0.508 OA
ATOM     25  H   UNL     1       0.520  44.786   1.063  1.00  0.00     0.293 HD
ENDBRANCH   8  24
TORSDOF 5
ENDMDL
MODEL 8
REMARK VINA RESULT:    -8.035      4.686      9.267
REMARK INTER + INTRA:          -9.360
REMARK INTER:                  -9.201
REMARK INTRA:                  -0.159
REMARK UNBOUND:                 0.085
REMARK SMILES O=c1c(O)c(-c2ccc(O)cc2)oc2cc(O)cc(O)c12
REMARK SMILES IDX 5 1 3 2 2 3 1 4 21 5 19 6 18 7 16 8 15 9 14 10 13 11 6 12
REMARK SMILES IDX 7 13 8 14 9 15 12 16 11 17 10 18 4 20 20 22 17 24
REMARK H PARENT 10 19 4 21 20 23 17 25
REMARK Flexibility Score: inf
ROOT
ATOM      1  C   UNL     1      -0.407  46.868   8.331  1.00  0.00     0.180 A 
ATOM      2  C   UNL     1      -0.060  48.226   8.471  1.00  0.00     0.208 A 
ATOM      3  C   UNL     1       0.724  48.616   9.568  1.00  0.00     0.238 A 
ATOM      4  O   UNL     1       1.031  49.832   9.710  1.00  0.00    -0.285 OA
ATOM      5  C   UNL     1       1.164  47.645  10.490  1.00  0.00     0.111 A 
ATOM      6  C   UNL     1       1.960  47.955  11.620  1.00  0.00     0.134 A 
ATOM      7  C   UNL     1       2.367  46.930  12.487  1.00  0.00     0.093 A 
ATOM      8  C   UNL     1       1.994  45.606  12.248  1.00  0.00     0.123 A 
ATOM      9  C   UNL     1       1.207  45.293  11.135  1.00  0.00     0.094 A 
ATOM     10  C   UNL     1       0.791  46.301  10.260  1.00  0.00     0.146 A 
ATOM     11  O   UNL     1       0.039  45.978   9.213  1.00  0.00    -0.452 OA
ENDROOT
BRANCH   1  12
ATOM     12  C   UNL     1      -1.246  46.382   7.212  1.00  0.00     0.021 A 
ATOM     13  C   UNL     1      -0.726  46.384   5.907  1.00  0.00     0.016 A 
ATOM     14  C   UNL     1      -1.493  45.908   4.839  1.00  0.00     0.047 A 
ATOM     15  C   UNL     1      -2.782  45.409   5.065  1.00  0.00     0.115 A 
ATOM     16  C   UNL     1      -2.534  45.860   7.434  1.00  0.00     0.016 A 
ATOM     17  C   UNL     1      -3.297  45.383   6.364  1.00  0.00     0.047 A 
BRANCH  15  18
ATOM     18  O   UNL     1      -3.555  44.933   4.008  1.00  0.00    -0.508 OA
ATOM     19  H   UNL     1      -3.177  44.850   3.071  1.00  0.00     0.293 HD
ENDBRANCH  15  18
ENDBRANCH   1  12
BRANCH   2  20
ATOM     20  O   UNL     1      -0.467  49.161   7.515  1.00  0.00    -0.502 OA
ATOM     21  H   UNL     1      -0.088  50.099   7.478  1.00  0.00     0.293 HD
ENDBRANCH   2  20
BRANCH   6  22
ATOM     22  O   UNL     1       2.351  49.269  11.885  1.00  0.00    -0.507 OA
ATOM     23  H   UNL     1       2.477  49.948  11.144  1.00  0.00     0.293 HD
ENDBRANCH   6  22
BRANCH   8  24
ATOM     24  O   UNL     1       2.410  44.606  13.125  1.00  0.00    -0.508 OA
ATOM     25  H   UNL     1       2.555  43.654  12.812  1.00  0.00     0.293 HD
ENDBRANCH   8  24
TORSDOF 5
ENDMDL
MODEL 9
REMARK VINA RESULT:    -7.780      1.435      3.332
REMARK INTER + INTRA:          -9.059
REMARK INTER:                  -9.269
REMARK INTRA:                   0.210
REMARK UNBOUND:                 0.085
REMARK SMILES O=c1c(O)c(-c2ccc(O)cc2)oc2cc(O)cc(O)c12
REMARK SMILES IDX 5 1 3 2 2 3 1 4 21 5 19 6 18 7 16 8 15 9 14 10 13 11 6 12
REMARK SMILES IDX 7 13 8 14 9 15 12 16 11 17 10 18 4 20 20 22 17 24
REMARK H PARENT 10 19 4 21 20 23 17 25
REMARK Flexibility Score: inf
ROOT
ATOM      1  C   UNL     1      -0.119  45.305   2.012  1.00  0.00     0.180 A 
ATOM      2  C   UNL     1       1.255  45.053   1.834  1.00  0.00     0.208 A 
ATOM      3  C   UNL     1       1.734  44.788   0.542  1.00  0.00     0.238 A 
ATOM      4  O   UNL     1       2.962  44.550   0.372  1.00  0.00    -0.285 OA
ATOM      5  C   UNL     1       0.841  44.800  -0.549  1.00  0.00     0.111 A 
ATOM      6  C   UNL     1       1.245  44.547  -1.882  1.00  0.00     0.134 A 
ATOM      7  C   UNL     1       0.297  44.587  -2.916  1.00  0.00     0.093 A 
ATOM      8  C   UNL     1      -1.043  44.874  -2.643  1.00  0.00     0.123 A 
ATOM      9  C   UNL     1      -1.447  45.124  -1.327  1.00  0.00     0.094 A 
ATOM     10  C   UNL     1      -0.517  45.087  -0.284  1.00  0.00     0.146 A 
ATOM     11  O   UNL     1      -0.930  45.323   0.957  1.00  0.00    -0.452 OA
ENDROOT
BRANCH   1  12
ATOM     12  C   UNL     1      -0.704  45.574   3.345  1.00  0.00     0.021 A 
ATOM     13  C   UNL     1      -1.950  45.018   3.678  1.00  0.00     0.016 A 
ATOM     14  C   UNL     1      -2.511  45.240   4.940  1.00  0.00     0.047 A 
ATOM     15  C   UNL     1      -1.825  46.008   5.889  1.00  0.00     0.115 A 
ATOM     16  C   UNL     1      -0.012  46.327   4.312  1.00  0.00     0.016 A 
ATOM     17  C   UNL     1      -0.574  46.546   5.572  1.00  0.00     0.047 A 
BRANCH  15  18
ATOM     18  O   UNL     1      -2.373  46.236   7.149  1.00  0.00    -0.508 OA
ATOM     19  H   UNL     1      -2.356  47.156   7.576  1.00  0.00     0.293 HD
ENDBRANCH  15  18
ENDBRANCH   1  12
BRANCH   2  20
ATOM     20  O   UNL     1       2.127  45.096   2.926  1.00  0.00    -0.502 OA
ATOM     21  H   UNL     1       1.805  45.003   3.881  1.00  0.00     0.293 HD
ENDBRANCH   2  20
BRANCH   6  22
ATOM     22  O   UNL     1       2.576  44.259  -2.188  1.00  0.00    -0.507 OA
ATOM     23  H   UNL     1       2.839  43.820  -3.062  1.00  0.00     0.293 HD
ENDBRANCH   6  22
BRANCH   8  24
ATOM     24  O   UNL     1      -1.965  44.907  -3.686  1.00  0.00    -0.508 OA
ATOM     25  H   UNL     1      -2.952  45.054  -3.517  1.00  0.00     0.293 HD
ENDBRANCH   8  24
TORSDOF 5
ENDMDL
