MODEL 1
REMARK VINA RESULT:    -8.416      0.000      0.000
REMARK INTER + INTRA:         -10.398
REMARK INTER:                 -10.384
REMARK INTRA:                  -0.014
REMARK UNBOUND:                -0.014
REMARK SMILES Oc1cc(O)c2cc(O)c(-c3cc(O)c(O)c(O)c3)[o+]c2c1.[Cl-]
REMARK SMILES IDX 10 1 20 2 21 3 22 4 2 5 3 6 4 7 6 8 7 9 8 10 11 11 12 12
REMARK SMILES IDX 13 13 19 14 15 15 17 16 14 17 16 19 18 21 9 23 1 25 5 27
REMARK H PARENT 14 18 16 20 18 22 9 24 1 26 5 28
REMARK Flexibility Score: inf
ROOT
ATOM      1  C   UNL     1      17.494  25.498   0.114  1.00  0.00     0.402 A 
ATOM      2  O   UNL     1      16.974  26.584   0.682  1.00  0.00    -0.202 OA
ATOM      3  C   UNL     1      17.584  27.764   0.696  1.00  0.00     0.368 A 
ATOM      4  C   UNL     1      16.956  28.848   1.314  1.00  0.00     0.162 A 
ATOM      5  C   UNL     1      17.575  30.101   1.341  1.00  0.00     0.128 A 
ATOM      6  C   UNL     1      18.828  30.271   0.745  1.00  0.00     0.093 A 
ATOM      7  C   UNL     1      19.478  29.201   0.119  1.00  0.00     0.136 A 
ATOM      8  C   UNL     1      18.855  27.926   0.091  1.00  0.00     0.125 A 
ATOM      9  C   UNL     1      19.438  26.794  -0.502  1.00  0.00     0.078 A 
ATOM     10  C   UNL     1      18.765  25.569  -0.486  1.00  0.00     0.223 A 
ENDROOT
BRANCH   1  11
ATOM     11  C   UNL     1      16.710  24.243   0.155  1.00  0.00     0.091 A 
ATOM     12  C   UNL     1      15.367  24.255  -0.253  1.00  0.00     0.068 A 
ATOM     13  C   UNL     1      14.608  23.081  -0.243  1.00  0.00     0.162 A 
ATOM     14  C   UNL     1      17.296  23.026   0.543  1.00  0.00     0.068 A 
ATOM     15  C   UNL     1      15.192  21.869   0.164  1.00  0.00     0.200 A 
ATOM     16  C   UNL     1      16.542  21.844   0.554  1.00  0.00     0.162 A 
BRANCH  13  17
ATOM     17  O   UNL     1      13.272  23.137  -0.643  1.00  0.00    -0.504 OA
ATOM     18  H   UNL     1      12.692  23.950  -0.475  1.00  0.00     0.293 HD
ENDBRANCH  13  17
BRANCH  15  19
ATOM     19  O   UNL     1      14.426  20.703   0.175  1.00  0.00    -0.502 OA
ATOM     20  H   UNL     1      14.393  20.072  -0.617  1.00  0.00     0.293 HD
ENDBRANCH  15  19
BRANCH  16  21
ATOM     21  O   UNL     1      17.132  20.644   0.946  1.00  0.00    -0.504 OA
ATOM     22  H   UNL     1      17.514  20.517   1.876  1.00  0.00     0.293 HD
ENDBRANCH  16  21
ENDBRANCH   1  11
BRANCH  10  23
ATOM     23  O   UNL     1      19.365  24.433  -1.031  1.00  0.00    -0.500 OA
ATOM     24  H   UNL     1      19.010  23.995  -1.872  1.00  0.00     0.294 HD
ENDBRANCH  10  23
BRANCH   5  25
ATOM     25  O   UNL     1      16.955  31.186   1.957  1.00  0.00    -0.507 OA
ATOM     26  H   UNL     1      15.978  31.155   2.225  1.00  0.00     0.293 HD
ENDBRANCH   5  25
BRANCH   7  27
ATOM     27  O   UNL     1      20.727  29.454  -0.456  1.00  0.00    -0.507 OA
ATOM     28  H   UNL     1      21.080  30.375  -0.671  1.00  0.00     0.293 HD
ENDBRANCH   7  27
TORSDOF 7
ENDMDL
MODEL 2
REMARK VINA RESULT:    -8.381      0.127      1.798
REMARK INTER + INTRA:         -10.355
REMARK INTER:                 -10.373
REMARK INTRA:                   0.018
REMARK UNBOUND:                -0.014
REMARK SMILES Oc1cc(O)c2cc(O)c(-c3cc(O)c(O)c(O)c3)[o+]c2c1.[Cl-]
REMARK SMILES IDX 10 1 20 2 21 3 22 4 2 5 3 6 4 7 6 8 7 9 8 10 11 11 12 12
REMARK SMILES IDX 13 13 19 14 15 15 17 16 14 17 16 19 18 21 9 23 1 25 5 27
REMARK H PARENT 14 18 16 20 18 22 9 24 1 26 5 28
REMARK Flexibility Score: inf
ROOT
ATOM      1  C   UNL     1      17.493  25.616   0.081  1.00  0.00     0.402 A 
ATOM      2  O   UNL     1      16.954  26.703   0.627  1.00  0.00    -0.202 OA
ATOM      3  C   UNL     1      17.567  27.882   0.667  1.00  0.00     0.368 A 
ATOM      4  C   UNL     1      16.917  28.968   1.258  1.00  0.00     0.162 A 
ATOM      5  C   UNL     1      17.538  30.219   1.312  1.00  0.00     0.128 A 
ATOM      6  C   UNL     1      18.815  30.384   0.769  1.00  0.00     0.093 A 
ATOM      7  C   UNL     1      19.488  29.312   0.170  1.00  0.00     0.136 A 
ATOM      8  C   UNL     1      18.862  28.039   0.116  1.00  0.00     0.125 A 
ATOM      9  C   UNL     1      19.466  26.906  -0.453  1.00  0.00     0.078 A 
ATOM     10  C   UNL     1      18.789  25.683  -0.465  1.00  0.00     0.223 A 
ENDROOT
BRANCH   1  11
ATOM     11  C   UNL     1      16.704  24.364   0.089  1.00  0.00     0.091 A 
ATOM     12  C   UNL     1      17.304  23.173   0.526  1.00  0.00     0.068 A 
ATOM     13  C   UNL     1      16.577  21.979   0.562  1.00  0.00     0.162 A 
ATOM     14  C   UNL     1      15.348  24.351  -0.281  1.00  0.00     0.068 A 
ATOM     15  C   UNL     1      15.227  21.966   0.172  1.00  0.00     0.200 A 
ATOM     16  C   UNL     1      14.612  23.158  -0.246  1.00  0.00     0.162 A 
BRANCH  13  17
ATOM     17  O   UNL     1      17.214  20.813   0.990  1.00  0.00    -0.504 OA
ATOM     18  H   UNL     1      16.759  19.909   0.962  1.00  0.00     0.293 HD
ENDBRANCH  13  17
BRANCH  15  19
ATOM     19  O   UNL     1      14.510  20.769   0.208  1.00  0.00    -0.502 OA
ATOM     20  H   UNL     1      14.508  20.118  -0.568  1.00  0.00     0.293 HD
ENDBRANCH  15  19
BRANCH  16  21
ATOM     21  O   UNL     1      13.270  23.156  -0.622  1.00  0.00    -0.504 OA
ATOM     22  H   UNL     1      12.988  23.061  -1.591  1.00  0.00     0.293 HD
ENDBRANCH  16  21
ENDBRANCH   1  11
BRANCH  10  23
ATOM     23  O   UNL     1      19.407  24.546  -0.985  1.00  0.00    -0.500 OA
ATOM     24  H   UNL     1      19.077  24.100  -1.832  1.00  0.00     0.294 HD
ENDBRANCH  10  23
BRANCH   5  25
ATOM     25  O   UNL     1      16.896  31.306   1.901  1.00  0.00    -0.507 OA
ATOM     26  H   UNL     1      15.953  31.568   1.642  1.00  0.00     0.293 HD
ENDBRANCH   5  25
BRANCH   7  27
ATOM     27  O   UNL     1      20.761  29.561  -0.352  1.00  0.00    -0.507 OA
ATOM     28  H   UNL     1      21.575  29.775   0.206  1.00  0.00     0.293 HD
ENDBRANCH   7  27
TORSDOF 7
ENDMDL
MODEL 3
REMARK VINA RESULT:    -8.126      1.162      7.439
REMARK INTER + INTRA:         -10.040
REMARK INTER:                 -10.003
REMARK INTRA:                  -0.036
REMARK UNBOUND:                -0.014
REMARK SMILES Oc1cc(O)c2cc(O)c(-c3cc(O)c(O)c(O)c3)[o+]c2c1.[Cl-]
REMARK SMILES IDX 10 1 20 2 21 3 22 4 2 5 3 6 4 7 6 8 7 9 8 10 11 11 12 12
REMARK SMILES IDX 13 13 19 14 15 15 17 16 14 17 16 19 18 21 9 23 1 25 5 27
REMARK H PARENT 14 18 16 20 18 22 9 24 1 26 5 28
REMARK Flexibility Score: inf
ROOT
ATOM      1  C   UNL     1      16.673  26.837   0.315  1.00  0.00     0.402 A 
ATOM      2  O   UNL     1      17.218  25.657   0.600  1.00  0.00    -0.202 OA
ATOM      3  C   UNL     1      16.577  24.503   0.457  1.00  0.00     0.368 A 
ATOM      4  C   UNL     1      17.235  23.313   0.780  1.00  0.00     0.162 A 
ATOM      5  C   UNL     1      16.584  22.085   0.636  1.00  0.00     0.128 A 
ATOM      6  C   UNL     1      15.269  22.046   0.166  1.00  0.00     0.093 A 
ATOM      7  C   UNL     1      14.587  23.223  -0.165  1.00  0.00     0.136 A 
ATOM      8  C   UNL     1      15.243  24.473  -0.018  1.00  0.00     0.125 A 
ATOM      9  C   UNL     1      14.633  25.704  -0.312  1.00  0.00     0.078 A 
ATOM     10  C   UNL     1      15.342  26.896  -0.138  1.00  0.00     0.223 A 
ENDROOT
BRANCH   1  11
ATOM     11  C   UNL     1      17.496  28.053   0.507  1.00  0.00     0.091 A 
ATOM     12  C   UNL     1      18.772  28.121  -0.075  1.00  0.00     0.068 A 
ATOM     13  C   UNL     1      19.563  29.264   0.073  1.00  0.00     0.162 A 
ATOM     14  C   UNL     1      17.006  29.165   1.213  1.00  0.00     0.068 A 
ATOM     15  C   UNL     1      19.078  30.367   0.797  1.00  0.00     0.200 A 
ATOM     16  C   UNL     1      17.793  30.316   1.364  1.00  0.00     0.162 A 
BRANCH  13  17
ATOM     17  O   UNL     1      20.831  29.288  -0.508  1.00  0.00    -0.504 OA
ATOM     18  H   UNL     1      20.970  29.488  -1.491  1.00  0.00     0.293 HD
ENDBRANCH  13  17
BRANCH  15  19
ATOM     19  O   UNL     1      19.876  31.502   0.943  1.00  0.00    -0.502 OA
ATOM     20  H   UNL     1      20.675  31.680   0.347  1.00  0.00     0.293 HD
ENDBRANCH  15  19
BRANCH  16  21
ATOM     21  O   UNL     1      17.299  31.410   2.072  1.00  0.00    -0.504 OA
ATOM     22  H   UNL     1      17.880  31.932   2.718  1.00  0.00     0.293 HD
ENDBRANCH  16  21
ENDBRANCH   1  11
BRANCH  10  23
ATOM     23  O   UNL     1      14.722  28.121  -0.383  1.00  0.00    -0.500 OA
ATOM     24  H   UNL     1      13.920  28.429   0.154  1.00  0.00     0.294 HD
ENDBRANCH  10  23
BRANCH   5  25
ATOM     25  O   UNL     1      17.234  20.895   0.957  1.00  0.00    -0.507 OA
ATOM     26  H   UNL     1      18.149  20.674   0.582  1.00  0.00     0.293 HD
ENDBRANCH   5  25
BRANCH   7  27
ATOM     27  O   UNL     1      13.275  23.098  -0.631  1.00  0.00    -0.507 OA
ATOM     28  H   UNL     1      13.020  23.017  -1.605  1.00  0.00     0.293 HD
ENDBRANCH   7  27
TORSDOF 7
ENDMDL
MODEL 4
REMARK VINA RESULT:    -8.078      1.267      7.339
REMARK INTER + INTRA:          -9.980
REMARK INTER:                  -9.840
REMARK INTRA:                  -0.141
REMARK UNBOUND:                -0.014
REMARK SMILES Oc1cc(O)c2cc(O)c(-c3cc(O)c(O)c(O)c3)[o+]c2c1.[Cl-]
REMARK SMILES IDX 10 1 20 2 21 3 22 4 2 5 3 6 4 7 6 8 7 9 8 10 11 11 12 12
REMARK SMILES IDX 13 13 19 14 15 15 17 16 14 17 16 19 18 21 9 23 1 25 5 27
REMARK H PARENT 14 18 16 20 18 22 9 24 1 26 5 28
REMARK Flexibility Score: inf
ROOT
ATOM      1  C   UNL     1      17.160  26.084   0.518  1.00  0.00     0.402 A 
ATOM      2  O   UNL     1      17.767  24.899   0.528  1.00  0.00    -0.202 OA
ATOM      3  C   UNL     1      17.112  23.743   0.518  1.00  0.00     0.368 A 
ATOM      4  C   UNL     1      17.837  22.550   0.526  1.00  0.00     0.162 A 
ATOM      5  C   UNL     1      17.173  21.320   0.514  1.00  0.00     0.128 A 
ATOM      6  C   UNL     1      15.777  21.284   0.492  1.00  0.00     0.093 A 
ATOM      7  C   UNL     1      15.026  22.466   0.482  1.00  0.00     0.136 A 
ATOM      8  C   UNL     1      15.696  23.717   0.497  1.00  0.00     0.125 A 
ATOM      9  C   UNL     1      15.025  24.952   0.503  1.00  0.00     0.078 A 
ATOM     10  C   UNL     1      15.754  26.145   0.523  1.00  0.00     0.223 A 
ENDROOT
BRANCH   1  11
ATOM     11  C   UNL     1      18.002  27.301   0.520  1.00  0.00     0.091 A 
ATOM     12  C   UNL     1      17.887  28.219   1.576  1.00  0.00     0.068 A 
ATOM     13  C   UNL     1      18.682  29.368   1.613  1.00  0.00     0.162 A 
ATOM     14  C   UNL     1      18.956  27.533  -0.486  1.00  0.00     0.068 A 
ATOM     15  C   UNL     1      19.621  29.606   0.595  1.00  0.00     0.200 A 
ATOM     16  C   UNL     1      19.759  28.682  -0.455  1.00  0.00     0.162 A 
BRANCH  13  17
ATOM     17  O   UNL     1      18.527  30.262   2.673  1.00  0.00    -0.504 OA
ATOM     18  H   UNL     1      18.345  31.248   2.525  1.00  0.00     0.293 HD
ENDBRANCH  13  17
BRANCH  15  19
ATOM     19  O   UNL     1      20.408  30.758   0.638  1.00  0.00    -0.502 OA
ATOM     20  H   UNL     1      20.127  31.585   1.149  1.00  0.00     0.293 HD
ENDBRANCH  15  19
BRANCH  16  21
ATOM     21  O   UNL     1      20.697  28.905  -1.461  1.00  0.00    -0.504 OA
ATOM     22  H   UNL     1      21.454  29.570  -1.346  1.00  0.00     0.293 HD
ENDBRANCH  16  21
ENDBRANCH   1  11
BRANCH  10  23
ATOM     23  O   UNL     1      15.089  27.369   0.579  1.00  0.00    -0.500 OA
ATOM     24  H   UNL     1      14.558  27.723  -0.207  1.00  0.00     0.294 HD
ENDBRANCH  10  23
BRANCH   5  25
ATOM     25  O   UNL     1      17.891  20.125   0.523  1.00  0.00    -0.507 OA
ATOM     26  H   UNL     1      17.751  19.430   1.247  1.00  0.00     0.293 HD
ENDBRANCH   5  25
BRANCH   7  27
ATOM     27  O   UNL     1      13.634  22.344   0.455  1.00  0.00    -0.507 OA
ATOM     28  H   UNL     1      13.125  21.743  -0.177  1.00  0.00     0.293 HD
ENDBRANCH   7  27
TORSDOF 7
ENDMDL
MODEL 5
REMARK VINA RESULT:    -7.798      1.724      3.064
REMARK INTER + INTRA:          -9.635
REMARK INTER:                  -9.802
REMARK INTRA:                   0.167
REMARK UNBOUND:                -0.014
REMARK SMILES Oc1cc(O)c2cc(O)c(-c3cc(O)c(O)c(O)c3)[o+]c2c1.[Cl-]
REMARK SMILES IDX 10 1 20 2 21 3 22 4 2 5 3 6 4 7 6 8 7 9 8 10 11 11 12 12
REMARK SMILES IDX 13 13 19 14 15 15 17 16 14 17 16 19 18 21 9 23 1 25 5 27
REMARK H PARENT 14 18 16 20 18 22 9 24 1 26 5 28
REMARK Flexibility Score: inf
ROOT
ATOM      1  C   UNL     1      16.115  26.250   0.601  1.00  0.00     0.402 A 
ATOM      2  O   UNL     1      17.189  26.748   1.210  1.00  0.00    -0.202 OA
ATOM      3  C   UNL     1      17.406  28.051   1.359  1.00  0.00     0.368 A 
ATOM      4  C   UNL     1      18.562  28.477   2.016  1.00  0.00     0.162 A 
ATOM      5  C   UNL     1      18.814  29.841   2.189  1.00  0.00     0.128 A 
ATOM      6  C   UNL     1      17.903  30.783   1.703  1.00  0.00     0.093 A 
ATOM      7  C   UNL     1      16.736  30.382   1.042  1.00  0.00     0.136 A 
ATOM      8  C   UNL     1      16.478  28.997   0.862  1.00  0.00     0.125 A 
ATOM      9  C   UNL     1      15.341  28.504   0.200  1.00  0.00     0.078 A 
ATOM     10  C   UNL     1      15.157  27.126   0.056  1.00  0.00     0.223 A 
ENDROOT
BRANCH   1  11
ATOM     11  C   UNL     1      15.983  24.779   0.508  1.00  0.00     0.091 A 
ATOM     12  C   UNL     1      17.137  23.980   0.511  1.00  0.00     0.068 A 
ATOM     13  C   UNL     1      17.041  22.587   0.444  1.00  0.00     0.162 A 
ATOM     14  C   UNL     1      14.722  24.159   0.472  1.00  0.00     0.068 A 
ATOM     15  C   UNL     1      15.779  21.971   0.387  1.00  0.00     0.200 A 
ATOM     16  C   UNL     1      14.617  22.762   0.406  1.00  0.00     0.162 A 
BRANCH  13  17
ATOM     17  O   UNL     1      18.213  21.829   0.435  1.00  0.00    -0.504 OA
ATOM     18  H   UNL     1      18.907  21.917  -0.298  1.00  0.00     0.293 HD
ENDBRANCH  13  17
BRANCH  15  19
ATOM     19  O   UNL     1      15.693  20.580   0.316  1.00  0.00    -0.502 OA
ATOM     20  H   UNL     1      15.280  20.027   1.057  1.00  0.00     0.293 HD
ENDBRANCH  15  19
BRANCH  16  21
ATOM     21  O   UNL     1      13.362  22.158   0.364  1.00  0.00    -0.504 OA
ATOM     22  H   UNL     1      13.258  21.154   0.268  1.00  0.00     0.293 HD
ENDBRANCH  16  21
ENDBRANCH   1  11
BRANCH  10  23
ATOM     23  O   UNL     1      14.055  26.636  -0.644  1.00  0.00    -0.500 OA
ATOM     24  H   UNL     1      13.138  27.057  -0.557  1.00  0.00     0.294 HD
ENDBRANCH  10  23
BRANCH   5  25
ATOM     25  O   UNL     1      19.966  30.274   2.843  1.00  0.00    -0.507 OA
ATOM     26  H   UNL     1      19.990  31.153   3.346  1.00  0.00     0.293 HD
ENDBRANCH   5  25
BRANCH   7  27
ATOM     27  O   UNL     1      15.875  31.385   0.589  1.00  0.00    -0.507 OA
ATOM     28  H   UNL     1      15.837  32.320   0.970  1.00  0.00     0.293 HD
ENDBRANCH   7  27
TORSDOF 7
ENDMDL
MODEL 6
REMARK VINA RESULT:    -6.982      4.578      6.695
REMARK INTER + INTRA:          -8.629
REMARK INTER:                  -8.247
REMARK INTRA:                  -0.381
REMARK UNBOUND:                -0.014
REMARK SMILES Oc1cc(O)c2cc(O)c(-c3cc(O)c(O)c(O)c3)[o+]c2c1.[Cl-]
REMARK SMILES IDX 10 1 20 2 21 3 22 4 2 5 3 6 4 7 6 8 7 9 8 10 11 11 12 12
REMARK SMILES IDX 13 13 19 14 15 15 17 16 14 17 16 19 18 21 9 23 1 25 5 27
REMARK H PARENT 14 18 16 20 18 22 9 24 1 26 5 28
REMARK Flexibility Score: inf
ROOT
ATOM      1  C   UNL     1      16.505  26.678  -3.234  1.00  0.00     0.402 A 
ATOM      2  O   UNL     1      17.766  26.695  -3.658  1.00  0.00    -0.202 OA
ATOM      3  C   UNL     1      18.110  26.540  -4.932  1.00  0.00     0.368 A 
ATOM      4  C   UNL     1      19.462  26.576  -5.281  1.00  0.00     0.162 A 
ATOM      5  C   UNL     1      19.852  26.418  -6.614  1.00  0.00     0.128 A 
ATOM      6  C   UNL     1      18.884  26.224  -7.603  1.00  0.00     0.093 A 
ATOM      7  C   UNL     1      17.522  26.184  -7.279  1.00  0.00     0.136 A 
ATOM      8  C   UNL     1      17.122  26.342  -5.927  1.00  0.00     0.125 A 
ATOM      9  C   UNL     1      15.781  26.302  -5.509  1.00  0.00     0.078 A 
ATOM     10  C   UNL     1      15.464  26.461  -4.156  1.00  0.00     0.223 A 
ENDROOT
BRANCH   1  11
ATOM     11  C   UNL     1      16.249  26.874  -1.789  1.00  0.00     0.091 A 
ATOM     12  C   UNL     1      16.221  25.759  -0.936  1.00  0.00     0.068 A 
ATOM     13  C   UNL     1      16.000  25.916   0.436  1.00  0.00     0.162 A 
ATOM     14  C   UNL     1      16.089  28.158  -1.241  1.00  0.00     0.068 A 
ATOM     15  C   UNL     1      15.820  27.201   0.977  1.00  0.00     0.200 A 
ATOM     16  C   UNL     1      15.869  28.324   0.134  1.00  0.00     0.162 A 
BRANCH  13  17
ATOM     17  O   UNL     1      15.965  24.782   1.248  1.00  0.00    -0.504 OA
ATOM     18  H   UNL     1      15.257  24.065   1.143  1.00  0.00     0.293 HD
ENDBRANCH  13  17
BRANCH  15  19
ATOM     19  O   UNL     1      15.598  27.348   2.347  1.00  0.00    -0.502 OA
ATOM     20  H   UNL     1      14.673  27.507   2.729  1.00  0.00     0.293 HD
ENDBRANCH  15  19
BRANCH  16  21
ATOM     21  O   UNL     1      15.705  29.602   0.665  1.00  0.00    -0.504 OA
ATOM     22  H   UNL     1      16.487  30.126   1.042  1.00  0.00     0.293 HD
ENDBRANCH  16  21
ENDBRANCH   1  11
BRANCH  10  23
ATOM     23  O   UNL     1      14.138  26.372  -3.734  1.00  0.00    -0.500 OA
ATOM     24  H   UNL     1      13.775  25.537  -3.290  1.00  0.00     0.294 HD
ENDBRANCH  10  23
BRANCH   5  25
ATOM     25  O   UNL     1      21.199  26.452  -6.969  1.00  0.00    -0.507 OA
ATOM     26  H   UNL     1      21.915  26.719  -6.304  1.00  0.00     0.293 HD
ENDBRANCH   5  25
BRANCH   7  27
ATOM     27  O   UNL     1      16.617  25.990  -8.327  1.00  0.00    -0.507 OA
ATOM     28  H   UNL     1      16.227  25.095  -8.585  1.00  0.00     0.293 HD
ENDBRANCH   7  27
TORSDOF 7
ENDMDL
MODEL 7
REMARK VINA RESULT:    -6.920      4.386      6.120
REMARK INTER + INTRA:          -8.552
REMARK INTER:                  -8.366
REMARK INTRA:                  -0.186
REMARK UNBOUND:                -0.014
REMARK SMILES Oc1cc(O)c2cc(O)c(-c3cc(O)c(O)c(O)c3)[o+]c2c1.[Cl-]
REMARK SMILES IDX 10 1 20 2 21 3 22 4 2 5 3 6 4 7 6 8 7 9 8 10 11 11 12 12
REMARK SMILES IDX 13 13 19 14 15 15 17 16 14 17 16 19 18 21 9 23 1 25 5 27
REMARK H PARENT 14 18 16 20 18 22 9 24 1 26 5 28
REMARK Flexibility Score: inf
ROOT
ATOM      1  C   UNL     1      17.156  26.587  -2.569  1.00  0.00     0.402 A 
ATOM      2  O   UNL     1      16.009  26.633  -3.242  1.00  0.00    -0.202 OA
ATOM      3  C   UNL     1      15.940  26.633  -4.568  1.00  0.00     0.368 A 
ATOM      4  C   UNL     1      14.687  26.680  -5.185  1.00  0.00     0.162 A 
ATOM      5  C   UNL     1      14.586  26.678  -6.579  1.00  0.00     0.128 A 
ATOM      6  C   UNL     1      15.743  26.628  -7.360  1.00  0.00     0.093 A 
ATOM      7  C   UNL     1      17.010  26.579  -6.767  1.00  0.00     0.136 A 
ATOM      8  C   UNL     1      17.119  26.583  -5.352  1.00  0.00     0.125 A 
ATOM      9  C   UNL     1      18.347  26.550  -4.671  1.00  0.00     0.078 A 
ATOM     10  C   UNL     1      18.374  26.562  -3.273  1.00  0.00     0.223 A 
ENDROOT
BRANCH   1  11
ATOM     11  C   UNL     1      17.101  26.581  -1.090  1.00  0.00     0.091 A 
ATOM     12  C   UNL     1      16.501  25.499  -0.426  1.00  0.00     0.068 A 
ATOM     13  C   UNL     1      16.451  25.458   0.971  1.00  0.00     0.162 A 
ATOM     14  C   UNL     1      17.684  27.611  -0.331  1.00  0.00     0.068 A 
ATOM     15  C   UNL     1      17.018  26.500   1.726  1.00  0.00     0.200 A 
ATOM     16  C   UNL     1      17.640  27.576   1.070  1.00  0.00     0.162 A 
BRANCH  13  17
ATOM     17  O   UNL     1      15.835  24.373   1.593  1.00  0.00    -0.504 OA
ATOM     18  H   UNL     1      14.852  24.378   1.838  1.00  0.00     0.293 HD
ENDBRANCH  13  17
BRANCH  15  19
ATOM     19  O   UNL     1      16.961  26.452   3.119  1.00  0.00    -0.502 OA
ATOM     20  H   UNL     1      16.085  26.374   3.621  1.00  0.00     0.293 HD
ENDBRANCH  15  19
BRANCH  16  21
ATOM     21  O   UNL     1      18.216  28.606   1.812  1.00  0.00    -0.504 OA
ATOM     22  H   UNL     1      18.502  29.478   1.380  1.00  0.00     0.293 HD
ENDBRANCH  16  21
ENDBRANCH   1  11
BRANCH  10  23
ATOM     23  O   UNL     1      19.594  26.579  -2.597  1.00  0.00    -0.500 OA
ATOM     24  H   UNL     1      20.333  27.224  -2.849  1.00  0.00     0.294 HD
ENDBRANCH  10  23
BRANCH   5  25
ATOM     25  O   UNL     1      13.340  26.727  -7.200  1.00  0.00    -0.507 OA
ATOM     26  H   UNL     1      12.519  26.313  -6.774  1.00  0.00     0.293 HD
ENDBRANCH   5  25
BRANCH   7  27
ATOM     27  O   UNL     1      18.118  26.526  -7.618  1.00  0.00    -0.507 OA
ATOM     28  H   UNL     1      18.460  25.684  -8.059  1.00  0.00     0.293 HD
ENDBRANCH   7  27
TORSDOF 7
ENDMDL
MODEL 8
REMARK VINA RESULT:    -6.839      4.410      6.103
REMARK INTER + INTRA:          -8.452
REMARK INTER:                  -8.255
REMARK INTRA:                  -0.197
REMARK UNBOUND:                -0.014
REMARK SMILES Oc1cc(O)c2cc(O)c(-c3cc(O)c(O)c(O)c3)[o+]c2c1.[Cl-]
REMARK SMILES IDX 10 1 20 2 21 3 22 4 2 5 3 6 4 7 6 8 7 9 8 10 11 11 12 12
REMARK SMILES IDX 13 13 19 14 15 15 17 16 14 17 16 19 18 21 9 23 1 25 5 27
REMARK H PARENT 14 18 16 20 18 22 9 24 1 26 5 28
REMARK Flexibility Score: inf
ROOT
ATOM      1  C   UNL     1      17.201  26.557  -2.604  1.00  0.00     0.402 A 
ATOM      2  O   UNL     1      16.055  26.610  -3.278  1.00  0.00    -0.202 OA
ATOM      3  C   UNL     1      15.988  26.643  -4.604  1.00  0.00     0.368 A 
ATOM      4  C   UNL     1      14.736  26.694  -5.222  1.00  0.00     0.162 A 
ATOM      5  C   UNL     1      14.637  26.727  -6.616  1.00  0.00     0.128 A 
ATOM      6  C   UNL     1      15.796  26.708  -7.396  1.00  0.00     0.093 A 
ATOM      7  C   UNL     1      17.063  26.656  -6.802  1.00  0.00     0.136 A 
ATOM      8  C   UNL     1      17.168  26.625  -5.386  1.00  0.00     0.125 A 
ATOM      9  C   UNL     1      18.396  26.586  -4.704  1.00  0.00     0.078 A 
ATOM     10  C   UNL     1      18.421  26.562  -3.307  1.00  0.00     0.223 A 
ENDROOT
BRANCH   1  11
ATOM     11  C   UNL     1      17.143  26.513  -1.126  1.00  0.00     0.091 A 
ATOM     12  C   UNL     1      17.665  27.583  -0.382  1.00  0.00     0.068 A 
ATOM     13  C   UNL     1      17.607  27.577   1.015  1.00  0.00     0.162 A 
ATOM     14  C   UNL     1      16.526  25.447  -0.449  1.00  0.00     0.068 A 
ATOM     15  C   UNL     1      17.007  26.500   1.689  1.00  0.00     0.200 A 
ATOM     16  C   UNL     1      16.462  25.434   0.952  1.00  0.00     0.162 A 
BRANCH  13  17
ATOM     17  O   UNL     1      18.150  28.653   1.718  1.00  0.00    -0.504 OA
ATOM     18  H   UNL     1      18.112  29.602   1.365  1.00  0.00     0.293 HD
ENDBRANCH  13  17
BRANCH  15  19
ATOM     19  O   UNL     1      16.956  26.500   3.083  1.00  0.00    -0.502 OA
ATOM     20  H   UNL     1      17.016  27.354   3.625  1.00  0.00     0.293 HD
ENDBRANCH  15  19
BRANCH  16  21
ATOM     21  O   UNL     1      15.854  24.369   1.613  1.00  0.00    -0.504 OA
ATOM     22  H   UNL     1      14.845  24.293   1.685  1.00  0.00     0.293 HD
ENDBRANCH  16  21
ENDBRANCH   1  11
BRANCH  10  23
ATOM     23  O   UNL     1      19.639  26.574  -2.628  1.00  0.00    -0.500 OA
ATOM     24  H   UNL     1      19.751  26.125  -1.727  1.00  0.00     0.294 HD
ENDBRANCH  10  23
BRANCH   5  25
ATOM     25  O   UNL     1      13.392  26.779  -7.238  1.00  0.00    -0.507 OA
ATOM     26  H   UNL     1      13.306  26.832  -8.247  1.00  0.00     0.293 HD
ENDBRANCH   5  25
BRANCH   7  27
ATOM     27  O   UNL     1      18.172  26.636  -7.652  1.00  0.00    -0.507 OA
ATOM     28  H   UNL     1      18.913  25.951  -7.608  1.00  0.00     0.293 HD
ENDBRANCH   7  27
TORSDOF 7
ENDMDL
MODEL 9
REMARK VINA RESULT:    -6.821      4.587      6.563
REMARK INTER + INTRA:          -8.430
REMARK INTER:                  -8.050
REMARK INTRA:                  -0.380
REMARK UNBOUND:                -0.014
REMARK SMILES Oc1cc(O)c2cc(O)c(-c3cc(O)c(O)c(O)c3)[o+]c2c1.[Cl-]
REMARK SMILES IDX 10 1 20 2 21 3 22 4 2 5 3 6 4 7 6 8 7 9 8 10 11 11 12 12
REMARK SMILES IDX 13 13 19 14 15 15 17 16 14 17 16 19 18 21 9 23 1 25 5 27
REMARK H PARENT 14 18 16 20 18 22 9 24 1 26 5 28
REMARK Flexibility Score: inf
ROOT
ATOM      1  C   UNL     1      16.642  26.663  -3.254  1.00  0.00     0.402 A 
ATOM      2  O   UNL     1      17.903  26.663  -3.681  1.00  0.00    -0.202 OA
ATOM      3  C   UNL     1      18.241  26.523  -4.958  1.00  0.00     0.368 A 
ATOM      4  C   UNL     1      19.593  26.540  -5.310  1.00  0.00     0.162 A 
ATOM      5  C   UNL     1      19.977  26.398  -6.647  1.00  0.00     0.128 A 
ATOM      6  C   UNL     1      19.003  26.239  -7.636  1.00  0.00     0.093 A 
ATOM      7  C   UNL     1      17.641  26.220  -7.310  1.00  0.00     0.136 A 
ATOM      8  C   UNL     1      17.247  26.362  -5.954  1.00  0.00     0.125 A 
ATOM      9  C   UNL     1      15.907  26.341  -5.533  1.00  0.00     0.078 A 
ATOM     10  C   UNL     1      15.596  26.482  -4.177  1.00  0.00     0.223 A 
ENDROOT
BRANCH   1  11
ATOM     11  C   UNL     1      16.394  26.839  -1.805  1.00  0.00     0.091 A 
ATOM     12  C   UNL     1      16.195  28.130  -1.291  1.00  0.00     0.068 A 
ATOM     13  C   UNL     1      15.940  28.324   0.070  1.00  0.00     0.162 A 
ATOM     14  C   UNL     1      16.298  25.736  -0.940  1.00  0.00     0.068 A 
ATOM     15  C   UNL     1      15.865  27.220   0.936  1.00  0.00     0.200 A 
ATOM     16  C   UNL     1      16.041  25.922   0.426  1.00  0.00     0.162 A 
BRANCH  13  17
ATOM     17  O   UNL     1      15.762  29.624   0.545  1.00  0.00    -0.504 OA
ATOM     18  H   UNL     1      15.026  30.228   0.200  1.00  0.00     0.293 HD
ENDBRANCH  13  17
BRANCH  15  19
ATOM     19  O   UNL     1      15.613  27.423   2.294  1.00  0.00    -0.502 OA
ATOM     20  H   UNL     1      15.658  26.670   2.969  1.00  0.00     0.293 HD
ENDBRANCH  15  19
BRANCH  16  21
ATOM     21  O   UNL     1      15.954  24.821   1.276  1.00  0.00    -0.504 OA
ATOM     22  H   UNL     1      15.421  24.854   2.138  1.00  0.00     0.293 HD
ENDBRANCH  16  21
ENDBRANCH   1  11
BRANCH  10  23
ATOM     23  O   UNL     1      14.269  26.412  -3.753  1.00  0.00    -0.500 OA
ATOM     24  H   UNL     1      13.991  26.702  -2.823  1.00  0.00     0.294 HD
ENDBRANCH  10  23
BRANCH   5  25
ATOM     25  O   UNL     1      21.323  26.412  -7.004  1.00  0.00    -0.507 OA
ATOM     26  H   UNL     1      21.902  25.585  -6.919  1.00  0.00     0.293 HD
ENDBRANCH   5  25
BRANCH   7  27
ATOM     27  O   UNL     1      16.730  26.061  -8.358  1.00  0.00    -0.507 OA
ATOM     28  H   UNL     1      16.987  25.830  -9.307  1.00  0.00     0.293 HD
ENDBRANCH   7  27
TORSDOF 7
ENDMDL
