MODEL 1
REMARK VINA RESULT:     2.102      0.000      0.000
REMARK INTER + INTRA:           3.272
REMARK INTER:                   4.559
REMARK INTRA:                  -1.287
REMARK UNBOUND:                -1.287
REMARK SMILES CCCCCCCCCCCCCCCCCCCCCC(=O)[O-]
REMARK SMILES IDX 12 1 11 2 10 3 9 4 8 5 7 6 6 7 5 8 4 9 3 10 2 11 1 12 13 13
REMARK SMILES IDX 14 14 15 15 16 16 17 17 18 18 19 19 20 20 21 21 22 22 23 23
REMARK SMILES IDX 24 24
REMARK H PARENT
REMARK Flexibility Score: inf
ROOT
ATOM      1  C   UNL     1     103.356 101.675 104.082  1.00  0.00     0.000 C 
ENDROOT
BRANCH   1   2
ATOM      2  C   UNL     1     103.290 102.874 105.043  1.00  0.00     0.000 C 
BRANCH   2   3
ATOM      3  C   UNL     1     103.624 102.490 106.495  1.00  0.00     0.000 C 
BRANCH   3   4
ATOM      4  C   UNL     1     103.564 103.692 107.451  1.00  0.00    -0.000 C 
BRANCH   4   5
ATOM      5  C   UNL     1     104.048 104.996 106.796  1.00  0.00    -0.000 C 
BRANCH   5   6
ATOM      6  C   UNL     1     104.628 105.954 107.845  1.00  0.00    -0.000 C 
BRANCH   6   7
ATOM      7  C   UNL     1     104.752 105.263 109.211  1.00  0.00    -0.000 C 
BRANCH   7   8
ATOM      8  C   UNL     1     104.627 106.243 110.393  1.00  0.00    -0.000 C 
BRANCH   8   9
ATOM      9  C   UNL     1     104.280 105.592 111.744  1.00  0.00    -0.000 C 
BRANCH   9  10
ATOM     10  C   UNL     1     104.569 104.085 111.775  1.00  0.00    -0.000 C 
BRANCH  10  11
ATOM     11  C   UNL     1     103.266 103.277 111.811  1.00  0.00    -0.003 C 
ATOM     12  C   UNL     1     103.516 101.850 112.289  1.00  0.00     0.004 C 
ENDBRANCH  10  11
ENDBRANCH   9  10
ENDBRANCH   8   9
ENDBRANCH   7   8
ENDBRANCH   6   7
ENDBRANCH   5   6
ENDBRANCH   4   5
ENDBRANCH   3   4
ENDBRANCH   2   3
ENDBRANCH   1   2
BRANCH   1  13
ATOM     13  C   UNL     1     103.609 102.097 102.624  1.00  0.00     0.000 C 
BRANCH  13  14
ATOM     14  C   UNL     1     103.334 103.591 102.386  1.00  0.00     0.000 C 
BRANCH  14  15
ATOM     15  C   UNL     1     104.626 104.424 102.316  1.00  0.00     0.000 C 
BRANCH  15  16
ATOM     16  C   UNL     1     104.364 105.933 102.439  1.00  0.00     0.000 C 
BRANCH  16  17
ATOM     17  C   UNL     1     104.553 106.678 101.108  1.00  0.00     0.000 C 
BRANCH  17  18
ATOM     18  C   UNL     1     104.763 105.693  99.947  1.00  0.00     0.000 C 
BRANCH  18  19
ATOM     19  C   UNL     1     104.565 106.368  98.575  1.00  0.00     0.000 C 
BRANCH  19  20
ATOM     20  C   UNL     1     104.061 105.413  97.476  1.00  0.00     0.006 C 
BRANCH  20  21
ATOM     21  C   UNL     1     104.571 103.967  97.615  1.00  0.00     0.053 C 
BRANCH  21  22
ATOM     22  C   UNL     1     103.462 102.969  97.771  1.00  0.00     0.041 C 
ATOM     23  O   UNL     1     102.261 103.346  97.764  1.00  0.00    -0.550 OA
ATOM     24  O   UNL     1     103.752 101.612  97.855  1.00  0.00    -0.550 OA
ENDBRANCH  21  22
ENDBRANCH  20  21
ENDBRANCH  19  20
ENDBRANCH  18  19
ENDBRANCH  17  18
ENDBRANCH  16  17
ENDBRANCH  15  16
ENDBRANCH  14  15
ENDBRANCH  13  14
ENDBRANCH   1  13
TORSDOF 20
ENDMDL
MODEL 2
REMARK VINA RESULT:     2.156      4.200     10.236
REMARK INTER + INTRA:           3.389
REMARK INTER:                   4.739
REMARK INTRA:                  -1.350
REMARK UNBOUND:                -1.287
REMARK SMILES CCCCCCCCCCCCCCCCCCCCCC(=O)[O-]
REMARK SMILES IDX 12 1 11 2 10 3 9 4 8 5 7 6 6 7 5 8 4 9 3 10 2 11 1 12 13 13
REMARK SMILES IDX 14 14 15 15 16 16 17 17 18 18 19 19 20 20 21 21 22 22 23 23
REMARK SMILES IDX 24 24
REMARK H PARENT
REMARK Flexibility Score: inf
ROOT
ATOM      1  C   UNL     1     103.458 101.672 105.488  1.00  0.00     0.000 C 
ENDROOT
BRANCH   1   2
ATOM      2  C   UNL     1     103.325 102.818 104.471  1.00  0.00     0.000 C 
BRANCH   2   3
ATOM      3  C   UNL     1     103.475 102.341 103.016  1.00  0.00     0.000 C 
BRANCH   3   4
ATOM      4  C   UNL     1     103.682 103.504 102.033  1.00  0.00    -0.000 C 
BRANCH   4   5
ATOM      5  C   UNL     1     104.255 104.759 102.712  1.00  0.00    -0.000 C 
BRANCH   5   6
ATOM      6  C   UNL     1     104.504 105.873 101.686  1.00  0.00    -0.000 C 
BRANCH   6   7
ATOM      7  C   UNL     1     104.749 105.286 100.288  1.00  0.00    -0.000 C 
BRANCH   7   8
ATOM      8  C   UNL     1     104.554 106.319  99.162  1.00  0.00    -0.000 C 
BRANCH   8   9
ATOM      9  C   UNL     1     104.258 105.721  97.774  1.00  0.00    -0.000 C 
BRANCH   9  10
ATOM     10  C   UNL     1     104.614 104.231  97.676  1.00  0.00    -0.000 C 
BRANCH  10  11
ATOM     11  C   UNL     1     103.352 103.361  97.733  1.00  0.00    -0.003 C 
ATOM     12  C   UNL     1     103.708 101.880  97.821  1.00  0.00     0.004 C 
ENDBRANCH  10  11
ENDBRANCH   9  10
ENDBRANCH   8   9
ENDBRANCH   7   8
ENDBRANCH   6   7
ENDBRANCH   5   6
ENDBRANCH   4   5
ENDBRANCH   3   4
ENDBRANCH   2   3
ENDBRANCH   1   2
BRANCH   1  13
ATOM     13  C   UNL     1     103.326 102.152 106.944  1.00  0.00     0.000 C 
BRANCH  13  14
ATOM     14  C   UNL     1     103.218 103.682 107.053  1.00  0.00     0.000 C 
BRANCH  14  15
ATOM     15  C   UNL     1     104.591 104.362 107.194  1.00  0.00     0.000 C 
BRANCH  15  16
ATOM     16  C   UNL     1     104.513 105.890 107.046  1.00  0.00     0.000 C 
BRANCH  16  17
ATOM     17  C   UNL     1     104.579 106.620 108.396  1.00  0.00     0.000 C 
BRANCH  17  18
ATOM     18  C   UNL     1     104.846 105.636 109.546  1.00  0.00     0.000 C 
BRANCH  18  19
ATOM     19  C   UNL     1     104.565 106.269 110.923  1.00  0.00     0.000 C 
BRANCH  19  20
ATOM     20  C   UNL     1     104.407 105.243 112.062  1.00  0.00     0.006 C 
BRANCH  20  21
ATOM     21  C   UNL     1     104.544 103.777 111.613  1.00  0.00     0.053 C 
BRANCH  21  22
ATOM     22  C   UNL     1     103.379 102.928 112.028  1.00  0.00     0.041 C 
ATOM     23  O   UNL     1     102.220 103.417 112.078  1.00  0.00    -0.550 OA
ATOM     24  O   UNL     1     103.562 101.576 112.295  1.00  0.00    -0.550 OA
ENDBRANCH  21  22
ENDBRANCH  20  21
ENDBRANCH  19  20
ENDBRANCH  18  19
ENDBRANCH  17  18
ENDBRANCH  16  17
ENDBRANCH  15  16
ENDBRANCH  14  15
ENDBRANCH  13  14
ENDBRANCH   1  13
TORSDOF 20
ENDMDL
MODEL 3
REMARK VINA RESULT:     2.166      4.463     10.810
REMARK INTER + INTRA:           3.413
REMARK INTER:                   4.547
REMARK INTRA:                  -1.134
REMARK UNBOUND:                -1.287
REMARK SMILES CCCCCCCCCCCCCCCCCCCCCC(=O)[O-]
REMARK SMILES IDX 12 1 11 2 10 3 9 4 8 5 7 6 6 7 5 8 4 9 3 10 2 11 1 12 13 13
REMARK SMILES IDX 14 14 15 15 16 16 17 17 18 18 19 19 20 20 21 21 22 22 23 23
REMARK SMILES IDX 24 24
REMARK H PARENT
REMARK Flexibility Score: inf
ROOT
ATOM      1  C   UNL     1     104.432 106.622 105.771  1.00  0.00     0.000 C 
ENDROOT
BRANCH   1   2
ATOM      2  C   UNL     1     104.850 105.629 104.674  1.00  0.00     0.000 C 
BRANCH   2   3
ATOM      3  C   UNL     1     104.604 106.173 103.256  1.00  0.00     0.000 C 
BRANCH   3   4
ATOM      4  C   UNL     1     104.445 105.053 102.215  1.00  0.00    -0.000 C 
BRANCH   4   5
ATOM      5  C   UNL     1     103.643 103.855 102.750  1.00  0.00    -0.000 C 
BRANCH   5   6
ATOM      6  C   UNL     1     103.603 102.718 101.721  1.00  0.00    -0.000 C 
BRANCH   6   7
ATOM      7  C   UNL     1     103.628 103.273 100.289  1.00  0.00    -0.000 C 
BRANCH   7   8
ATOM      8  C   UNL     1     103.409 102.185  99.220  1.00  0.00    -0.000 C 
BRANCH   8   9
ATOM      9  C   UNL     1     103.655 102.638  97.770  1.00  0.00    -0.000 C 
BRANCH   9  10
ATOM     10  C   UNL     1     103.377 104.133  97.554  1.00  0.00    -0.000 C 
BRANCH  10  11
ATOM     11  C   UNL     1     104.668 104.954  97.670  1.00  0.00    -0.003 C 
ATOM     12  C   UNL     1     104.365 106.445  97.780  1.00  0.00     0.004 C 
ENDBRANCH  10  11
ENDBRANCH   9  10
ENDBRANCH   8   9
ENDBRANCH   7   8
ENDBRANCH   6   7
ENDBRANCH   5   6
ENDBRANCH   4   5
ENDBRANCH   3   4
ENDBRANCH   2   3
ENDBRANCH   1   2
BRANCH   1  13
ATOM     13  C   UNL     1     104.508 106.014 107.183  1.00  0.00     0.000 C 
BRANCH  13  14
ATOM     14  C   UNL     1     104.671 104.485 107.158  1.00  0.00     0.000 C 
BRANCH  14  15
ATOM     15  C   UNL     1     103.320 103.749 107.202  1.00  0.00     0.000 C 
BRANCH  15  16
ATOM     16  C   UNL     1     103.477 102.222 107.127  1.00  0.00     0.000 C 
BRANCH  16  17
ATOM     17  C   UNL     1     103.342 101.543 108.499  1.00  0.00     0.000 C 
BRANCH  17  18
ATOM     18  C   UNL     1     103.227 102.585 109.623  1.00  0.00     0.000 C 
BRANCH  18  19
ATOM     19  C   UNL     1     103.430 101.954 111.015  1.00  0.00     0.000 C 
BRANCH  19  20
ATOM     20  C   UNL     1     103.623 102.983 112.145  1.00  0.00     0.006 C 
BRANCH  20  21
ATOM     21  C   UNL     1     103.382 104.443 111.717  1.00  0.00     0.053 C 
BRANCH  21  22
ATOM     22  C   UNL     1     104.543 105.341 112.026  1.00  0.00     0.041 C 
ATOM     23  O   UNL     1     105.709 104.872 112.103  1.00  0.00    -0.550 OA
ATOM     24  O   UNL     1     104.348 106.711 112.161  1.00  0.00    -0.550 OA
ENDBRANCH  21  22
ENDBRANCH  20  21
ENDBRANCH  19  20
ENDBRANCH  18  19
ENDBRANCH  17  18
ENDBRANCH  16  17
ENDBRANCH  15  16
ENDBRANCH  14  15
ENDBRANCH  13  14
ENDBRANCH   1  13
TORSDOF 20
ENDMDL
MODEL 4
REMARK VINA RESULT:     2.182      1.608      3.349
REMARK INTER + INTRA:           3.447
REMARK INTER:                   4.776
REMARK INTRA:                  -1.328
REMARK UNBOUND:                -1.287
REMARK SMILES CCCCCCCCCCCCCCCCCCCCCC(=O)[O-]
REMARK SMILES IDX 12 1 11 2 10 3 9 4 8 5 7 6 6 7 5 8 4 9 3 10 2 11 1 12 13 13
REMARK SMILES IDX 14 14 15 15 16 16 17 17 18 18 19 19 20 20 21 21 22 22 23 23
REMARK SMILES IDX 24 24
REMARK H PARENT
REMARK Flexibility Score: inf
ROOT
ATOM      1  C   UNL     1     104.433 106.449 104.033  1.00  0.00     0.000 C 
ENDROOT
BRANCH   1   2
ATOM      2  C   UNL     1     104.673 105.315 105.044  1.00  0.00     0.000 C 
BRANCH   2   3
ATOM      3  C   UNL     1     104.475 105.769 106.501  1.00  0.00     0.000 C 
BRANCH   3   4
ATOM      4  C   UNL     1     104.405 104.587 107.481  1.00  0.00    -0.000 C 
BRANCH   4   5
ATOM      5  C   UNL     1     103.867 103.304 106.825  1.00  0.00    -0.000 C 
BRANCH   5   6
ATOM      6  C   UNL     1     103.300 102.345 107.880  1.00  0.00    -0.000 C 
BRANCH   6   7
ATOM      7  C   UNL     1     103.295 102.998 109.270  1.00  0.00    -0.000 C 
BRANCH   7   8
ATOM      8  C   UNL     1     103.274 101.970 110.416  1.00  0.00    -0.000 C 
BRANCH   8   9
ATOM      9  C   UNL     1     103.754 102.502 111.778  1.00  0.00    -0.000 C 
BRANCH   9  10
ATOM     10  C   UNL     1     103.401 103.980 112.002  1.00  0.00    -0.000 C 
BRANCH  10  11
ATOM     11  C   UNL     1     104.666 104.846 112.047  1.00  0.00    -0.003 C 
ATOM     12  C   UNL     1     104.321 106.330 111.984  1.00  0.00     0.004 C 
ENDBRANCH  10  11
ENDBRANCH   9  10
ENDBRANCH   8   9
ENDBRANCH   7   8
ENDBRANCH   6   7
ENDBRANCH   5   6
ENDBRANCH   4   5
ENDBRANCH   3   4
ENDBRANCH   2   3
ENDBRANCH   1   2
BRANCH   1  13
ATOM     13  C   UNL     1     104.434 105.954 102.575  1.00  0.00     0.000 C 
BRANCH  13  14
ATOM     14  C   UNL     1     104.708 104.445 102.465  1.00  0.00     0.000 C 
BRANCH  14  15
ATOM     15  C   UNL     1     103.415 103.618 102.363  1.00  0.00     0.000 C 
BRANCH  15  16
ATOM     16  C   UNL     1     103.678 102.103 102.386  1.00  0.00     0.000 C 
BRANCH  16  17
ATOM     17  C   UNL     1     103.351 101.425 101.047  1.00  0.00     0.000 C 
BRANCH  17  18
ATOM     18  C   UNL     1     103.213 102.460  99.920  1.00  0.00     0.000 C 
BRANCH  18  19
ATOM     19  C   UNL     1     103.533 101.853  98.539  1.00  0.00     0.000 C 
BRANCH  19  20
ATOM     20  C   UNL     1     103.824 102.902  97.448  1.00  0.00     0.006 C 
BRANCH  20  21
ATOM     21  C   UNL     1     103.387 104.332  97.816  1.00  0.00     0.053 C 
BRANCH  21  22
ATOM     22  C   UNL     1     104.514 105.320  97.761  1.00  0.00     0.041 C 
ATOM     23  O   UNL     1     104.280 106.557  97.793  1.00  0.00    -0.550 OA
ATOM     24  O   UNL     1     105.831 104.875  97.744  1.00  0.00    -0.550 OA
ENDBRANCH  21  22
ENDBRANCH  20  21
ENDBRANCH  19  20
ENDBRANCH  18  19
ENDBRANCH  17  18
ENDBRANCH  16  17
ENDBRANCH  15  16
ENDBRANCH  14  15
ENDBRANCH  13  14
ENDBRANCH   1  13
TORSDOF 20
ENDMDL
MODEL 5
REMARK VINA RESULT:     2.665      4.379      9.937
REMARK INTER + INTRA:           4.494
REMARK INTER:                   5.669
REMARK INTRA:                  -1.175
REMARK UNBOUND:                -1.287
REMARK SMILES CCCCCCCCCCCCCCCCCCCCCC(=O)[O-]
REMARK SMILES IDX 12 1 11 2 10 3 9 4 8 5 7 6 6 7 5 8 4 9 3 10 2 11 1 12 13 13
REMARK SMILES IDX 14 14 15 15 16 16 17 17 18 18 19 19 20 20 21 21 22 22 23 23
REMARK SMILES IDX 24 24
REMARK H PARENT
REMARK Flexibility Score: inf
ROOT
ATOM      1  C   UNL     1     103.288 101.541 103.346  1.00  0.00     0.000 C 
ENDROOT
BRANCH   1   2
ATOM      2  C   UNL     1     103.634 102.515 102.207  1.00  0.00     0.000 C 
BRANCH   2   3
ATOM      3  C   UNL     1     103.368 103.983 102.580  1.00  0.00     0.000 C 
BRANCH   3   4
ATOM      4  C   UNL     1     104.632 104.853 102.489  1.00  0.00    -0.000 C 
BRANCH   4   5
ATOM      5  C   UNL     1     104.322 106.358 102.536  1.00  0.00    -0.000 C 
BRANCH   5   6
ATOM      6  C   UNL     1     104.554 107.009 101.167  1.00  0.00    -0.000 C 
BRANCH   6   7
ATOM      7  C   UNL     1     104.710 105.944 100.071  1.00  0.00    -0.000 C 
BRANCH   7   8
ATOM      8  C   UNL     1     104.667 106.534  98.649  1.00  0.00    -0.000 C 
BRANCH   8   9
ATOM      9  C   UNL     1     104.061 105.610  97.578  1.00  0.00    -0.000 C 
BRANCH   9  10
ATOM     10  C   UNL     1     104.495 104.145  97.736  1.00  0.00    -0.000 C 
BRANCH  10  11
ATOM     11  C   UNL     1     103.283 103.206  97.682  1.00  0.00    -0.003 C 
ATOM     12  C   UNL     1     103.716 101.745  97.755  1.00  0.00     0.004 C 
ENDBRANCH  10  11
ENDBRANCH   9  10
ENDBRANCH   8   9
ENDBRANCH   7   8
ENDBRANCH   6   7
ENDBRANCH   5   6
ENDBRANCH   4   5
ENDBRANCH   3   4
ENDBRANCH   2   3
ENDBRANCH   1   2
BRANCH   1  13
ATOM     13  C   UNL     1     103.265 102.226 104.725  1.00  0.00     0.000 C 
BRANCH  13  14
ATOM     14  C   UNL     1     103.411 101.225 105.883  1.00  0.00     0.000 C 
BRANCH  14  15
ATOM     15  C   UNL     1     103.628 101.921 107.238  1.00  0.00     0.000 C 
BRANCH  15  16
ATOM     16  C   UNL     1     103.238 103.407 107.210  1.00  0.00     0.000 C 
BRANCH  16  17
ATOM     17  C   UNL     1     104.448 104.335 107.023  1.00  0.00     0.000 C 
BRANCH  17  18
ATOM     18  C   UNL     1     104.028 105.812 107.071  1.00  0.00     0.000 C 
BRANCH  18  19
ATOM     19  C   UNL     1     104.976 106.653 107.950  1.00  0.00     0.000 C 
BRANCH  19  20
ATOM     20  C   UNL     1     104.567 106.706 109.435  1.00  0.00     0.006 C 
BRANCH  20  21
ATOM     21  C   UNL     1     104.828 105.400 110.208  1.00  0.00     0.053 C 
BRANCH  21  22
ATOM     22  C   UNL     1     104.395 105.475 111.643  1.00  0.00     0.041 C 
ATOM     23  O   UNL     1     104.105 104.426 112.276  1.00  0.00    -0.550 OA
ATOM     24  O   UNL     1     104.377 106.698 112.303  1.00  0.00    -0.550 OA
ENDBRANCH  21  22
ENDBRANCH  20  21
ENDBRANCH  19  20
ENDBRANCH  18  19
ENDBRANCH  17  18
ENDBRANCH  16  17
ENDBRANCH  15  16
ENDBRANCH  14  15
ENDBRANCH  13  14
ENDBRANCH   1  13
TORSDOF 20
ENDMDL
MODEL 6
REMARK VINA RESULT:     2.887      4.344     10.304
REMARK INTER + INTRA:           4.975
REMARK INTER:                   6.228
REMARK INTRA:                  -1.252
REMARK UNBOUND:                -1.287
REMARK SMILES CCCCCCCCCCCCCCCCCCCCCC(=O)[O-]
REMARK SMILES IDX 12 1 11 2 10 3 9 4 8 5 7 6 6 7 5 8 4 9 3 10 2 11 1 12 13 13
REMARK SMILES IDX 14 14 15 15 16 16 17 17 18 18 19 19 20 20 21 21 22 22 23 23
REMARK SMILES IDX 24 24
REMARK H PARENT
REMARK Flexibility Score: inf
ROOT
ATOM      1  C   UNL     1     104.373 105.980 102.176  1.00  0.00     0.000 C 
ENDROOT
BRANCH   1   2
ATOM      2  C   UNL     1     104.635 104.467 102.281  1.00  0.00     0.000 C 
BRANCH   2   3
ATOM      3  C   UNL     1     103.337 103.648 102.389  1.00  0.00     0.000 C 
BRANCH   3   4
ATOM      4  C   UNL     1     103.604 102.144 102.561  1.00  0.00    -0.000 C 
BRANCH   4   5
ATOM      5  C   UNL     1     103.459 101.361 101.247  1.00  0.00    -0.000 C 
BRANCH   5   6
ATOM      6  C   UNL     1     103.413 102.312 100.044  1.00  0.00    -0.000 C 
BRANCH   6   7
ATOM      7  C   UNL     1     103.712 101.561  98.738  1.00  0.00    -0.000 C 
BRANCH   7   8
ATOM      8  C   UNL     1     103.157 102.278  97.493  1.00  0.00    -0.000 C 
BRANCH   8   9
ATOM      9  C   UNL     1     103.151 103.815  97.575  1.00  0.00    -0.000 C 
BRANCH   9  10
ATOM     10  C   UNL     1     104.500 104.441  97.192  1.00  0.00    -0.000 C 
BRANCH  10  11
ATOM     11  C   UNL     1     104.882 105.560  98.169  1.00  0.00    -0.003 C 
ATOM     12  C   UNL     1     104.200 106.873  97.797  1.00  0.00     0.004 C 
ENDBRANCH  10  11
ENDBRANCH   9  10
ENDBRANCH   8   9
ENDBRANCH   7   8
ENDBRANCH   6   7
ENDBRANCH   5   6
ENDBRANCH   4   5
ENDBRANCH   3   4
ENDBRANCH   2   3
ENDBRANCH   1   2
BRANCH   1  13
ATOM     13  C   UNL     1     104.677 106.726 103.487  1.00  0.00     0.000 C 
BRANCH  13  14
ATOM     14  C   UNL     1     104.663 105.798 104.712  1.00  0.00     0.000 C 
BRANCH  14  15
ATOM     15  C   UNL     1     104.663 106.574 106.040  1.00  0.00     0.000 C 
BRANCH  15  16
ATOM     16  C   UNL     1     104.226 105.707 107.232  1.00  0.00     0.000 C 
BRANCH  16  17
ATOM     17  C   UNL     1     104.510 104.213 107.014  1.00  0.00     0.000 C 
BRANCH  17  18
ATOM     18  C   UNL     1     103.238 103.374 107.206  1.00  0.00     0.000 C 
BRANCH  18  19
ATOM     19  C   UNL     1     103.558 101.945 107.689  1.00  0.00     0.000 C 
BRANCH  19  20
ATOM     20  C   UNL     1     103.288 101.717 109.189  1.00  0.00     0.006 C 
BRANCH  20  21
ATOM     21  C   UNL     1     103.386 102.991 110.048  1.00  0.00     0.053 C 
BRANCH  21  22
ATOM     22  C   UNL     1     103.533 102.698 111.512  1.00  0.00     0.041 C 
ATOM     23  O   UNL     1     103.408 103.619 112.361  1.00  0.00    -0.550 OA
ATOM     24  O   UNL     1     103.742 101.394 111.945  1.00  0.00    -0.550 OA
ENDBRANCH  21  22
ENDBRANCH  20  21
ENDBRANCH  19  20
ENDBRANCH  18  19
ENDBRANCH  17  18
ENDBRANCH  16  17
ENDBRANCH  15  16
ENDBRANCH  14  15
ENDBRANCH  13  14
ENDBRANCH   1  13
TORSDOF 20
ENDMDL
MODEL 7
REMARK VINA RESULT:     3.295      2.393      3.323
REMARK INTER + INTRA:           5.860
REMARK INTER:                   7.419
REMARK INTRA:                  -1.559
REMARK UNBOUND:                -1.287
REMARK SMILES CCCCCCCCCCCCCCCCCCCCCC(=O)[O-]
REMARK SMILES IDX 12 1 11 2 10 3 9 4 8 5 7 6 6 7 5 8 4 9 3 10 2 11 1 12 13 13
REMARK SMILES IDX 14 14 15 15 16 16 17 17 18 18 19 19 20 20 21 21 22 22 23 23
REMARK SMILES IDX 24 24
REMARK H PARENT
REMARK Flexibility Score: inf
ROOT
ATOM      1  C   UNL     1     103.305 101.550 104.008  1.00  0.00     0.000 C 
ENDROOT
BRANCH   1   2
ATOM      2  C   UNL     1     103.160 102.668 105.054  1.00  0.00     0.000 C 
BRANCH   2   3
ATOM      3  C   UNL     1     103.465 102.186 106.483  1.00  0.00     0.000 C 
BRANCH   3   4
ATOM      4  C   UNL     1     103.590 103.347 107.482  1.00  0.00    -0.000 C 
BRANCH   4   5
ATOM      5  C   UNL     1     103.299 104.714 106.842  1.00  0.00    -0.000 C 
BRANCH   5   6
ATOM      6  C   UNL     1     104.405 105.724 107.178  1.00  0.00    -0.000 C 
BRANCH   6   7
ATOM      7  C   UNL     1     105.655 105.011 107.713  1.00  0.00    -0.000 C 
BRANCH   7   8
ATOM      8  C   UNL     1     106.745 104.823 106.641  1.00  0.00    -0.000 C 
BRANCH   8   9
ATOM      9  C   UNL     1     107.982 104.031 107.101  1.00  0.00    -0.000 C 
BRANCH   9  10
ATOM     10  C   UNL     1     109.253 104.399 106.322  1.00  0.00    -0.000 C 
BRANCH  10  11
ATOM     11  C   UNL     1     110.495 103.783 106.976  1.00  0.00    -0.003 C 
ATOM     12  C   UNL     1     110.369 102.266 107.079  1.00  0.00     0.004 C 
ENDBRANCH  10  11
ENDBRANCH   9  10
ENDBRANCH   8   9
ENDBRANCH   7   8
ENDBRANCH   6   7
ENDBRANCH   5   6
ENDBRANCH   4   5
ENDBRANCH   3   4
ENDBRANCH   2   3
ENDBRANCH   1   2
BRANCH   1  13
ATOM     13  C   UNL     1     103.635 102.091 102.605  1.00  0.00     0.000 C 
BRANCH  13  14
ATOM     14  C   UNL     1     103.367 103.599 102.475  1.00  0.00     0.000 C 
BRANCH  14  15
ATOM     15  C   UNL     1     104.663 104.422 102.377  1.00  0.00     0.000 C 
BRANCH  15  16
ATOM     16  C   UNL     1     104.424 105.929 102.564  1.00  0.00     0.000 C 
BRANCH  16  17
ATOM     17  C   UNL     1     104.434 106.700 101.236  1.00  0.00     0.000 C 
BRANCH  17  18
ATOM     18  C   UNL     1     104.783 105.775 100.060  1.00  0.00     0.000 C 
BRANCH  18  19
ATOM     19  C   UNL     1     104.566 106.465  98.699  1.00  0.00     0.000 C 
BRANCH  19  20
ATOM     20  C   UNL     1     104.092 105.513  97.584  1.00  0.00     0.006 C 
BRANCH  20  21
ATOM     21  C   UNL     1     104.614 104.071  97.722  1.00  0.00     0.053 C 
BRANCH  21  22
ATOM     22  C   UNL     1     103.513 103.053  97.772  1.00  0.00     0.041 C 
ATOM     23  O   UNL     1     102.308 103.418  97.756  1.00  0.00    -0.550 OA
ATOM     24  O   UNL     1     103.816 101.697  97.767  1.00  0.00    -0.550 OA
ENDBRANCH  21  22
ENDBRANCH  20  21
ENDBRANCH  19  20
ENDBRANCH  18  19
ENDBRANCH  17  18
ENDBRANCH  16  17
ENDBRANCH  15  16
ENDBRANCH  14  15
ENDBRANCH  13  14
ENDBRANCH   1  13
TORSDOF 20
ENDMDL
MODEL 8
REMARK VINA RESULT:     3.298      1.001      2.273
REMARK INTER + INTRA:           5.867
REMARK INTER:                   7.075
REMARK INTRA:                  -1.207
REMARK UNBOUND:                -1.287
REMARK SMILES CCCCCCCCCCCCCCCCCCCCCC(=O)[O-]
REMARK SMILES IDX 12 1 11 2 10 3 9 4 8 5 7 6 6 7 5 8 4 9 3 10 2 11 1 12 13 13
REMARK SMILES IDX 14 14 15 15 16 16 17 17 18 18 19 19 20 20 21 21 22 22 23 23
REMARK SMILES IDX 24 24
REMARK H PARENT
REMARK Flexibility Score: inf
ROOT
ATOM      1  C   UNL     1     103.466 101.879 106.235  1.00  0.00     0.000 C 
ENDROOT
BRANCH   1   2
ATOM      2  C   UNL     1     103.608 102.937 107.342  1.00  0.00     0.000 C 
BRANCH   2   3
ATOM      3  C   UNL     1     103.583 104.375 106.795  1.00  0.00     0.000 C 
BRANCH   3   4
ATOM      4  C   UNL     1     104.888 105.136 107.081  1.00  0.00    -0.000 C 
BRANCH   4   5
ATOM      5  C   UNL     1     104.711 106.239 108.138  1.00  0.00    -0.000 C 
BRANCH   5   6
ATOM      6  C   UNL     1     104.760 105.654 109.555  1.00  0.00    -0.000 C 
BRANCH   6   7
ATOM      7  C   UNL     1     104.440 106.729 110.605  1.00  0.00    -0.000 C 
BRANCH   7   8
ATOM      8  C   UNL     1     104.496 106.194 112.048  1.00  0.00    -0.000 C 
BRANCH   8   9
ATOM      9  C   UNL     1     104.684 104.671 112.171  1.00  0.00    -0.000 C 
BRANCH   9  10
ATOM     10  C   UNL     1     103.364 103.894 112.055  1.00  0.00    -0.000 C 
BRANCH  10  11
ATOM     11  C   UNL     1     103.558 102.423 112.444  1.00  0.00    -0.003 C 
ATOM     12  C   UNL     1     103.493 101.516 111.219  1.00  0.00     0.004 C 
ENDBRANCH  10  11
ENDBRANCH   9  10
ENDBRANCH   8   9
ENDBRANCH   7   8
ENDBRANCH   6   7
ENDBRANCH   5   6
ENDBRANCH   4   5
ENDBRANCH   3   4
ENDBRANCH   2   3
ENDBRANCH   1   2
BRANCH   1  13
ATOM     13  C   UNL     1     103.216 102.501 104.849  1.00  0.00     0.000 C 
BRANCH  13  14
ATOM     14  C   UNL     1     103.515 101.523 103.701  1.00  0.00     0.000 C 
BRANCH  14  15
ATOM     15  C   UNL     1     103.458 102.200 102.321  1.00  0.00     0.000 C 
BRANCH  15  16
ATOM     16  C   UNL     1     103.230 103.717 102.415  1.00  0.00     0.000 C 
BRANCH  16  17
ATOM     17  C   UNL     1     104.536 104.520 102.326  1.00  0.00     0.000 C 
BRANCH  17  18
ATOM     18  C   UNL     1     104.269 106.028 102.441  1.00  0.00     0.000 C 
BRANCH  18  19
ATOM     19  C   UNL     1     104.553 106.766 101.117  1.00  0.00     0.000 C 
BRANCH  19  20
ATOM     20  C   UNL     1     104.875 105.830  99.936  1.00  0.00     0.006 C 
BRANCH  20  21
ATOM     21  C   UNL     1     104.495 106.400  98.557  1.00  0.00     0.053 C 
BRANCH  21  22
ATOM     22  C   UNL     1     104.371 105.341  97.502  1.00  0.00     0.041 C 
ATOM     23  O   UNL     1     104.061 104.162  97.815  1.00  0.00    -0.550 OA
ATOM     24  O   UNL     1     104.531 105.672  96.161  1.00  0.00    -0.550 OA
ENDBRANCH  21  22
ENDBRANCH  20  21
ENDBRANCH  19  20
ENDBRANCH  18  19
ENDBRANCH  17  18
ENDBRANCH  16  17
ENDBRANCH  15  16
ENDBRANCH  14  15
ENDBRANCH  13  14
ENDBRANCH   1  13
TORSDOF 20
ENDMDL
MODEL 9
REMARK VINA RESULT:     3.332      4.072     10.826
REMARK INTER + INTRA:           5.942
REMARK INTER:                   7.061
REMARK INTRA:                  -1.119
REMARK UNBOUND:                -1.287
REMARK SMILES CCCCCCCCCCCCCCCCCCCCCC(=O)[O-]
REMARK SMILES IDX 12 1 11 2 10 3 9 4 8 5 7 6 6 7 5 8 4 9 3 10 2 11 1 12 13 13
REMARK SMILES IDX 14 14 15 15 16 16 17 17 18 18 19 19 20 20 21 21 22 22 23 23
REMARK SMILES IDX 24 24
REMARK H PARENT
REMARK Flexibility Score: inf
ROOT
ATOM      1  C   UNL     1     104.747 106.143 103.257  1.00  0.00     0.000 C 
ENDROOT
BRANCH   1   2
ATOM      2  C   UNL     1     104.569 105.178 102.072  1.00  0.00     0.000 C 
BRANCH   2   3
ATOM      3  C   UNL     1     103.266 104.364 102.160  1.00  0.00     0.000 C 
BRANCH   3   4
ATOM      4  C   UNL     1     103.497 102.941 102.693  1.00  0.00    -0.000 C 
BRANCH   4   5
ATOM      5  C   UNL     1     103.679 101.908 101.569  1.00  0.00    -0.000 C 
BRANCH   5   6
ATOM      6  C   UNL     1     103.214 102.477 100.222  1.00  0.00    -0.000 C 
BRANCH   6   7
ATOM      7  C   UNL     1     103.317 101.419  99.113  1.00  0.00    -0.000 C 
BRANCH   7   8
ATOM      8  C   UNL     1     103.720 102.014  97.751  1.00  0.00    -0.000 C 
BRANCH   8   9
ATOM      9  C   UNL     1     103.335 103.490  97.545  1.00  0.00    -0.000 C 
BRANCH   9  10
ATOM     10  C   UNL     1     104.540 104.384  97.221  1.00  0.00    -0.000 C 
BRANCH  10  11
ATOM     11  C   UNL     1     104.688 105.503  98.260  1.00  0.00    -0.003 C 
ATOM     12  C   UNL     1     104.235 106.845  97.693  1.00  0.00     0.004 C 
ENDBRANCH  10  11
ENDBRANCH   9  10
ENDBRANCH   8   9
ENDBRANCH   7   8
ENDBRANCH   6   7
ENDBRANCH   5   6
ENDBRANCH   4   5
ENDBRANCH   3   4
ENDBRANCH   2   3
ENDBRANCH   1   2
BRANCH   1  13
ATOM     13  C   UNL     1     104.792 105.414 104.612  1.00  0.00     0.000 C 
BRANCH  13  14
ATOM     14  C   UNL     1     104.454 106.341 105.791  1.00  0.00     0.000 C 
BRANCH  14  15
ATOM     15  C   UNL     1     104.594 105.637 107.152  1.00  0.00     0.000 C 
BRANCH  15  16
ATOM     16  C   UNL     1     104.681 106.628 108.325  1.00  0.00     0.000 C 
BRANCH  16  17
ATOM     17  C   UNL     1     104.729 105.927 109.691  1.00  0.00     0.000 C 
BRANCH  17  18
ATOM     18  C   UNL     1     104.535 106.932 110.837  1.00  0.00     0.000 C 
BRANCH  18  19
ATOM     19  C   UNL     1     104.478 106.235 112.211  1.00  0.00     0.000 C 
BRANCH  19  20
ATOM     20  C   UNL     1     104.695 104.712 112.148  1.00  0.00     0.006 C 
BRANCH  20  21
ATOM     21  C   UNL     1     103.414 103.882 112.351  1.00  0.00     0.053 C 
BRANCH  21  22
ATOM     22  C   UNL     1     103.445 102.571 111.623  1.00  0.00     0.041 C 
ATOM     23  O   UNL     1     103.409 102.540 110.365  1.00  0.00    -0.550 OA
ATOM     24  O   UNL     1     103.582 101.383 112.331  1.00  0.00    -0.550 OA
ENDBRANCH  21  22
ENDBRANCH  20  21
ENDBRANCH  19  20
ENDBRANCH  18  19
ENDBRANCH  17  18
ENDBRANCH  16  17
ENDBRANCH  15  16
ENDBRANCH  14  15
ENDBRANCH  13  14
ENDBRANCH   1  13
TORSDOF 20
ENDMDL
