MODEL 1
REMARK VINA RESULT:    -4.695      0.000      0.000
REMARK INTER + INTRA:          -8.688
REMARK INTER:                  -7.439
REMARK INTRA:                  -1.249
REMARK UNBOUND:                -1.249
REMARK SMILES CCCCCCCCCCCC(=O)[O-]
REMARK SMILES IDX 7 1 8 2 9 3 10 4 11 5 12 6 13 7 14 8 6 9 5 10 4 11 3 12 2 13
REMARK SMILES IDX 1 14
REMARK H PARENT
REMARK Flexibility Score: inf
ROOT
ATOM      1  C   UNL     1     119.653 177.103 125.051  1.00  0.00     0.000 C 
ENDROOT
BRANCH   1   2
ATOM      2  C   UNL     1     118.937 178.355 124.522  1.00  0.00     0.000 C 
BRANCH   2   3
ATOM      3  C   UNL     1     118.711 179.373 125.649  1.00  0.00     0.000 C 
BRANCH   3   4
ATOM      4  C   UNL     1     117.683 178.894 126.691  1.00  0.00     0.006 C 
BRANCH   4   5
ATOM      5  C   UNL     1     116.299 179.550 126.562  1.00  0.00     0.053 C 
BRANCH   5   6
ATOM      6  C   UNL     1     115.269 178.595 126.041  1.00  0.00     0.041 C 
ATOM      7  O   UNL     1     115.085 178.476 124.802  1.00  0.00    -0.550 OA
ATOM      8  O   UNL     1     114.539 177.809 126.924  1.00  0.00    -0.550 OA
ENDBRANCH   5   6
ENDBRANCH   4   5
ENDBRANCH   3   4
ENDBRANCH   2   3
ENDBRANCH   1   2
BRANCH   1   9
ATOM      9  C   UNL     1     121.177 177.161 124.859  1.00  0.00     0.000 C 
BRANCH   9  10
ATOM     10  C   UNL     1     121.943 177.070 126.191  1.00  0.00    -0.000 C 
BRANCH  10  11
ATOM     11  C   UNL     1     122.054 178.430 126.901  1.00  0.00    -0.000 C 
BRANCH  11  12
ATOM     12  C   UNL     1     121.689 178.355 128.391  1.00  0.00    -0.000 C 
BRANCH  12  13
ATOM     13  C   UNL     1     120.539 177.369 128.625  1.00  0.00    -0.003 C 
ATOM     14  C   UNL     1     119.594 177.870 129.712  1.00  0.00     0.004 C 
ENDBRANCH  12  13
ENDBRANCH  11  12
ENDBRANCH  10  11
ENDBRANCH   9  10
ENDBRANCH   1   9
TORSDOF 10
ENDMDL
MODEL 2
REMARK VINA RESULT:    -4.600      1.069      2.031
REMARK INTER + INTRA:          -8.537
REMARK INTER:                  -7.236
REMARK INTRA:                  -1.302
REMARK UNBOUND:                -1.249
REMARK SMILES CCCCCCCCCCCC(=O)[O-]
REMARK SMILES IDX 7 1 8 2 9 3 10 4 11 5 12 6 13 7 14 8 6 9 5 10 4 11 3 12 2 13
REMARK SMILES IDX 1 14
REMARK H PARENT
REMARK Flexibility Score: inf
ROOT
ATOM      1  C   UNL     1     118.789 178.329 124.330  1.00  0.00     0.000 C 
ENDROOT
BRANCH   1   2
ATOM      2  C   UNL     1     118.734 179.293 125.524  1.00  0.00     0.000 C 
BRANCH   2   3
ATOM      3  C   UNL     1     117.716 178.815 126.568  1.00  0.00     0.000 C 
BRANCH   3   4
ATOM      4  C   UNL     1     116.343 179.499 126.423  1.00  0.00     0.006 C 
BRANCH   4   5
ATOM      5  C   UNL     1     115.153 178.526 126.382  1.00  0.00     0.053 C 
BRANCH   5   6
ATOM      6  C   UNL     1     115.336 177.459 125.347  1.00  0.00     0.041 C 
ATOM      7  O   UNL     1     115.528 176.264 125.697  1.00  0.00    -0.550 OA
ATOM      8  O   UNL     1     115.258 177.777 123.997  1.00  0.00    -0.550 OA
ENDBRANCH   5   6
ENDBRANCH   4   5
ENDBRANCH   3   4
ENDBRANCH   2   3
ENDBRANCH   1   2
BRANCH   1   9
ATOM      9  C   UNL     1     120.132 177.590 124.220  1.00  0.00     0.000 C 
BRANCH   9  10
ATOM     10  C   UNL     1     120.197 176.348 125.128  1.00  0.00    -0.000 C 
BRANCH  10  11
ATOM     11  C   UNL     1     121.253 176.484 126.237  1.00  0.00    -0.000 C 
BRANCH  11  12
ATOM     12  C   UNL     1     120.634 176.730 127.621  1.00  0.00    -0.000 C 
BRANCH  12  13
ATOM     13  C   UNL     1     121.047 178.100 128.170  1.00  0.00    -0.003 C 
ATOM     14  C   UNL     1     122.044 178.789 127.243  1.00  0.00     0.004 C 
ENDBRANCH  12  13
ENDBRANCH  11  12
ENDBRANCH  10  11
ENDBRANCH   9  10
ENDBRANCH   1   9
TORSDOF 10
ENDMDL
MODEL 3
REMARK VINA RESULT:    -4.579      1.494      2.867
REMARK INTER + INTRA:          -8.504
REMARK INTER:                  -6.847
REMARK INTRA:                  -1.657
REMARK UNBOUND:                -1.249
REMARK SMILES CCCCCCCCCCCC(=O)[O-]
REMARK SMILES IDX 7 1 8 2 9 3 10 4 11 5 12 6 13 7 14 8 6 9 5 10 4 11 3 12 2 13
REMARK SMILES IDX 1 14
REMARK H PARENT
REMARK Flexibility Score: inf
ROOT
ATOM      1  C   UNL     1     119.912 178.064 127.866  1.00  0.00     0.000 C 
ENDROOT
BRANCH   1   2
ATOM      2  C   UNL     1     118.534 178.331 127.241  1.00  0.00     0.000 C 
BRANCH   2   3
ATOM      3  C   UNL     1     118.675 179.062 125.898  1.00  0.00     0.000 C 
BRANCH   3   4
ATOM      4  C   UNL     1     118.140 178.239 124.711  1.00  0.00     0.006 C 
BRANCH   4   5
ATOM      5  C   UNL     1     116.954 177.324 125.058  1.00  0.00     0.053 C 
BRANCH   5   6
ATOM      6  C   UNL     1     115.645 177.913 124.631  1.00  0.00     0.041 C 
ATOM      7  O   UNL     1     114.895 178.471 125.475  1.00  0.00    -0.550 OA
ATOM      8  O   UNL     1     115.269 177.876 123.294  1.00  0.00    -0.550 OA
ENDBRANCH   5   6
ENDBRANCH   4   5
ENDBRANCH   3   4
ENDBRANCH   2   3
ENDBRANCH   1   2
BRANCH   1   9
ATOM      9  C   UNL     1     121.073 178.513 126.964  1.00  0.00     0.000 C 
BRANCH   9  10
ATOM     10  C   UNL     1     121.911 177.329 126.448  1.00  0.00    -0.000 C 
BRANCH  10  11
ATOM     11  C   UNL     1     121.736 177.099 124.938  1.00  0.00    -0.000 C 
BRANCH  11  12
ATOM     12  C   UNL     1     120.930 175.830 124.619  1.00  0.00    -0.000 C 
BRANCH  12  13
ATOM     13  C   UNL     1     120.799 174.939 125.859  1.00  0.00    -0.003 C 
ATOM     14  C   UNL     1     119.335 174.687 126.207  1.00  0.00     0.004 C 
ENDBRANCH  12  13
ENDBRANCH  11  12
ENDBRANCH  10  11
ENDBRANCH   9  10
ENDBRANCH   1   9
TORSDOF 10
ENDMDL
MODEL 4
REMARK VINA RESULT:    -4.570      3.150      5.426
REMARK INTER + INTRA:          -8.490
REMARK INTER:                  -7.212
REMARK INTRA:                  -1.279
REMARK UNBOUND:                -1.249
REMARK SMILES CCCCCCCCCCCC(=O)[O-]
REMARK SMILES IDX 7 1 8 2 9 3 10 4 11 5 12 6 13 7 14 8 6 9 5 10 4 11 3 12 2 13
REMARK SMILES IDX 1 14
REMARK H PARENT
REMARK Flexibility Score: inf
ROOT
ATOM      1  C   UNL     1     118.113 179.329 125.753  1.00  0.00     0.000 C 
ENDROOT
BRANCH   1   2
ATOM      2  C   UNL     1     119.265 178.638 126.499  1.00  0.00     0.000 C 
BRANCH   2   3
ATOM      3  C   UNL     1     118.845 178.263 127.927  1.00  0.00     0.000 C 
BRANCH   3   4
ATOM      4  C   UNL     1     119.974 177.581 128.723  1.00  0.00     0.006 C 
BRANCH   4   5
ATOM      5  C   UNL     1     119.606 177.240 130.176  1.00  0.00     0.053 C 
BRANCH   5   6
ATOM      6  C   UNL     1     119.300 175.785 130.352  1.00  0.00     0.041 C 
ATOM      7  O   UNL     1     118.375 175.421 131.125  1.00  0.00    -0.550 OA
ATOM      8  O   UNL     1     120.013 174.832 129.636  1.00  0.00    -0.550 OA
ENDBRANCH   5   6
ENDBRANCH   4   5
ENDBRANCH   3   4
ENDBRANCH   2   3
ENDBRANCH   1   2
BRANCH   1   9
ATOM      9  C   UNL     1     116.873 179.540 126.636  1.00  0.00     0.000 C 
BRANCH   9  10
ATOM     10  C   UNL     1     115.587 178.996 125.987  1.00  0.00    -0.000 C 
BRANCH  10  11
ATOM     11  C   UNL     1     115.073 177.722 126.678  1.00  0.00    -0.000 C 
BRANCH  11  12
ATOM     12  C   UNL     1     115.674 176.439 126.084  1.00  0.00    -0.000 C 
BRANCH  12  13
ATOM     13  C   UNL     1     116.480 175.673 127.139  1.00  0.00    -0.003 C 
ATOM     14  C   UNL     1     116.082 176.092 128.551  1.00  0.00     0.004 C 
ENDBRANCH  12  13
ENDBRANCH  11  12
ENDBRANCH  10  11
ENDBRANCH   9  10
ENDBRANCH   1   9
TORSDOF 10
ENDMDL
MODEL 5
REMARK VINA RESULT:    -4.545      3.076      5.037
REMARK INTER + INTRA:          -8.451
REMARK INTER:                  -6.816
REMARK INTRA:                  -1.635
REMARK UNBOUND:                -1.249
REMARK SMILES CCCCCCCCCCCC(=O)[O-]
REMARK SMILES IDX 7 1 8 2 9 3 10 4 11 5 12 6 13 7 14 8 6 9 5 10 4 11 3 12 2 13
REMARK SMILES IDX 1 14
REMARK H PARENT
REMARK Flexibility Score: inf
ROOT
ATOM      1  C   UNL     1     115.104 177.733 126.618  1.00  0.00     0.000 C 
ENDROOT
BRANCH   1   2
ATOM      2  C   UNL     1     115.625 176.494 125.875  1.00  0.00     0.000 C 
BRANCH   2   3
ATOM      3  C   UNL     1     116.497 175.629 126.797  1.00  0.00     0.000 C 
BRANCH   3   4
ATOM      4  C   UNL     1     116.377 176.026 128.281  1.00  0.00     0.006 C 
BRANCH   4   5
ATOM      5  C   UNL     1     117.717 176.358 128.957  1.00  0.00     0.053 C 
BRANCH   5   6
ATOM      6  C   UNL     1     118.116 175.316 129.956  1.00  0.00     0.041 C 
ATOM      7  O   UNL     1     118.442 175.651 131.125  1.00  0.00    -0.550 OA
ATOM      8  O   UNL     1     118.094 173.972 129.606  1.00  0.00    -0.550 OA
ENDBRANCH   5   6
ENDBRANCH   4   5
ENDBRANCH   3   4
ENDBRANCH   2   3
ENDBRANCH   1   2
BRANCH   1   9
ATOM      9  C   UNL     1     115.727 179.041 126.106  1.00  0.00     0.000 C 
BRANCH   9  10
ATOM     10  C   UNL     1     117.049 179.383 126.818  1.00  0.00    -0.000 C 
BRANCH  10  11
ATOM     11  C   UNL     1     118.250 179.387 125.858  1.00  0.00    -0.000 C 
BRANCH  11  12
ATOM     12  C   UNL     1     119.351 178.401 126.279  1.00  0.00    -0.000 C 
BRANCH  12  13
ATOM     13  C   UNL     1     119.430 177.221 125.305  1.00  0.00    -0.003 C 
ATOM     14  C   UNL     1     118.729 177.543 123.989  1.00  0.00     0.004 C 
ENDBRANCH  12  13
ENDBRANCH  11  12
ENDBRANCH  10  11
ENDBRANCH   9  10
ENDBRANCH   1   9
TORSDOF 10
ENDMDL
MODEL 6
REMARK VINA RESULT:    -4.528      1.010      3.035
REMARK INTER + INTRA:          -8.423
REMARK INTER:                  -7.169
REMARK INTRA:                  -1.255
REMARK UNBOUND:                -1.249
REMARK SMILES CCCCCCCCCCCC(=O)[O-]
REMARK SMILES IDX 7 1 8 2 9 3 10 4 11 5 12 6 13 7 14 8 6 9 5 10 4 11 3 12 2 13
REMARK SMILES IDX 1 14
REMARK H PARENT
REMARK Flexibility Score: inf
ROOT
ATOM      1  C   UNL     1     120.532 177.222 128.741  1.00  0.00     0.000 C 
ENDROOT
BRANCH   1   2
ATOM      2  C   UNL     1     119.172 177.864 129.050  1.00  0.00     0.000 C 
BRANCH   2   3
ATOM      3  C   UNL     1     118.157 177.561 127.938  1.00  0.00     0.000 C 
BRANCH   3   4
ATOM      4  C   UNL     1     118.118 178.650 126.850  1.00  0.00     0.006 C 
BRANCH   4   5
ATOM      5  C   UNL     1     116.742 179.311 126.666  1.00  0.00     0.053 C 
BRANCH   5   6
ATOM      6  C   UNL     1     115.751 178.380 126.039  1.00  0.00     0.041 C 
ATOM      7  O   UNL     1     114.620 178.209 126.566  1.00  0.00    -0.550 OA
ATOM      8  O   UNL     1     116.062 177.728 124.852  1.00  0.00    -0.550 OA
ENDBRANCH   5   6
ENDBRANCH   4   5
ENDBRANCH   3   4
ENDBRANCH   2   3
ENDBRANCH   1   2
BRANCH   1   9
ATOM      9  C   UNL     1     121.657 178.257 128.579  1.00  0.00     0.000 C 
BRANCH   9  10
ATOM     10  C   UNL     1     121.904 178.635 127.108  1.00  0.00    -0.000 C 
BRANCH  10  11
ATOM     11  C   UNL     1     122.149 177.406 126.217  1.00  0.00    -0.000 C 
BRANCH  11  12
ATOM     12  C   UNL     1     121.102 177.261 125.102  1.00  0.00    -0.000 C 
BRANCH  12  13
ATOM     13  C   UNL     1     120.913 175.790 124.717  1.00  0.00    -0.003 C 
ATOM     14  C   UNL     1     120.133 175.034 125.789  1.00  0.00     0.004 C 
ENDBRANCH  12  13
ENDBRANCH  11  12
ENDBRANCH  10  11
ENDBRANCH   9  10
ENDBRANCH   1   9
TORSDOF 10
ENDMDL
MODEL 7
REMARK VINA RESULT:    -4.523      3.028      5.216
REMARK INTER + INTRA:          -8.415
REMARK INTER:                  -6.854
REMARK INTRA:                  -1.561
REMARK UNBOUND:                -1.249
REMARK SMILES CCCCCCCCCCCC(=O)[O-]
REMARK SMILES IDX 7 1 8 2 9 3 10 4 11 5 12 6 13 7 14 8 6 9 5 10 4 11 3 12 2 13
REMARK SMILES IDX 1 14
REMARK H PARENT
REMARK Flexibility Score: inf
ROOT
ATOM      1  C   UNL     1     122.074 177.776 127.081  1.00  0.00     0.000 C 
ENDROOT
BRANCH   1   2
ATOM      2  C   UNL     1     122.833 177.585 125.759  1.00  0.00     0.000 C 
BRANCH   2   3
ATOM      3  C   UNL     1     121.997 176.773 124.760  1.00  0.00     0.000 C 
BRANCH   3   4
ATOM      4  C   UNL     1     121.729 175.333 125.235  1.00  0.00     0.006 C 
BRANCH   4   5
ATOM      5  C   UNL     1     120.241 174.947 125.277  1.00  0.00     0.053 C 
BRANCH   5   6
ATOM      6  C   UNL     1     119.931 174.024 126.415  1.00  0.00     0.041 C 
ATOM      7  O   UNL     1     120.162 174.380 127.600  1.00  0.00    -0.550 OA
ATOM      8  O   UNL     1     119.354 172.784 126.168  1.00  0.00    -0.550 OA
ENDBRANCH   5   6
ENDBRANCH   4   5
ENDBRANCH   3   4
ENDBRANCH   2   3
ENDBRANCH   1   2
BRANCH   1   9
ATOM      9  C   UNL     1     120.830 178.667 126.932  1.00  0.00     0.000 C 
BRANCH   9  10
ATOM     10  C   UNL     1     119.542 177.965 127.398  1.00  0.00    -0.000 C 
BRANCH  10  11
ATOM     11  C   UNL     1     118.355 178.230 126.458  1.00  0.00    -0.000 C 
BRANCH  11  12
ATOM     12  C   UNL     1     118.764 178.971 125.176  1.00  0.00    -0.000 C 
BRANCH  12  13
ATOM     13  C   UNL     1     118.533 178.096 123.940  1.00  0.00    -0.003 C 
ATOM     14  C   UNL     1     119.409 178.545 122.774  1.00  0.00     0.004 C 
ENDBRANCH  12  13
ENDBRANCH  11  12
ENDBRANCH  10  11
ENDBRANCH   9  10
ENDBRANCH   1   9
TORSDOF 10
ENDMDL
MODEL 8
REMARK VINA RESULT:    -4.503      1.328      2.964
REMARK INTER + INTRA:          -8.384
REMARK INTER:                  -6.984
REMARK INTRA:                  -1.400
REMARK UNBOUND:                -1.249
REMARK SMILES CCCCCCCCCCCC(=O)[O-]
REMARK SMILES IDX 7 1 8 2 9 3 10 4 11 5 12 6 13 7 14 8 6 9 5 10 4 11 3 12 2 13
REMARK SMILES IDX 1 14
REMARK H PARENT
REMARK Flexibility Score: inf
ROOT
ATOM      1  C   UNL     1     119.140 176.680 128.799  1.00  0.00     0.000 C 
ENDROOT
BRANCH   1   2
ATOM      2  C   UNL     1     117.966 177.122 127.913  1.00  0.00     0.000 C 
BRANCH   2   3
ATOM      3  C   UNL     1     118.107 178.598 127.513  1.00  0.00     0.000 C 
BRANCH   3   4
ATOM      4  C   UNL     1     117.150 179.004 126.375  1.00  0.00     0.006 C 
BRANCH   4   5
ATOM      5  C   UNL     1     117.213 178.089 125.141  1.00  0.00     0.053 C 
BRANCH   5   6
ATOM      6  C   UNL     1     115.873 177.513 124.799  1.00  0.00     0.041 C 
ATOM      7  O   UNL     1     115.278 176.766 125.618  1.00  0.00    -0.550 OA
ATOM      8  O   UNL     1     115.267 177.831 123.590  1.00  0.00    -0.550 OA
ENDBRANCH   5   6
ENDBRANCH   4   5
ENDBRANCH   3   4
ENDBRANCH   2   3
ENDBRANCH   1   2
BRANCH   1   9
ATOM      9  C   UNL     1     119.949 177.864 129.352  1.00  0.00     0.000 C 
BRANCH   9  10
ATOM     10  C   UNL     1     121.451 177.750 129.037  1.00  0.00    -0.000 C 
BRANCH  10  11
ATOM     11  C   UNL     1     121.894 178.711 127.922  1.00  0.00    -0.000 C 
BRANCH  11  12
ATOM     12  C   UNL     1     122.345 177.978 126.649  1.00  0.00    -0.000 C 
BRANCH  12  13
ATOM     13  C   UNL     1     121.142 177.617 125.770  1.00  0.00    -0.003 C 
ATOM     14  C   UNL     1     121.014 176.106 125.602  1.00  0.00     0.004 C 
ENDBRANCH  12  13
ENDBRANCH  11  12
ENDBRANCH  10  11
ENDBRANCH   9  10
ENDBRANCH   1   9
TORSDOF 10
ENDMDL
MODEL 9
REMARK VINA RESULT:    -4.462      2.235      3.627
REMARK INTER + INTRA:          -8.319
REMARK INTER:                  -6.979
REMARK INTRA:                  -1.341
REMARK UNBOUND:                -1.249
REMARK SMILES CCCCCCCCCCCC(=O)[O-]
REMARK SMILES IDX 7 1 8 2 9 3 10 4 11 5 12 6 13 7 14 8 6 9 5 10 4 11 3 12 2 13
REMARK SMILES IDX 1 14
REMARK H PARENT
REMARK Flexibility Score: inf
ROOT
ATOM      1  C   UNL     1     117.027 179.154 126.021  1.00  0.00     0.000 C 
ENDROOT
BRANCH   1   2
ATOM      2  C   UNL     1     116.378 178.009 125.229  1.00  0.00     0.000 C 
BRANCH   2   3
ATOM      3  C   UNL     1     115.575 177.087 126.158  1.00  0.00     0.000 C 
BRANCH   3   4
ATOM      4  C   UNL     1     116.127 175.650 126.198  1.00  0.00     0.006 C 
BRANCH   4   5
ATOM      5  C   UNL     1     117.418 175.491 127.017  1.00  0.00     0.053 C 
BRANCH   5   6
ATOM      6  C   UNL     1     117.295 176.091 128.384  1.00  0.00     0.041 C 
ATOM      7  O   UNL     1     118.045 177.043 128.727  1.00  0.00    -0.550 OA
ATOM      8  O   UNL     1     116.330 175.622 129.265  1.00  0.00    -0.550 OA
ENDBRANCH   5   6
ENDBRANCH   4   5
ENDBRANCH   3   4
ENDBRANCH   2   3
ENDBRANCH   1   2
BRANCH   1   9
ATOM      9  C   UNL     1     118.560 179.168 125.901  1.00  0.00     0.000 C 
BRANCH   9  10
ATOM     10  C   UNL     1     119.051 178.608 124.554  1.00  0.00    -0.000 C 
BRANCH  10  11
ATOM     11  C   UNL     1     120.045 177.448 124.727  1.00  0.00    -0.000 C 
BRANCH  11  12
ATOM     12  C   UNL     1     120.561 177.315 126.168  1.00  0.00    -0.000 C 
BRANCH  12  13
ATOM     13  C   UNL     1     121.988 177.861 126.290  1.00  0.00    -0.003 C 
ATOM     14  C   UNL     1     122.077 178.937 127.369  1.00  0.00     0.004 C 
ENDBRANCH  12  13
ENDBRANCH  11  12
ENDBRANCH  10  11
ENDBRANCH   9  10
ENDBRANCH   1   9
TORSDOF 10
ENDMDL
