MODEL 1
REMARK VINA RESULT:     6.868      0.000      0.000
REMARK INTER + INTRA:          10.371
REMARK INTER:                   7.471
REMARK INTRA:                   2.901
REMARK UNBOUND:                 2.901
REMARK SMILES C[C@@H]1[C@H]2C3=CC[C@@H]4[C@@]5(C)CC[C@@H](O)C(C)(C)[C@H]5CC[C@]4(C)[C@]3(C)CC[C@]2(C(=O)[O-])CC[C@@H]1C
REMARK SMILES IDX 26 1 30 2 25 3 3 4 31 5 24 6 4 7 2 8 32 9 22 10 5 11 1 12
REMARK SMILES IDX 33 13 23 14 20 15 6 16 7 17 19 18 21 19 8 20 18 21 17 22
REMARK SMILES IDX 10 23 9 24 14 25 11 26 12 27 15 28 16 29 27 30 28 31 29 32
REMARK SMILES IDX 13 33
REMARK H PARENT 13 34
REMARK Flexibility Score: inf
ROOT
ATOM      1  C   UNL     1      21.550  42.818   4.459  1.00  0.00     0.017 C 
ATOM      2  C   UNL     1      22.084  42.912   3.006  1.00  0.00     0.014 C 
ATOM      3  C   UNL     1      20.134  43.456   4.593  1.00  0.00     0.014 C 
ATOM      4  C   UNL     1      21.366  41.288   4.764  1.00  0.00     0.030 C 
ATOM      5  C   UNL     1      23.432  42.161   2.861  1.00  0.00     0.004 C 
ATOM      6  C   UNL     1      19.539  43.357   6.038  1.00  0.00     0.013 C 
ATOM      7  C   UNL     1      20.352  40.988   5.889  1.00  0.00    -0.063 C 
ATOM      8  C   UNL     1      22.687  40.472   4.702  1.00  0.00    -0.003 C 
ATOM      9  C   UNL     1      23.380  40.669   3.302  1.00  0.00    -0.011 C 
ATOM     10  C   UNL     1      19.967  42.095   6.890  1.00  0.00    -0.006 C 
ATOM     11  C   UNL     1      19.415  40.058   5.588  1.00  0.00    -0.027 C 
ATOM     12  C   UNL     1      22.491  38.986   5.048  1.00  0.00     0.008 C 
ATOM     13  C   UNL     1      22.776  39.808   2.170  1.00  0.00     0.008 C 
ATOM     14  C   UNL     1      21.221  42.462   7.762  1.00  0.00     0.017 C 
ATOM     15  C   UNL     1      18.783  41.574   7.871  1.00  0.00    -0.020 C 
ATOM     16  C   UNL     1      17.972  40.449   5.658  1.00  0.00     0.032 C 
ATOM     17  C   UNL     1      17.544  40.950   7.060  1.00  0.00     0.006 C 
ATOM     18  C   UNL     1      18.350  42.707   8.844  1.00  0.00     0.008 C 
ATOM     19  C   UNL     1      19.343  40.413   8.785  1.00  0.00     0.012 C 
ATOM     20  C   UNL     1      16.063  41.632   7.118  1.00  0.00    -0.025 C 
ATOM     21  C   UNL     1      16.918  42.574   9.331  1.00  0.00     0.005 C 
ATOM     22  C   UNL     1      15.946  42.831   8.159  1.00  0.00     0.003 C 
ATOM     23  C   UNL     1      15.058  40.497   7.515  1.00  0.00     0.010 C 
ATOM     24  C   UNL     1      15.653  42.152   5.706  1.00  0.00     0.012 C 
ATOM     25  C   UNL     1      14.462  43.234   8.634  1.00  0.00    -0.006 C 
ATOM     26  C   UNL     1      13.630  40.958   7.791  1.00  0.00     0.033 C 
ATOM     27  C   UNL     1      13.593  41.977   8.939  1.00  0.00     0.120 C 
ATOM     28  C   UNL     1      14.480  44.124   9.916  1.00  0.00     0.014 C 
ATOM     29  C   UNL     1      13.742  44.118   7.563  1.00  0.00     0.014 C 
ENDROOT
BRANCH   1  30
ATOM     30  C   UNL     1      22.533  43.627   5.310  1.00  0.00     0.048 C 
ATOM     31  O   UNL     1      22.218  43.947   6.488  1.00  0.00    -0.550 OA
ATOM     32  O   UNL     1      23.727  44.124   4.802  1.00  0.00    -0.550 OA
ENDBRANCH   1  30
BRANCH  27  33
ATOM     33  O   UNL     1      14.025  41.354  10.125  1.00  0.00    -0.393 OA
ATOM     34  H   UNL     1      13.492  41.742  10.867  1.00  0.00     0.210 HD
ENDBRANCH  27  33
TORSDOF 2
ENDMDL
MODEL 2
REMARK VINA RESULT:     7.115      1.794      7.764
REMARK INTER + INTRA:          10.640
REMARK INTER:                   9.804
REMARK INTRA:                   0.835
REMARK UNBOUND:                 2.901
REMARK SMILES C[C@@H]1[C@H]2C3=CC[C@@H]4[C@@]5(C)CC[C@@H](O)C(C)(C)[C@H]5CC[C@]4(C)[C@]3(C)CC[C@]2(C(=O)[O-])CC[C@@H]1C
REMARK SMILES IDX 26 1 30 2 25 3 3 4 31 5 24 6 4 7 2 8 32 9 22 10 5 11 1 12
REMARK SMILES IDX 33 13 23 14 20 15 6 16 7 17 19 18 21 19 8 20 18 21 17 22
REMARK SMILES IDX 10 23 9 24 14 25 11 26 12 27 15 28 16 29 27 30 28 31 29 32
REMARK SMILES IDX 13 33
REMARK H PARENT 13 34
REMARK Flexibility Score: inf
ROOT
ATOM      1  C   UNL     1      16.444  41.417   8.982  1.00  0.00     0.017 C 
ATOM      2  C   UNL     1      15.903  40.362   9.982  1.00  0.00     0.014 C 
ATOM      3  C   UNL     1      17.971  41.239   8.728  1.00  0.00     0.014 C 
ATOM      4  C   UNL     1      15.739  41.126   7.608  1.00  0.00     0.030 C 
ATOM      5  C   UNL     1      14.364  40.470  10.125  1.00  0.00     0.004 C 
ATOM      6  C   UNL     1      18.557  42.264   7.699  1.00  0.00     0.013 C 
ATOM      7  C   UNL     1      16.511  41.656   6.380  1.00  0.00    -0.063 C 
ATOM      8  C   UNL     1      14.193  41.276   7.651  1.00  0.00    -0.003 C 
ATOM      9  C   UNL     1      13.591  40.358   8.778  1.00  0.00    -0.011 C 
ATOM     10  C   UNL     1      17.576  42.756   6.560  1.00  0.00    -0.006 C 
ATOM     11  C   UNL     1      16.693  40.760   5.382  1.00  0.00    -0.027 C 
ATOM     12  C   UNL     1      13.529  41.030   6.286  1.00  0.00     0.008 C 
ATOM     13  C   UNL     1      13.451  38.872   8.377  1.00  0.00     0.008 C 
ATOM     14  C   UNL     1      16.875  44.084   7.020  1.00  0.00     0.017 C 
ATOM     15  C   UNL     1      18.339  43.029   5.153  1.00  0.00    -0.020 C 
ATOM     16  C   UNL     1      18.092  40.436   4.960  1.00  0.00     0.032 C 
ATOM     17  C   UNL     1      18.886  41.676   4.479  1.00  0.00     0.006 C 
ATOM     18  C   UNL     1      19.456  44.094   5.343  1.00  0.00     0.008 C 
ATOM     19  C   UNL     1      17.317  43.654   4.124  1.00  0.00     0.012 C 
ATOM     20  C   UNL     1      20.483  41.422   4.263  1.00  0.00    -0.025 C 
ATOM     21  C   UNL     1      20.589  43.971   4.340  1.00  0.00     0.005 C 
ATOM     22  C   UNL     1      21.390  42.681   4.619  1.00  0.00     0.003 C 
ATOM     23  C   UNL     1      20.680  41.048   2.754  1.00  0.00     0.010 C 
ATOM     24  C   UNL     1      20.956  40.205   5.117  1.00  0.00     0.012 C 
ATOM     25  C   UNL     1      22.875  42.702   3.997  1.00  0.00    -0.006 C 
ATOM     26  C   UNL     1      22.131  40.932   2.295  1.00  0.00     0.033 C 
ATOM     27  C   UNL     1      22.881  42.254   2.505  1.00  0.00     0.120 C 
ATOM     28  C   UNL     1      23.520  44.120   4.075  1.00  0.00     0.014 C 
ATOM     29  C   UNL     1      23.848  41.792   4.818  1.00  0.00     0.014 C 
ENDROOT
BRANCH   1  30
ATOM     30  C   UNL     1      16.215  42.774   9.655  1.00  0.00     0.048 C 
ATOM     31  O   UNL     1      17.202  43.418  10.105  1.00  0.00    -0.550 OA
ATOM     32  O   UNL     1      14.946  43.285   9.893  1.00  0.00    -0.550 OA
ENDBRANCH   1  30
BRANCH  27  33
ATOM     33  O   UNL     1      22.305  43.248   1.690  1.00  0.00    -0.393 OA
ATOM     34  H   UNL     1      21.866  43.901   2.295  1.00  0.00     0.210 HD
ENDBRANCH  27  33
TORSDOF 2
ENDMDL
MODEL 3
REMARK VINA RESULT:     8.562      1.907      2.938
REMARK INTER + INTRA:          12.214
REMARK INTER:                  11.716
REMARK INTRA:                   0.497
REMARK UNBOUND:                 2.901
REMARK SMILES C[C@@H]1[C@H]2C3=CC[C@@H]4[C@@]5(C)CC[C@@H](O)C(C)(C)[C@H]5CC[C@]4(C)[C@]3(C)CC[C@]2(C(=O)[O-])CC[C@@H]1C
REMARK SMILES IDX 26 1 30 2 25 3 3 4 31 5 24 6 4 7 2 8 32 9 22 10 5 11 1 12
REMARK SMILES IDX 33 13 23 14 20 15 6 16 7 17 19 18 21 19 8 20 18 21 17 22
REMARK SMILES IDX 10 23 9 24 14 25 11 26 12 27 15 28 16 29 27 30 28 31 29 32
REMARK SMILES IDX 13 33
REMARK H PARENT 13 34
REMARK Flexibility Score: inf
ROOT
ATOM      1  C   UNL     1      20.734  40.725   2.647  1.00  0.00     0.017 C 
ATOM      2  C   UNL     1      21.248  39.484   1.872  1.00  0.00     0.014 C 
ATOM      3  C   UNL     1      19.293  40.502   3.198  1.00  0.00     0.014 C 
ATOM      4  C   UNL     1      21.661  40.876   3.906  1.00  0.00     0.030 C 
ATOM      5  C   UNL     1      22.725  39.670   1.443  1.00  0.00     0.004 C 
ATOM      6  C   UNL     1      18.742  41.719   4.015  1.00  0.00     0.013 C 
ATOM      7  C   UNL     1      21.017  41.659   5.071  1.00  0.00    -0.063 C 
ATOM      8  C   UNL     1      23.154  41.131   3.560  1.00  0.00    -0.003 C 
ATOM      9  C   UNL     1      23.694  39.990   2.619  1.00  0.00    -0.011 C 
ATOM     10  C   UNL     1      19.810  42.580   4.803  1.00  0.00    -0.006 C 
ATOM     11  C   UNL     1      21.093  41.057   6.281  1.00  0.00    -0.027 C 
ATOM     12  C   UNL     1      24.035  41.320   4.807  1.00  0.00     0.008 C 
ATOM     13  C   UNL     1      24.072  38.686   3.357  1.00  0.00     0.008 C 
ATOM     14  C   UNL     1      20.269  43.783   3.904  1.00  0.00     0.017 C 
ATOM     15  C   UNL     1      19.232  43.164   6.203  1.00  0.00    -0.020 C 
ATOM     16  C   UNL     1      19.820  40.750   7.008  1.00  0.00     0.032 C 
ATOM     17  C   UNL     1      18.959  42.008   7.285  1.00  0.00     0.006 C 
ATOM     18  C   UNL     1      17.978  44.046   5.942  1.00  0.00     0.008 C 
ATOM     19  C   UNL     1      20.308  44.125   6.845  1.00  0.00     0.012 C 
ATOM     20  C   UNL     1      17.453  41.697   7.831  1.00  0.00    -0.025 C 
ATOM     21  C   UNL     1      17.026  44.112   7.123  1.00  0.00     0.005 C 
ATOM     22  C   UNL     1      16.357  42.735   7.327  1.00  0.00     0.003 C 
ATOM     23  C   UNL     1      17.525  41.734   9.396  1.00  0.00     0.010 C 
ATOM     24  C   UNL     1      17.013  40.260   7.412  1.00  0.00     0.012 C 
ATOM     25  C   UNL     1      14.987  42.807   8.169  1.00  0.00    -0.006 C 
ATOM     26  C   UNL     1      16.181  41.633  10.113  1.00  0.00     0.033 C 
ATOM     27  C   UNL     1      15.253  42.785   9.704  1.00  0.00     0.120 C 
ATOM     28  C   UNL     1      14.168  44.095   7.843  1.00  0.00     0.014 C 
ATOM     29  C   UNL     1      14.024  41.634   7.789  1.00  0.00     0.014 C 
ENDROOT
BRANCH   1  30
ATOM     30  C   UNL     1      20.694  41.861   1.619  1.00  0.00     0.048 C 
ATOM     31  O   UNL     1      19.906  41.784   0.638  1.00  0.00    -0.550 OA
ATOM     32  O   UNL     1      21.574  42.935   1.659  1.00  0.00    -0.550 OA
ENDBRANCH   1  30
BRANCH  27  33
ATOM     33  O   UNL     1      15.815  44.005  10.125  1.00  0.00    -0.393 OA
ATOM     34  H   UNL     1      15.066  44.647  10.234  1.00  0.00     0.210 HD
ENDBRANCH  27  33
TORSDOF 2
ENDMDL
MODEL 4
REMARK VINA RESULT:     9.168      2.078      3.718
REMARK INTER + INTRA:          12.873
REMARK INTER:                  12.515
REMARK INTRA:                   0.357
REMARK UNBOUND:                 2.901
REMARK SMILES C[C@@H]1[C@H]2C3=CC[C@@H]4[C@@]5(C)CC[C@@H](O)C(C)(C)[C@H]5CC[C@]4(C)[C@]3(C)CC[C@]2(C(=O)[O-])CC[C@@H]1C
REMARK SMILES IDX 26 1 30 2 25 3 3 4 31 5 24 6 4 7 2 8 32 9 22 10 5 11 1 12
REMARK SMILES IDX 33 13 23 14 20 15 6 16 7 17 19 18 21 19 8 20 18 21 17 22
REMARK SMILES IDX 10 23 9 24 14 25 11 26 12 27 15 28 16 29 27 30 28 31 29 32
REMARK SMILES IDX 13 33
REMARK H PARENT 13 34
REMARK Flexibility Score: inf
ROOT
ATOM      1  C   UNL     1      21.040  40.300   4.250  1.00  0.00     0.017 C 
ATOM      2  C   UNL     1      22.543  39.933   4.353  1.00  0.00     0.014 C 
ATOM      3  C   UNL     1      20.239  39.798   5.489  1.00  0.00     0.014 C 
ATOM      4  C   UNL     1      20.964  41.869   4.291  1.00  0.00     0.030 C 
ATOM      5  C   UNL     1      23.347  40.550   3.180  1.00  0.00     0.004 C 
ATOM      6  C   UNL     1      18.719  40.172   5.444  1.00  0.00     0.013 C 
ATOM      7  C   UNL     1      19.599  42.420   4.759  1.00  0.00    -0.063 C 
ATOM      8  C   UNL     1      21.693  42.564   3.109  1.00  0.00    -0.003 C 
ATOM      9  C   UNL     1      23.194  42.093   3.046  1.00  0.00    -0.011 C 
ATOM     10  C   UNL     1      18.348  41.520   4.705  1.00  0.00    -0.006 C 
ATOM     11  C   UNL     1      19.660  43.356   5.736  1.00  0.00    -0.027 C 
ATOM     12  C   UNL     1      21.568  44.097   3.145  1.00  0.00     0.008 C 
ATOM     13  C   UNL     1      24.123  42.802   4.057  1.00  0.00     0.008 C 
ATOM     14  C   UNL     1      18.002  41.209   3.205  1.00  0.00     0.017 C 
ATOM     15  C   UNL     1      17.085  42.280   5.386  1.00  0.00    -0.020 C 
ATOM     16  C   UNL     1      18.950  43.088   7.026  1.00  0.00     0.032 C 
ATOM     17  C   UNL     1      17.429  42.853   6.847  1.00  0.00     0.006 C 
ATOM     18  C   UNL     1      15.836  41.353   5.387  1.00  0.00     0.008 C 
ATOM     19  C   UNL     1      16.695  43.528   4.501  1.00  0.00     0.012 C 
ATOM     20  C   UNL     1      16.662  42.300   8.177  1.00  0.00    -0.025 C 
ATOM     21  C   UNL     1      14.848  41.668   6.496  1.00  0.00     0.005 C 
ATOM     22  C   UNL     1      15.467  41.297   7.861  1.00  0.00     0.003 C 
ATOM     23  C   UNL     1      16.105  43.555   8.931  1.00  0.00     0.010 C 
ATOM     24  C   UNL     1      17.676  41.590   9.127  1.00  0.00     0.012 C 
ATOM     25  C   UNL     1      14.374  41.087   9.024  1.00  0.00    -0.006 C 
ATOM     26  C   UNL     1      15.203  43.251  10.125  1.00  0.00     0.033 C 
ATOM     27  C   UNL     1      13.976  42.437   9.692  1.00  0.00     0.120 C 
ATOM     28  C   UNL     1      13.072  40.416   8.487  1.00  0.00     0.014 C 
ATOM     29  C   UNL     1      14.892  40.096  10.119  1.00  0.00     0.014 C 
ENDROOT
BRANCH   1  30
ATOM     30  C   UNL     1      20.525  39.569   3.006  1.00  0.00     0.048 C 
ATOM     31  O   UNL     1      20.323  38.325   3.055  1.00  0.00    -0.550 OA
ATOM     32  O   UNL     1      20.372  40.201   1.778  1.00  0.00    -0.550 OA
ENDBRANCH   1  30
BRANCH  27  33
ATOM     33  O   UNL     1      13.193  43.209   8.814  1.00  0.00    -0.393 OA
ATOM     34  H   UNL     1      12.810  43.955   9.345  1.00  0.00     0.210 HD
ENDBRANCH  27  33
TORSDOF 2
ENDMDL
