MODEL 1
REMARK VINA RESULT:    -3.412      0.000      0.000
REMARK INTER + INTRA:          -3.805
REMARK INTER:                  -4.110
REMARK INTRA:                   0.304
REMARK UNBOUND:                 0.304
REMARK SMILES O=c1c(O)c(-c2ccc(O)cc2O)oc2cc(O)cc(O)c12
REMARK SMILES IDX 5 1 3 2 2 3 1 4 22 5 20 6 19 7 17 8 16 9 15 10 14 11 6 12
REMARK SMILES IDX 8 13 7 14 9 15 11 16 12 17 10 18 13 20 4 22 21 24 18 26
REMARK H PARENT 10 19 13 21 4 23 21 25 18 27
REMARK Flexibility Score: inf
ROOT
ATOM      1  C   UNL     1      22.544  45.344  28.482  1.00  0.00     0.184 A 
ATOM      2  C   UNL     1      22.754  46.550  27.797  1.00  0.00     0.208 A 
ATOM      3  C   UNL     1      22.809  46.535  26.395  1.00  0.00     0.238 A 
ATOM      4  O   UNL     1      22.943  47.627  25.783  1.00  0.00    -0.285 OA
ATOM      5  C   UNL     1      22.670  45.309  25.698  1.00  0.00     0.111 A 
ATOM      6  C   UNL     1      22.750  45.170  24.280  1.00  0.00     0.134 A 
ATOM      7  C   UNL     1      22.469  43.931  23.691  1.00  0.00     0.093 A 
ATOM      8  C   UNL     1      22.175  42.813  24.470  1.00  0.00     0.123 A 
ATOM      9  C   UNL     1      22.153  42.924  25.861  1.00  0.00     0.094 A 
ATOM     10  C   UNL     1      22.395  44.155  26.477  1.00  0.00     0.146 A 
ATOM     11  O   UNL     1      22.352  44.221  27.802  1.00  0.00    -0.451 OA
ENDROOT
BRANCH   1  12
ATOM     12  C   UNL     1      22.492  45.288  29.959  1.00  0.00     0.063 A 
ATOM     13  C   UNL     1      23.090  46.277  32.097  1.00  0.00     0.047 A 
ATOM     14  C   UNL     1      23.125  46.298  30.701  1.00  0.00     0.020 A 
ATOM     15  C   UNL     1      22.409  45.255  32.770  1.00  0.00     0.119 A 
ATOM     16  C   UNL     1      21.756  44.259  32.038  1.00  0.00     0.093 A 
ATOM     17  C   UNL     1      21.782  44.275  30.635  1.00  0.00     0.130 A 
BRANCH  15  18
ATOM     18  O   UNL     1      22.371  45.223  34.161  1.00  0.00    -0.508 OA
ATOM     19  H   UNL     1      22.454  44.353  34.674  1.00  0.00     0.293 HD
ENDBRANCH  15  18
BRANCH  17  20
ATOM     20  O   UNL     1      21.085  43.302  29.918  1.00  0.00    -0.507 OA
ATOM     21  H   UNL     1      20.691  42.487  30.373  1.00  0.00     0.293 HD
ENDBRANCH  17  20
ENDBRANCH   1  12
BRANCH   2  22
ATOM     22  O   UNL     1      22.868  47.748  28.509  1.00  0.00    -0.502 OA
ATOM     23  H   UNL     1      23.764  48.132  28.786  1.00  0.00     0.293 HD
ENDBRANCH   2  22
BRANCH   6  24
ATOM     24  O   UNL     1      23.125  46.202  23.414  1.00  0.00    -0.507 OA
ATOM     25  H   UNL     1      23.396  46.074  22.451  1.00  0.00     0.293 HD
ENDBRANCH   6  24
BRANCH   8  26
ATOM     26  O   UNL     1      21.917  41.593  23.851  1.00  0.00    -0.508 OA
ATOM     27  H   UNL     1      22.037  41.470  22.852  1.00  0.00     0.293 HD
ENDBRANCH   8  26
TORSDOF 6
ENDMDL
MODEL 2
REMARK VINA RESULT:    -3.163      2.211      3.309
REMARK INTER + INTRA:          -3.506
REMARK INTER:                  -3.537
REMARK INTRA:                   0.031
REMARK UNBOUND:                 0.304
REMARK SMILES O=c1c(O)c(-c2ccc(O)cc2O)oc2cc(O)cc(O)c12
REMARK SMILES IDX 5 1 3 2 2 3 1 4 22 5 20 6 19 7 17 8 16 9 15 10 14 11 6 12
REMARK SMILES IDX 8 13 7 14 9 15 11 16 12 17 10 18 13 20 4 22 21 24 18 26
REMARK H PARENT 10 19 13 21 4 23 21 25 18 27
REMARK Flexibility Score: inf
ROOT
ATOM      1  C   UNL     1      21.975  44.524  30.397  1.00  0.00     0.184 A 
ATOM      2  C   UNL     1      22.416  45.044  29.170  1.00  0.00     0.208 A 
ATOM      3  C   UNL     1      22.376  44.226  28.031  1.00  0.00     0.238 A 
ATOM      4  O   UNL     1      22.722  44.714  26.924  1.00  0.00    -0.285 OA
ATOM      5  C   UNL     1      21.912  42.892  28.139  1.00  0.00     0.111 A 
ATOM      6  C   UNL     1      21.865  41.961  27.058  1.00  0.00     0.134 A 
ATOM      7  C   UNL     1      21.266  40.710  27.250  1.00  0.00     0.093 A 
ATOM      8  C   UNL     1      20.770  40.332  28.497  1.00  0.00     0.123 A 
ATOM      9  C   UNL     1      20.863  41.213  29.576  1.00  0.00     0.094 A 
ATOM     10  C   UNL     1      21.424  42.481  29.407  1.00  0.00     0.146 A 
ATOM     11  O   UNL     1      21.483  43.293  30.456  1.00  0.00    -0.451 OA
ENDROOT
BRANCH   1  12
ATOM     12  C   UNL     1      22.006  45.328  31.637  1.00  0.00     0.063 A 
ATOM     13  C   UNL     1      23.125  46.999  33.003  1.00  0.00     0.047 A 
ATOM     14  C   UNL     1      23.069  46.221  31.844  1.00  0.00     0.020 A 
ATOM     15  C   UNL     1      22.112  46.904  33.964  1.00  0.00     0.119 A 
ATOM     16  C   UNL     1      21.038  46.034  33.756  1.00  0.00     0.093 A 
ATOM     17  C   UNL     1      20.970  45.254  32.592  1.00  0.00     0.130 A 
BRANCH  15  18
ATOM     18  O   UNL     1      22.160  47.672  35.125  1.00  0.00    -0.508 OA
ATOM     19  H   UNL     1      22.688  48.536  35.167  1.00  0.00     0.293 HD
ENDBRANCH  15  18
BRANCH  17  20
ATOM     20  O   UNL     1      19.868  44.426  32.374  1.00  0.00    -0.507 OA
ATOM     21  H   UNL     1      18.919  44.769  32.468  1.00  0.00     0.293 HD
ENDBRANCH  17  20
ENDBRANCH   1  12
BRANCH   2  22
ATOM     22  O   UNL     1      22.852  46.370  29.089  1.00  0.00    -0.502 OA
ATOM     23  H   UNL     1      22.334  47.082  28.588  1.00  0.00     0.293 HD
ENDBRANCH   2  22
BRANCH   6  24
ATOM     24  O   UNL     1      22.415  42.202  25.795  1.00  0.00    -0.507 OA
ATOM     25  H   UNL     1      21.960  41.989  24.920  1.00  0.00     0.293 HD
ENDBRANCH   6  24
BRANCH   8  26
ATOM     26  O   UNL     1      20.195  39.074  28.655  1.00  0.00    -0.508 OA
ATOM     27  H   UNL     1      19.606  38.856  29.451  1.00  0.00     0.293 HD
ENDBRANCH   8  26
TORSDOF 6
ENDMDL
MODEL 3
REMARK VINA RESULT:    -2.299      2.073      4.116
REMARK INTER + INTRA:          -2.465
REMARK INTER:                  -2.907
REMARK INTRA:                   0.442
REMARK UNBOUND:                 0.304
REMARK SMILES O=c1c(O)c(-c2ccc(O)cc2O)oc2cc(O)cc(O)c12
REMARK SMILES IDX 5 1 3 2 2 3 1 4 22 5 20 6 19 7 17 8 16 9 15 10 14 11 6 12
REMARK SMILES IDX 8 13 7 14 9 15 11 16 12 17 10 18 13 20 4 22 21 24 18 26
REMARK H PARENT 10 19 13 21 4 23 21 25 18 27
REMARK Flexibility Score: inf
ROOT
ATOM      1  C   UNL     1      21.568  43.665  30.275  1.00  0.00     0.184 A 
ATOM      2  C   UNL     1      21.167  42.339  30.502  1.00  0.00     0.208 A 
ATOM      3  C   UNL     1      21.115  41.449  29.419  1.00  0.00     0.238 A 
ATOM      4  O   UNL     1      20.808  40.248  29.637  1.00  0.00    -0.285 OA
ATOM      5  C   UNL     1      21.448  41.902  28.119  1.00  0.00     0.111 A 
ATOM      6  C   UNL     1      21.392  41.098  26.941  1.00  0.00     0.134 A 
ATOM      7  C   UNL     1      21.868  41.614  25.729  1.00  0.00     0.093 A 
ATOM      8  C   UNL     1      22.337  42.924  25.639  1.00  0.00     0.123 A 
ATOM      9  C   UNL     1      22.341  43.739  26.772  1.00  0.00     0.094 A 
ATOM     10  C   UNL     1      21.906  43.241  28.002  1.00  0.00     0.146 A 
ATOM     11  O   UNL     1      21.937  44.045  29.059  1.00  0.00    -0.451 OA
ENDROOT
BRANCH   1  12
ATOM     12  C   UNL     1      21.628  44.657  31.369  1.00  0.00     0.063 A 
ATOM     13  C   UNL     1      20.995  45.302  33.626  1.00  0.00     0.047 A 
ATOM     14  C   UNL     1      20.953  44.388  32.570  1.00  0.00     0.020 A 
ATOM     15  C   UNL     1      21.724  46.490  33.500  1.00  0.00     0.119 A 
ATOM     16  C   UNL     1      22.419  46.755  32.316  1.00  0.00     0.093 A 
ATOM     17  C   UNL     1      22.387  45.840  31.253  1.00  0.00     0.130 A 
BRANCH  15  18
ATOM     18  O   UNL     1      21.769  47.410  34.545  1.00  0.00    -0.508 OA
ATOM     19  H   UNL     1      20.995  47.517  35.190  1.00  0.00     0.293 HD
ENDBRANCH  15  18
BRANCH  17  20
ATOM     20  O   UNL     1      23.125  46.094  30.097  1.00  0.00    -0.507 OA
ATOM     21  H   UNL     1      23.848  46.804  30.073  1.00  0.00     0.293 HD
ENDBRANCH  17  20
ENDBRANCH   1  12
BRANCH   2  22
ATOM     22  O   UNL     1      20.863  41.914  31.799  1.00  0.00    -0.502 OA
ATOM     23  H   UNL     1      21.568  41.829  32.522  1.00  0.00     0.293 HD
ENDBRANCH   2  22
BRANCH   6  24
ATOM     24  O   UNL     1      20.856  39.807  26.902  1.00  0.00    -0.507 OA
ATOM     25  H   UNL     1      21.100  39.064  27.539  1.00  0.00     0.293 HD
ENDBRANCH   6  24
BRANCH   8  26
ATOM     26  O   UNL     1      22.787  43.408  24.413  1.00  0.00    -0.508 OA
ATOM     27  H   UNL     1      23.269  42.811  23.752  1.00  0.00     0.293 HD
ENDBRANCH   8  26
TORSDOF 6
ENDMDL
MODEL 4
REMARK VINA RESULT:    -0.804      1.242      3.277
REMARK INTER + INTRA:          -0.664
REMARK INTER:                  -1.116
REMARK INTRA:                   0.452
REMARK UNBOUND:                 0.304
REMARK SMILES O=c1c(O)c(-c2ccc(O)cc2O)oc2cc(O)cc(O)c12
REMARK SMILES IDX 5 1 3 2 2 3 1 4 22 5 20 6 19 7 17 8 16 9 15 10 14 11 6 12
REMARK SMILES IDX 8 13 7 14 9 15 11 16 12 17 10 18 13 20 4 22 21 24 18 26
REMARK H PARENT 10 19 13 21 4 23 21 25 18 27
REMARK Flexibility Score: inf
ROOT
ATOM      1  C   UNL     1      22.001  44.080  29.009  1.00  0.00     0.184 A 
ATOM      2  C   UNL     1      21.822  42.728  28.681  1.00  0.00     0.208 A 
ATOM      3  C   UNL     1      21.890  42.339  27.335  1.00  0.00     0.238 A 
ATOM      4  O   UNL     1      21.783  41.117  27.052  1.00  0.00    -0.285 OA
ATOM      5  C   UNL     1      22.120  43.313  26.332  1.00  0.00     0.111 A 
ATOM      6  C   UNL     1      22.168  43.038  24.932  1.00  0.00     0.134 A 
ATOM      7  C   UNL     1      22.531  44.056  24.041  1.00  0.00     0.093 A 
ATOM      8  C   UNL     1      22.783  45.351  24.491  1.00  0.00     0.123 A 
ATOM      9  C   UNL     1      22.680  45.645  25.851  1.00  0.00     0.094 A 
ATOM     10  C   UNL     1      22.355  44.643  26.769  1.00  0.00     0.146 A 
ATOM     11  O   UNL     1      22.280  44.961  28.056  1.00  0.00    -0.451 OA
ENDROOT
BRANCH   1  12
ATOM     12  C   UNL     1      21.925  44.559  30.405  1.00  0.00     0.063 A 
ATOM     13  C   UNL     1      21.255  44.153  32.707  1.00  0.00     0.047 A 
ATOM     14  C   UNL     1      21.337  43.733  31.377  1.00  0.00     0.020 A 
ATOM     15  C   UNL     1      21.772  45.397  33.086  1.00  0.00     0.119 A 
ATOM     16  C   UNL     1      22.380  46.216  32.130  1.00  0.00     0.093 A 
ATOM     17  C   UNL     1      22.472  45.800  30.793  1.00  0.00     0.130 A 
BRANCH  15  18
ATOM     18  O   UNL     1      21.691  45.827  34.408  1.00  0.00    -0.508 OA
ATOM     19  H   UNL     1      22.397  46.431  34.813  1.00  0.00     0.293 HD
ENDBRANCH  15  18
BRANCH  17  20
ATOM     20  O   UNL     1      23.125  46.605  29.859  1.00  0.00    -0.507 OA
ATOM     21  H   UNL     1      23.724  47.371  30.144  1.00  0.00     0.293 HD
ENDBRANCH  17  20
ENDBRANCH   1  12
BRANCH   2  22
ATOM     22  O   UNL     1      21.616  41.785  29.693  1.00  0.00    -0.502 OA
ATOM     23  H   UNL     1      21.172  40.891  29.520  1.00  0.00     0.293 HD
ENDBRANCH   2  22
BRANCH   6  24
ATOM     24  O   UNL     1      21.845  41.800  24.368  1.00  0.00    -0.507 OA
ATOM     25  H   UNL     1      22.516  41.096  24.104  1.00  0.00     0.293 HD
ENDBRANCH   6  24
BRANCH   8  26
ATOM     26  O   UNL     1      23.125  46.342  23.574  1.00  0.00    -0.508 OA
ATOM     27  H   UNL     1      22.617  47.218  23.527  1.00  0.00     0.293 HD
ENDBRANCH   8  26
TORSDOF 6
ENDMDL
MODEL 5
REMARK VINA RESULT:    -0.457      1.843      7.274
REMARK INTER + INTRA:          -0.246
REMARK INTER:                  -0.866
REMARK INTRA:                   0.620
REMARK UNBOUND:                 0.304
REMARK SMILES O=c1c(O)c(-c2ccc(O)cc2O)oc2cc(O)cc(O)c12
REMARK SMILES IDX 5 1 3 2 2 3 1 4 22 5 20 6 19 7 17 8 16 9 15 10 14 11 6 12
REMARK SMILES IDX 8 13 7 14 9 15 11 16 12 17 10 18 13 20 4 22 21 24 18 26
REMARK H PARENT 10 19 13 21 4 23 21 25 18 27
REMARK Flexibility Score: inf
ROOT
ATOM      1  C   UNL     1      21.898  43.012  27.274  1.00  0.00     0.184 A 
ATOM      2  C   UNL     1      21.431  41.777  27.748  1.00  0.00     0.208 A 
ATOM      3  C   UNL     1      21.150  41.635  29.115  1.00  0.00     0.238 A 
ATOM      4  O   UNL     1      20.680  40.542  29.526  1.00  0.00    -0.285 OA
ATOM      5  C   UNL     1      21.357  42.727  29.993  1.00  0.00     0.111 A 
ATOM      6  C   UNL     1      21.145  42.683  31.404  1.00  0.00     0.134 A 
ATOM      7  C   UNL     1      21.258  43.860  32.155  1.00  0.00     0.093 A 
ATOM      8  C   UNL     1      21.637  45.062  31.560  1.00  0.00     0.123 A 
ATOM      9  C   UNL     1      21.906  45.103  30.191  1.00  0.00     0.094 A 
ATOM     10  C   UNL     1      21.767  43.953  29.409  1.00  0.00     0.146 A 
ATOM     11  O   UNL     1      22.020  44.038  28.108  1.00  0.00    -0.451 OA
ENDROOT
BRANCH   1  12
ATOM     12  C   UNL     1      22.228  43.224  25.849  1.00  0.00     0.063 A 
ATOM     13  C   UNL     1      22.367  42.327  23.593  1.00  0.00     0.047 A 
ATOM     14  C   UNL     1      22.069  42.159  24.948  1.00  0.00     0.020 A 
ATOM     15  C   UNL     1      22.813  43.567  23.119  1.00  0.00     0.119 A 
ATOM     16  C   UNL     1      22.951  44.639  24.005  1.00  0.00     0.093 A 
ATOM     17  C   UNL     1      22.649  44.480  25.366  1.00  0.00     0.130 A 
BRANCH  15  18
ATOM     18  O   UNL     1      23.116  43.744  21.771  1.00  0.00    -0.508 OA
ATOM     19  H   UNL     1      22.699  43.163  21.054  1.00  0.00     0.293 HD
ENDBRANCH  15  18
BRANCH  17  20
ATOM     20  O   UNL     1      22.745  45.572  26.230  1.00  0.00    -0.507 OA
ATOM     21  H   UNL     1      22.051  46.310  26.232  1.00  0.00     0.293 HD
ENDBRANCH  17  20
ENDBRANCH   1  12
BRANCH   2  22
ATOM     22  O   UNL     1      21.217  40.722  26.855  1.00  0.00    -0.502 OA
ATOM     23  H   UNL     1      20.676  39.902  27.104  1.00  0.00     0.293 HD
ENDBRANCH   2  22
BRANCH   6  24
ATOM     24  O   UNL     1      20.851  41.515  32.114  1.00  0.00    -0.507 OA
ATOM     25  H   UNL     1      20.197  40.809  31.813  1.00  0.00     0.293 HD
ENDBRANCH   6  24
BRANCH   8  26
ATOM     26  O   UNL     1      21.755  46.208  32.341  1.00  0.00    -0.508 OA
ATOM     27  H   UNL     1      21.888  46.154  33.345  1.00  0.00     0.293 HD
ENDBRANCH   8  26
TORSDOF 6
ENDMDL
