MODEL 1
REMARK VINA RESULT:    -4.896      0.000      0.000
REMARK INTER + INTRA:          -5.906
REMARK INTER:                  -5.755
REMARK INTRA:                  -0.151
REMARK UNBOUND:                -0.151
REMARK SMILES O=C([O-])C=Cc1ccc(O)c(O)c1
REMARK SMILES IDX 6 1 13 2 7 3 11 4 8 5 9 6 5 7 4 8 2 9 1 10 3 11 12 12 10 14
REMARK H PARENT 12 13 10 15
REMARK Flexibility Score: inf
ROOT
ATOM      1  C   UNL     1       8.093  13.206 -17.278  1.00  0.00    -0.022 A 
ATOM      2  C   UNL     1       7.029  13.989 -17.769  1.00  0.00     0.058 A 
ATOM      3  C   UNL     1       9.378  13.401 -17.810  1.00  0.00     0.012 A 
ATOM      4  C   UNL     1       7.252  14.961 -18.752  1.00  0.00     0.157 A 
ATOM      5  C   UNL     1       9.604  14.371 -18.790  1.00  0.00     0.051 A 
ATOM      6  C   UNL     1       8.546  15.156 -19.263  1.00  0.00     0.157 A 
ENDROOT
BRANCH   1   7
ATOM      7  C   UNL     1       7.903  12.157 -16.246  1.00  0.00     0.010 C 
ATOM      8  C   UNL     1       8.854  11.282 -15.892  1.00  0.00     0.025 C 
BRANCH   8   9
ATOM      9  C   UNL     1       8.618  10.249 -14.871  1.00  0.00     0.064 C 
ATOM     10  O   UNL     1       7.824   9.304 -15.114  1.00  0.00    -0.545 OA
ATOM     11  O   UNL     1       9.263  10.298 -13.639  1.00  0.00    -0.545 OA
ENDBRANCH   8   9
ENDBRANCH   1   7
BRANCH   4  12
ATOM     12  O   UNL     1       6.175  15.718 -19.212  1.00  0.00    -0.504 OA
ATOM     13  H   UNL     1       5.718  15.523 -20.095  1.00  0.00     0.293 HD
ENDBRANCH   4  12
BRANCH   6  14
ATOM     14  O   UNL     1       8.773  16.125 -20.239  1.00  0.00    -0.504 OA
ATOM     15  H   UNL     1       9.697  16.507 -20.402  1.00  0.00     0.293 HD
ENDBRANCH   6  14
TORSDOF 4
ENDMDL
MODEL 2
REMARK VINA RESULT:    -4.233      2.196      5.828
REMARK INTER + INTRA:          -5.127
REMARK INTER:                  -4.999
REMARK INTRA:                  -0.128
REMARK UNBOUND:                -0.151
REMARK SMILES O=C([O-])C=Cc1ccc(O)c(O)c1
REMARK SMILES IDX 6 1 13 2 7 3 11 4 8 5 9 6 5 7 4 8 2 9 1 10 3 11 12 12 10 14
REMARK H PARENT 12 13 10 15
REMARK Flexibility Score: inf
ROOT
ATOM      1  C   UNL     1       8.677  14.378 -18.348  1.00  0.00    -0.022 A 
ATOM      2  C   UNL     1       9.109  13.254 -17.616  1.00  0.00     0.058 A 
ATOM      3  C   UNL     1       7.413  14.923 -18.069  1.00  0.00     0.012 A 
ATOM      4  C   UNL     1       8.304  12.704 -16.611  1.00  0.00     0.157 A 
ATOM      5  C   UNL     1       6.608  14.378 -17.066  1.00  0.00     0.051 A 
ATOM      6  C   UNL     1       7.049  13.270 -16.331  1.00  0.00     0.157 A 
ENDROOT
BRANCH   1   7
ATOM      7  C   UNL     1       9.490  14.987 -19.430  1.00  0.00     0.010 C 
ATOM      8  C   UNL     1      10.330  14.294 -20.210  1.00  0.00     0.025 C 
BRANCH   8   9
ATOM      9  C   UNL     1      11.126  14.942 -21.264  1.00  0.00     0.064 C 
ATOM     10  O   UNL     1      11.525  16.125 -21.103  1.00  0.00    -0.545 OA
ATOM     11  O   UNL     1      11.449  14.267 -22.437  1.00  0.00    -0.545 OA
ENDBRANCH   8   9
ENDBRANCH   1   7
BRANCH   4  12
ATOM     12  O   UNL     1       8.766  11.594 -15.906  1.00  0.00    -0.504 OA
ATOM     13  H   UNL     1       9.276  11.683 -15.035  1.00  0.00     0.293 HD
ENDBRANCH   4  12
BRANCH   6  14
ATOM     14  O   UNL     1       6.246  12.729 -15.329  1.00  0.00    -0.504 OA
ATOM     15  H   UNL     1       5.235  12.768 -15.380  1.00  0.00     0.293 HD
ENDBRANCH   6  14
TORSDOF 4
ENDMDL
MODEL 3
REMARK VINA RESULT:    -3.811      2.665      5.932
REMARK INTER + INTRA:          -4.631
REMARK INTER:                  -4.498
REMARK INTRA:                  -0.132
REMARK UNBOUND:                -0.151
REMARK SMILES O=C([O-])C=Cc1ccc(O)c(O)c1
REMARK SMILES IDX 6 1 13 2 7 3 11 4 8 5 9 6 5 7 4 8 2 9 1 10 3 11 12 12 10 14
REMARK H PARENT 12 13 10 15
REMARK Flexibility Score: inf
ROOT
ATOM      1  C   UNL     1       9.445  14.878 -19.494  1.00  0.00    -0.022 A 
ATOM      2  C   UNL     1       8.140  15.406 -19.450  1.00  0.00     0.058 A 
ATOM      3  C   UNL     1       9.832  13.943 -18.520  1.00  0.00     0.012 A 
ATOM      4  C   UNL     1       7.234  14.989 -18.466  1.00  0.00     0.157 A 
ATOM      5  C   UNL     1       8.930  13.524 -17.539  1.00  0.00     0.051 A 
ATOM      6  C   UNL     1       7.629  14.040 -17.509  1.00  0.00     0.157 A 
ENDROOT
BRANCH   1   7
ATOM      7  C   UNL     1      10.443  15.299 -20.510  1.00  0.00     0.010 C 
ATOM      8  C   UNL     1      10.776  14.559 -21.576  1.00  0.00     0.025 C 
BRANCH   8   9
ATOM      9  C   UNL     1      11.780  15.010 -22.552  1.00  0.00     0.064 C 
ATOM     10  O   UNL     1      11.923  14.382 -23.633  1.00  0.00    -0.545 OA
ATOM     11  O   UNL     1      12.575  16.124 -22.301  1.00  0.00    -0.545 OA
ENDBRANCH   8   9
ENDBRANCH   1   7
BRANCH   4  12
ATOM     12  O   UNL     1       5.950  15.533 -18.455  1.00  0.00    -0.504 OA
ATOM     13  H   UNL     1       5.334  15.475 -19.257  1.00  0.00     0.293 HD
ENDBRANCH   4  12
BRANCH   6  14
ATOM     14  O   UNL     1       6.730  13.619 -16.530  1.00  0.00    -0.504 OA
ATOM     15  H   UNL     1       6.479  14.213 -15.749  1.00  0.00     0.293 HD
ENDBRANCH   6  14
TORSDOF 4
ENDMDL
MODEL 4
REMARK VINA RESULT:    -3.758      2.136      2.921
REMARK INTER + INTRA:          -4.568
REMARK INTER:                  -4.442
REMARK INTRA:                  -0.126
REMARK UNBOUND:                -0.151
REMARK SMILES O=C([O-])C=Cc1ccc(O)c(O)c1
REMARK SMILES IDX 6 1 13 2 7 3 11 4 8 5 9 6 5 7 4 8 2 9 1 10 3 11 12 12 10 14
REMARK H PARENT 12 13 10 15
REMARK Flexibility Score: inf
ROOT
ATOM      1  C   UNL     1       9.156  14.446 -18.503  1.00  0.00    -0.022 A 
ATOM      2  C   UNL     1       9.180  13.923 -19.812  1.00  0.00     0.058 A 
ATOM      3  C   UNL     1      10.004  15.520 -18.187  1.00  0.00     0.012 A 
ATOM      4  C   UNL     1      10.016  14.480 -20.787  1.00  0.00     0.157 A 
ATOM      5  C   UNL     1      10.837  16.079 -19.159  1.00  0.00     0.051 A 
ATOM      6  C   UNL     1      10.846  15.565 -20.462  1.00  0.00     0.157 A 
ENDROOT
BRANCH   1   7
ATOM      7  C   UNL     1       8.296  13.882 -17.433  1.00  0.00     0.010 C 
ATOM      8  C   UNL     1       8.427  12.639 -16.951  1.00  0.00     0.025 C 
BRANCH   8   9
ATOM      9  C   UNL     1       7.543  12.117 -15.897  1.00  0.00     0.064 C 
ATOM     10  O   UNL     1       7.722  10.951 -15.457  1.00  0.00    -0.545 OA
ATOM     11  O   UNL     1       6.514  12.892 -15.374  1.00  0.00    -0.545 OA
ENDBRANCH   8   9
ENDBRANCH   1   7
BRANCH   4  12
ATOM     12  O   UNL     1      10.011  13.937 -22.072  1.00  0.00    -0.504 OA
ATOM     13  H   UNL     1      10.389  13.018 -22.270  1.00  0.00     0.293 HD
ENDBRANCH   4  12
BRANCH   6  14
ATOM     14  O   UNL     1      11.677  16.125 -21.430  1.00  0.00    -0.504 OA
ATOM     15  H   UNL     1      11.303  16.653 -22.210  1.00  0.00     0.293 HD
ENDBRANCH   6  14
TORSDOF 4
ENDMDL
MODEL 5
REMARK VINA RESULT:    -2.098     23.235     24.292
REMARK INTER + INTRA:          -2.617
REMARK INTER:                  -2.492
REMARK INTRA:                  -0.125
REMARK UNBOUND:                -0.151
REMARK SMILES O=C([O-])C=Cc1ccc(O)c(O)c1
REMARK SMILES IDX 6 1 13 2 7 3 11 4 8 5 9 6 5 7 4 8 2 9 1 10 3 11 12 12 10 14
REMARK H PARENT 12 13 10 15
REMARK Flexibility Score: inf
ROOT
ATOM      1  C   UNL     1      26.049   0.972 -27.702  1.00  0.00    -0.022 A 
ATOM      2  C   UNL     1      25.917   0.200 -26.530  1.00  0.00     0.058 A 
ATOM      3  C   UNL     1      26.125   2.370 -27.587  1.00  0.00     0.012 A 
ATOM      4  C   UNL     1      25.886   0.812 -25.272  1.00  0.00     0.157 A 
ATOM      5  C   UNL     1      26.097   2.983 -26.332  1.00  0.00     0.051 A 
ATOM      6  C   UNL     1      25.981   2.210 -25.171  1.00  0.00     0.157 A 
ENDROOT
BRANCH   1   7
ATOM      7  C   UNL     1      26.073   0.369 -29.058  1.00  0.00     0.010 C 
ATOM      8  C   UNL     1      25.128  -0.460 -29.521  1.00  0.00     0.025 C 
BRANCH   8   9
ATOM      9  C   UNL     1      25.199  -1.045 -30.869  1.00  0.00     0.064 C 
ATOM     10  O   UNL     1      26.117  -1.860 -31.146  1.00  0.00    -0.545 OA
ATOM     11  O   UNL     1      24.265  -0.713 -31.845  1.00  0.00    -0.545 OA
ENDBRANCH   8   9
ENDBRANCH   1   7
BRANCH   4  12
ATOM     12  O   UNL     1      25.757   0.015 -24.135  1.00  0.00    -0.504 OA
ATOM     13  H   UNL     1      25.542   0.406 -23.225  1.00  0.00     0.293 HD
ENDBRANCH   4  12
BRANCH   6  14
ATOM     14  O   UNL     1      25.955   2.824 -23.920  1.00  0.00    -0.504 OA
ATOM     15  H   UNL     1      26.758   2.807 -23.303  1.00  0.00     0.293 HD
ENDBRANCH   6  14
TORSDOF 4
ENDMDL
