MODEL 1
REMARK VINA RESULT:    -4.720      0.000      0.000
REMARK INTER + INTRA:         -15.621
REMARK INTER:                 -11.894
REMARK INTRA:                  -3.726
REMARK UNBOUND:                -3.726
REMARK SMILES CCCCCCCCCCCCCCCCCCCCCCCCCCCC(=O)[O-]
REMARK SMILES IDX 15 1 16 2 17 3 18 4 19 5 20 6 21 7 22 8 23 9 24 10 25 11
REMARK SMILES IDX 26 12 27 13 28 14 29 15 30 16 14 17 13 18 12 19 11 20 10 21
REMARK SMILES IDX 9 22 8 23 7 24 6 25 5 26 4 27 3 28 2 29 1 30
REMARK H PARENT
REMARK Flexibility Score: inf
ROOT
ATOM      1  C   UNL     1      14.040  14.969  68.071  1.00  0.00     0.000 C 
ENDROOT
BRANCH   1   2
ATOM      2  C   UNL     1      12.647  15.568  67.793  1.00  0.00     0.000 C 
BRANCH   2   3
ATOM      3  C   UNL     1      12.561  16.474  66.549  1.00  0.00     0.000 C 
BRANCH   3   4
ATOM      4  C   UNL     1      11.629  17.691  66.686  1.00  0.00     0.000 C 
BRANCH   4   5
ATOM      5  C   UNL     1      10.845  17.698  68.010  1.00  0.00     0.000 C 
BRANCH   5   6
ATOM      6  C   UNL     1      10.772  19.091  68.661  1.00  0.00     0.000 C 
BRANCH   6   7
ATOM      7  C   UNL     1      10.206  19.125  70.093  1.00  0.00     0.000 C 
BRANCH   7   8
ATOM      8  C   UNL     1       9.559  17.796  70.517  1.00  0.00     0.000 C 
BRANCH   8   9
ATOM      9  C   UNL     1       8.286  17.993  71.363  1.00  0.00     0.000 C 
BRANCH   9  10
ATOM     10  C   UNL     1       8.462  18.855  72.629  1.00  0.00     0.000 C 
BRANCH  10  11
ATOM     11  C   UNL     1       7.479  18.545  73.771  1.00  0.00     0.000 C 
BRANCH  11  12
ATOM     12  C   UNL     1       6.603  17.313  73.487  1.00  0.00     0.006 C 
BRANCH  12  13
ATOM     13  C   UNL     1       5.996  16.725  74.769  1.00  0.00     0.053 C 
BRANCH  13  14
ATOM     14  C   UNL     1       7.044  16.112  75.645  1.00  0.00     0.041 C 
ATOM     15  O   UNL     1       6.859  16.020  76.888  1.00  0.00    -0.550 OA
ATOM     16  O   UNL     1       8.212  15.609  75.085  1.00  0.00    -0.550 OA
ENDBRANCH  13  14
ENDBRANCH  12  13
ENDBRANCH  11  12
ENDBRANCH  10  11
ENDBRANCH   9  10
ENDBRANCH   8   9
ENDBRANCH   7   8
ENDBRANCH   6   7
ENDBRANCH   5   6
ENDBRANCH   4   5
ENDBRANCH   3   4
ENDBRANCH   2   3
ENDBRANCH   1   2
BRANCH   1  17
ATOM     17  C   UNL     1      14.134  14.101  69.340  1.00  0.00     0.000 C 
BRANCH  17  18
ATOM     18  C   UNL     1      14.465  14.872  70.634  1.00  0.00     0.000 C 
BRANCH  18  19
ATOM     19  C   UNL     1      14.272  16.399  70.545  1.00  0.00     0.000 C 
BRANCH  19  20
ATOM     20  C   UNL     1      12.976  16.931  71.190  1.00  0.00     0.000 C 
BRANCH  20  21
ATOM     21  C   UNL     1      12.500  16.164  72.437  1.00  0.00     0.000 C 
BRANCH  21  22
ATOM     22  C   UNL     1      11.124  15.506  72.246  1.00  0.00    -0.000 C 
BRANCH  22  23
ATOM     23  C   UNL     1      11.211  13.980  72.059  1.00  0.00    -0.000 C 
BRANCH  23  24
ATOM     24  C   UNL     1      11.042  13.483  70.609  1.00  0.00    -0.000 C 
BRANCH  24  25
ATOM     25  C   UNL     1      10.139  14.354  69.719  1.00  0.00    -0.000 C 
BRANCH  25  26
ATOM     26  C   UNL     1       9.753  13.662  68.403  1.00  0.00    -0.000 C 
BRANCH  26  27
ATOM     27  C   UNL     1      10.798  12.603  68.015  1.00  0.00    -0.000 C 
BRANCH  27  28
ATOM     28  C   UNL     1      10.165  11.248  67.661  1.00  0.00    -0.000 C 
BRANCH  28  29
ATOM     29  C   UNL     1       9.180  10.758  68.733  1.00  0.00    -0.003 C 
ATOM     30  C   UNL     1       8.555   9.423  68.334  1.00  0.00     0.004 C 
ENDBRANCH  28  29
ENDBRANCH  27  28
ENDBRANCH  26  27
ENDBRANCH  25  26
ENDBRANCH  24  25
ENDBRANCH  23  24
ENDBRANCH  22  23
ENDBRANCH  21  22
ENDBRANCH  20  21
ENDBRANCH  19  20
ENDBRANCH  18  19
ENDBRANCH  17  18
ENDBRANCH   1  17
TORSDOF 26
ENDMDL
MODEL 2
REMARK VINA RESULT:    -4.421      1.557      5.057
REMARK INTER + INTRA:         -14.867
REMARK INTER:                 -11.096
REMARK INTRA:                  -3.771
REMARK UNBOUND:                -3.726
REMARK SMILES CCCCCCCCCCCCCCCCCCCCCCCCCCCC(=O)[O-]
REMARK SMILES IDX 15 1 16 2 17 3 18 4 19 5 20 6 21 7 22 8 23 9 24 10 25 11
REMARK SMILES IDX 26 12 27 13 28 14 29 15 30 16 14 17 13 18 12 19 11 20 10 21
REMARK SMILES IDX 9 22 8 23 7 24 6 25 5 26 4 27 3 28 2 29 1 30
REMARK H PARENT
REMARK Flexibility Score: inf
ROOT
ATOM      1  C   UNL     1       9.992  13.684  68.497  1.00  0.00     0.000 C 
ENDROOT
BRANCH   1   2
ATOM      2  C   UNL     1      10.498  12.773  69.634  1.00  0.00     0.000 C 
BRANCH   2   3
ATOM      3  C   UNL     1      11.643  13.361  70.482  1.00  0.00     0.000 C 
BRANCH   3   4
ATOM      4  C   UNL     1      11.213  13.996  71.816  1.00  0.00     0.000 C 
BRANCH   4   5
ATOM      5  C   UNL     1      12.060  15.223  72.194  1.00  0.00     0.000 C 
BRANCH   5   6
ATOM      6  C   UNL     1      11.269  16.543  72.135  1.00  0.00     0.000 C 
BRANCH   6   7
ATOM      7  C   UNL     1       9.748  16.415  72.338  1.00  0.00     0.000 C 
BRANCH   7   8
ATOM      8  C   UNL     1       9.066  17.756  72.656  1.00  0.00     0.000 C 
BRANCH   8   9
ATOM      9  C   UNL     1       7.858  18.043  71.744  1.00  0.00     0.000 C 
BRANCH   9  10
ATOM     10  C   UNL     1       6.630  18.655  72.447  1.00  0.00     0.000 C 
BRANCH  10  11
ATOM     11  C   UNL     1       5.420  17.714  72.584  1.00  0.00     0.000 C 
BRANCH  11  12
ATOM     12  C   UNL     1       5.617  16.642  73.669  1.00  0.00     0.006 C 
BRANCH  12  13
ATOM     13  C   UNL     1       6.116  17.240  74.991  1.00  0.00     0.053 C 
BRANCH  13  14
ATOM     14  C   UNL     1       6.947  16.261  75.761  1.00  0.00     0.041 C 
ATOM     15  O   UNL     1       7.993  15.777  75.252  1.00  0.00    -0.550 OA
ATOM     16  O   UNL     1       6.586  15.909  77.056  1.00  0.00    -0.550 OA
ENDBRANCH  13  14
ENDBRANCH  12  13
ENDBRANCH  11  12
ENDBRANCH  10  11
ENDBRANCH   9  10
ENDBRANCH   8   9
ENDBRANCH   7   8
ENDBRANCH   6   7
ENDBRANCH   5   6
ENDBRANCH   4   5
ENDBRANCH   3   4
ENDBRANCH   2   3
ENDBRANCH   1   2
BRANCH   1  17
ATOM     17  C   UNL     1       9.042  14.812  68.942  1.00  0.00     0.000 C 
BRANCH  17  18
ATOM     18  C   UNL     1       9.170  16.125  68.143  1.00  0.00     0.000 C 
BRANCH  18  19
ATOM     19  C   UNL     1       9.808  17.295  68.917  1.00  0.00     0.000 C 
BRANCH  19  20
ATOM     20  C   UNL     1      11.177  17.764  68.382  1.00  0.00     0.000 C 
BRANCH  20  21
ATOM     21  C   UNL     1      11.330  17.725  66.850  1.00  0.00     0.000 C 
BRANCH  21  22
ATOM     22  C   UNL     1      12.428  16.755  66.384  1.00  0.00    -0.000 C 
BRANCH  22  23
ATOM     23  C   UNL     1      12.469  15.455  67.209  1.00  0.00    -0.000 C 
BRANCH  23  24
ATOM     24  C   UNL     1      13.756  15.234  68.029  1.00  0.00    -0.000 C 
BRANCH  24  25
ATOM     25  C   UNL     1      13.766  15.889  69.421  1.00  0.00    -0.000 C 
BRANCH  25  26
ATOM     26  C   UNL     1      15.061  15.613  70.201  1.00  0.00    -0.000 C 
BRANCH  26  27
ATOM     27  C   UNL     1      15.389  14.111  70.201  1.00  0.00    -0.000 C 
BRANCH  27  28
ATOM     28  C   UNL     1      16.894  13.833  70.342  1.00  0.00    -0.000 C 
BRANCH  28  29
ATOM     29  C   UNL     1      17.724  14.494  69.231  1.00  0.00    -0.003 C 
ATOM     30  C   UNL     1      19.103  14.900  69.745  1.00  0.00     0.004 C 
ENDBRANCH  28  29
ENDBRANCH  27  28
ENDBRANCH  26  27
ENDBRANCH  25  26
ENDBRANCH  24  25
ENDBRANCH  23  24
ENDBRANCH  22  23
ENDBRANCH  21  22
ENDBRANCH  20  21
ENDBRANCH  19  20
ENDBRANCH  18  19
ENDBRANCH  17  18
ENDBRANCH   1  17
TORSDOF 26
ENDMDL
MODEL 3
REMARK VINA RESULT:    -4.358      1.033      3.272
REMARK INTER + INTRA:         -14.708
REMARK INTER:                 -10.954
REMARK INTRA:                  -3.754
REMARK UNBOUND:                -3.726
REMARK SMILES CCCCCCCCCCCCCCCCCCCCCCCCCCCC(=O)[O-]
REMARK SMILES IDX 15 1 16 2 17 3 18 4 19 5 20 6 21 7 22 8 23 9 24 10 25 11
REMARK SMILES IDX 26 12 27 13 28 14 29 15 30 16 14 17 13 18 12 19 11 20 10 21
REMARK SMILES IDX 9 22 8 23 7 24 6 25 5 26 4 27 3 28 2 29 1 30
REMARK H PARENT
REMARK Flexibility Score: inf
ROOT
ATOM      1  C   UNL     1      14.108  14.302  69.749  1.00  0.00     0.000 C 
ENDROOT
BRANCH   1   2
ATOM      2  C   UNL     1      13.479  14.617  71.121  1.00  0.00     0.000 C 
BRANCH   2   3
ATOM      3  C   UNL     1      13.153  16.103  71.365  1.00  0.00     0.000 C 
BRANCH   3   4
ATOM      4  C   UNL     1      12.188  16.380  72.532  1.00  0.00     0.000 C 
BRANCH   4   5
ATOM      5  C   UNL     1      10.888  15.562  72.441  1.00  0.00     0.000 C 
BRANCH   5   6
ATOM      6  C   UNL     1       9.909  15.855  73.592  1.00  0.00     0.000 C 
BRANCH   6   7
ATOM      7  C   UNL     1       9.179  17.209  73.514  1.00  0.00     0.000 C 
BRANCH   7   8
ATOM      8  C   UNL     1       9.113  17.777  72.086  1.00  0.00     0.000 C 
BRANCH   8   9
ATOM      9  C   UNL     1       7.669  18.006  71.600  1.00  0.00     0.000 C 
BRANCH   9  10
ATOM     10  C   UNL     1       6.647  18.348  72.703  1.00  0.00     0.000 C 
BRANCH  10  11
ATOM     11  C   UNL     1       5.441  17.397  72.793  1.00  0.00     0.000 C 
BRANCH  11  12
ATOM     12  C   UNL     1       5.494  16.480  74.027  1.00  0.00     0.006 C 
BRANCH  12  13
ATOM     13  C   UNL     1       6.212  17.142  75.211  1.00  0.00     0.053 C 
BRANCH  13  14
ATOM     14  C   UNL     1       6.747  16.126  76.171  1.00  0.00     0.041 C 
ATOM     15  O   UNL     1       7.612  15.290  75.795  1.00  0.00    -0.550 OA
ATOM     16  O   UNL     1       6.318  16.123  77.492  1.00  0.00    -0.550 OA
ENDBRANCH  13  14
ENDBRANCH  12  13
ENDBRANCH  11  12
ENDBRANCH  10  11
ENDBRANCH   9  10
ENDBRANCH   8   9
ENDBRANCH   7   8
ENDBRANCH   6   7
ENDBRANCH   5   6
ENDBRANCH   4   5
ENDBRANCH   3   4
ENDBRANCH   2   3
ENDBRANCH   1   2
BRANCH   1  17
ATOM     17  C   UNL     1      14.008  15.437  68.712  1.00  0.00     0.000 C 
BRANCH  17  18
ATOM     18  C   UNL     1      13.726  14.976  67.267  1.00  0.00     0.000 C 
BRANCH  18  19
ATOM     19  C   UNL     1      13.044  16.030  66.373  1.00  0.00     0.000 C 
BRANCH  19  20
ATOM     20  C   UNL     1      11.597  16.386  66.771  1.00  0.00     0.000 C 
BRANCH  20  21
ATOM     21  C   UNL     1      11.367  17.858  67.159  1.00  0.00     0.000 C 
BRANCH  21  22
ATOM     22  C   UNL     1      10.627  18.014  68.498  1.00  0.00    -0.000 C 
BRANCH  22  23
ATOM     23  C   UNL     1      10.381  16.670  69.206  1.00  0.00    -0.000 C 
BRANCH  23  24
ATOM     24  C   UNL     1       9.076  15.948  68.815  1.00  0.00    -0.000 C 
BRANCH  24  25
ATOM     25  C   UNL     1       9.154  14.411  68.811  1.00  0.00    -0.000 C 
BRANCH  25  26
ATOM     26  C   UNL     1      10.522  13.882  69.269  1.00  0.00    -0.000 C 
BRANCH  26  27
ATOM     27  C   UNL     1      10.958  12.680  68.416  1.00  0.00    -0.000 C 
BRANCH  27  28
ATOM     28  C   UNL     1       9.775  11.793  67.995  1.00  0.00    -0.000 C 
BRANCH  28  29
ATOM     29  C   UNL     1       9.763  10.441  68.723  1.00  0.00    -0.003 C 
ATOM     30  C   UNL     1       8.573   9.592  68.283  1.00  0.00     0.004 C 
ENDBRANCH  28  29
ENDBRANCH  27  28
ENDBRANCH  26  27
ENDBRANCH  25  26
ENDBRANCH  24  25
ENDBRANCH  23  24
ENDBRANCH  22  23
ENDBRANCH  21  22
ENDBRANCH  20  21
ENDBRANCH  19  20
ENDBRANCH  18  19
ENDBRANCH  17  18
ENDBRANCH   1  17
TORSDOF 26
ENDMDL
MODEL 4
REMARK VINA RESULT:    -4.207      3.454      6.379
REMARK INTER + INTRA:         -14.327
REMARK INTER:                 -10.480
REMARK INTRA:                  -3.847
REMARK UNBOUND:                -3.726
REMARK SMILES CCCCCCCCCCCCCCCCCCCCCCCCCCCC(=O)[O-]
REMARK SMILES IDX 15 1 16 2 17 3 18 4 19 5 20 6 21 7 22 8 23 9 24 10 25 11
REMARK SMILES IDX 26 12 27 13 28 14 29 15 30 16 14 17 13 18 12 19 11 20 10 21
REMARK SMILES IDX 9 22 8 23 7 24 6 25 5 26 4 27 3 28 2 29 1 30
REMARK H PARENT
REMARK Flexibility Score: inf
ROOT
ATOM      1  C   UNL     1      11.916  15.388  72.126  1.00  0.00     0.000 C 
ENDROOT
BRANCH   1   2
ATOM      2  C   UNL     1      12.204  16.854  71.742  1.00  0.00     0.000 C 
BRANCH   2   3
ATOM      3  C   UNL     1      11.303  17.429  70.632  1.00  0.00     0.000 C 
BRANCH   3   4
ATOM      4  C   UNL     1      12.003  18.376  69.642  1.00  0.00     0.000 C 
BRANCH   4   5
ATOM      5  C   UNL     1      11.069  18.867  68.522  1.00  0.00     0.000 C 
BRANCH   5   6
ATOM      6  C   UNL     1      11.471  18.346  67.130  1.00  0.00     0.000 C 
BRANCH   6   7
ATOM      7  C   UNL     1      11.409  16.818  66.951  1.00  0.00     0.000 C 
BRANCH   7   8
ATOM      8  C   UNL     1      12.766  16.198  66.578  1.00  0.00     0.000 C 
BRANCH   8   9
ATOM      9  C   UNL     1      13.132  14.986  67.455  1.00  0.00     0.000 C 
BRANCH   9  10
ATOM     10  C   UNL     1      13.817  15.323  68.795  1.00  0.00     0.000 C 
BRANCH  10  11
ATOM     11  C   UNL     1      14.020  14.128  69.743  1.00  0.00     0.000 C 
BRANCH  11  12
ATOM     12  C   UNL     1      15.347  14.198  70.517  1.00  0.00     0.006 C 
BRANCH  12  13
ATOM     13  C   UNL     1      16.436  14.944  69.733  1.00  0.00     0.053 C 
BRANCH  13  14
ATOM     14  C   UNL     1      17.703  14.150  69.657  1.00  0.00     0.041 C 
ATOM     15  O   UNL     1      17.663  12.907  69.455  1.00  0.00    -0.550 OA
ATOM     16  O   UNL     1      18.932  14.787  69.775  1.00  0.00    -0.550 OA
ENDBRANCH  13  14
ENDBRANCH  12  13
ENDBRANCH  11  12
ENDBRANCH  10  11
ENDBRANCH   9  10
ENDBRANCH   8   9
ENDBRANCH   7   8
ENDBRANCH   6   7
ENDBRANCH   5   6
ENDBRANCH   4   5
ENDBRANCH   3   4
ENDBRANCH   2   3
ENDBRANCH   1   2
BRANCH   1  17
ATOM     17  C   UNL     1      10.514  15.133  72.712  1.00  0.00     0.000 C 
BRANCH  17  18
ATOM     18  C   UNL     1      10.094  16.098  73.840  1.00  0.00     0.000 C 
BRANCH  18  19
ATOM     19  C   UNL     1       8.633  16.583  73.767  1.00  0.00     0.000 C 
BRANCH  19  20
ATOM     20  C   UNL     1       8.459  18.097  73.531  1.00  0.00     0.000 C 
BRANCH  20  21
ATOM     21  C   UNL     1       7.951  18.488  72.131  1.00  0.00     0.000 C 
BRANCH  21  22
ATOM     22  C   UNL     1       7.526  17.273  71.289  1.00  0.00    -0.000 C 
BRANCH  22  23
ATOM     23  C   UNL     1       8.541  16.926  70.185  1.00  0.00    -0.000 C 
BRANCH  23  24
ATOM     24  C   UNL     1       8.187  15.695  69.327  1.00  0.00    -0.000 C 
BRANCH  24  25
ATOM     25  C   UNL     1       9.350  15.113  68.505  1.00  0.00    -0.000 C 
BRANCH  25  26
ATOM     26  C   UNL     1      10.076  13.968  69.229  1.00  0.00    -0.000 C 
BRANCH  26  27
ATOM     27  C   UNL     1      10.189  12.732  68.321  1.00  0.00    -0.000 C 
BRANCH  27  28
ATOM     28  C   UNL     1       9.557  11.478  68.947  1.00  0.00    -0.000 C 
BRANCH  28  29
ATOM     29  C   UNL     1       9.470  10.305  67.960  1.00  0.00    -0.003 C 
ATOM     30  C   UNL     1       8.275   9.409  68.276  1.00  0.00     0.004 C 
ENDBRANCH  28  29
ENDBRANCH  27  28
ENDBRANCH  26  27
ENDBRANCH  25  26
ENDBRANCH  24  25
ENDBRANCH  23  24
ENDBRANCH  22  23
ENDBRANCH  21  22
ENDBRANCH  20  21
ENDBRANCH  19  20
ENDBRANCH  18  19
ENDBRANCH  17  18
ENDBRANCH   1  17
TORSDOF 26
ENDMDL
MODEL 5
REMARK VINA RESULT:    -4.155      2.723      6.395
REMARK INTER + INTRA:         -14.196
REMARK INTER:                 -10.826
REMARK INTRA:                  -3.371
REMARK UNBOUND:                -3.726
REMARK SMILES CCCCCCCCCCCCCCCCCCCCCCCCCCCC(=O)[O-]
REMARK SMILES IDX 15 1 16 2 17 3 18 4 19 5 20 6 21 7 22 8 23 9 24 10 25 11
REMARK SMILES IDX 26 12 27 13 28 14 29 15 30 16 14 17 13 18 12 19 11 20 10 21
REMARK SMILES IDX 9 22 8 23 7 24 6 25 5 26 4 27 3 28 2 29 1 30
REMARK H PARENT
REMARK Flexibility Score: inf
ROOT
ATOM      1  C   UNL     1      10.944  15.317  72.929  1.00  0.00     0.000 C 
ENDROOT
BRANCH   1   2
ATOM      2  C   UNL     1      10.097  16.417  73.601  1.00  0.00     0.000 C 
BRANCH   2   3
ATOM      3  C   UNL     1       8.894  15.908  74.418  1.00  0.00     0.000 C 
BRANCH   3   4
ATOM      4  C   UNL     1       7.640  16.800  74.367  1.00  0.00     0.000 C 
BRANCH   4   5
ATOM      5  C   UNL     1       7.976  18.302  74.366  1.00  0.00     0.000 C 
BRANCH   5   6
ATOM      6  C   UNL     1       7.506  19.024  73.090  1.00  0.00     0.000 C 
BRANCH   6   7
ATOM      7  C   UNL     1       8.274  18.663  71.804  1.00  0.00     0.000 C 
BRANCH   7   8
ATOM      8  C   UNL     1       7.702  17.430  71.085  1.00  0.00     0.000 C 
BRANCH   8   9
ATOM      9  C   UNL     1       8.745  16.709  70.211  1.00  0.00     0.000 C 
BRANCH   9  10
ATOM     10  C   UNL     1       8.170  15.746  69.154  1.00  0.00     0.000 C 
BRANCH  10  11
ATOM     11  C   UNL     1       9.201  14.825  68.480  1.00  0.00     0.000 C 
BRANCH  11  12
ATOM     12  C   UNL     1      10.298  14.348  69.448  1.00  0.00     0.006 C 
BRANCH  12  13
ATOM     13  C   UNL     1      10.234  12.835  69.696  1.00  0.00     0.053 C 
BRANCH  13  14
ATOM     14  C   UNL     1      10.102  12.070  68.416  1.00  0.00     0.041 C 
ATOM     15  O   UNL     1      10.514  12.566  67.334  1.00  0.00    -0.550 OA
ATOM     16  O   UNL     1       9.555  10.793  68.422  1.00  0.00    -0.550 OA
ENDBRANCH  13  14
ENDBRANCH  12  13
ENDBRANCH  11  12
ENDBRANCH  10  11
ENDBRANCH   9  10
ENDBRANCH   8   9
ENDBRANCH   7   8
ENDBRANCH   6   7
ENDBRANCH   5   6
ENDBRANCH   4   5
ENDBRANCH   3   4
ENDBRANCH   2   3
ENDBRANCH   1   2
BRANCH   1  17
ATOM     17  C   UNL     1      11.989  15.827  71.919  1.00  0.00     0.000 C 
BRANCH  17  18
ATOM     18  C   UNL     1      11.812  17.296  71.485  1.00  0.00     0.000 C 
BRANCH  18  19
ATOM     19  C   UNL     1      12.202  17.591  70.023  1.00  0.00     0.000 C 
BRANCH  19  20
ATOM     20  C   UNL     1      11.283  18.592  69.291  1.00  0.00     0.000 C 
BRANCH  20  21
ATOM     21  C   UNL     1      11.354  18.545  67.754  1.00  0.00     0.000 C 
BRANCH  21  22
ATOM     22  C   UNL     1      11.147  17.130  67.189  1.00  0.00    -0.000 C 
BRANCH  22  23
ATOM     23  C   UNL     1      12.448  16.499  66.663  1.00  0.00    -0.000 C 
BRANCH  23  24
ATOM     24  C   UNL     1      12.854  15.170  67.331  1.00  0.00    -0.000 C 
BRANCH  24  25
ATOM     25  C   UNL     1      13.831  15.303  68.513  1.00  0.00    -0.000 C 
BRANCH  25  26
ATOM     26  C   UNL     1      13.881  14.043  69.390  1.00  0.00    -0.000 C 
BRANCH  26  27
ATOM     27  C   UNL     1      14.974  14.167  70.464  1.00  0.00    -0.000 C 
BRANCH  27  28
ATOM     28  C   UNL     1      16.196  14.962  69.977  1.00  0.00    -0.000 C 
BRANCH  28  29
ATOM     29  C   UNL     1      17.328  14.055  69.473  1.00  0.00    -0.003 C 
ATOM     30  C   UNL     1      18.693  14.682  69.742  1.00  0.00     0.004 C 
ENDBRANCH  28  29
ENDBRANCH  27  28
ENDBRANCH  26  27
ENDBRANCH  25  26
ENDBRANCH  24  25
ENDBRANCH  23  24
ENDBRANCH  22  23
ENDBRANCH  21  22
ENDBRANCH  20  21
ENDBRANCH  19  20
ENDBRANCH  18  19
ENDBRANCH  17  18
ENDBRANCH   1  17
TORSDOF 26
ENDMDL
MODEL 6
REMARK VINA RESULT:    -4.066      3.563      6.887
REMARK INTER + INTRA:         -13.972
REMARK INTER:                 -10.225
REMARK INTRA:                  -3.748
REMARK UNBOUND:                -3.726
REMARK SMILES CCCCCCCCCCCCCCCCCCCCCCCCCCCC(=O)[O-]
REMARK SMILES IDX 15 1 16 2 17 3 18 4 19 5 20 6 21 7 22 8 23 9 24 10 25 11
REMARK SMILES IDX 26 12 27 13 28 14 29 15 30 16 14 17 13 18 12 19 11 20 10 21
REMARK SMILES IDX 9 22 8 23 7 24 6 25 5 26 4 27 3 28 2 29 1 30
REMARK H PARENT
REMARK Flexibility Score: inf
ROOT
ATOM      1  C   UNL     1      12.409  14.611  68.245  1.00  0.00     0.000 C 
ENDROOT
BRANCH   1   2
ATOM      2  C   UNL     1      13.214  15.134  67.038  1.00  0.00     0.000 C 
BRANCH   2   3
ATOM      3  C   UNL     1      12.766  16.506  66.498  1.00  0.00     0.000 C 
BRANCH   3   4
ATOM      4  C   UNL     1      11.313  16.897  66.823  1.00  0.00     0.000 C 
BRANCH   4   5
ATOM      5  C   UNL     1      11.146  18.402  67.096  1.00  0.00     0.000 C 
BRANCH   5   6
ATOM      6  C   UNL     1      10.617  18.704  68.510  1.00  0.00     0.000 C 
BRANCH   6   7
ATOM      7  C   UNL     1      11.681  18.728  69.624  1.00  0.00     0.000 C 
BRANCH   7   8
ATOM      8  C   UNL     1      12.043  17.326  70.143  1.00  0.00     0.000 C 
BRANCH   8   9
ATOM      9  C   UNL     1      13.391  17.293  70.886  1.00  0.00     0.000 C 
BRANCH   9  10
ATOM     10  C   UNL     1      14.447  16.336  70.298  1.00  0.00     0.000 C 
BRANCH  10  11
ATOM     11  C   UNL     1      14.483  14.934  70.932  1.00  0.00     0.000 C 
BRANCH  11  12
ATOM     12  C   UNL     1      15.559  14.026  70.313  1.00  0.00     0.006 C 
BRANCH  12  13
ATOM     13  C   UNL     1      16.634  14.827  69.567  1.00  0.00     0.053 C 
BRANCH  13  14
ATOM     14  C   UNL     1      17.975  14.166  69.653  1.00  0.00     0.041 C 
ATOM     15  O   UNL     1      18.072  12.912  69.567  1.00  0.00    -0.550 OA
ATOM     16  O   UNL     1      19.123  14.935  69.795  1.00  0.00    -0.550 OA
ENDBRANCH  13  14
ENDBRANCH  12  13
ENDBRANCH  11  12
ENDBRANCH  10  11
ENDBRANCH   9  10
ENDBRANCH   8   9
ENDBRANCH   7   8
ENDBRANCH   6   7
ENDBRANCH   5   6
ENDBRANCH   4   5
ENDBRANCH   3   4
ENDBRANCH   2   3
ENDBRANCH   1   2
BRANCH   1  17
ATOM     17  C   UNL     1      11.623  13.311  67.988  1.00  0.00     0.000 C 
BRANCH  17  18
ATOM     18  C   UNL     1      10.533  12.993  69.032  1.00  0.00     0.000 C 
BRANCH  18  19
ATOM     19  C   UNL     1      10.503  13.941  70.247  1.00  0.00     0.000 C 
BRANCH  19  20
ATOM     20  C   UNL     1      11.253  13.429  71.493  1.00  0.00     0.000 C 
BRANCH  20  21
ATOM     21  C   UNL     1      10.882  14.127  72.815  1.00  0.00     0.000 C 
BRANCH  21  22
ATOM     22  C   UNL     1      11.188  15.634  72.800  1.00  0.00    -0.000 C 
BRANCH  22  23
ATOM     23  C   UNL     1       9.971  16.496  73.186  1.00  0.00    -0.000 C 
BRANCH  23  24
ATOM     24  C   UNL     1       9.125  17.010  72.004  1.00  0.00    -0.000 C 
BRANCH  24  25
ATOM     25  C   UNL     1       8.915  18.534  71.964  1.00  0.00    -0.000 C 
BRANCH  25  26
ATOM     26  C   UNL     1       7.477  18.947  72.313  1.00  0.00    -0.000 C 
BRANCH  26  27
ATOM     27  C   UNL     1       6.575  17.711  72.466  1.00  0.00    -0.000 C 
BRANCH  27  28
ATOM     28  C   UNL     1       5.780  17.717  73.781  1.00  0.00    -0.000 C 
BRANCH  28  29
ATOM     29  C   UNL     1       6.683  17.602  75.018  1.00  0.00    -0.003 C 
ATOM     30  C   UNL     1       7.175  16.170  75.206  1.00  0.00     0.004 C 
ENDBRANCH  28  29
ENDBRANCH  27  28
ENDBRANCH  26  27
ENDBRANCH  25  26
ENDBRANCH  24  25
ENDBRANCH  23  24
ENDBRANCH  22  23
ENDBRANCH  21  22
ENDBRANCH  20  21
ENDBRANCH  19  20
ENDBRANCH  18  19
ENDBRANCH  17  18
ENDBRANCH   1  17
TORSDOF 26
ENDMDL
MODEL 7
REMARK VINA RESULT:    -4.030      1.293      3.887
REMARK INTER + INTRA:         -13.881
REMARK INTER:                 -10.259
REMARK INTRA:                  -3.623
REMARK UNBOUND:                -3.726
REMARK SMILES CCCCCCCCCCCCCCCCCCCCCCCCCCCC(=O)[O-]
REMARK SMILES IDX 15 1 16 2 17 3 18 4 19 5 20 6 21 7 22 8 23 9 24 10 25 11
REMARK SMILES IDX 26 12 27 13 28 14 29 15 30 16 14 17 13 18 12 19 11 20 10 21
REMARK SMILES IDX 9 22 8 23 7 24 6 25 5 26 4 27 3 28 2 29 1 30
REMARK H PARENT
REMARK Flexibility Score: inf
ROOT
ATOM      1  C   UNL     1      11.296  13.617  67.628  1.00  0.00     0.000 C 
ENDROOT
BRANCH   1   2
ATOM      2  C   UNL     1      10.984  15.127  67.650  1.00  0.00     0.000 C 
BRANCH   2   3
ATOM      3  C   UNL     1      12.048  16.024  66.988  1.00  0.00     0.000 C 
BRANCH   3   4
ATOM      4  C   UNL     1      11.591  17.457  66.665  1.00  0.00     0.000 C 
BRANCH   4   5
ATOM      5  C   UNL     1      10.534  17.984  67.652  1.00  0.00     0.000 C 
BRANCH   5   6
ATOM      6  C   UNL     1      11.058  19.125  68.544  1.00  0.00     0.000 C 
BRANCH   6   7
ATOM      7  C   UNL     1      10.778  18.970  70.051  1.00  0.00     0.000 C 
BRANCH   7   8
ATOM      8  C   UNL     1       9.471  18.216  70.347  1.00  0.00     0.000 C 
BRANCH   8   9
ATOM      9  C   UNL     1       8.824  18.640  71.679  1.00  0.00     0.000 C 
BRANCH   9  10
ATOM     10  C   UNL     1       7.386  18.133  71.906  1.00  0.00     0.000 C 
BRANCH  10  11
ATOM     11  C   UNL     1       6.691  18.682  73.164  1.00  0.00     0.000 C 
BRANCH  11  12
ATOM     12  C   UNL     1       5.583  17.752  73.688  1.00  0.00     0.006 C 
BRANCH  12  13
ATOM     13  C   UNL     1       6.081  16.316  73.897  1.00  0.00     0.053 C 
BRANCH  13  14
ATOM     14  C   UNL     1       7.175  16.254  74.918  1.00  0.00     0.041 C 
ATOM     15  O   UNL     1       6.897  16.204  76.145  1.00  0.00    -0.550 OA
ATOM     16  O   UNL     1       8.503  16.217  74.512  1.00  0.00    -0.550 OA
ENDBRANCH  13  14
ENDBRANCH  12  13
ENDBRANCH  11  12
ENDBRANCH  10  11
ENDBRANCH   9  10
ENDBRANCH   8   9
ENDBRANCH   7   8
ENDBRANCH   6   7
ENDBRANCH   5   6
ENDBRANCH   4   5
ENDBRANCH   3   4
ENDBRANCH   2   3
ENDBRANCH   1   2
BRANCH   1  17
ATOM     17  C   UNL     1      10.149  12.709  68.113  1.00  0.00     0.000 C 
BRANCH  17  18
ATOM     18  C   UNL     1      10.282  12.212  69.566  1.00  0.00     0.000 C 
BRANCH  18  19
ATOM     19  C   UNL     1      11.184  13.077  70.468  1.00  0.00     0.000 C 
BRANCH  19  20
ATOM     20  C   UNL     1      10.953  12.904  71.983  1.00  0.00     0.000 C 
BRANCH  20  21
ATOM     21  C   UNL     1      11.125  14.183  72.823  1.00  0.00     0.000 C 
BRANCH  21  22
ATOM     22  C   UNL     1      11.066  15.466  71.977  1.00  0.00    -0.000 C 
BRANCH  22  23
ATOM     23  C   UNL     1      12.053  16.545  72.457  1.00  0.00    -0.000 C 
BRANCH  23  24
ATOM     24  C   UNL     1      13.301  16.738  71.571  1.00  0.00    -0.000 C 
BRANCH  24  25
ATOM     25  C   UNL     1      13.118  16.357  70.092  1.00  0.00    -0.000 C 
BRANCH  25  26
ATOM     26  C   UNL     1      14.294  15.537  69.538  1.00  0.00    -0.000 C 
BRANCH  26  27
ATOM     27  C   UNL     1      14.589  14.326  70.438  1.00  0.00    -0.000 C 
BRANCH  27  28
ATOM     28  C   UNL     1      16.094  14.064  70.605  1.00  0.00    -0.000 C 
BRANCH  28  29
ATOM     29  C   UNL     1      16.925  14.636  69.447  1.00  0.00    -0.003 C 
ATOM     30  C   UNL     1      18.419  14.519  69.734  1.00  0.00     0.004 C 
ENDBRANCH  28  29
ENDBRANCH  27  28
ENDBRANCH  26  27
ENDBRANCH  25  26
ENDBRANCH  24  25
ENDBRANCH  23  24
ENDBRANCH  22  23
ENDBRANCH  21  22
ENDBRANCH  20  21
ENDBRANCH  19  20
ENDBRANCH  18  19
ENDBRANCH  17  18
ENDBRANCH   1  17
TORSDOF 26
ENDMDL
MODEL 8
REMARK VINA RESULT:    -4.007      3.957      7.601
REMARK INTER + INTRA:         -13.824
REMARK INTER:                 -10.194
REMARK INTRA:                  -3.630
REMARK UNBOUND:                -3.726
REMARK SMILES CCCCCCCCCCCCCCCCCCCCCCCCCCCC(=O)[O-]
REMARK SMILES IDX 15 1 16 2 17 3 18 4 19 5 20 6 21 7 22 8 23 9 24 10 25 11
REMARK SMILES IDX 26 12 27 13 28 14 29 15 30 16 14 17 13 18 12 19 11 20 10 21
REMARK SMILES IDX 9 22 8 23 7 24 6 25 5 26 4 27 3 28 2 29 1 30
REMARK H PARENT
REMARK Flexibility Score: inf
ROOT
ATOM      1  C   UNL     1      13.606  13.598  69.882  1.00  0.00     0.000 C 
ENDROOT
BRANCH   1   2
ATOM      2  C   UNL     1      12.416  13.507  70.859  1.00  0.00     0.000 C 
BRANCH   2   3
ATOM      3  C   UNL     1      11.099  13.001  70.240  1.00  0.00     0.000 C 
BRANCH   3   4
ATOM      4  C   UNL     1      11.139  12.753  68.721  1.00  0.00     0.000 C 
BRANCH   4   5
ATOM      5  C   UNL     1      10.161  13.649  67.943  1.00  0.00     0.000 C 
BRANCH   5   6
ATOM      6  C   UNL     1       9.618  14.821  68.782  1.00  0.00     0.000 C 
BRANCH   6   7
ATOM      7  C   UNL     1       9.520  16.172  68.049  1.00  0.00     0.000 C 
BRANCH   7   8
ATOM      8  C   UNL     1      10.730  17.086  68.304  1.00  0.00     0.000 C 
BRANCH   8   9
ATOM      9  C   UNL     1      11.242  17.772  67.024  1.00  0.00     0.000 C 
BRANCH   9  10
ATOM     10  C   UNL     1      12.332  17.000  66.252  1.00  0.00     0.000 C 
BRANCH  10  11
ATOM     11  C   UNL     1      12.865  15.742  66.959  1.00  0.00     0.000 C 
BRANCH  11  12
ATOM     12  C   UNL     1      14.272  15.341  66.484  1.00  0.00     0.006 C 
BRANCH  12  13
ATOM     13  C   UNL     1      14.521  15.725  65.020  1.00  0.00     0.053 C 
BRANCH  13  14
ATOM     14  C   UNL     1      15.963  15.571  64.646  1.00  0.00     0.041 C 
ATOM     15  O   UNL     1      16.658  14.653  65.158  1.00  0.00    -0.550 OA
ATOM     16  O   UNL     1      16.532  16.420  63.705  1.00  0.00    -0.550 OA
ENDBRANCH  13  14
ENDBRANCH  12  13
ENDBRANCH  11  12
ENDBRANCH  10  11
ENDBRANCH   9  10
ENDBRANCH   8   9
ENDBRANCH   7   8
ENDBRANCH   6   7
ENDBRANCH   5   6
ENDBRANCH   4   5
ENDBRANCH   3   4
ENDBRANCH   2   3
ENDBRANCH   1   2
BRANCH   1  17
ATOM     17  C   UNL     1      14.641  14.689  70.217  1.00  0.00     0.000 C 
BRANCH  17  18
ATOM     18  C   UNL     1      14.119  16.136  70.115  1.00  0.00     0.000 C 
BRANCH  18  19
ATOM     19  C   UNL     1      13.419  16.663  71.383  1.00  0.00     0.000 C 
BRANCH  19  20
ATOM     20  C   UNL     1      11.940  17.059  71.196  1.00  0.00     0.000 C 
BRANCH  20  21
ATOM     21  C   UNL     1      10.928  16.210  71.988  1.00  0.00     0.000 C 
BRANCH  21  22
ATOM     22  C   UNL     1       9.731  17.029  72.499  1.00  0.00    -0.000 C 
BRANCH  22  23
ATOM     23  C   UNL     1       9.447  18.274  71.638  1.00  0.00    -0.000 C 
BRANCH  23  24
ATOM     24  C   UNL     1       7.956  18.614  71.442  1.00  0.00    -0.000 C 
BRANCH  24  25
ATOM     25  C   UNL     1       6.969  17.621  72.082  1.00  0.00    -0.000 C 
BRANCH  25  26
ATOM     26  C   UNL     1       5.605  18.256  72.396  1.00  0.00    -0.000 C 
BRANCH  26  27
ATOM     27  C   UNL     1       5.162  17.920  73.829  1.00  0.00    -0.000 C 
BRANCH  27  28
ATOM     28  C   UNL     1       5.712  16.571  74.318  1.00  0.00    -0.000 C 
BRANCH  28  29
ATOM     29  C   UNL     1       6.704  16.723  75.479  1.00  0.00    -0.003 C 
ATOM     30  C   UNL     1       7.841  15.711  75.366  1.00  0.00     0.004 C 
ENDBRANCH  28  29
ENDBRANCH  27  28
ENDBRANCH  26  27
ENDBRANCH  25  26
ENDBRANCH  24  25
ENDBRANCH  23  24
ENDBRANCH  22  23
ENDBRANCH  21  22
ENDBRANCH  20  21
ENDBRANCH  19  20
ENDBRANCH  18  19
ENDBRANCH  17  18
ENDBRANCH   1  17
TORSDOF 26
ENDMDL
MODEL 9
REMARK VINA RESULT:    -3.781      3.517      7.626
REMARK INTER + INTRA:         -13.255
REMARK INTER:                  -9.677
REMARK INTRA:                  -3.578
REMARK UNBOUND:                -3.726
REMARK SMILES CCCCCCCCCCCCCCCCCCCCCCCCCCCC(=O)[O-]
REMARK SMILES IDX 15 1 16 2 17 3 18 4 19 5 20 6 21 7 22 8 23 9 24 10 25 11
REMARK SMILES IDX 26 12 27 13 28 14 29 15 30 16 14 17 13 18 12 19 11 20 10 21
REMARK SMILES IDX 9 22 8 23 7 24 6 25 5 26 4 27 3 28 2 29 1 30
REMARK H PARENT
REMARK Flexibility Score: inf
ROOT
ATOM      1  C   UNL     1      11.452  18.739  69.414  1.00  0.00     0.000 C 
ENDROOT
BRANCH   1   2
ATOM      2  C   UNL     1      11.865  17.333  69.891  1.00  0.00     0.000 C 
BRANCH   2   3
ATOM      3  C   UNL     1      12.871  17.307  71.058  1.00  0.00     0.000 C 
BRANCH   3   4
ATOM      4  C   UNL     1      12.482  16.403  72.242  1.00  0.00     0.000 C 
BRANCH   4   5
ATOM      5  C   UNL     1      11.193  15.604  71.984  1.00  0.00     0.000 C 
BRANCH   5   6
ATOM      6  C   UNL     1      11.262  14.160  72.516  1.00  0.00     0.000 C 
BRANCH   6   7
ATOM      7  C   UNL     1      11.228  13.056  71.442  1.00  0.00     0.000 C 
BRANCH   7   8
ATOM      8  C   UNL     1      10.872  13.586  70.043  1.00  0.00     0.000 C 
BRANCH   8   9
ATOM      9  C   UNL     1      11.890  13.164  68.967  1.00  0.00     0.000 C 
BRANCH   9  10
ATOM     10  C   UNL     1      13.362  13.136  69.424  1.00  0.00     0.000 C 
BRANCH  10  11
ATOM     11  C   UNL     1      14.085  14.493  69.379  1.00  0.00     0.000 C 
BRANCH  11  12
ATOM     12  C   UNL     1      15.318  14.544  70.298  1.00  0.00     0.006 C 
BRANCH  12  13
ATOM     13  C   UNL     1      16.519  15.216  69.620  1.00  0.00     0.053 C 
BRANCH  13  14
ATOM     14  C   UNL     1      17.752  14.372  69.716  1.00  0.00     0.041 C 
ATOM     15  O   UNL     1      18.892  14.900  69.633  1.00  0.00    -0.550 OA
ATOM     16  O   UNL     1      17.643  13.004  69.934  1.00  0.00    -0.550 OA
ENDBRANCH  13  14
ENDBRANCH  12  13
ENDBRANCH  11  12
ENDBRANCH  10  11
ENDBRANCH   9  10
ENDBRANCH   8   9
ENDBRANCH   7   8
ENDBRANCH   6   7
ENDBRANCH   5   6
ENDBRANCH   4   5
ENDBRANCH   3   4
ENDBRANCH   2   3
ENDBRANCH   1   2
BRANCH   1  17
ATOM     17  C   UNL     1      10.895  18.802  67.979  1.00  0.00     0.000 C 
BRANCH  17  18
ATOM     18  C   UNL     1      11.658  17.947  66.947  1.00  0.00     0.000 C 
BRANCH  18  19
ATOM     19  C   UNL     1      11.278  16.454  66.935  1.00  0.00     0.000 C 
BRANCH  19  20
ATOM     20  C   UNL     1       9.773  16.161  67.108  1.00  0.00     0.000 C 
BRANCH  20  21
ATOM     21  C   UNL     1       9.386  15.482  68.435  1.00  0.00     0.000 C 
BRANCH  21  22
ATOM     22  C   UNL     1       8.201  16.169  69.135  1.00  0.00    -0.000 C 
BRANCH  22  23
ATOM     23  C   UNL     1       8.523  16.591  70.580  1.00  0.00    -0.000 C 
BRANCH  23  24
ATOM     24  C   UNL     1       8.223  18.065  70.919  1.00  0.00    -0.000 C 
BRANCH  24  25
ATOM     25  C   UNL     1       8.959  18.615  72.154  1.00  0.00    -0.000 C 
BRANCH  25  26
ATOM     26  C   UNL     1       8.021  18.864  73.345  1.00  0.00    -0.000 C 
BRANCH  26  27
ATOM     27  C   UNL     1       6.549  18.792  72.907  1.00  0.00    -0.000 C 
BRANCH  27  28
ATOM     28  C   UNL     1       5.663  18.058  73.925  1.00  0.00    -0.000 C 
BRANCH  28  29
ATOM     29  C   UNL     1       6.074  16.591  74.118  1.00  0.00    -0.003 C 
ATOM     30  C   UNL     1       6.940  16.424  75.364  1.00  0.00     0.004 C 
ENDBRANCH  28  29
ENDBRANCH  27  28
ENDBRANCH  26  27
ENDBRANCH  25  26
ENDBRANCH  24  25
ENDBRANCH  23  24
ENDBRANCH  22  23
ENDBRANCH  21  22
ENDBRANCH  20  21
ENDBRANCH  19  20
ENDBRANCH  18  19
ENDBRANCH  17  18
ENDBRANCH   1  17
TORSDOF 26
ENDMDL
