MODEL 1
REMARK VINA RESULT:    -7.164      0.000      0.000
REMARK INTER + INTRA:         -11.643
REMARK INTER:                  -9.886
REMARK INTRA:                  -1.757
REMARK UNBOUND:                -1.757
REMARK SMILES CC[C@@H](CC[C@@H](C)[C@H]1CC[C@@H]2[C@H]3CC=C4C[C@@H](O)CC[C@]4(C)[C@@H]3CC[C@]21C)C(C)C
REMARK SMILES IDX 5 1 4 2 3 3 2 4 1 5 28 6 29 7 30 8 6 9 7 10 8 11 9 12 26 13
REMARK SMILES IDX 10 14 11 15 25 16 27 17 12 18 24 19 23 20 13 21 21 22 14 23
REMARK SMILES IDX 15 24 20 25 22 26 16 27 19 28 17 29 18 30
REMARK H PARENT 18 31
REMARK Flexibility Score: inf
ROOT
ATOM      1  C   UNL     1      47.099   9.461  20.845  1.00  0.00     0.004 C 
ENDROOT
BRANCH   1   2
ATOM      2  C   UNL     1      48.029   8.864  19.763  1.00  0.00     0.004 C 
BRANCH   2   3
ATOM      3  C   UNL     1      49.313   9.717  19.537  1.00  0.00    -0.009 C 
BRANCH   3   4
ATOM      4  C   UNL     1      48.908  11.153  19.081  1.00  0.00     0.000 C 
ATOM      5  C   UNL     1      49.988  11.904  18.303  1.00  0.00     0.004 C 
ENDBRANCH   3   4
BRANCH   3   6
ATOM      6  C   UNL     1      50.300   8.972  18.571  1.00  0.00    -0.014 C 
ATOM      7  C   UNL     1      49.604   8.352  17.347  1.00  0.00     0.007 C 
ATOM      8  C   UNL     1      51.190   7.938  19.277  1.00  0.00     0.007 C 
ENDBRANCH   3   6
ENDBRANCH   2   3
ENDBRANCH   1   2
BRANCH   1   9
ATOM      9  C   UNL     1      47.633   9.211  22.291  1.00  0.00    -0.011 C 
ATOM     10  C   UNL     1      47.504  10.530  23.099  1.00  0.00     0.008 C 
BRANCH   9  11
ATOM     11  C   UNL     1      46.882   8.024  22.996  1.00  0.00    -0.002 C 
ATOM     12  C   UNL     1      45.439   7.806  22.443  1.00  0.00     0.005 C 
ATOM     13  C   UNL     1      47.540   6.587  22.928  1.00  0.00    -0.026 C 
ATOM     14  C   UNL     1      45.269   6.319  22.146  1.00  0.00     0.005 C 
ATOM     15  C   UNL     1      46.689   5.882  21.861  1.00  0.00    -0.001 C 
ATOM     16  C   UNL     1      49.015   6.456  22.459  1.00  0.00     0.007 C 
ATOM     17  C   UNL     1      47.395   5.953  24.349  1.00  0.00     0.012 C 
ATOM     18  C   UNL     1      46.975   4.367  21.729  1.00  0.00     0.000 C 
ATOM     19  C   UNL     1      49.431   4.979  22.257  1.00  0.00     0.005 C 
ATOM     20  C   UNL     1      48.465   4.177  21.326  1.00  0.00     0.003 C 
ATOM     21  C   UNL     1      46.096   3.751  20.631  1.00  0.00     0.031 C 
ATOM     22  C   UNL     1      48.850   2.649  21.145  1.00  0.00    -0.008 C 
ATOM     23  C   UNL     1      46.439   2.313  20.407  1.00  0.00    -0.027 C 
ATOM     24  C   UNL     1      47.678   1.812  20.594  1.00  0.00    -0.065 C 
ATOM     25  C   UNL     1      49.283   2.001  22.501  1.00  0.00     0.014 C 
ATOM     26  C   UNL     1      50.027   2.575  20.137  1.00  0.00     0.016 C 
ATOM     27  C   UNL     1      47.865   0.311  20.503  1.00  0.00     0.063 C 
ATOM     28  C   UNL     1      49.462   0.470  22.441  1.00  0.00     0.033 C 
ATOM     29  C   UNL     1      48.216  -0.236  21.890  1.00  0.00     0.118 C 
BRANCH  29  30
ATOM     30  O   UNL     1      48.468  -1.615  21.803  1.00  0.00    -0.393 OA
ATOM     31  H   UNL     1      48.776  -1.908  22.702  1.00  0.00     0.210 HD
ENDBRANCH  29  30
ENDBRANCH   9  11
ENDBRANCH   1   9
TORSDOF 7
ENDMDL
MODEL 2
REMARK VINA RESULT:    -7.114      3.723      8.280
REMARK INTER + INTRA:         -11.574
REMARK INTER:                  -8.343
REMARK INTRA:                  -3.232
REMARK UNBOUND:                -1.757
REMARK SMILES CC[C@@H](CC[C@@H](C)[C@H]1CC[C@@H]2[C@H]3CC=C4C[C@@H](O)CC[C@]4(C)[C@@H]3CC[C@]21C)C(C)C
REMARK SMILES IDX 5 1 4 2 3 3 2 4 1 5 28 6 29 7 30 8 6 9 7 10 8 11 9 12 26 13
REMARK SMILES IDX 10 14 11 15 25 16 27 17 12 18 24 19 23 20 13 21 21 22 14 23
REMARK SMILES IDX 15 24 20 25 22 26 16 27 19 28 17 29 18 30
REMARK H PARENT 18 31
REMARK Flexibility Score: inf
ROOT
ATOM      1  C   UNL     1      46.902  -1.030  22.715  1.00  0.00     0.004 C 
ENDROOT
BRANCH   1   2
ATOM      2  C   UNL     1      46.345  -0.549  24.075  1.00  0.00     0.004 C 
BRANCH   2   3
ATOM      3  C   UNL     1      45.182   0.477  23.920  1.00  0.00    -0.009 C 
BRANCH   3   4
ATOM      4  C   UNL     1      44.711   0.505  22.433  1.00  0.00     0.000 C 
ATOM      5  C   UNL     1      43.249   0.111  22.219  1.00  0.00     0.004 C 
ENDBRANCH   3   4
BRANCH   3   6
ATOM      6  C   UNL     1      45.603   1.871  24.505  1.00  0.00    -0.014 C 
ATOM      7  C   UNL     1      46.163   1.789  25.935  1.00  0.00     0.007 C 
ATOM      8  C   UNL     1      44.502   2.937  24.408  1.00  0.00     0.007 C 
ENDBRANCH   3   6
ENDBRANCH   2   3
ENDBRANCH   1   2
BRANCH   1   9
ATOM      9  C   UNL     1      48.460  -0.945  22.649  1.00  0.00    -0.011 C 
ATOM     10  C   UNL     1      49.006  -2.298  22.121  1.00  0.00     0.008 C 
BRANCH   9  11
ATOM     11  C   UNL     1      48.944   0.260  21.762  1.00  0.00    -0.002 C 
ATOM     12  C   UNL     1      47.889   0.688  20.693  1.00  0.00     0.005 C 
ATOM     13  C   UNL     1      49.320   1.612  22.491  1.00  0.00    -0.026 C 
ATOM     14  C   UNL     1      47.732   2.203  20.768  1.00  0.00     0.005 C 
ATOM     15  C   UNL     1      48.096   2.495  22.207  1.00  0.00    -0.001 C 
ATOM     16  C   UNL     1      49.502   1.610  24.034  1.00  0.00     0.007 C 
ATOM     17  C   UNL     1      50.629   2.140  21.821  1.00  0.00     0.012 C 
ATOM     18  C   UNL     1      48.275   3.973  22.631  1.00  0.00     0.000 C 
ATOM     19  C   UNL     1      49.665   3.040  24.602  1.00  0.00     0.005 C 
ATOM     20  C   UNL     1      48.530   4.022  24.163  1.00  0.00     0.003 C 
ATOM     21  C   UNL     1      47.000   4.774  22.328  1.00  0.00     0.031 C 
ATOM     22  C   UNL     1      48.706   5.505  24.698  1.00  0.00    -0.008 C 
ATOM     23  C   UNL     1      47.110   6.176  22.835  1.00  0.00    -0.027 C 
ATOM     24  C   UNL     1      47.837   6.514  23.920  1.00  0.00    -0.065 C 
ATOM     25  C   UNL     1      50.189   5.986  24.580  1.00  0.00     0.014 C 
ATOM     26  C   UNL     1      48.273   5.525  26.188  1.00  0.00     0.016 C 
ATOM     27  C   UNL     1      48.012   7.986  24.235  1.00  0.00     0.063 C 
ATOM     28  C   UNL     1      50.393   7.486  24.878  1.00  0.00     0.033 C 
ATOM     29  C   UNL     1      49.479   8.374  24.023  1.00  0.00     0.118 C 
BRANCH  29  30
ATOM     30  O   UNL     1      49.669   9.717  24.387  1.00  0.00    -0.393 OA
ATOM     31  H   UNL     1      48.890  10.223  24.033  1.00  0.00     0.210 HD
ENDBRANCH  29  30
ENDBRANCH   9  11
ENDBRANCH   1   9
TORSDOF 7
ENDMDL
MODEL 3
REMARK VINA RESULT:    -7.087      3.713      8.124
REMARK INTER + INTRA:         -11.538
REMARK INTER:                  -8.523
REMARK INTRA:                  -3.015
REMARK UNBOUND:                -1.757
REMARK SMILES CC[C@@H](CC[C@@H](C)[C@H]1CC[C@@H]2[C@H]3CC=C4C[C@@H](O)CC[C@]4(C)[C@@H]3CC[C@]21C)C(C)C
REMARK SMILES IDX 5 1 4 2 3 3 2 4 1 5 28 6 29 7 30 8 6 9 7 10 8 11 9 12 26 13
REMARK SMILES IDX 10 14 11 15 25 16 27 17 12 18 24 19 23 20 13 21 21 22 14 23
REMARK SMILES IDX 15 24 20 25 22 26 16 27 19 28 17 29 18 30
REMARK H PARENT 18 31
REMARK Flexibility Score: inf
ROOT
ATOM      1  C   UNL     1      46.992  -1.016  22.548  1.00  0.00     0.004 C 
ENDROOT
BRANCH   1   2
ATOM      2  C   UNL     1      46.322  -0.317  23.754  1.00  0.00     0.004 C 
BRANCH   2   3
ATOM      3  C   UNL     1      45.544   0.970  23.347  1.00  0.00    -0.009 C 
BRANCH   3   4
ATOM      4  C   UNL     1      44.863   1.585  24.608  1.00  0.00     0.000 C 
ATOM      5  C   UNL     1      45.047   3.095  24.761  1.00  0.00     0.004 C 
ENDBRANCH   3   4
BRANCH   3   6
ATOM      6  C   UNL     1      44.570   0.665  22.155  1.00  0.00    -0.014 C 
ATOM      7  C   UNL     1      44.319   1.878  21.244  1.00  0.00     0.007 C 
ATOM      8  C   UNL     1      43.243   0.024  22.592  1.00  0.00     0.007 C 
ENDBRANCH   3   6
ENDBRANCH   2   3
ENDBRANCH   1   2
BRANCH   1   9
ATOM      9  C   UNL     1      48.550  -0.922  22.599  1.00  0.00    -0.011 C 
ATOM     10  C   UNL     1      49.142  -2.273  22.117  1.00  0.00     0.008 C 
BRANCH   9  11
ATOM     11  C   UNL     1      49.093   0.284  21.748  1.00  0.00    -0.002 C 
ATOM     12  C   UNL     1      48.112   0.714  20.612  1.00  0.00     0.005 C 
ATOM     13  C   UNL     1      49.421   1.635  22.503  1.00  0.00    -0.026 C 
ATOM     14  C   UNL     1      47.951   2.230  20.679  1.00  0.00     0.005 C 
ATOM     15  C   UNL     1      48.218   2.519  22.139  1.00  0.00    -0.001 C 
ATOM     16  C   UNL     1      49.499   1.630  24.054  1.00  0.00     0.007 C 
ATOM     17  C   UNL     1      50.772   2.163  21.922  1.00  0.00     0.012 C 
ATOM     18  C   UNL     1      48.369   3.996  22.576  1.00  0.00     0.000 C 
ATOM     19  C   UNL     1      49.625   3.059  24.634  1.00  0.00     0.005 C 
ATOM     20  C   UNL     1      48.522   4.042  24.123  1.00  0.00     0.003 C 
ATOM     21  C   UNL     1      47.118   4.799  22.191  1.00  0.00     0.031 C 
ATOM     22  C   UNL     1      48.662   5.525  24.670  1.00  0.00    -0.008 C 
ATOM     23  C   UNL     1      47.194   6.200  22.706  1.00  0.00    -0.027 C 
ATOM     24  C   UNL     1      47.848   6.535  23.838  1.00  0.00    -0.065 C 
ATOM     25  C   UNL     1      50.150   6.005  24.653  1.00  0.00     0.014 C 
ATOM     26  C   UNL     1      48.130   5.542  26.128  1.00  0.00     0.016 C 
ATOM     27  C   UNL     1      48.002   8.007  24.166  1.00  0.00     0.063 C 
ATOM     28  C   UNL     1      50.335   7.504  24.966  1.00  0.00     0.033 C 
ATOM     29  C   UNL     1      49.480   8.394  24.054  1.00  0.00     0.118 C 
BRANCH  29  30
ATOM     30  O   UNL     1      49.646   9.736  24.431  1.00  0.00    -0.393 OA
ATOM     31  H   UNL     1      50.619   9.932  24.377  1.00  0.00     0.210 HD
ENDBRANCH  29  30
ENDBRANCH   9  11
ENDBRANCH   1   9
TORSDOF 7
ENDMDL
MODEL 4
REMARK VINA RESULT:    -7.033      3.139      4.584
REMARK INTER + INTRA:         -11.463
REMARK INTER:                  -8.350
REMARK INTRA:                  -3.113
REMARK UNBOUND:                -1.757
REMARK SMILES CC[C@@H](CC[C@@H](C)[C@H]1CC[C@@H]2[C@H]3CC=C4C[C@@H](O)CC[C@]4(C)[C@@H]3CC[C@]21C)C(C)C
REMARK SMILES IDX 5 1 4 2 3 3 2 4 1 5 28 6 29 7 30 8 6 9 7 10 8 11 9 12 26 13
REMARK SMILES IDX 10 14 11 15 25 16 27 17 12 18 24 19 23 20 13 21 21 22 14 23
REMARK SMILES IDX 15 24 20 25 22 26 16 27 19 28 17 29 18 30
REMARK H PARENT 18 31
REMARK Flexibility Score: inf
ROOT
ATOM      1  C   UNL     1      46.857   9.150  25.742  1.00  0.00     0.004 C 
ENDROOT
BRANCH   1   2
ATOM      2  C   UNL     1      47.868   9.095  24.573  1.00  0.00     0.004 C 
BRANCH   2   3
ATOM      3  C   UNL     1      47.943   7.688  23.907  1.00  0.00    -0.009 C 
BRANCH   3   4
ATOM      4  C   UNL     1      49.367   7.088  24.121  1.00  0.00     0.000 C 
ATOM      5  C   UNL     1      50.319   7.975  24.924  1.00  0.00     0.004 C 
ENDBRANCH   3   4
BRANCH   3   6
ATOM      6  C   UNL     1      47.479   7.768  22.410  1.00  0.00    -0.014 C 
ATOM      7  C   UNL     1      46.067   8.353  22.239  1.00  0.00     0.007 C 
ATOM      8  C   UNL     1      47.618   6.440  21.651  1.00  0.00     0.007 C 
ENDBRANCH   3   6
ENDBRANCH   2   3
ENDBRANCH   1   2
BRANCH   1   9
ATOM      9  C   UNL     1      46.826   7.821  26.562  1.00  0.00    -0.011 C 
ATOM     10  C   UNL     1      47.238   8.135  28.024  1.00  0.00     0.008 C 
BRANCH   9  11
ATOM     11  C   UNL     1      45.419   7.123  26.493  1.00  0.00    -0.002 C 
ATOM     12  C   UNL     1      44.368   7.955  25.693  1.00  0.00     0.005 C 
ATOM     13  C   UNL     1      45.338   5.682  25.848  1.00  0.00    -0.026 C 
ATOM     14  C   UNL     1      43.684   7.019  24.702  1.00  0.00     0.005 C 
ATOM     15  C   UNL     1      44.748   5.971  24.460  1.00  0.00    -0.001 C 
ATOM     16  C   UNL     1      46.654   4.893  25.601  1.00  0.00     0.007 C 
ATOM     17  C   UNL     1      44.392   4.830  26.754  1.00  0.00     0.012 C 
ATOM     18  C   UNL     1      44.357   4.702  23.665  1.00  0.00     0.000 C 
ATOM     19  C   UNL     1      46.412   3.601  24.784  1.00  0.00     0.005 C 
ATOM     20  C   UNL     1      45.632   3.839  23.450  1.00  0.00     0.003 C 
ATOM     21  C   UNL     1      43.795   5.085  22.288  1.00  0.00     0.031 C 
ATOM     22  C   UNL     1      45.333   2.519  22.622  1.00  0.00    -0.008 C 
ATOM     23  C   UNL     1      43.519   3.871  21.460  1.00  0.00    -0.027 C 
ATOM     24  C   UNL     1      44.226   2.727  21.569  1.00  0.00    -0.065 C 
ATOM     25  C   UNL     1      44.873   1.349  23.552  1.00  0.00     0.014 C 
ATOM     26  C   UNL     1      46.641   2.115  21.891  1.00  0.00     0.016 C 
ATOM     27  C   UNL     1      43.745   1.512  20.802  1.00  0.00     0.063 C 
ATOM     28  C   UNL     1      44.361   0.105  22.797  1.00  0.00     0.033 C 
ATOM     29  C   UNL     1      43.252   0.455  21.796  1.00  0.00     0.118 C 
BRANCH  29  30
ATOM     30  O   UNL     1      42.875  -0.706  21.100  1.00  0.00    -0.393 OA
ATOM     31  H   UNL     1      43.715  -1.157  20.819  1.00  0.00     0.210 HD
ENDBRANCH  29  30
ENDBRANCH   9  11
ENDBRANCH   1   9
TORSDOF 7
ENDMDL
MODEL 5
REMARK VINA RESULT:    -6.981      2.130      3.302
REMARK INTER + INTRA:         -11.391
REMARK INTER:                  -9.138
REMARK INTRA:                  -2.253
REMARK UNBOUND:                -1.757
REMARK SMILES CC[C@@H](CC[C@@H](C)[C@H]1CC[C@@H]2[C@H]3CC=C4C[C@@H](O)CC[C@]4(C)[C@@H]3CC[C@]21C)C(C)C
REMARK SMILES IDX 5 1 4 2 3 3 2 4 1 5 28 6 29 7 30 8 6 9 7 10 8 11 9 12 26 13
REMARK SMILES IDX 10 14 11 15 25 16 27 17 12 18 24 19 23 20 13 21 21 22 14 23
REMARK SMILES IDX 15 24 20 25 22 26 16 27 19 28 17 29 18 30
REMARK H PARENT 18 31
REMARK Flexibility Score: inf
ROOT
ATOM      1  C   UNL     1      49.142   8.520  22.854  1.00  0.00     0.004 C 
ENDROOT
BRANCH   1   2
ATOM      2  C   UNL     1      49.236   7.843  21.467  1.00  0.00     0.004 C 
BRANCH   2   3
ATOM      3  C   UNL     1      48.128   8.330  20.484  1.00  0.00    -0.009 C 
BRANCH   3   4
ATOM      4  C   UNL     1      48.784   8.758  19.135  1.00  0.00     0.000 C 
ATOM      5  C   UNL     1      50.304   8.913  19.186  1.00  0.00     0.004 C 
ENDBRANCH   3   4
BRANCH   3   6
ATOM      6  C   UNL     1      47.240   9.430  21.165  1.00  0.00    -0.014 C 
ATOM      7  C   UNL     1      45.748   9.064  21.218  1.00  0.00     0.007 C 
ATOM      8  C   UNL     1      47.439  10.834  20.574  1.00  0.00     0.007 C 
ENDBRANCH   3   6
ENDBRANCH   2   3
ENDBRANCH   1   2
BRANCH   1   9
ATOM      9  C   UNL     1      49.538   7.552  24.014  1.00  0.00    -0.011 C 
ATOM     10  C   UNL     1      50.428   8.328  25.021  1.00  0.00     0.008 C 
BRANCH   9  11
ATOM     11  C   UNL     1      48.276   6.931  24.716  1.00  0.00    -0.002 C 
ATOM     12  C   UNL     1      47.003   7.825  24.576  1.00  0.00     0.005 C 
ATOM     13  C   UNL     1      47.794   5.501  24.242  1.00  0.00    -0.026 C 
ATOM     14  C   UNL     1      45.853   6.935  24.117  1.00  0.00     0.005 C 
ATOM     15  C   UNL     1      46.573   5.834  23.371  1.00  0.00    -0.001 C 
ATOM     16  C   UNL     1      48.737   4.645  23.354  1.00  0.00     0.007 C 
ATOM     17  C   UNL     1      47.430   4.694  25.530  1.00  0.00     0.012 C 
ATOM     18  C   UNL     1      45.758   4.593  22.932  1.00  0.00     0.000 C 
ATOM     19  C   UNL     1      48.036   3.375  22.816  1.00  0.00     0.005 C 
ATOM     20  C   UNL     1      46.680   3.666  22.093  1.00  0.00     0.003 C 
ATOM     21  C   UNL     1      44.572   5.017  22.053  1.00  0.00     0.031 C 
ATOM     22  C   UNL     1      45.924   2.370  21.577  1.00  0.00    -0.008 C 
ATOM     23  C   UNL     1      43.839   3.827  21.523  1.00  0.00    -0.027 C 
ATOM     24  C   UNL     1      44.439   2.645  21.266  1.00  0.00    -0.065 C 
ATOM     25  C   UNL     1      45.968   1.219  22.634  1.00  0.00     0.014 C 
ATOM     26  C   UNL     1      46.624   1.902  20.273  1.00  0.00     0.016 C 
ATOM     27  C   UNL     1      43.565   1.464  20.896  1.00  0.00     0.063 C 
ATOM     28  C   UNL     1      45.072   0.011  22.292  1.00  0.00     0.033 C 
ATOM     29  C   UNL     1      43.620   0.427  22.022  1.00  0.00     0.118 C 
BRANCH  29  30
ATOM     30  O   UNL     1      42.876  -0.706  21.657  1.00  0.00    -0.393 OA
ATOM     31  H   UNL     1      41.938  -0.404  21.528  1.00  0.00     0.210 HD
ENDBRANCH  29  30
ENDBRANCH   9  11
ENDBRANCH   1   9
TORSDOF 7
ENDMDL
MODEL 6
REMARK VINA RESULT:    -6.967      2.000      4.555
REMARK INTER + INTRA:         -11.371
REMARK INTER:                  -8.534
REMARK INTRA:                  -2.838
REMARK UNBOUND:                -1.757
REMARK SMILES CC[C@@H](CC[C@@H](C)[C@H]1CC[C@@H]2[C@H]3CC=C4C[C@@H](O)CC[C@]4(C)[C@@H]3CC[C@]21C)C(C)C
REMARK SMILES IDX 5 1 4 2 3 3 2 4 1 5 28 6 29 7 30 8 6 9 7 10 8 11 9 12 26 13
REMARK SMILES IDX 10 14 11 15 25 16 27 17 12 18 24 19 23 20 13 21 21 22 14 23
REMARK SMILES IDX 15 24 20 25 22 26 16 27 19 28 17 29 18 30
REMARK H PARENT 18 31
REMARK Flexibility Score: inf
ROOT
ATOM      1  C   UNL     1      47.969  10.490  23.979  1.00  0.00     0.004 C 
ENDROOT
BRANCH   1   2
ATOM      2  C   UNL     1      46.970  10.239  25.131  1.00  0.00     0.004 C 
BRANCH   2   3
ATOM      3  C   UNL     1      45.868   9.201  24.758  1.00  0.00    -0.009 C 
BRANCH   3   4
ATOM      4  C   UNL     1      44.473   9.898  24.775  1.00  0.00     0.000 C 
ATOM      5  C   UNL     1      44.510  11.407  24.536  1.00  0.00     0.004 C 
ENDBRANCH   3   4
BRANCH   3   6
ATOM      6  C   UNL     1      45.983   7.932  25.673  1.00  0.00    -0.014 C 
ATOM      7  C   UNL     1      47.350   7.800  26.365  1.00  0.00     0.007 C 
ATOM      8  C   UNL     1      45.600   6.624  24.962  1.00  0.00     0.007 C 
ENDBRANCH   3   6
ENDBRANCH   2   3
ENDBRANCH   1   2
BRANCH   1   9
ATOM      9  C   UNL     1      47.649   9.625  22.718  1.00  0.00    -0.011 C 
ATOM     10  C   UNL     1      47.374  10.578  21.524  1.00  0.00     0.008 C 
BRANCH   9  11
ATOM     11  C   UNL     1      48.806   8.611  22.394  1.00  0.00    -0.002 C 
ATOM     12  C   UNL     1      49.718   8.318  23.627  1.00  0.00     0.005 C 
ATOM     13  C   UNL     1      48.405   7.176  21.864  1.00  0.00    -0.026 C 
ATOM     14  C   UNL     1      49.879   6.805  23.743  1.00  0.00     0.005 C 
ATOM     15  C   UNL     1      48.606   6.294  23.107  1.00  0.00    -0.001 C 
ATOM     16  C   UNL     1      46.946   6.928  21.391  1.00  0.00     0.007 C 
ATOM     17  C   UNL     1      49.388   6.830  20.699  1.00  0.00     0.012 C 
ATOM     18  C   UNL     1      48.485   4.777  22.827  1.00  0.00     0.000 C 
ATOM     19  C   UNL     1      46.675   5.433  21.100  1.00  0.00     0.005 C 
ATOM     20  C   UNL     1      47.059   4.485  22.283  1.00  0.00     0.003 C 
ATOM     21  C   UNL     1      48.680   3.977  24.123  1.00  0.00     0.031 C 
ATOM     22  C   UNL     1      46.831   2.943  21.985  1.00  0.00    -0.008 C 
ATOM     23  C   UNL     1      48.453   2.517  23.898  1.00  0.00    -0.027 C 
ATOM     24  C   UNL     1      47.597   2.038  22.971  1.00  0.00    -0.065 C 
ATOM     25  C   UNL     1      47.304   2.560  20.544  1.00  0.00     0.014 C 
ATOM     26  C   UNL     1      45.313   2.654  22.126  1.00  0.00     0.016 C 
ATOM     27  C   UNL     1      47.580   0.544  22.716  1.00  0.00     0.063 C 
ATOM     28  C   UNL     1      47.313   1.043  20.264  1.00  0.00     0.033 C 
ATOM     29  C   UNL     1      48.124   0.268  21.311  1.00  0.00     0.118 C 
BRANCH  29  30
ATOM     30  O   UNL     1      48.041  -1.106  21.035  1.00  0.00    -0.393 OA
ATOM     31  H   UNL     1      48.060  -1.577  21.910  1.00  0.00     0.210 HD
ENDBRANCH  29  30
ENDBRANCH   9  11
ENDBRANCH   1   9
TORSDOF 7
ENDMDL
MODEL 7
REMARK VINA RESULT:    -6.952      3.281      7.919
REMARK INTER + INTRA:         -11.351
REMARK INTER:                  -9.010
REMARK INTRA:                  -2.341
REMARK UNBOUND:                -1.757
REMARK SMILES CC[C@@H](CC[C@@H](C)[C@H]1CC[C@@H]2[C@H]3CC=C4C[C@@H](O)CC[C@]4(C)[C@@H]3CC[C@]21C)C(C)C
REMARK SMILES IDX 5 1 4 2 3 3 2 4 1 5 28 6 29 7 30 8 6 9 7 10 8 11 9 12 26 13
REMARK SMILES IDX 10 14 11 15 25 16 27 17 12 18 24 19 23 20 13 21 21 22 14 23
REMARK SMILES IDX 15 24 20 25 22 26 16 27 19 28 17 29 18 30
REMARK H PARENT 18 31
REMARK Flexibility Score: inf
ROOT
ATOM      1  C   UNL     1      48.117   1.790  20.673  1.00  0.00     0.004 C 
ENDROOT
BRANCH   1   2
ATOM      2  C   UNL     1      46.740   2.238  20.130  1.00  0.00     0.004 C 
BRANCH   2   3
ATOM      3  C   UNL     1      45.695   2.471  21.263  1.00  0.00    -0.009 C 
BRANCH   3   4
ATOM      4  C   UNL     1      45.047   1.108  21.658  1.00  0.00     0.000 C 
ATOM      5  C   UNL     1      45.002   0.836  23.162  1.00  0.00     0.004 C 
ENDBRANCH   3   4
BRANCH   3   6
ATOM      6  C   UNL     1      44.676   3.588  20.842  1.00  0.00    -0.014 C 
ATOM      7  C   UNL     1      44.389   4.605  21.960  1.00  0.00     0.007 C 
ATOM      8  C   UNL     1      43.368   3.038  20.253  1.00  0.00     0.007 C 
ENDBRANCH   3   6
ENDBRANCH   2   3
ENDBRANCH   1   2
BRANCH   1   9
ATOM      9  C   UNL     1      48.306   2.148  22.181  1.00  0.00    -0.011 C 
ATOM     10  C   UNL     1      48.745   0.868  22.940  1.00  0.00     0.008 C 
BRANCH   9  11
ATOM     11  C   UNL     1      49.333   3.321  22.381  1.00  0.00    -0.002 C 
ATOM     12  C   UNL     1      49.983   3.792  21.041  1.00  0.00     0.005 C 
ATOM     13  C   UNL     1      48.811   4.658  23.045  1.00  0.00    -0.026 C 
ATOM     14  C   UNL     1      49.894   5.314  20.987  1.00  0.00     0.005 C 
ATOM     15  C   UNL     1      48.676   5.598  21.837  1.00  0.00    -0.001 C 
ATOM     16  C   UNL     1      47.426   4.657  23.748  1.00  0.00     0.007 C 
ATOM     17  C   UNL     1      49.904   5.116  24.063  1.00  0.00     0.012 C 
ATOM     18  C   UNL     1      48.375   7.068  22.216  1.00  0.00     0.000 C 
ATOM     19  C   UNL     1      46.983   6.082  24.160  1.00  0.00     0.005 C 
ATOM     20  C   UNL     1      47.026   7.115  22.987  1.00  0.00     0.003 C 
ATOM     21  C   UNL     1      48.239   7.929  20.952  1.00  0.00     0.031 C 
ATOM     22  C   UNL     1      46.620   8.592  23.401  1.00  0.00    -0.008 C 
ATOM     23  C   UNL     1      47.834   9.328  21.291  1.00  0.00    -0.027 C 
ATOM     24  C   UNL     1      47.074   9.637  22.363  1.00  0.00    -0.065 C 
ATOM     25  C   UNL     1      47.253   8.999  24.773  1.00  0.00     0.014 C 
ATOM     26  C   UNL     1      45.073   8.643  23.511  1.00  0.00     0.016 C 
ATOM     27  C   UNL     1      46.874  11.100  22.700  1.00  0.00     0.063 C 
ATOM     28  C   UNL     1      47.079  10.489  25.132  1.00  0.00     0.033 C 
ATOM     29  C   UNL     1      47.587  11.414  24.019  1.00  0.00     0.118 C 
BRANCH  29  30
ATOM     30  O   UNL     1      47.343  12.749  24.381  1.00  0.00    -0.393 OA
ATOM     31  H   UNL     1      46.531  13.037  23.885  1.00  0.00     0.210 HD
ENDBRANCH  29  30
ENDBRANCH   9  11
ENDBRANCH   1   9
TORSDOF 7
ENDMDL
MODEL 8
REMARK VINA RESULT:    -6.894      2.950      8.191
REMARK INTER + INTRA:         -11.270
REMARK INTER:                  -8.010
REMARK INTRA:                  -3.260
REMARK UNBOUND:                -1.757
REMARK SMILES CC[C@@H](CC[C@@H](C)[C@H]1CC[C@@H]2[C@H]3CC=C4C[C@@H](O)CC[C@]4(C)[C@@H]3CC[C@]21C)C(C)C
REMARK SMILES IDX 5 1 4 2 3 3 2 4 1 5 28 6 29 7 30 8 6 9 7 10 8 11 9 12 26 13
REMARK SMILES IDX 10 14 11 15 25 16 27 17 12 18 24 19 23 20 13 21 21 22 14 23
REMARK SMILES IDX 15 24 20 25 22 26 16 27 19 28 17 29 18 30
REMARK H PARENT 18 31
REMARK Flexibility Score: inf
ROOT
ATOM      1  C   UNL     1      48.505  -1.630  23.749  1.00  0.00     0.004 C 
ENDROOT
BRANCH   1   2
ATOM      2  C   UNL     1      47.641  -1.158  24.942  1.00  0.00     0.004 C 
BRANCH   2   3
ATOM      3  C   UNL     1      47.768   0.373  25.208  1.00  0.00    -0.009 C 
BRANCH   3   4
ATOM      4  C   UNL     1      48.402   0.604  26.614  1.00  0.00     0.000 C 
ATOM      5  C   UNL     1      49.611   1.538  26.623  1.00  0.00     0.004 C 
ENDBRANCH   3   4
BRANCH   3   6
ATOM      6  C   UNL     1      46.386   1.081  24.983  1.00  0.00    -0.014 C 
ATOM      7  C   UNL     1      45.591   0.507  23.798  1.00  0.00     0.007 C 
ATOM      8  C   UNL     1      46.487   2.611  24.885  1.00  0.00     0.007 C 
ENDBRANCH   3   6
ENDBRANCH   2   3
ENDBRANCH   1   2
BRANCH   1   9
ATOM      9  C   UNL     1      49.701  -0.667  23.466  1.00  0.00    -0.011 C 
ATOM     10  C   UNL     1      51.024  -1.459  23.640  1.00  0.00     0.008 C 
BRANCH   9  11
ATOM     11  C   UNL     1      49.602  -0.013  22.040  1.00  0.00    -0.002 C 
ATOM     12  C   UNL     1      48.259  -0.340  21.315  1.00  0.00     0.005 C 
ATOM     13  C   UNL     1      49.720   1.561  21.937  1.00  0.00    -0.026 C 
ATOM     14  C   UNL     1      47.687   0.966  20.774  1.00  0.00     0.005 C 
ATOM     15  C   UNL     1      48.260   1.990  21.728  1.00  0.00    -0.001 C 
ATOM     16  C   UNL     1      50.232   2.359  23.167  1.00  0.00     0.007 C 
ATOM     17  C   UNL     1      50.634   1.869  20.708  1.00  0.00     0.012 C 
ATOM     18  C   UNL     1      48.089   3.489  21.382  1.00  0.00     0.000 C 
ATOM     19  C   UNL     1      50.092   3.887  22.968  1.00  0.00     0.005 C 
ATOM     20  C   UNL     1      48.652   4.337  22.557  1.00  0.00     0.003 C 
ATOM     21  C   UNL     1      46.602   3.832  21.210  1.00  0.00     0.031 C 
ATOM     22  C   UNL     1      48.501   5.895  22.302  1.00  0.00    -0.008 C 
ATOM     23  C   UNL     1      46.406   5.297  20.990  1.00  0.00    -0.027 C 
ATOM     24  C   UNL     1      47.225   6.237  21.506  1.00  0.00    -0.065 C 
ATOM     25  C   UNL     1      49.714   6.466  21.497  1.00  0.00     0.014 C 
ATOM     26  C   UNL     1      48.423   6.594  23.686  1.00  0.00     0.016 C 
ATOM     27  C   UNL     1      47.028   7.675  21.074  1.00  0.00     0.063 C 
ATOM     28  C   UNL     1      49.532   7.924  21.028  1.00  0.00     0.033 C 
ATOM     29  C   UNL     1      48.232   8.117  20.236  1.00  0.00     0.118 C 
BRANCH  29  30
ATOM     30  O   UNL     1      48.097   9.472  19.894  1.00  0.00    -0.393 OA
ATOM     31  H   UNL     1      48.966   9.759  19.506  1.00  0.00     0.210 HD
ENDBRANCH  29  30
ENDBRANCH   9  11
ENDBRANCH   1   9
TORSDOF 7
ENDMDL
MODEL 9
REMARK VINA RESULT:    -6.821      2.287      4.678
REMARK INTER + INTRA:         -11.170
REMARK INTER:                  -8.155
REMARK INTRA:                  -3.015
REMARK UNBOUND:                -1.757
REMARK SMILES CC[C@@H](CC[C@@H](C)[C@H]1CC[C@@H]2[C@H]3CC=C4C[C@@H](O)CC[C@]4(C)[C@@H]3CC[C@]21C)C(C)C
REMARK SMILES IDX 5 1 4 2 3 3 2 4 1 5 28 6 29 7 30 8 6 9 7 10 8 11 9 12 26 13
REMARK SMILES IDX 10 14 11 15 25 16 27 17 12 18 24 19 23 20 13 21 21 22 14 23
REMARK SMILES IDX 15 24 20 25 22 26 16 27 19 28 17 29 18 30
REMARK H PARENT 18 31
REMARK Flexibility Score: inf
ROOT
ATOM      1  C   UNL     1      49.093   8.895  23.600  1.00  0.00     0.004 C 
ENDROOT
BRANCH   1   2
ATOM      2  C   UNL     1      49.602   8.548  25.018  1.00  0.00     0.004 C 
BRANCH   2   3
ATOM      3  C   UNL     1      48.737   7.456  25.717  1.00  0.00    -0.009 C 
BRANCH   3   4
ATOM      4  C   UNL     1      47.911   8.108  26.869  1.00  0.00     0.000 C 
ATOM      5  C   UNL     1      46.395   8.005  26.704  1.00  0.00     0.004 C 
ENDBRANCH   3   4
BRANCH   3   6
ATOM      6  C   UNL     1      49.635   6.246  26.153  1.00  0.00    -0.014 C 
ATOM      7  C   UNL     1      50.650   5.820  25.079  1.00  0.00     0.007 C 
ATOM      8  C   UNL     1      48.835   5.036  26.660  1.00  0.00     0.007 C 
ENDBRANCH   3   6
ENDBRANCH   2   3
ENDBRANCH   1   2
BRANCH   1   9
ATOM      9  C   UNL     1      47.732   8.203  23.273  1.00  0.00    -0.011 C 
ATOM     10  C   UNL     1      46.649   9.301  23.101  1.00  0.00     0.008 C 
BRANCH   9  11
ATOM     11  C   UNL     1      47.832   7.285  22.000  1.00  0.00    -0.002 C 
ATOM     12  C   UNL     1      49.211   7.401  21.276  1.00  0.00     0.005 C 
ATOM     13  C   UNL     1      47.629   5.728  22.192  1.00  0.00    -0.026 C 
ATOM     14  C   UNL     1      49.723   5.988  21.012  1.00  0.00     0.005 C 
ATOM     15  C   UNL     1      49.068   5.195  22.121  1.00  0.00    -0.001 C 
ATOM     16  C   UNL     1      47.040   5.205  23.531  1.00  0.00     0.007 C 
ATOM     17  C   UNL     1      46.732   5.237  21.010  1.00  0.00     0.012 C 
ATOM     18  C   UNL     1      49.164   3.651  22.071  1.00  0.00     0.000 C 
ATOM     19  C   UNL     1      47.100   3.662  23.628  1.00  0.00     0.005 C 
ATOM     20  C   UNL     1      48.523   3.071  23.363  1.00  0.00     0.003 C 
ATOM     21  C   UNL     1      50.634   3.208  22.021  1.00  0.00     0.031 C 
ATOM     22  C   UNL     1      48.594   1.487  23.412  1.00  0.00    -0.008 C 
ATOM     23  C   UNL     1      50.753   1.719  22.088  1.00  0.00    -0.027 C 
ATOM     24  C   UNL     1      49.869   0.937  22.742  1.00  0.00    -0.065 C 
ATOM     25  C   UNL     1      47.372   0.834  22.686  1.00  0.00     0.014 C 
ATOM     26  C   UNL     1      48.595   1.061  24.904  1.00  0.00     0.016 C 
ATOM     27  C   UNL     1      49.997  -0.566  22.596  1.00  0.00     0.063 C 
ATOM     28  C   UNL     1      47.485  -0.693  22.507  1.00  0.00     0.033 C 
ATOM     29  C   UNL     1      48.792  -1.098  21.813  1.00  0.00     0.118 C 
BRANCH  29  30
ATOM     30  O   UNL     1      48.861  -2.499  21.739  1.00  0.00    -0.393 OA
ATOM     31  H   UNL     1      48.366  -2.767  20.919  1.00  0.00     0.210 HD
ENDBRANCH  29  30
ENDBRANCH   9  11
ENDBRANCH   1   9
TORSDOF 7
ENDMDL
