MODEL 1
REMARK VINA RESULT:    -3.341      0.000      0.000
REMARK INTER + INTRA:          -3.341
REMARK INTER:                  -3.341
REMARK INTRA:                   0.000
REMARK UNBOUND:                 0.000
REMARK SMILES CC1(C)O[C@]2(C)CC[C@H]1CC2
REMARK SMILES IDX 1 1 2 2 9 3 10 4 11 5 5 6 4 7 7 8 8 9 6 10 3 11
REMARK H PARENT
REMARK Flexibility Score: inf
ROOT
ATOM      1  C   UNL     1     137.734 143.408 143.824  1.00  0.00     0.042 C 
ATOM      2  C   UNL     1     138.712 143.606 142.645  1.00  0.00     0.066 C 
ATOM      3  C   UNL     1     139.120 145.124 142.508  1.00  0.00     0.021 C 
ATOM      4  C   UNL     1     139.876 145.546 143.790  1.00  0.00     0.009 C 
ATOM      5  C   UNL     1     141.018 144.537 144.063  1.00  0.00     0.035 C 
ATOM      6  C   UNL     1     141.083 143.491 142.912  1.00  0.00     0.066 C 
ATOM      7  O   UNL     1     139.854 142.765 142.867  1.00  0.00    -0.369 OA
ATOM      8  C   UNL     1     141.284 144.238 141.563  1.00  0.00     0.035 C 
ATOM      9  C   UNL     1     140.137 145.255 141.349  1.00  0.00     0.009 C 
ATOM     10  C   UNL     1     142.231 142.505 143.152  1.00  0.00     0.042 C 
ATOM     11  C   UNL     1     137.997 143.115 141.369  1.00  0.00     0.042 C 
ENDROOT
TORSDOF 0
ENDMDL
MODEL 2
REMARK VINA RESULT:    -3.313      3.758      5.219
REMARK INTER + INTRA:          -3.313
REMARK INTER:                  -3.313
REMARK INTRA:                   0.000
REMARK UNBOUND:                 0.000
REMARK SMILES CC1(C)O[C@]2(C)CC[C@H]1CC2
REMARK SMILES IDX 1 1 2 2 9 3 10 4 11 5 5 6 4 7 7 8 8 9 6 10 3 11
REMARK H PARENT
REMARK Flexibility Score: inf
ROOT
ATOM      1  C   UNL     1     143.339 143.854 143.834  1.00  0.00     0.042 C 
ATOM      2  C   UNL     1     143.607 142.892 142.655  1.00  0.00     0.066 C 
ATOM      3  C   UNL     1     145.131 142.487 142.602  1.00  0.00     0.021 C 
ATOM      4  C   UNL     1     145.478 141.713 143.896  1.00  0.00     0.009 C 
ATOM      5  C   UNL     1     144.456 140.567 144.092  1.00  0.00     0.035 C 
ATOM      6  C   UNL     1     143.480 140.518 142.881  1.00  0.00     0.066 C 
ATOM      7  O   UNL     1     142.756 141.747 142.811  1.00  0.00    -0.369 OA
ATOM      8  C   UNL     1     144.305 140.336 141.575  1.00  0.00     0.035 C 
ATOM      9  C   UNL     1     145.331 141.488 141.438  1.00  0.00     0.009 C 
ATOM     10  C   UNL     1     142.483 139.366 143.046  1.00  0.00     0.042 C 
ATOM     11  C   UNL     1     143.192 143.626 141.362  1.00  0.00     0.042 C 
ENDROOT
TORSDOF 0
ENDMDL
MODEL 3
REMARK VINA RESULT:    -3.282      5.354      7.360
REMARK INTER + INTRA:          -3.282
REMARK INTER:                  -3.282
REMARK INTRA:                   0.000
REMARK UNBOUND:                 0.000
REMARK SMILES CC1(C)O[C@]2(C)CC[C@H]1CC2
REMARK SMILES IDX 1 1 2 2 9 3 10 4 11 5 5 6 4 7 7 8 8 9 6 10 3 11
REMARK H PARENT
REMARK Flexibility Score: inf
ROOT
ATOM      1  C   UNL     1     143.746 138.324 144.046  1.00  0.00     0.042 C 
ATOM      2  C   UNL     1     142.851 138.052 142.817  1.00  0.00     0.066 C 
ATOM      3  C   UNL     1     142.499 136.518 142.712  1.00  0.00     0.021 C 
ATOM      4  C   UNL     1     141.675 136.118 143.959  1.00  0.00     0.009 C 
ATOM      5  C   UNL     1     140.488 137.099 144.120  1.00  0.00     0.035 C 
ATOM      6  C   UNL     1     140.466 138.100 142.929  1.00  0.00     0.066 C 
ATOM      7  O   UNL     1     141.673 138.863 142.934  1.00  0.00    -0.369 OA
ATOM      8  C   UNL     1     140.374 137.299 141.599  1.00  0.00     0.035 C 
ATOM      9  C   UNL     1     141.563 136.312 141.497  1.00  0.00     0.009 C 
ATOM     10  C   UNL     1     139.276 139.056 143.058  1.00  0.00     0.042 C 
ATOM     11  C   UNL     1     143.632 138.519 141.570  1.00  0.00     0.042 C 
ENDROOT
TORSDOF 0
ENDMDL
MODEL 4
REMARK VINA RESULT:    -3.261      4.109      5.961
REMARK INTER + INTRA:          -3.261
REMARK INTER:                  -3.261
REMARK INTRA:                   0.000
REMARK UNBOUND:                 0.000
REMARK SMILES CC1(C)O[C@]2(C)CC[C@H]1CC2
REMARK SMILES IDX 1 1 2 2 9 3 10 4 11 5 5 6 4 7 7 8 8 9 6 10 3 11
REMARK H PARENT
REMARK Flexibility Score: inf
ROOT
ATOM      1  C   UNL     1     139.403 138.200 141.596  1.00  0.00     0.042 C 
ATOM      2  C   UNL     1     138.311 138.639 142.596  1.00  0.00     0.066 C 
ATOM      3  C   UNL     1     138.626 140.074 143.171  1.00  0.00     0.021 C 
ATOM      4  C   UNL     1     138.593 141.088 142.003  1.00  0.00     0.009 C 
ATOM      5  C   UNL     1     137.266 140.922 141.223  1.00  0.00     0.035 C 
ATOM      6  C   UNL     1     136.372 139.860 141.925  1.00  0.00     0.066 C 
ATOM      7  O   UNL     1     137.045 138.601 141.921  1.00  0.00    -0.369 OA
ATOM      8  C   UNL     1     136.123 140.301 143.396  1.00  0.00     0.035 C 
ATOM      9  C   UNL     1     137.477 140.482 144.125  1.00  0.00     0.009 C 
ATOM     10  C   UNL     1     135.039 139.711 141.182  1.00  0.00     0.042 C 
ATOM     11  C   UNL     1     138.280 137.592 143.730  1.00  0.00     0.042 C 
ENDROOT
TORSDOF 0
ENDMDL
MODEL 5
REMARK VINA RESULT:    -3.259      3.761      5.221
REMARK INTER + INTRA:          -3.259
REMARK INTER:                  -3.259
REMARK INTRA:                   0.000
REMARK UNBOUND:                 0.000
REMARK SMILES CC1(C)O[C@]2(C)CC[C@H]1CC2
REMARK SMILES IDX 1 1 2 2 9 3 10 4 11 5 5 6 4 7 7 8 8 9 6 10 3 11
REMARK H PARENT
REMARK Flexibility Score: inf
ROOT
ATOM      1  C   UNL     1     138.365 137.715 143.713  1.00  0.00     0.042 C 
ATOM      2  C   UNL     1     138.005 138.700 142.579  1.00  0.00     0.066 C 
ATOM      3  C   UNL     1     136.482 139.105 142.655  1.00  0.00     0.021 C 
ATOM      4  C   UNL     1     136.239 139.853 143.987  1.00  0.00     0.009 C 
ATOM      5  C   UNL     1     137.275 140.996 144.125  1.00  0.00     0.035 C 
ATOM      6  C   UNL     1     138.152 141.069 142.842  1.00  0.00     0.066 C 
ATOM      7  O   UNL     1     138.866 139.843 142.690  1.00  0.00    -0.369 OA
ATOM      8  C   UNL     1     137.226 141.277 141.609  1.00  0.00     0.035 C 
ATOM      9  C   UNL     1     136.191 140.128 141.530  1.00  0.00     0.009 C 
ATOM     10  C   UNL     1     139.159 142.218 142.951  1.00  0.00     0.042 C 
ATOM     11  C   UNL     1     138.316 137.993 141.242  1.00  0.00     0.042 C 
ENDROOT
TORSDOF 0
ENDMDL
MODEL 6
REMARK VINA RESULT:    -3.244      1.313      2.472
REMARK INTER + INTRA:          -3.244
REMARK INTER:                  -3.244
REMARK INTRA:                   0.000
REMARK UNBOUND:                 0.000
REMARK SMILES CC1(C)O[C@]2(C)CC[C@H]1CC2
REMARK SMILES IDX 1 1 2 2 9 3 10 4 11 5 5 6 4 7 7 8 8 9 6 10 3 11
REMARK H PARENT
REMARK Flexibility Score: inf
ROOT
ATOM      1  C   UNL     1     139.162 144.157 140.427  1.00  0.00     0.042 C 
ATOM      2  C   UNL     1     139.776 144.918 141.622  1.00  0.00     0.066 C 
ATOM      3  C   UNL     1     139.007 144.574 142.956  1.00  0.00     0.021 C 
ATOM      4  C   UNL     1     139.185 143.066 143.249  1.00  0.00     0.009 C 
ATOM      5  C   UNL     1     140.692 142.712 143.200  1.00  0.00     0.035 C 
ATOM      6  C   UNL     1     141.528 144.003 142.963  1.00  0.00     0.066 C 
ATOM      7  O   UNL     1     141.167 144.572 141.704  1.00  0.00    -0.369 OA
ATOM      8  C   UNL     1     141.213 145.023 144.094  1.00  0.00     0.035 C 
ATOM      9  C   UNL     1     139.694 145.322 144.124  1.00  0.00     0.009 C 
ATOM     10  C   UNL     1     143.024 143.672 142.945  1.00  0.00     0.042 C 
ATOM     11  C   UNL     1     139.675 146.426 141.306  1.00  0.00     0.042 C 
ENDROOT
TORSDOF 0
ENDMDL
MODEL 7
REMARK VINA RESULT:    -3.241      5.762      7.627
REMARK INTER + INTRA:          -3.241
REMARK INTER:                  -3.241
REMARK INTRA:                   0.000
REMARK UNBOUND:                 0.000
REMARK SMILES CC1(C)O[C@]2(C)CC[C@H]1CC2
REMARK SMILES IDX 1 1 2 2 9 3 10 4 11 5 5 6 4 7 7 8 8 9 6 10 3 11
REMARK H PARENT
REMARK Flexibility Score: inf
ROOT
ATOM      1  C   UNL     1     142.427 137.355 140.337  1.00  0.00     0.042 C 
ATOM      2  C   UNL     1     141.794 136.622 141.540  1.00  0.00     0.066 C 
ATOM      3  C   UNL     1     142.559 136.976 142.873  1.00  0.00     0.021 C 
ATOM      4  C   UNL     1     142.402 138.491 143.141  1.00  0.00     0.009 C 
ATOM      5  C   UNL     1     140.902 138.867 143.076  1.00  0.00     0.035 C 
ATOM      6  C   UNL     1     140.048 137.586 142.854  1.00  0.00     0.066 C 
ATOM      7  O   UNL     1     140.408 136.990 141.607  1.00  0.00    -0.369 OA
ATOM      8  C   UNL     1     140.339 136.579 144.004  1.00  0.00     0.035 C 
ATOM      9  C   UNL     1     141.853 136.258 144.048  1.00  0.00     0.009 C 
ATOM     10  C   UNL     1     138.557 137.939 142.821  1.00  0.00     0.042 C 
ATOM     11  C   UNL     1     141.874 135.108 141.249  1.00  0.00     0.042 C 
ENDROOT
TORSDOF 0
ENDMDL
MODEL 8
REMARK VINA RESULT:    -3.227      4.299      5.964
REMARK INTER + INTRA:          -3.227
REMARK INTER:                  -3.227
REMARK INTRA:                   0.000
REMARK UNBOUND:                 0.000
REMARK SMILES CC1(C)O[C@]2(C)CC[C@H]1CC2
REMARK SMILES IDX 1 1 2 2 9 3 10 4 11 5 5 6 4 7 7 8 8 9 6 10 3 11
REMARK H PARENT
REMARK Flexibility Score: inf
ROOT
ATOM      1  C   UNL     1     144.065 142.565 140.528  1.00  0.00     0.042 C 
ATOM      2  C   UNL     1     144.868 141.856 141.641  1.00  0.00     0.066 C 
ATOM      3  C   UNL     1     144.574 142.512 143.045  1.00  0.00     0.021 C 
ATOM      4  C   UNL     1     143.077 142.309 143.377  1.00  0.00     0.009 C 
ATOM      5  C   UNL     1     142.719 140.812 143.217  1.00  0.00     0.035 C 
ATOM      6  C   UNL     1     143.998 139.999 142.866  1.00  0.00     0.066 C 
ATOM      7  O   UNL     1     144.523 140.463 141.621  1.00  0.00    -0.369 OA
ATOM      8  C   UNL     1     145.060 140.221 143.981  1.00  0.00     0.035 C 
ATOM      9  C   UNL     1     145.363 141.733 144.124  1.00  0.00     0.009 C 
ATOM     10  C   UNL     1     143.664 138.509 142.738  1.00  0.00     0.042 C 
ATOM     11  C   UNL     1     146.363 141.984 141.280  1.00  0.00     0.042 C 
ENDROOT
TORSDOF 0
ENDMDL
MODEL 9
REMARK VINA RESULT:    -3.188      3.450      5.266
REMARK INTER + INTRA:          -3.188
REMARK INTER:                  -3.188
REMARK INTRA:                   0.000
REMARK UNBOUND:                 0.000
REMARK SMILES CC1(C)O[C@]2(C)CC[C@H]1CC2
REMARK SMILES IDX 1 1 2 2 9 3 10 4 11 5 5 6 4 7 7 8 8 9 6 10 3 11
REMARK H PARENT
REMARK Flexibility Score: inf
ROOT
ATOM      1  C   UNL     1     137.438 139.205 140.500  1.00  0.00     0.042 C 
ATOM      2  C   UNL     1     136.659 139.887 141.645  1.00  0.00     0.066 C 
ATOM      3  C   UNL     1     136.885 139.122 143.006  1.00  0.00     0.021 C 
ATOM      4  C   UNL     1     138.385 139.210 143.374  1.00  0.00     0.009 C 
ATOM      5  C   UNL     1     138.836 140.690 143.321  1.00  0.00     0.035 C 
ATOM      6  C   UNL     1     137.615 141.601 143.006  1.00  0.00     0.066 C 
ATOM      7  O   UNL     1     137.088 141.254 141.725  1.00  0.00    -0.369 OA
ATOM      8  C   UNL     1     136.521 141.372 144.087  1.00  0.00     0.035 C 
ATOM      9  C   UNL     1     136.125 139.875 144.124  1.00  0.00     0.009 C 
ATOM     10  C   UNL     1     138.040 143.073 142.983  1.00  0.00     0.042 C 
ATOM     11  C   UNL     1     135.165 139.875 141.254  1.00  0.00     0.042 C 
ENDROOT
TORSDOF 0
ENDMDL
