MODEL 1
REMARK VINA RESULT:    -5.504      0.000      0.000
REMARK INTER + INTRA:         -14.372
REMARK INTER:                 -12.582
REMARK INTRA:                  -1.789
REMARK UNBOUND:                -1.789
REMARK SMILES CCCCCCCCCCCCCCCCCCCCCCCC(=O)[O-]
REMARK SMILES IDX 13 1 14 2 15 3 16 4 17 5 18 6 19 7 20 8 21 9 22 10 23 11
REMARK SMILES IDX 24 12 25 13 26 14 12 15 11 16 10 17 9 18 8 19 7 20 6 21 5 22
REMARK SMILES IDX 4 23 3 24 2 25 1 26
REMARK H PARENT
REMARK Flexibility Score: inf
ROOT
ATOM      1  C   UNL     1      26.886   0.896  31.502  1.00  0.00     0.000 C 
ENDROOT
BRANCH   1   2
ATOM      2  C   UNL     1      26.199   0.558  30.166  1.00  0.00     0.000 C 
BRANCH   2   3
ATOM      3  C   UNL     1      26.925   1.172  28.958  1.00  0.00     0.000 C 
BRANCH   3   4
ATOM      4  C   UNL     1      27.460   2.588  29.241  1.00  0.00     0.000 C 
BRANCH   4   5
ATOM      5  C   UNL     1      26.714   3.667  28.440  1.00  0.00     0.000 C 
BRANCH   5   6
ATOM      6  C   UNL     1      27.068   5.094  28.898  1.00  0.00     0.000 C 
BRANCH   6   7
ATOM      7  C   UNL     1      27.742   5.117  30.280  1.00  0.00     0.000 C 
BRANCH   7   8
ATOM      8  C   UNL     1      28.172   6.532  30.704  1.00  0.00     0.000 C 
BRANCH   8   9
ATOM      9  C   UNL     1      27.125   7.599  30.347  1.00  0.00     0.000 C 
BRANCH   9  10
ATOM     10  C   UNL     1      27.753   8.914  29.862  1.00  0.00     0.006 C 
BRANCH  10  11
ATOM     11  C   UNL     1      28.054   9.843  31.044  1.00  0.00     0.053 C 
BRANCH  11  12
ATOM     12  C   UNL     1      26.811  10.539  31.503  1.00  0.00     0.041 C 
ATOM     13  O   UNL     1      26.725  10.979  32.680  1.00  0.00    -0.550 OA
ATOM     14  O   UNL     1      25.741  10.699  30.631  1.00  0.00    -0.550 OA
ENDBRANCH  11  12
ENDBRANCH  10  11
ENDBRANCH   9  10
ENDBRANCH   8   9
ENDBRANCH   7   8
ENDBRANCH   6   7
ENDBRANCH   5   6
ENDBRANCH   4   5
ENDBRANCH   3   4
ENDBRANCH   2   3
ENDBRANCH   1   2
BRANCH   1  15
ATOM     15  C   UNL     1      27.952  -0.137  31.904  1.00  0.00     0.000 C 
BRANCH  15  16
ATOM     16  C   UNL     1      29.412   0.347  31.799  1.00  0.00     0.000 C 
BRANCH  16  17
ATOM     17  C   UNL     1      30.157  -0.168  30.550  1.00  0.00     0.000 C 
BRANCH  17  18
ATOM     18  C   UNL     1      29.445  -1.363  29.889  1.00  0.00    -0.000 C 
BRANCH  18  19
ATOM     19  C   UNL     1      30.275  -2.658  29.986  1.00  0.00    -0.000 C 
BRANCH  19  20
ATOM     20  C   UNL     1      29.552  -3.888  29.411  1.00  0.00    -0.000 C 
BRANCH  20  21
ATOM     21  C   UNL     1      29.304  -4.968  30.479  1.00  0.00    -0.000 C 
BRANCH  21  22
ATOM     22  C   UNL     1      27.955  -5.687  30.304  1.00  0.00    -0.000 C 
BRANCH  22  23
ATOM     23  C   UNL     1      28.086  -7.213  30.115  1.00  0.00    -0.000 C 
BRANCH  23  24
ATOM     24  C   UNL     1      29.482  -7.725  30.496  1.00  0.00    -0.000 C 
BRANCH  24  25
ATOM     25  C   UNL     1      29.395  -9.048  31.264  1.00  0.00    -0.003 C 
ATOM     26  C   UNL     1      28.355  -8.970  32.377  1.00  0.00     0.004 C 
ENDBRANCH  24  25
ENDBRANCH  23  24
ENDBRANCH  22  23
ENDBRANCH  21  22
ENDBRANCH  20  21
ENDBRANCH  19  20
ENDBRANCH  18  19
ENDBRANCH  17  18
ENDBRANCH  16  17
ENDBRANCH  15  16
ENDBRANCH   1  15
TORSDOF 22
ENDMDL
MODEL 2
REMARK VINA RESULT:    -5.192      1.366      2.040
REMARK INTER + INTRA:         -13.659
REMARK INTER:                 -11.364
REMARK INTRA:                  -2.295
REMARK UNBOUND:                -1.789
REMARK SMILES CCCCCCCCCCCCCCCCCCCCCCCC(=O)[O-]
REMARK SMILES IDX 13 1 14 2 15 3 16 4 17 5 18 6 19 7 20 8 21 9 22 10 23 11
REMARK SMILES IDX 24 12 25 13 26 14 12 15 11 16 10 17 9 18 8 19 7 20 6 21 5 22
REMARK SMILES IDX 4 23 3 24 2 25 1 26
REMARK H PARENT
REMARK Flexibility Score: inf
ROOT
ATOM      1  C   UNL     1      26.241   0.443  28.794  1.00  0.00     0.000 C 
ENDROOT
BRANCH   1   2
ATOM      2  C   UNL     1      26.911   1.825  28.909  1.00  0.00     0.000 C 
BRANCH   2   3
ATOM      3  C   UNL     1      28.442   1.733  29.003  1.00  0.00     0.000 C 
BRANCH   3   4
ATOM      4  C   UNL     1      28.999   2.363  30.292  1.00  0.00     0.000 C 
BRANCH   4   5
ATOM      5  C   UNL     1      27.895   2.965  31.175  1.00  0.00     0.000 C 
BRANCH   5   6
ATOM      6  C   UNL     1      28.315   4.297  31.823  1.00  0.00     0.000 C 
BRANCH   6   7
ATOM      7  C   UNL     1      27.494   5.488  31.300  1.00  0.00     0.000 C 
BRANCH   7   8
ATOM      8  C   UNL     1      27.990   5.994  29.935  1.00  0.00     0.000 C 
BRANCH   8   9
ATOM      9  C   UNL     1      28.000   7.529  29.842  1.00  0.00     0.000 C 
BRANCH   9  10
ATOM     10  C   UNL     1      26.899   8.186  30.689  1.00  0.00     0.006 C 
BRANCH  10  11
ATOM     11  C   UNL     1      27.253   9.642  31.010  1.00  0.00     0.053 C 
BRANCH  11  12
ATOM     12  C   UNL     1      27.472  10.426  29.754  1.00  0.00     0.041 C 
ATOM     13  O   UNL     1      26.510  10.662  28.975  1.00  0.00    -0.550 OA
ATOM     14  O   UNL     1      28.742  10.893  29.437  1.00  0.00    -0.550 OA
ENDBRANCH  11  12
ENDBRANCH  10  11
ENDBRANCH   9  10
ENDBRANCH   8   9
ENDBRANCH   7   8
ENDBRANCH   6   7
ENDBRANCH   5   6
ENDBRANCH   4   5
ENDBRANCH   3   4
ENDBRANCH   2   3
ENDBRANCH   1   2
BRANCH   1  15
ATOM     15  C   UNL     1      25.859  -0.152  30.159  1.00  0.00     0.000 C 
BRANCH  15  16
ATOM     16  C   UNL     1      26.732  -1.331  30.632  1.00  0.00     0.000 C 
BRANCH  16  17
ATOM     17  C   UNL     1      27.937  -0.913  31.502  1.00  0.00     0.000 C 
BRANCH  17  18
ATOM     18  C   UNL     1      29.275  -1.032  30.751  1.00  0.00    -0.000 C 
BRANCH  18  19
ATOM     19  C   UNL     1      29.290  -2.227  29.778  1.00  0.00    -0.000 C 
BRANCH  19  20
ATOM     20  C   UNL     1      30.474  -3.183  30.005  1.00  0.00    -0.000 C 
BRANCH  20  21
ATOM     21  C   UNL     1      30.017  -4.641  30.186  1.00  0.00    -0.000 C 
BRANCH  21  22
ATOM     22  C   UNL     1      28.543  -4.759  30.613  1.00  0.00    -0.000 C 
BRANCH  22  23
ATOM     23  C   UNL     1      27.892  -6.102  30.223  1.00  0.00    -0.000 C 
BRANCH  23  24
ATOM     24  C   UNL     1      28.876  -7.036  29.503  1.00  0.00    -0.000 C 
BRANCH  24  25
ATOM     25  C   UNL     1      29.193  -8.268  30.356  1.00  0.00    -0.003 C 
ATOM     26  C   UNL     1      28.530  -8.174  31.727  1.00  0.00     0.004 C 
ENDBRANCH  24  25
ENDBRANCH  23  24
ENDBRANCH  22  23
ENDBRANCH  21  22
ENDBRANCH  20  21
ENDBRANCH  19  20
ENDBRANCH  18  19
ENDBRANCH  17  18
ENDBRANCH  16  17
ENDBRANCH  15  16
ENDBRANCH   1  15
TORSDOF 22
ENDMDL
MODEL 3
REMARK VINA RESULT:    -5.117      1.537      2.292
REMARK INTER + INTRA:         -13.487
REMARK INTER:                 -11.896
REMARK INTRA:                  -1.592
REMARK UNBOUND:                -1.789
REMARK SMILES CCCCCCCCCCCCCCCCCCCCCCCC(=O)[O-]
REMARK SMILES IDX 13 1 14 2 15 3 16 4 17 5 18 6 19 7 20 8 21 9 22 10 23 11
REMARK SMILES IDX 24 12 25 13 26 14 12 15 11 16 10 17 9 18 8 19 7 20 6 21 5 22
REMARK SMILES IDX 4 23 3 24 2 25 1 26
REMARK H PARENT
REMARK Flexibility Score: inf
ROOT
ATOM      1  C   UNL     1      28.236   0.548  28.804  1.00  0.00     0.000 C 
ENDROOT
BRANCH   1   2
ATOM      2  C   UNL     1      28.778   1.950  29.137  1.00  0.00     0.000 C 
BRANCH   2   3
ATOM      3  C   UNL     1      27.709   2.863  29.759  1.00  0.00     0.000 C 
BRANCH   3   4
ATOM      4  C   UNL     1      27.926   3.096  31.264  1.00  0.00     0.000 C 
BRANCH   4   5
ATOM      5  C   UNL     1      28.280   4.556  31.587  1.00  0.00     0.000 C 
BRANCH   5   6
ATOM      6  C   UNL     1      28.134   5.484  30.369  1.00  0.00     0.000 C 
BRANCH   6   7
ATOM      7  C   UNL     1      27.731   6.915  30.765  1.00  0.00     0.000 C 
BRANCH   7   8
ATOM      8  C   UNL     1      28.142   7.958  29.712  1.00  0.00     0.000 C 
BRANCH   8   9
ATOM      9  C   UNL     1      27.974   9.401  30.213  1.00  0.00     0.000 C 
BRANCH   9  10
ATOM     10  C   UNL     1      26.512   9.872  30.201  1.00  0.00     0.006 C 
BRANCH  10  11
ATOM     11  C   UNL     1      26.283  10.968  31.248  1.00  0.00     0.053 C 
BRANCH  11  12
ATOM     12  C   UNL     1      26.408  10.415  32.633  1.00  0.00     0.041 C 
ATOM     13  O   UNL     1      26.966  11.088  33.540  1.00  0.00    -0.550 OA
ATOM     14  O   UNL     1      25.913   9.149  32.925  1.00  0.00    -0.550 OA
ENDBRANCH  11  12
ENDBRANCH  10  11
ENDBRANCH   9  10
ENDBRANCH   8   9
ENDBRANCH   7   8
ENDBRANCH   6   7
ENDBRANCH   5   6
ENDBRANCH   4   5
ENDBRANCH   3   4
ENDBRANCH   2   3
ENDBRANCH   1   2
BRANCH   1  15
ATOM     15  C   UNL     1      26.728   0.410  29.073  1.00  0.00     0.000 C 
BRANCH  15  16
ATOM     16  C   UNL     1      26.326  -0.763  29.988  1.00  0.00     0.000 C 
BRANCH  16  17
ATOM     17  C   UNL     1      27.343  -1.066  31.108  1.00  0.00     0.000 C 
BRANCH  17  18
ATOM     18  C   UNL     1      27.898  -2.500  31.028  1.00  0.00    -0.000 C 
BRANCH  18  19
ATOM     19  C   UNL     1      26.776  -3.556  31.015  1.00  0.00    -0.000 C 
BRANCH  19  20
ATOM     20  C   UNL     1      27.140  -4.822  30.220  1.00  0.00    -0.000 C 
BRANCH  20  21
ATOM     21  C   UNL     1      28.576  -5.295  30.507  1.00  0.00    -0.000 C 
BRANCH  21  22
ATOM     22  C   UNL     1      28.983  -6.519  29.668  1.00  0.00    -0.000 C 
BRANCH  22  23
ATOM     23  C   UNL     1      28.014  -7.712  29.802  1.00  0.00    -0.000 C 
BRANCH  23  24
ATOM     24  C   UNL     1      28.751  -9.025  30.107  1.00  0.00    -0.000 C 
BRANCH  24  25
ATOM     25  C   UNL     1      29.361  -9.002  31.511  1.00  0.00    -0.003 C 
ATOM     26  C   UNL     1      28.293  -8.751  32.571  1.00  0.00     0.004 C 
ENDBRANCH  24  25
ENDBRANCH  23  24
ENDBRANCH  22  23
ENDBRANCH  21  22
ENDBRANCH  20  21
ENDBRANCH  19  20
ENDBRANCH  18  19
ENDBRANCH  17  18
ENDBRANCH  16  17
ENDBRANCH  15  16
ENDBRANCH   1  15
TORSDOF 22
ENDMDL
MODEL 4
REMARK VINA RESULT:    -5.091      1.712      2.931
REMARK INTER + INTRA:         -13.428
REMARK INTER:                 -12.229
REMARK INTRA:                  -1.198
REMARK UNBOUND:                -1.789
REMARK SMILES CCCCCCCCCCCCCCCCCCCCCCCC(=O)[O-]
REMARK SMILES IDX 13 1 14 2 15 3 16 4 17 5 18 6 19 7 20 8 21 9 22 10 23 11
REMARK SMILES IDX 24 12 25 13 26 14 12 15 11 16 10 17 9 18 8 19 7 20 6 21 5 22
REMARK SMILES IDX 4 23 3 24 2 25 1 26
REMARK H PARENT
REMARK Flexibility Score: inf
ROOT
ATOM      1  C   UNL     1      27.859   1.841  29.437  1.00  0.00     0.000 C 
ENDROOT
BRANCH   1   2
ATOM      2  C   UNL     1      27.648   3.363  29.538  1.00  0.00     0.000 C 
BRANCH   2   3
ATOM      3  C   UNL     1      27.902   3.900  30.956  1.00  0.00     0.000 C 
BRANCH   3   4
ATOM      4  C   UNL     1      27.727   5.426  31.056  1.00  0.00     0.000 C 
BRANCH   4   5
ATOM      5  C   UNL     1      27.600   6.093  29.677  1.00  0.00     0.000 C 
BRANCH   5   6
ATOM      6  C   UNL     1      28.052   7.564  29.687  1.00  0.00     0.000 C 
BRANCH   6   7
ATOM      7  C   UNL     1      27.294   8.405  30.729  1.00  0.00     0.000 C 
BRANCH   7   8
ATOM      8  C   UNL     1      27.477   9.917  30.515  1.00  0.00     0.000 C 
BRANCH   8   9
ATOM      9  C   UNL     1      27.323  10.720  31.816  1.00  0.00     0.000 C 
BRANCH   9  10
ATOM     10  C   UNL     1      26.484   9.988  32.874  1.00  0.00     0.006 C 
BRANCH  10  11
ATOM     11  C   UNL     1      26.472  10.766  34.195  1.00  0.00     0.053 C 
BRANCH  11  12
ATOM     12  C   UNL     1      25.636  10.064  35.219  1.00  0.00     0.041 C 
ATOM     13  O   UNL     1      25.727   8.816  35.369  1.00  0.00    -0.550 OA
ATOM     14  O   UNL     1      24.749  10.786  36.007  1.00  0.00    -0.550 OA
ENDBRANCH  11  12
ENDBRANCH  10  11
ENDBRANCH   9  10
ENDBRANCH   8   9
ENDBRANCH   7   8
ENDBRANCH   6   7
ENDBRANCH   5   6
ENDBRANCH   4   5
ENDBRANCH   3   4
ENDBRANCH   2   3
ENDBRANCH   1   2
BRANCH   1  15
ATOM     15  C   UNL     1      26.539   1.052  29.460  1.00  0.00     0.000 C 
BRANCH  15  16
ATOM     16  C   UNL     1      26.315   0.177  30.709  1.00  0.00     0.000 C 
BRANCH  16  17
ATOM     17  C   UNL     1      27.573  -0.585  31.178  1.00  0.00     0.000 C 
BRANCH  17  18
ATOM     18  C   UNL     1      27.838  -1.852  30.346  1.00  0.00    -0.000 C 
BRANCH  18  19
ATOM     19  C   UNL     1      29.325  -1.996  29.967  1.00  0.00    -0.000 C 
BRANCH  19  20
ATOM     20  C   UNL     1      29.745  -3.450  29.692  1.00  0.00    -0.000 C 
BRANCH  20  21
ATOM     21  C   UNL     1      28.780  -4.464  30.331  1.00  0.00    -0.000 C 
BRANCH  21  22
ATOM     22  C   UNL     1      29.374  -5.881  30.425  1.00  0.00    -0.000 C 
BRANCH  22  23
ATOM     23  C   UNL     1      28.405  -6.920  31.026  1.00  0.00    -0.000 C 
BRANCH  23  24
ATOM     24  C   UNL     1      29.110  -8.241  31.365  1.00  0.00    -0.000 C 
BRANCH  24  25
ATOM     25  C   UNL     1      29.458  -9.024  30.095  1.00  0.00    -0.003 C 
ATOM     26  C   UNL     1      28.257  -9.116  29.159  1.00  0.00     0.004 C 
ENDBRANCH  24  25
ENDBRANCH  23  24
ENDBRANCH  22  23
ENDBRANCH  21  22
ENDBRANCH  20  21
ENDBRANCH  19  20
ENDBRANCH  18  19
ENDBRANCH  17  18
ENDBRANCH  16  17
ENDBRANCH  15  16
ENDBRANCH   1  15
TORSDOF 22
ENDMDL
MODEL 5
REMARK VINA RESULT:    -4.996      5.662     13.252
REMARK INTER + INTRA:         -13.211
REMARK INTER:                 -11.697
REMARK INTRA:                  -1.514
REMARK UNBOUND:                -1.789
REMARK SMILES CCCCCCCCCCCCCCCCCCCCCCCC(=O)[O-]
REMARK SMILES IDX 13 1 14 2 15 3 16 4 17 5 18 6 19 7 20 8 21 9 22 10 23 11
REMARK SMILES IDX 24 12 25 13 26 14 12 15 11 16 10 17 9 18 8 19 7 20 6 21 5 22
REMARK SMILES IDX 4 23 3 24 2 25 1 26
REMARK H PARENT
REMARK Flexibility Score: inf
ROOT
ATOM      1  C   UNL     1      27.676   2.791  30.891  1.00  0.00     0.000 C 
ENDROOT
BRANCH   1   2
ATOM      2  C   UNL     1      27.812   1.364  31.454  1.00  0.00     0.000 C 
BRANCH   2   3
ATOM      3  C   UNL     1      29.277   0.909  31.558  1.00  0.00     0.000 C 
BRANCH   3   4
ATOM      4  C   UNL     1      29.866   0.482  30.201  1.00  0.00     0.000 C 
BRANCH   4   5
ATOM      5  C   UNL     1      28.978  -0.538  29.471  1.00  0.00     0.000 C 
BRANCH   5   6
ATOM      6  C   UNL     1      29.171  -1.973  29.993  1.00  0.00     0.000 C 
BRANCH   6   7
ATOM      7  C   UNL     1      27.871  -2.574  30.554  1.00  0.00     0.000 C 
BRANCH   7   8
ATOM      8  C   UNL     1      27.951  -4.101  30.722  1.00  0.00     0.000 C 
BRANCH   8   9
ATOM      9  C   UNL     1      28.935  -4.752  29.738  1.00  0.00     0.000 C 
BRANCH   9  10
ATOM     10  C   UNL     1      28.954  -6.285  29.838  1.00  0.00     0.006 C 
BRANCH  10  11
ATOM     11  C   UNL     1      28.364  -6.752  31.173  1.00  0.00     0.053 C 
BRANCH  11  12
ATOM     12  C   UNL     1      28.752  -8.170  31.459  1.00  0.00     0.041 C 
ATOM     13  O   UNL     1      28.343  -8.744  32.503  1.00  0.00    -0.550 OA
ATOM     14  O   UNL     1      29.573  -8.858  30.574  1.00  0.00    -0.550 OA
ENDBRANCH  11  12
ENDBRANCH  10  11
ENDBRANCH   9  10
ENDBRANCH   8   9
ENDBRANCH   7   8
ENDBRANCH   6   7
ENDBRANCH   5   6
ENDBRANCH   4   5
ENDBRANCH   3   4
ENDBRANCH   2   3
ENDBRANCH   1   2
BRANCH   1  15
ATOM     15  C   UNL     1      28.397   3.844  31.749  1.00  0.00     0.000 C 
BRANCH  15  16
ATOM     16  C   UNL     1      27.885   5.289  31.588  1.00  0.00     0.000 C 
BRANCH  16  17
ATOM     17  C   UNL     1      27.950   5.824  30.142  1.00  0.00     0.000 C 
BRANCH  17  18
ATOM     18  C   UNL     1      27.298   7.211  29.997  1.00  0.00    -0.000 C 
BRANCH  18  19
ATOM     19  C   UNL     1      28.310   8.352  30.215  1.00  0.00    -0.000 C 
BRANCH  19  20
ATOM     20  C   UNL     1      28.597   9.164  28.939  1.00  0.00    -0.000 C 
BRANCH  20  21
ATOM     21  C   UNL     1      27.755  10.450  28.868  1.00  0.00    -0.000 C 
BRANCH  21  22
ATOM     22  C   UNL     1      27.554  11.113  30.241  1.00  0.00    -0.000 C 
BRANCH  22  23
ATOM     23  C   UNL     1      26.087  11.120  30.717  1.00  0.00    -0.000 C 
BRANCH  23  24
ATOM     24  C   UNL     1      25.918  10.437  32.082  1.00  0.00    -0.000 C 
BRANCH  24  25
ATOM     25  C   UNL     1      26.953  10.948  33.088  1.00  0.00    -0.003 C 
ATOM     26  C   UNL     1      26.482  10.727  34.523  1.00  0.00     0.004 C 
ENDBRANCH  24  25
ENDBRANCH  23  24
ENDBRANCH  22  23
ENDBRANCH  21  22
ENDBRANCH  20  21
ENDBRANCH  19  20
ENDBRANCH  18  19
ENDBRANCH  17  18
ENDBRANCH  16  17
ENDBRANCH  15  16
ENDBRANCH   1  15
TORSDOF 22
ENDMDL
MODEL 6
REMARK VINA RESULT:    -4.966      5.578     12.732
REMARK INTER + INTRA:         -13.142
REMARK INTER:                 -11.563
REMARK INTRA:                  -1.579
REMARK UNBOUND:                -1.789
REMARK SMILES CCCCCCCCCCCCCCCCCCCCCCCC(=O)[O-]
REMARK SMILES IDX 13 1 14 2 15 3 16 4 17 5 18 6 19 7 20 8 21 9 22 10 23 11
REMARK SMILES IDX 24 12 25 13 26 14 12 15 11 16 10 17 9 18 8 19 7 20 6 21 5 22
REMARK SMILES IDX 4 23 3 24 2 25 1 26
REMARK H PARENT
REMARK Flexibility Score: inf
ROOT
ATOM      1  C   UNL     1      27.118   0.971  31.298  1.00  0.00     0.000 C 
ENDROOT
BRANCH   1   2
ATOM      2  C   UNL     1      27.997  -0.094  31.979  1.00  0.00     0.000 C 
BRANCH   2   3
ATOM      3  C   UNL     1      29.498   0.219  31.864  1.00  0.00     0.000 C 
BRANCH   3   4
ATOM      4  C   UNL     1      30.026   0.085  30.424  1.00  0.00     0.000 C 
BRANCH   4   5
ATOM      5  C   UNL     1      29.484  -1.165  29.714  1.00  0.00     0.000 C 
BRANCH   5   6
ATOM      6  C   UNL     1      30.317  -2.424  30.013  1.00  0.00     0.000 C 
BRANCH   6   7
ATOM      7  C   UNL     1      29.579  -3.720  29.635  1.00  0.00     0.000 C 
BRANCH   7   8
ATOM      8  C   UNL     1      28.232  -3.867  30.363  1.00  0.00     0.000 C 
BRANCH   8   9
ATOM      9  C   UNL     1      27.890  -5.331  30.681  1.00  0.00     0.000 C 
BRANCH   9  10
ATOM     10  C   UNL     1      28.657  -6.330  29.801  1.00  0.00     0.006 C 
BRANCH  10  11
ATOM     11  C   UNL     1      29.439  -7.328  30.662  1.00  0.00     0.053 C 
BRANCH  11  12
ATOM     12  C   UNL     1      28.541  -8.413  31.168  1.00  0.00     0.041 C 
ATOM     13  O   UNL     1      27.881  -9.121  30.361  1.00  0.00    -0.550 OA
ATOM     14  O   UNL     1      28.426  -8.641  32.534  1.00  0.00    -0.550 OA
ENDBRANCH  11  12
ENDBRANCH  10  11
ENDBRANCH   9  10
ENDBRANCH   8   9
ENDBRANCH   7   8
ENDBRANCH   6   7
ENDBRANCH   5   6
ENDBRANCH   4   5
ENDBRANCH   3   4
ENDBRANCH   2   3
ENDBRANCH   1   2
BRANCH   1  15
ATOM     15  C   UNL     1      26.521   0.491  29.965  1.00  0.00     0.000 C 
BRANCH  15  16
ATOM     16  C   UNL     1      26.503   1.539  28.834  1.00  0.00     0.000 C 
BRANCH  16  17
ATOM     17  C   UNL     1      27.573   2.642  28.981  1.00  0.00     0.000 C 
BRANCH  17  18
ATOM     18  C   UNL     1      27.196   3.931  28.229  1.00  0.00    -0.000 C 
BRANCH  18  19
ATOM     19  C   UNL     1      27.707   5.193  28.950  1.00  0.00    -0.000 C 
BRANCH  19  20
ATOM     20  C   UNL     1      26.653   5.841  29.865  1.00  0.00    -0.000 C 
BRANCH  20  21
ATOM     21  C   UNL     1      27.262   6.914  30.784  1.00  0.00    -0.000 C 
BRANCH  21  22
ATOM     22  C   UNL     1      27.211   8.326  30.173  1.00  0.00    -0.000 C 
BRANCH  22  23
ATOM     23  C   UNL     1      28.397   9.222  30.586  1.00  0.00    -0.000 C 
BRANCH  23  24
ATOM     24  C   UNL     1      28.238  10.663  30.079  1.00  0.00    -0.000 C 
BRANCH  24  25
ATOM     25  C   UNL     1      27.208  10.740  28.947  1.00  0.00    -0.003 C 
ATOM     26  C   UNL     1      27.872  11.106  27.623  1.00  0.00     0.004 C 
ENDBRANCH  24  25
ENDBRANCH  23  24
ENDBRANCH  22  23
ENDBRANCH  21  22
ENDBRANCH  20  21
ENDBRANCH  19  20
ENDBRANCH  18  19
ENDBRANCH  17  18
ENDBRANCH  16  17
ENDBRANCH  15  16
ENDBRANCH   1  15
TORSDOF 22
ENDMDL
MODEL 7
REMARK VINA RESULT:    -4.885      1.255      2.027
REMARK INTER + INTRA:         -12.958
REMARK INTER:                 -11.287
REMARK INTRA:                  -1.671
REMARK UNBOUND:                -1.789
REMARK SMILES CCCCCCCCCCCCCCCCCCCCCCCC(=O)[O-]
REMARK SMILES IDX 13 1 14 2 15 3 16 4 17 5 18 6 19 7 20 8 21 9 22 10 23 11
REMARK SMILES IDX 24 12 25 13 26 14 12 15 11 16 10 17 9 18 8 19 7 20 6 21 5 22
REMARK SMILES IDX 4 23 3 24 2 25 1 26
REMARK H PARENT
REMARK Flexibility Score: inf
ROOT
ATOM      1  C   UNL     1      27.708  -0.195  31.737  1.00  0.00     0.000 C 
ENDROOT
BRANCH   1   2
ATOM      2  C   UNL     1      26.734   0.785  31.055  1.00  0.00     0.000 C 
BRANCH   2   3
ATOM      3  C   UNL     1      26.450   0.411  29.592  1.00  0.00     0.000 C 
BRANCH   3   4
ATOM      4  C   UNL     1      27.127   1.364  28.591  1.00  0.00     0.000 C 
BRANCH   4   5
ATOM      5  C   UNL     1      26.484   2.760  28.583  1.00  0.00     0.000 C 
BRANCH   5   6
ATOM      6  C   UNL     1      27.490   3.877  28.912  1.00  0.00     0.000 C 
BRANCH   6   7
ATOM      7  C   UNL     1      27.953   3.837  30.378  1.00  0.00     0.000 C 
BRANCH   7   8
ATOM      8  C   UNL     1      27.905   5.220  31.051  1.00  0.00     0.000 C 
BRANCH   8   9
ATOM      9  C   UNL     1      27.128   6.253  30.220  1.00  0.00     0.000 C 
BRANCH   9  10
ATOM     10  C   UNL     1      27.937   7.530  29.945  1.00  0.00     0.006 C 
BRANCH  10  11
ATOM     11  C   UNL     1      27.293   8.742  30.628  1.00  0.00     0.053 C 
BRANCH  11  12
ATOM     12  C   UNL     1      27.189   9.894  29.678  1.00  0.00     0.041 C 
ATOM     13  O   UNL     1      28.116  10.129  28.858  1.00  0.00    -0.550 OA
ATOM     14  O   UNL     1      26.069  10.716  29.702  1.00  0.00    -0.550 OA
ENDBRANCH  11  12
ENDBRANCH  10  11
ENDBRANCH   9  10
ENDBRANCH   8   9
ENDBRANCH   7   8
ENDBRANCH   6   7
ENDBRANCH   5   6
ENDBRANCH   4   5
ENDBRANCH   3   4
ENDBRANCH   2   3
ENDBRANCH   1   2
BRANCH   1  15
ATOM     15  C   UNL     1      29.181   0.109  31.420  1.00  0.00     0.000 C 
BRANCH  15  16
ATOM     16  C   UNL     1      29.829  -0.799  30.356  1.00  0.00     0.000 C 
BRANCH  16  17
ATOM     17  C   UNL     1      29.059  -2.111  30.094  1.00  0.00     0.000 C 
BRANCH  17  18
ATOM     18  C   UNL     1      29.988  -3.268  29.686  1.00  0.00    -0.000 C 
BRANCH  18  19
ATOM     19  C   UNL     1      29.212  -4.438  29.052  1.00  0.00    -0.000 C 
BRANCH  19  20
ATOM     20  C   UNL     1      28.206  -5.095  30.014  1.00  0.00    -0.000 C 
BRANCH  20  21
ATOM     21  C   UNL     1      28.894  -6.033  31.022  1.00  0.00    -0.000 C 
BRANCH  21  22
ATOM     22  C   UNL     1      28.237  -7.422  31.094  1.00  0.00    -0.000 C 
BRANCH  22  23
ATOM     23  C   UNL     1      29.232  -8.564  31.388  1.00  0.00    -0.000 C 
BRANCH  23  24
ATOM     24  C   UNL     1      29.913  -9.081  30.112  1.00  0.00    -0.000 C 
BRANCH  24  25
ATOM     25  C   UNL     1      29.031  -8.847  28.882  1.00  0.00    -0.003 C 
ATOM     26  C   UNL     1      29.859  -8.867  27.600  1.00  0.00     0.004 C 
ENDBRANCH  24  25
ENDBRANCH  23  24
ENDBRANCH  22  23
ENDBRANCH  21  22
ENDBRANCH  20  21
ENDBRANCH  19  20
ENDBRANCH  18  19
ENDBRANCH  17  18
ENDBRANCH  16  17
ENDBRANCH  15  16
ENDBRANCH   1  15
TORSDOF 22
ENDMDL
MODEL 8
REMARK VINA RESULT:    -4.841      1.214      2.260
REMARK INTER + INTRA:         -12.857
REMARK INTER:                 -10.669
REMARK INTRA:                  -2.188
REMARK UNBOUND:                -1.789
REMARK SMILES CCCCCCCCCCCCCCCCCCCCCCCC(=O)[O-]
REMARK SMILES IDX 13 1 14 2 15 3 16 4 17 5 18 6 19 7 20 8 21 9 22 10 23 11
REMARK SMILES IDX 24 12 25 13 26 14 12 15 11 16 10 17 9 18 8 19 7 20 6 21 5 22
REMARK SMILES IDX 4 23 3 24 2 25 1 26
REMARK H PARENT
REMARK Flexibility Score: inf
ROOT
ATOM      1  C   UNL     1      29.787   0.618  31.868  1.00  0.00     0.000 C 
ENDROOT
BRANCH   1   2
ATOM      2  C   UNL     1      30.265   0.343  30.430  1.00  0.00     0.000 C 
BRANCH   2   3
ATOM      3  C   UNL     1      29.675   1.333  29.413  1.00  0.00     0.000 C 
BRANCH   3   4
ATOM      4  C   UNL     1      28.556   0.713  28.558  1.00  0.00     0.000 C 
BRANCH   4   5
ATOM      5  C   UNL     1      27.229   1.477  28.685  1.00  0.00     0.000 C 
BRANCH   5   6
ATOM      6  C   UNL     1      27.397   2.847  29.367  1.00  0.00     0.000 C 
BRANCH   6   7
ATOM      7  C   UNL     1      26.964   4.012  28.460  1.00  0.00     0.000 C 
BRANCH   7   8
ATOM      8  C   UNL     1      26.566   5.265  29.257  1.00  0.00     0.000 C 
BRANCH   8   9
ATOM      9  C   UNL     1      27.774   5.962  29.903  1.00  0.00     0.000 C 
BRANCH   9  10
ATOM     10  C   UNL     1      27.378   7.175  30.759  1.00  0.00     0.006 C 
BRANCH  10  11
ATOM     11  C   UNL     1      28.014   8.458  30.214  1.00  0.00     0.053 C 
BRANCH  11  12
ATOM     12  C   UNL     1      27.020   9.577  30.192  1.00  0.00     0.041 C 
ATOM     13  O   UNL     1      26.136   9.661  31.086  1.00  0.00    -0.550 OA
ATOM     14  O   UNL     1      27.064  10.528  29.180  1.00  0.00    -0.550 OA
ENDBRANCH  11  12
ENDBRANCH  10  11
ENDBRANCH   9  10
ENDBRANCH   8   9
ENDBRANCH   7   8
ENDBRANCH   6   7
ENDBRANCH   5   6
ENDBRANCH   4   5
ENDBRANCH   3   4
ENDBRANCH   2   3
ENDBRANCH   1   2
BRANCH   1  15
ATOM     15  C   UNL     1      28.665  -0.333  32.317  1.00  0.00     0.000 C 
BRANCH  15  16
ATOM     16  C   UNL     1      27.249   0.046  31.841  1.00  0.00     0.000 C 
BRANCH  16  17
ATOM     17  C   UNL     1      26.517  -1.080  31.081  1.00  0.00     0.000 C 
BRANCH  17  18
ATOM     18  C   UNL     1      27.473  -2.192  30.613  1.00  0.00    -0.000 C 
BRANCH  18  19
ATOM     19  C   UNL     1      26.804  -3.580  30.638  1.00  0.00    -0.000 C 
BRANCH  19  20
ATOM     20  C   UNL     1      27.652  -4.652  31.346  1.00  0.00    -0.000 C 
BRANCH  20  21
ATOM     21  C   UNL     1      29.040  -4.812  30.703  1.00  0.00    -0.000 C 
BRANCH  21  22
ATOM     22  C   UNL     1      29.197  -6.137  29.935  1.00  0.00    -0.000 C 
BRANCH  22  23
ATOM     23  C   UNL     1      27.877  -6.918  29.772  1.00  0.00    -0.000 C 
BRANCH  23  24
ATOM     24  C   UNL     1      28.047  -8.413  30.077  1.00  0.00    -0.000 C 
BRANCH  24  25
ATOM     25  C   UNL     1      29.081  -8.636  31.184  1.00  0.00    -0.003 C 
ATOM     26  C   UNL     1      28.412  -8.719  32.553  1.00  0.00     0.004 C 
ENDBRANCH  24  25
ENDBRANCH  23  24
ENDBRANCH  22  23
ENDBRANCH  21  22
ENDBRANCH  20  21
ENDBRANCH  19  20
ENDBRANCH  18  19
ENDBRANCH  17  18
ENDBRANCH  16  17
ENDBRANCH  15  16
ENDBRANCH   1  15
TORSDOF 22
ENDMDL
