MODEL 1
REMARK VINA RESULT:    -4.411      0.000      0.000
REMARK INTER + INTRA:         -15.409
REMARK INTER:                 -11.116
REMARK INTRA:                  -4.293
REMARK UNBOUND:                -4.293
REMARK SMILES CCCCCCCCCCCCCCCCCCCCCCCCCCCC(=O)[O-]
REMARK SMILES IDX 15 1 16 2 17 3 18 4 19 5 20 6 21 7 22 8 23 9 24 10 25 11
REMARK SMILES IDX 26 12 27 13 28 14 29 15 30 16 14 17 13 18 12 19 11 20 10 21
REMARK SMILES IDX 9 22 8 23 7 24 6 25 5 26 4 27 3 28 2 29 1 30
REMARK H PARENT
REMARK Flexibility Score: inf
ROOT
ATOM      1  C   UNL     1      44.043   9.808  21.484  1.00  0.00     0.000 C 
ENDROOT
BRANCH   1   2
ATOM      2  C   UNL     1      44.207   8.394  22.072  1.00  0.00     0.000 C 
BRANCH   2   3
ATOM      3  C   UNL     1      45.631   8.038  22.535  1.00  0.00     0.000 C 
BRANCH   3   4
ATOM      4  C   UNL     1      45.766   7.971  24.065  1.00  0.00     0.000 C 
BRANCH   4   5
ATOM      5  C   UNL     1      45.348   9.281  24.760  1.00  0.00     0.000 C 
BRANCH   5   6
ATOM      6  C   UNL     1      44.048   9.203  25.587  1.00  0.00     0.000 C 
BRANCH   6   7
ATOM      7  C   UNL     1      42.902  10.107  25.099  1.00  0.00     0.000 C 
BRANCH   7   8
ATOM      8  C   UNL     1      42.447  11.118  26.165  1.00  0.00     0.000 C 
BRANCH   8   9
ATOM      9  C   UNL     1      41.039  10.816  26.705  1.00  0.00     0.000 C 
BRANCH   9  10
ATOM     10  C   UNL     1      40.157  12.070  26.794  1.00  0.00     0.000 C 
BRANCH  10  11
ATOM     11  C   UNL     1      38.813  11.848  26.091  1.00  0.00     0.000 C 
BRANCH  11  12
ATOM     12  C   UNL     1      38.188  10.508  26.507  1.00  0.00     0.006 C 
BRANCH  12  13
ATOM     13  C   UNL     1      36.762  10.339  25.967  1.00  0.00     0.053 C 
BRANCH  13  14
ATOM     14  C   UNL     1      36.097   9.118  26.526  1.00  0.00     0.041 C 
ATOM     15  O   UNL     1      35.945   8.993  27.769  1.00  0.00    -0.550 OA
ATOM     16  O   UNL     1      35.673   8.105  25.675  1.00  0.00    -0.550 OA
ENDBRANCH  13  14
ENDBRANCH  12  13
ENDBRANCH  11  12
ENDBRANCH  10  11
ENDBRANCH   9  10
ENDBRANCH   8   9
ENDBRANCH   7   8
ENDBRANCH   6   7
ENDBRANCH   5   6
ENDBRANCH   4   5
ENDBRANCH   3   4
ENDBRANCH   2   3
ENDBRANCH   1   2
BRANCH   1  17
ATOM     17  C   UNL     1      45.374  10.430  21.033  1.00  0.00     0.000 C 
BRANCH  17  18
ATOM     18  C   UNL     1      45.627  11.764  21.751  1.00  0.00     0.000 C 
BRANCH  18  19
ATOM     19  C   UNL     1      44.400  12.266  22.530  1.00  0.00     0.000 C 
BRANCH  19  20
ATOM     20  C   UNL     1      44.758  13.344  23.567  1.00  0.00     0.000 C 
BRANCH  20  21
ATOM     21  C   UNL     1      45.816  14.331  23.049  1.00  0.00     0.000 C 
BRANCH  21  22
ATOM     22  C   UNL     1      45.507  15.790  23.431  1.00  0.00    -0.000 C 
BRANCH  22  23
ATOM     23  C   UNL     1      45.160  16.652  22.198  1.00  0.00    -0.000 C 
BRANCH  23  24
ATOM     24  C   UNL     1      44.807  15.828  20.948  1.00  0.00    -0.000 C 
BRANCH  24  25
ATOM     25  C   UNL     1      43.585  16.379  20.195  1.00  0.00    -0.000 C 
BRANCH  25  26
ATOM     26  C   UNL     1      42.394  16.654  21.128  1.00  0.00    -0.000 C 
BRANCH  26  27
ATOM     27  C   UNL     1      41.937  15.399  21.890  1.00  0.00    -0.000 C 
BRANCH  27  28
ATOM     28  C   UNL     1      41.797  15.639  23.404  1.00  0.00    -0.000 C 
BRANCH  28  29
ATOM     29  C   UNL     1      41.303  14.421  24.205  1.00  0.00    -0.003 C 
ATOM     30  C   UNL     1      40.963  13.221  23.322  1.00  0.00     0.004 C 
ENDBRANCH  28  29
ENDBRANCH  27  28
ENDBRANCH  26  27
ENDBRANCH  25  26
ENDBRANCH  24  25
ENDBRANCH  23  24
ENDBRANCH  22  23
ENDBRANCH  21  22
ENDBRANCH  20  21
ENDBRANCH  19  20
ENDBRANCH  18  19
ENDBRANCH  17  18
ENDBRANCH   1  17
TORSDOF 26
ENDMDL
MODEL 2
REMARK VINA RESULT:    -4.374      2.271      6.293
REMARK INTER + INTRA:         -15.316
REMARK INTER:                 -10.058
REMARK INTRA:                  -5.257
REMARK UNBOUND:                -4.293
REMARK SMILES CCCCCCCCCCCCCCCCCCCCCCCCCCCC(=O)[O-]
REMARK SMILES IDX 15 1 16 2 17 3 18 4 19 5 20 6 21 7 22 8 23 9 24 10 25 11
REMARK SMILES IDX 26 12 27 13 28 14 29 15 30 16 14 17 13 18 12 19 11 20 10 21
REMARK SMILES IDX 9 22 8 23 7 24 6 25 5 26 4 27 3 28 2 29 1 30
REMARK H PARENT
REMARK Flexibility Score: inf
ROOT
ATOM      1  C   UNL     1      41.696  16.037  21.474  1.00  0.00     0.000 C 
ENDROOT
BRANCH   1   2
ATOM      2  C   UNL     1      42.901  16.743  20.825  1.00  0.00     0.000 C 
BRANCH   2   3
ATOM      3  C   UNL     1      44.264  16.072  21.070  1.00  0.00     0.000 C 
BRANCH   3   4
ATOM      4  C   UNL     1      45.351  17.066  21.513  1.00  0.00     0.000 C 
BRANCH   4   5
ATOM      5  C   UNL     1      45.533  17.113  23.041  1.00  0.00     0.000 C 
BRANCH   5   6
ATOM      6  C   UNL     1      45.853  15.759  23.709  1.00  0.00     0.000 C 
BRANCH   6   7
ATOM      7  C   UNL     1      45.250  15.556  25.110  1.00  0.00     0.000 C 
BRANCH   7   8
ATOM      8  C   UNL     1      44.177  16.604  25.453  1.00  0.00     0.000 C 
BRANCH   8   9
ATOM      9  C   UNL     1      43.091  16.053  26.392  1.00  0.00     0.000 C 
BRANCH   9  10
ATOM     10  C   UNL     1      42.923  14.530  26.274  1.00  0.00     0.000 C 
BRANCH  10  11
ATOM     11  C   UNL     1      41.729  14.043  27.103  1.00  0.00     0.000 C 
BRANCH  11  12
ATOM     12  C   UNL     1      40.515  13.759  26.206  1.00  0.00     0.006 C 
BRANCH  12  13
ATOM     13  C   UNL     1      39.441  12.933  26.925  1.00  0.00     0.053 C 
BRANCH  13  14
ATOM     14  C   UNL     1      38.928  13.631  28.147  1.00  0.00     0.041 C 
ATOM     15  O   UNL     1      38.312  14.724  28.041  1.00  0.00    -0.550 OA
ATOM     16  O   UNL     1      39.157  13.089  29.406  1.00  0.00    -0.550 OA
ENDBRANCH  13  14
ENDBRANCH  12  13
ENDBRANCH  11  12
ENDBRANCH  10  11
ENDBRANCH   9  10
ENDBRANCH   8   9
ENDBRANCH   7   8
ENDBRANCH   6   7
ENDBRANCH   5   6
ENDBRANCH   4   5
ENDBRANCH   3   4
ENDBRANCH   2   3
ENDBRANCH   1   2
BRANCH   1  17
ATOM     17  C   UNL     1      42.086  15.170  22.681  1.00  0.00     0.000 C 
BRANCH  17  18
ATOM     18  C   UNL     1      41.321  13.837  22.669  1.00  0.00     0.000 C 
BRANCH  18  19
ATOM     19  C   UNL     1      42.205  12.638  23.047  1.00  0.00     0.000 C 
BRANCH  19  20
ATOM     20  C   UNL     1      43.705  12.982  23.036  1.00  0.00     0.000 C 
BRANCH  20  21
ATOM     21  C   UNL     1      44.520  12.035  22.140  1.00  0.00     0.000 C 
BRANCH  21  22
ATOM     22  C   UNL     1      43.815  10.687  21.902  1.00  0.00    -0.000 C 
BRANCH  22  23
ATOM     23  C   UNL     1      44.777   9.623  21.331  1.00  0.00    -0.000 C 
BRANCH  23  24
ATOM     24  C   UNL     1      45.941   9.272  22.274  1.00  0.00    -0.000 C 
BRANCH  24  25
ATOM     25  C   UNL     1      45.705   7.966  23.051  1.00  0.00    -0.000 C 
BRANCH  25  26
ATOM     26  C   UNL     1      45.410   8.212  24.539  1.00  0.00    -0.000 C 
BRANCH  26  27
ATOM     27  C   UNL     1      45.710   9.658  24.971  1.00  0.00    -0.000 C 
BRANCH  27  28
ATOM     28  C   UNL     1      44.489  10.358  25.594  1.00  0.00    -0.000 C 
BRANCH  28  29
ATOM     29  C   UNL     1      43.158   9.602  25.426  1.00  0.00    -0.003 C 
ATOM     30  C   UNL     1      41.963  10.357  26.007  1.00  0.00     0.004 C 
ENDBRANCH  28  29
ENDBRANCH  27  28
ENDBRANCH  26  27
ENDBRANCH  25  26
ENDBRANCH  24  25
ENDBRANCH  23  24
ENDBRANCH  22  23
ENDBRANCH  21  22
ENDBRANCH  20  21
ENDBRANCH  19  20
ENDBRANCH  18  19
ENDBRANCH  17  18
ENDBRANCH   1  17
TORSDOF 26
ENDMDL
MODEL 3
REMARK VINA RESULT:    -4.314      1.192      5.683
REMARK INTER + INTRA:         -15.165
REMARK INTER:                 -10.355
REMARK INTRA:                  -4.810
REMARK UNBOUND:                -4.293
REMARK SMILES CCCCCCCCCCCCCCCCCCCCCCCCCCCC(=O)[O-]
REMARK SMILES IDX 15 1 16 2 17 3 18 4 19 5 20 6 21 7 22 8 23 9 24 10 25 11
REMARK SMILES IDX 26 12 27 13 28 14 29 15 30 16 14 17 13 18 12 19 11 20 10 21
REMARK SMILES IDX 9 22 8 23 7 24 6 25 5 26 4 27 3 28 2 29 1 30
REMARK H PARENT
REMARK Flexibility Score: inf
ROOT
ATOM      1  C   UNL     1      44.617  15.999  20.361  1.00  0.00     0.000 C 
ENDROOT
BRANCH   1   2
ATOM      2  C   UNL     1      43.643  16.669  21.348  1.00  0.00     0.000 C 
BRANCH   2   3
ATOM      3  C   UNL     1      42.154  16.360  21.110  1.00  0.00     0.000 C 
BRANCH   3   4
ATOM      4  C   UNL     1      41.624  15.232  22.010  1.00  0.00     0.000 C 
BRANCH   4   5
ATOM      5  C   UNL     1      42.069  15.379  23.477  1.00  0.00     0.000 C 
BRANCH   5   6
ATOM      6  C   UNL     1      41.257  14.555  24.499  1.00  0.00     0.000 C 
BRANCH   6   7
ATOM      7  C   UNL     1      40.813  13.162  24.018  1.00  0.00     0.000 C 
BRANCH   7   8
ATOM      8  C   UNL     1      40.287  12.278  25.161  1.00  0.00     0.000 C 
BRANCH   8   9
ATOM      9  C   UNL     1      40.128  13.050  26.481  1.00  0.00     0.000 C 
BRANCH   9  10
ATOM     10  C   UNL     1      40.437  12.186  27.713  1.00  0.00     0.000 C 
BRANCH  10  11
ATOM     11  C   UNL     1      40.473  10.698  27.346  1.00  0.00     0.000 C 
BRANCH  11  12
ATOM     12  C   UNL     1      39.281   9.950  27.961  1.00  0.00     0.006 C 
BRANCH  12  13
ATOM     13  C   UNL     1      38.035  10.006  27.068  1.00  0.00     0.053 C 
BRANCH  13  14
ATOM     14  C   UNL     1      36.798  10.307  27.858  1.00  0.00     0.041 C 
ATOM     15  O   UNL     1      35.729   9.684  27.622  1.00  0.00    -0.550 OA
ATOM     16  O   UNL     1      36.818  11.296  28.833  1.00  0.00    -0.550 OA
ENDBRANCH  13  14
ENDBRANCH  12  13
ENDBRANCH  11  12
ENDBRANCH  10  11
ENDBRANCH   9  10
ENDBRANCH   8   9
ENDBRANCH   7   8
ENDBRANCH   6   7
ENDBRANCH   5   6
ENDBRANCH   4   5
ENDBRANCH   3   4
ENDBRANCH   2   3
ENDBRANCH   1   2
BRANCH   1  17
ATOM     17  C   UNL     1      45.896  15.481  21.037  1.00  0.00     0.000 C 
BRANCH  17  18
ATOM     18  C   UNL     1      45.557  14.594  22.245  1.00  0.00     0.000 C 
BRANCH  18  19
ATOM     19  C   UNL     1      45.004  13.218  21.839  1.00  0.00     0.000 C 
BRANCH  19  20
ATOM     20  C   UNL     1      44.257  12.519  22.988  1.00  0.00     0.000 C 
BRANCH  20  21
ATOM     21  C   UNL     1      44.966  12.690  24.341  1.00  0.00     0.000 C 
BRANCH  21  22
ATOM     22  C   UNL     1      44.086  12.267  25.532  1.00  0.00    -0.000 C 
BRANCH  22  23
ATOM     23  C   UNL     1      44.249  10.771  25.872  1.00  0.00    -0.000 C 
BRANCH  23  24
ATOM     24  C   UNL     1      43.164   9.874  25.253  1.00  0.00    -0.000 C 
BRANCH  24  25
ATOM     25  C   UNL     1      43.691   8.485  24.857  1.00  0.00    -0.000 C 
BRANCH  25  26
ATOM     26  C   UNL     1      45.226   8.409  24.885  1.00  0.00    -0.000 C 
BRANCH  26  27
ATOM     27  C   UNL     1      45.828   8.090  23.506  1.00  0.00    -0.000 C 
BRANCH  27  28
ATOM     28  C   UNL     1      45.837   9.308  22.564  1.00  0.00    -0.000 C 
BRANCH  28  29
ATOM     29  C   UNL     1      45.153   9.075  21.205  1.00  0.00    -0.003 C 
ATOM     30  C   UNL     1      43.636   9.263  21.257  1.00  0.00     0.004 C 
ENDBRANCH  28  29
ENDBRANCH  27  28
ENDBRANCH  26  27
ENDBRANCH  25  26
ENDBRANCH  24  25
ENDBRANCH  23  24
ENDBRANCH  22  23
ENDBRANCH  21  22
ENDBRANCH  20  21
ENDBRANCH  19  20
ENDBRANCH  18  19
ENDBRANCH  17  18
ENDBRANCH   1  17
TORSDOF 26
ENDMDL
MODEL 4
REMARK VINA RESULT:    -4.306      1.479      3.551
REMARK INTER + INTRA:         -15.144
REMARK INTER:                 -10.254
REMARK INTRA:                  -4.890
REMARK UNBOUND:                -4.293
REMARK SMILES CCCCCCCCCCCCCCCCCCCCCCCCCCCC(=O)[O-]
REMARK SMILES IDX 15 1 16 2 17 3 18 4 19 5 20 6 21 7 22 8 23 9 24 10 25 11
REMARK SMILES IDX 26 12 27 13 28 14 29 15 30 16 14 17 13 18 12 19 11 20 10 21
REMARK SMILES IDX 9 22 8 23 7 24 6 25 5 26 4 27 3 28 2 29 1 30
REMARK H PARENT
REMARK Flexibility Score: inf
ROOT
ATOM      1  C   UNL     1      45.528  12.226  21.496  1.00  0.00     0.000 C 
ENDROOT
BRANCH   1   2
ATOM      2  C   UNL     1      44.517  11.526  22.423  1.00  0.00     0.000 C 
BRANCH   2   3
ATOM      3  C   UNL     1      43.677  10.420  21.760  1.00  0.00     0.000 C 
BRANCH   3   4
ATOM      4  C   UNL     1      44.535   9.340  21.080  1.00  0.00     0.000 C 
BRANCH   4   5
ATOM      5  C   UNL     1      44.679   8.066  21.934  1.00  0.00     0.000 C 
BRANCH   5   6
ATOM      6  C   UNL     1      45.907   8.033  22.868  1.00  0.00     0.000 C 
BRANCH   6   7
ATOM      7  C   UNL     1      45.635   8.439  24.328  1.00  0.00     0.000 C 
BRANCH   7   8
ATOM      8  C   UNL     1      44.135   8.464  24.669  1.00  0.00     0.000 C 
BRANCH   8   9
ATOM      9  C   UNL     1      43.792   9.501  25.751  1.00  0.00     0.000 C 
BRANCH   9  10
ATOM     10  C   UNL     1      42.625  10.414  25.347  1.00  0.00     0.000 C 
BRANCH  10  11
ATOM     11  C   UNL     1      41.510  10.380  26.400  1.00  0.00     0.000 C 
BRANCH  11  12
ATOM     12  C   UNL     1      40.284  11.178  25.931  1.00  0.00     0.006 C 
BRANCH  12  13
ATOM     13  C   UNL     1      39.138  11.135  26.949  1.00  0.00     0.053 C 
BRANCH  13  14
ATOM     14  C   UNL     1      38.038  10.217  26.510  1.00  0.00     0.041 C 
ATOM     15  O   UNL     1      38.166   8.971  26.634  1.00  0.00    -0.550 OA
ATOM     16  O   UNL     1      36.885  10.737  25.935  1.00  0.00    -0.550 OA
ENDBRANCH  13  14
ENDBRANCH  12  13
ENDBRANCH  11  12
ENDBRANCH  10  11
ENDBRANCH   9  10
ENDBRANCH   8   9
ENDBRANCH   7   8
ENDBRANCH   6   7
ENDBRANCH   5   6
ENDBRANCH   4   5
ENDBRANCH   3   4
ENDBRANCH   2   3
ENDBRANCH   1   2
BRANCH   1  17
ATOM     17  C   UNL     1      46.103  13.518  22.097  1.00  0.00     0.000 C 
BRANCH  17  18
ATOM     18  C   UNL     1      45.849  14.716  21.169  1.00  0.00     0.000 C 
BRANCH  18  19
ATOM     19  C   UNL     1      45.835  16.059  21.916  1.00  0.00     0.000 C 
BRANCH  19  20
ATOM     20  C   UNL     1      44.630  16.935  21.534  1.00  0.00     0.000 C 
BRANCH  20  21
ATOM     21  C   UNL     1      43.660  16.220  20.580  1.00  0.00     0.000 C 
BRANCH  21  22
ATOM     22  C   UNL     1      42.183  16.445  20.952  1.00  0.00    -0.000 C 
BRANCH  22  23
ATOM     23  C   UNL     1      41.859  15.940  22.374  1.00  0.00    -0.000 C 
BRANCH  23  24
ATOM     24  C   UNL     1      41.874  14.407  22.503  1.00  0.00    -0.000 C 
BRANCH  24  25
ATOM     25  C   UNL     1      42.207  13.931  23.927  1.00  0.00    -0.000 C 
BRANCH  25  26
ATOM     26  C   UNL     1      43.462  14.611  24.496  1.00  0.00    -0.000 C 
BRANCH  26  27
ATOM     27  C   UNL     1      44.290  13.673  25.390  1.00  0.00    -0.000 C 
BRANCH  27  28
ATOM     28  C   UNL     1      44.290  14.106  26.868  1.00  0.00    -0.000 C 
BRANCH  28  29
ATOM     29  C   UNL     1      43.339  13.303  27.773  1.00  0.00    -0.003 C 
ATOM     30  C   UNL     1      41.922  13.876  27.810  1.00  0.00     0.004 C 
ENDBRANCH  28  29
ENDBRANCH  27  28
ENDBRANCH  26  27
ENDBRANCH  25  26
ENDBRANCH  24  25
ENDBRANCH  23  24
ENDBRANCH  22  23
ENDBRANCH  21  22
ENDBRANCH  20  21
ENDBRANCH  19  20
ENDBRANCH  18  19
ENDBRANCH  17  18
ENDBRANCH   1  17
TORSDOF 26
ENDMDL
MODEL 5
REMARK VINA RESULT:    -4.291      3.415      5.508
REMARK INTER + INTRA:         -15.108
REMARK INTER:                  -9.821
REMARK INTRA:                  -5.287
REMARK UNBOUND:                -4.293
REMARK SMILES CCCCCCCCCCCCCCCCCCCCCCCCCCCC(=O)[O-]
REMARK SMILES IDX 15 1 16 2 17 3 18 4 19 5 20 6 21 7 22 8 23 9 24 10 25 11
REMARK SMILES IDX 26 12 27 13 28 14 29 15 30 16 14 17 13 18 12 19 11 20 10 21
REMARK SMILES IDX 9 22 8 23 7 24 6 25 5 26 4 27 3 28 2 29 1 30
REMARK H PARENT
REMARK Flexibility Score: inf
ROOT
ATOM      1  C   UNL     1      45.343  11.648  21.505  1.00  0.00     0.000 C 
ENDROOT
BRANCH   1   2
ATOM      2  C   UNL     1      44.023  10.951  21.882  1.00  0.00     0.000 C 
BRANCH   2   3
ATOM      3  C   UNL     1      43.955   9.449  21.548  1.00  0.00     0.000 C 
BRANCH   3   4
ATOM      4  C   UNL     1      45.341   8.783  21.501  1.00  0.00     0.000 C 
BRANCH   4   5
ATOM      5  C   UNL     1      45.555   7.768  22.639  1.00  0.00     0.000 C 
BRANCH   5   6
ATOM      6  C   UNL     1      45.654   8.376  24.054  1.00  0.00     0.000 C 
BRANCH   6   7
ATOM      7  C   UNL     1      44.384   8.251  24.915  1.00  0.00     0.000 C 
BRANCH   7   8
ATOM      8  C   UNL     1      43.802   9.616  25.317  1.00  0.00     0.000 C 
BRANCH   8   9
ATOM      9  C   UNL     1      44.882  10.700  25.464  1.00  0.00     0.000 C 
BRANCH   9  10
ATOM     10  C   UNL     1      44.380  11.939  26.222  1.00  0.00     0.000 C 
BRANCH  10  11
ATOM     11  C   UNL     1      45.095  13.206  25.737  1.00  0.00     0.000 C 
BRANCH  11  12
ATOM     12  C   UNL     1      44.580  14.447  26.483  1.00  0.00     0.006 C 
BRANCH  12  13
ATOM     13  C   UNL     1      45.460  15.679  26.238  1.00  0.00     0.053 C 
BRANCH  13  14
ATOM     14  C   UNL     1      44.644  16.929  26.110  1.00  0.00     0.041 C 
ATOM     15  O   UNL     1      45.051  17.880  25.393  1.00  0.00    -0.550 OA
ATOM     16  O   UNL     1      43.450  17.055  26.808  1.00  0.00    -0.550 OA
ENDBRANCH  13  14
ENDBRANCH  12  13
ENDBRANCH  11  12
ENDBRANCH  10  11
ENDBRANCH   9  10
ENDBRANCH   8   9
ENDBRANCH   7   8
ENDBRANCH   6   7
ENDBRANCH   5   6
ENDBRANCH   4   5
ENDBRANCH   3   4
ENDBRANCH   2   3
ENDBRANCH   1   2
BRANCH   1  17
ATOM     17  C   UNL     1      45.680  12.834  22.421  1.00  0.00     0.000 C 
BRANCH  17  18
ATOM     18  C   UNL     1      45.573  14.164  21.659  1.00  0.00     0.000 C 
BRANCH  18  19
ATOM     19  C   UNL     1      45.601  15.389  22.588  1.00  0.00     0.000 C 
BRANCH  19  20
ATOM     20  C   UNL     1      44.750  16.554  22.054  1.00  0.00     0.000 C 
BRANCH  20  21
ATOM     21  C   UNL     1      43.990  16.188  20.769  1.00  0.00     0.000 C 
BRANCH  21  22
ATOM     22  C   UNL     1      42.550  16.733  20.753  1.00  0.00    -0.000 C 
BRANCH  22  23
ATOM     23  C   UNL     1      41.676  16.095  21.854  1.00  0.00    -0.000 C 
BRANCH  23  24
ATOM     24  C   UNL     1      41.603  14.560  21.773  1.00  0.00    -0.000 C 
BRANCH  24  25
ATOM     25  C   UNL     1      42.076  13.872  23.065  1.00  0.00    -0.000 C 
BRANCH  25  26
ATOM     26  C   UNL     1      41.816  14.726  24.316  1.00  0.00    -0.000 C 
BRANCH  26  27
ATOM     27  C   UNL     1      40.926  14.011  25.346  1.00  0.00    -0.000 C 
BRANCH  27  28
ATOM     28  C   UNL     1      41.010  12.477  25.243  1.00  0.00    -0.000 C 
BRANCH  28  29
ATOM     29  C   UNL     1      40.620  11.724  26.528  1.00  0.00    -0.003 C 
ATOM     30  C   UNL     1      39.996  10.355  26.253  1.00  0.00     0.004 C 
ENDBRANCH  28  29
ENDBRANCH  27  28
ENDBRANCH  26  27
ENDBRANCH  25  26
ENDBRANCH  24  25
ENDBRANCH  23  24
ENDBRANCH  22  23
ENDBRANCH  21  22
ENDBRANCH  20  21
ENDBRANCH  19  20
ENDBRANCH  18  19
ENDBRANCH  17  18
ENDBRANCH   1  17
TORSDOF 26
ENDMDL
MODEL 6
REMARK VINA RESULT:    -4.271      1.561      5.324
REMARK INTER + INTRA:         -15.056
REMARK INTER:                 -10.175
REMARK INTRA:                  -4.882
REMARK UNBOUND:                -4.293
REMARK SMILES CCCCCCCCCCCCCCCCCCCCCCCCCCCC(=O)[O-]
REMARK SMILES IDX 15 1 16 2 17 3 18 4 19 5 20 6 21 7 22 8 23 9 24 10 25 11
REMARK SMILES IDX 26 12 27 13 28 14 29 15 30 16 14 17 13 18 12 19 11 20 10 21
REMARK SMILES IDX 9 22 8 23 7 24 6 25 5 26 4 27 3 28 2 29 1 30
REMARK H PARENT
REMARK Flexibility Score: inf
ROOT
ATOM      1  C   UNL     1      45.341  15.221  20.750  1.00  0.00     0.000 C 
ENDROOT
BRANCH   1   2
ATOM      2  C   UNL     1      45.944  15.993  21.939  1.00  0.00     0.000 C 
BRANCH   2   3
ATOM      3  C   UNL     1      45.792  15.309  23.309  1.00  0.00     0.000 C 
BRANCH   3   4
ATOM      4  C   UNL     1      45.177  16.230  24.375  1.00  0.00     0.000 C 
BRANCH   4   5
ATOM      5  C   UNL     1      44.382  15.459  25.445  1.00  0.00     0.000 C 
BRANCH   5   6
ATOM      6  C   UNL     1      43.165  16.207  26.030  1.00  0.00     0.000 C 
BRANCH   6   7
ATOM      7  C   UNL     1      42.148  15.326  26.777  1.00  0.00     0.000 C 
BRANCH   7   8
ATOM      8  C   UNL     1      40.836  15.141  25.996  1.00  0.00     0.000 C 
BRANCH   8   9
ATOM      9  C   UNL     1      40.202  13.759  26.223  1.00  0.00     0.000 C 
BRANCH   9  10
ATOM     10  C   UNL     1      41.215  12.612  26.080  1.00  0.00     0.000 C 
BRANCH  10  11
ATOM     11  C   UNL     1      40.527  11.250  26.226  1.00  0.00     0.000 C 
BRANCH  11  12
ATOM     12  C   UNL     1      38.999  11.405  26.261  1.00  0.00     0.006 C 
BRANCH  12  13
ATOM     13  C   UNL     1      38.379  10.781  27.519  1.00  0.00     0.053 C 
BRANCH  13  14
ATOM     14  C   UNL     1      38.466   9.286  27.497  1.00  0.00     0.041 C 
ATOM     15  O   UNL     1      38.094   8.645  26.480  1.00  0.00    -0.550 OA
ATOM     16  O   UNL     1      38.929   8.600  28.613  1.00  0.00    -0.550 OA
ENDBRANCH  13  14
ENDBRANCH  12  13
ENDBRANCH  11  12
ENDBRANCH  10  11
ENDBRANCH   9  10
ENDBRANCH   8   9
ENDBRANCH   7   8
ENDBRANCH   6   7
ENDBRANCH   5   6
ENDBRANCH   4   5
ENDBRANCH   3   4
ENDBRANCH   2   3
ENDBRANCH   1   2
BRANCH   1  17
ATOM     17  C   UNL     1      44.271  16.022  19.992  1.00  0.00     0.000 C 
BRANCH  17  18
ATOM     18  C   UNL     1      43.365  16.787  20.969  1.00  0.00     0.000 C 
BRANCH  18  19
ATOM     19  C   UNL     1      42.019  16.084  21.211  1.00  0.00     0.000 C 
BRANCH  19  20
ATOM     20  C   UNL     1      41.921  15.462  22.615  1.00  0.00     0.000 C 
BRANCH  20  21
ATOM     21  C   UNL     1      41.723  13.938  22.572  1.00  0.00     0.000 C 
BRANCH  21  22
ATOM     22  C   UNL     1      42.911  13.166  23.174  1.00  0.00    -0.000 C 
BRANCH  22  23
ATOM     23  C   UNL     1      43.260  11.907  22.354  1.00  0.00    -0.000 C 
BRANCH  23  24
ATOM     24  C   UNL     1      44.747  11.812  21.970  1.00  0.00    -0.000 C 
BRANCH  24  25
ATOM     25  C   UNL     1      45.136  10.427  21.426  1.00  0.00    -0.000 C 
BRANCH  25  26
ATOM     26  C   UNL     1      44.390   9.286  22.136  1.00  0.00    -0.000 C 
BRANCH  26  27
ATOM     27  C   UNL     1      45.175   8.718  23.331  1.00  0.00    -0.000 C 
BRANCH  27  28
ATOM     28  C   UNL     1      44.297   8.522  24.580  1.00  0.00    -0.000 C 
BRANCH  28  29
ATOM     29  C   UNL     1      43.781   9.825  25.215  1.00  0.00    -0.003 C 
ATOM     30  C   UNL     1      44.902  10.801  25.574  1.00  0.00     0.004 C 
ENDBRANCH  28  29
ENDBRANCH  27  28
ENDBRANCH  26  27
ENDBRANCH  25  26
ENDBRANCH  24  25
ENDBRANCH  23  24
ENDBRANCH  22  23
ENDBRANCH  21  22
ENDBRANCH  20  21
ENDBRANCH  19  20
ENDBRANCH  18  19
ENDBRANCH  17  18
ENDBRANCH   1  17
TORSDOF 26
ENDMDL
MODEL 7
REMARK VINA RESULT:    -4.256      4.388      9.697
REMARK INTER + INTRA:         -15.019
REMARK INTER:                 -10.563
REMARK INTRA:                  -4.456
REMARK UNBOUND:                -4.293
REMARK SMILES CCCCCCCCCCCCCCCCCCCCCCCCCCCC(=O)[O-]
REMARK SMILES IDX 15 1 16 2 17 3 18 4 19 5 20 6 21 7 22 8 23 9 24 10 25 11
REMARK SMILES IDX 26 12 27 13 28 14 29 15 30 16 14 17 13 18 12 19 11 20 10 21
REMARK SMILES IDX 9 22 8 23 7 24 6 25 5 26 4 27 3 28 2 29 1 30
REMARK H PARENT
REMARK Flexibility Score: inf
ROOT
ATOM      1  C   UNL     1      37.631  11.150  26.455  1.00  0.00     0.000 C 
ENDROOT
BRANCH   1   2
ATOM      2  C   UNL     1      38.731  10.140  26.828  1.00  0.00     0.000 C 
BRANCH   2   3
ATOM      3  C   UNL     1      39.201  10.193  28.292  1.00  0.00     0.000 C 
BRANCH   3   4
ATOM      4  C   UNL     1      38.235  10.965  29.206  1.00  0.00     0.000 C 
BRANCH   4   5
ATOM      5  C   UNL     1      38.822  12.298  29.706  1.00  0.00     0.000 C 
BRANCH   5   6
ATOM      6  C   UNL     1      40.186  12.687  29.100  1.00  0.00     0.000 C 
BRANCH   6   7
ATOM      7  C   UNL     1      40.233  14.062  28.411  1.00  0.00     0.000 C 
BRANCH   7   8
ATOM      8  C   UNL     1      40.012  13.974  26.891  1.00  0.00     0.000 C 
BRANCH   8   9
ATOM      9  C   UNL     1      41.014  13.034  26.201  1.00  0.00     0.000 C 
BRANCH   9  10
ATOM     10  C   UNL     1      40.589  12.659  24.773  1.00  0.00     0.000 C 
BRANCH  10  11
ATOM     11  C   UNL     1      41.300  13.540  23.739  1.00  0.00     0.000 C 
BRANCH  11  12
ATOM     12  C   UNL     1      42.807  13.619  24.027  1.00  0.00     0.006 C 
BRANCH  12  13
ATOM     13  C   UNL     1      43.654  13.286  22.792  1.00  0.00     0.053 C 
BRANCH  13  14
ATOM     14  C   UNL     1      44.677  14.345  22.517  1.00  0.00     0.041 C 
ATOM     15  O   UNL     1      45.120  15.057  23.456  1.00  0.00    -0.550 OA
ATOM     16  O   UNL     1      45.116  14.567  21.218  1.00  0.00    -0.550 OA
ENDBRANCH  13  14
ENDBRANCH  12  13
ENDBRANCH  11  12
ENDBRANCH  10  11
ENDBRANCH   9  10
ENDBRANCH   8   9
ENDBRANCH   7   8
ENDBRANCH   6   7
ENDBRANCH   5   6
ENDBRANCH   4   5
ENDBRANCH   3   4
ENDBRANCH   2   3
ENDBRANCH   1   2
BRANCH   1  17
ATOM     17  C   UNL     1      36.403  10.492  25.807  1.00  0.00     0.000 C 
BRANCH  17  18
ATOM     18  C   UNL     1      36.356   8.989  26.122  1.00  0.00     0.000 C 
BRANCH  18  19
ATOM     19  C   UNL     1      34.928   8.471  26.356  1.00  0.00     0.000 C 
BRANCH  19  20
ATOM     20  C   UNL     1      34.351   8.921  27.710  1.00  0.00     0.000 C 
BRANCH  20  21
ATOM     21  C   UNL     1      35.303   8.631  28.881  1.00  0.00     0.000 C 
BRANCH  21  22
ATOM     22  C   UNL     1      35.047   9.540  30.096  1.00  0.00    -0.000 C 
BRANCH  22  23
ATOM     23  C   UNL     1      33.739  10.346  29.953  1.00  0.00    -0.000 C 
BRANCH  23  24
ATOM     24  C   UNL     1      33.939  11.869  30.029  1.00  0.00    -0.000 C 
BRANCH  24  25
ATOM     25  C   UNL     1      35.046  12.373  29.089  1.00  0.00    -0.000 C 
BRANCH  25  26
ATOM     26  C   UNL     1      35.022  13.901  28.917  1.00  0.00    -0.000 C 
BRANCH  26  27
ATOM     27  C   UNL     1      36.058  14.398  27.894  1.00  0.00    -0.000 C 
BRANCH  27  28
ATOM     28  C   UNL     1      36.869  15.601  28.406  1.00  0.00    -0.000 C 
BRANCH  28  29
ATOM     29  C   UNL     1      36.037  16.864  28.691  1.00  0.00    -0.003 C 
ATOM     30  C   UNL     1      35.432  17.480  27.429  1.00  0.00     0.004 C 
ENDBRANCH  28  29
ENDBRANCH  27  28
ENDBRANCH  26  27
ENDBRANCH  25  26
ENDBRANCH  24  25
ENDBRANCH  23  24
ENDBRANCH  22  23
ENDBRANCH  21  22
ENDBRANCH  20  21
ENDBRANCH  19  20
ENDBRANCH  18  19
ENDBRANCH  17  18
ENDBRANCH   1  17
TORSDOF 26
ENDMDL
MODEL 8
REMARK VINA RESULT:    -4.248      1.398      5.458
REMARK INTER + INTRA:         -14.998
REMARK INTER:                 -11.317
REMARK INTRA:                  -3.681
REMARK UNBOUND:                -4.293
REMARK SMILES CCCCCCCCCCCCCCCCCCCCCCCCCCCC(=O)[O-]
REMARK SMILES IDX 15 1 16 2 17 3 18 4 19 5 20 6 21 7 22 8 23 9 24 10 25 11
REMARK SMILES IDX 26 12 27 13 28 14 29 15 30 16 14 17 13 18 12 19 11 20 10 21
REMARK SMILES IDX 9 22 8 23 7 24 6 25 5 26 4 27 3 28 2 29 1 30
REMARK H PARENT
REMARK Flexibility Score: inf
ROOT
ATOM      1  C   UNL     1      44.220  16.240  21.444  1.00  0.00     0.000 C 
ENDROOT
BRANCH   1   2
ATOM      2  C   UNL     1      42.900  16.649  20.766  1.00  0.00     0.000 C 
BRANCH   2   3
ATOM      3  C   UNL     1      41.628  16.047  21.391  1.00  0.00     0.000 C 
BRANCH   3   4
ATOM      4  C   UNL     1      41.911  15.247  22.674  1.00  0.00     0.000 C 
BRANCH   4   5
ATOM      5  C   UNL     1      41.347  13.815  22.622  1.00  0.00     0.000 C 
BRANCH   5   6
ATOM      6  C   UNL     1      41.564  12.974  23.896  1.00  0.00     0.000 C 
BRANCH   6   7
ATOM      7  C   UNL     1      41.244  13.690  25.221  1.00  0.00     0.000 C 
BRANCH   7   8
ATOM      8  C   UNL     1      40.134  12.990  26.022  1.00  0.00     0.000 C 
BRANCH   8   9
ATOM      9  C   UNL     1      40.299  11.462  26.052  1.00  0.00     0.000 C 
BRANCH   9  10
ATOM     10  C   UNL     1      38.956  10.722  26.144  1.00  0.00     0.000 C 
BRANCH  10  11
ATOM     11  C   UNL     1      37.807  11.701  26.416  1.00  0.00     0.000 C 
BRANCH  11  12
ATOM     12  C   UNL     1      37.142  11.407  27.769  1.00  0.00     0.006 C 
BRANCH  12  13
ATOM     13  C   UNL     1      36.670   9.952  27.882  1.00  0.00     0.053 C 
BRANCH  13  14
ATOM     14  C   UNL     1      35.620   9.788  28.938  1.00  0.00     0.041 C 
ATOM     15  O   UNL     1      35.651   8.795  29.712  1.00  0.00    -0.550 OA
ATOM     16  O   UNL     1      34.592  10.715  29.047  1.00  0.00    -0.550 OA
ENDBRANCH  13  14
ENDBRANCH  12  13
ENDBRANCH  11  12
ENDBRANCH  10  11
ENDBRANCH   9  10
ENDBRANCH   8   9
ENDBRANCH   7   8
ENDBRANCH   6   7
ENDBRANCH   5   6
ENDBRANCH   4   5
ENDBRANCH   3   4
ENDBRANCH   2   3
ENDBRANCH   1   2
BRANCH   1  17
ATOM     17  C   UNL     1      45.201  15.549  20.484  1.00  0.00     0.000 C 
BRANCH  17  18
ATOM     18  C   UNL     1      46.058  14.513  21.227  1.00  0.00     0.000 C 
BRANCH  18  19
ATOM     19  C   UNL     1      45.235  13.631  22.180  1.00  0.00     0.000 C 
BRANCH  19  20
ATOM     20  C   UNL     1      45.895  12.266  22.440  1.00  0.00     0.000 C 
BRANCH  20  21
ATOM     21  C   UNL     1      45.396  11.176  21.478  1.00  0.00     0.000 C 
BRANCH  21  22
ATOM     22  C   UNL     1      44.002  10.642  21.854  1.00  0.00    -0.000 C 
BRANCH  22  23
ATOM     23  C   UNL     1      43.937   9.101  21.798  1.00  0.00    -0.000 C 
BRANCH  23  24
ATOM     24  C   UNL     1      45.301   8.417  21.993  1.00  0.00    -0.000 C 
BRANCH  24  25
ATOM     25  C   UNL     1      45.678   8.250  23.474  1.00  0.00    -0.000 C 
BRANCH  25  26
ATOM     26  C   UNL     1      44.476   8.439  24.412  1.00  0.00    -0.000 C 
BRANCH  26  27
ATOM     27  C   UNL     1      44.771   9.413  25.565  1.00  0.00    -0.000 C 
BRANCH  27  28
ATOM     28  C   UNL     1      43.814  10.619  25.587  1.00  0.00    -0.000 C 
BRANCH  28  29
ATOM     29  C   UNL     1      44.215  11.741  26.560  1.00  0.00    -0.003 C 
ATOM     30  C   UNL     1      44.796  12.967  25.855  1.00  0.00     0.004 C 
ENDBRANCH  28  29
ENDBRANCH  27  28
ENDBRANCH  26  27
ENDBRANCH  25  26
ENDBRANCH  24  25
ENDBRANCH  23  24
ENDBRANCH  22  23
ENDBRANCH  21  22
ENDBRANCH  20  21
ENDBRANCH  19  20
ENDBRANCH  18  19
ENDBRANCH  17  18
ENDBRANCH   1  17
TORSDOF 26
ENDMDL
MODEL 9
REMARK VINA RESULT:    -4.229      1.969      5.807
REMARK INTER + INTRA:         -14.951
REMARK INTER:                  -9.385
REMARK INTRA:                  -5.566
REMARK UNBOUND:                -4.293
REMARK SMILES CCCCCCCCCCCCCCCCCCCCCCCCCCCC(=O)[O-]
REMARK SMILES IDX 15 1 16 2 17 3 18 4 19 5 20 6 21 7 22 8 23 9 24 10 25 11
REMARK SMILES IDX 26 12 27 13 28 14 29 15 30 16 14 17 13 18 12 19 11 20 10 21
REMARK SMILES IDX 9 22 8 23 7 24 6 25 5 26 4 27 3 28 2 29 1 30
REMARK H PARENT
REMARK Flexibility Score: inf
ROOT
ATOM      1  C   UNL     1      45.002  12.226  23.260  1.00  0.00     0.000 C 
ENDROOT
BRANCH   1   2
ATOM      2  C   UNL     1      45.626  13.599  22.952  1.00  0.00     0.000 C 
BRANCH   2   3
ATOM      3  C   UNL     1      45.494  14.066  21.491  1.00  0.00     0.000 C 
BRANCH   3   4
ATOM      4  C   UNL     1      45.747  15.573  21.317  1.00  0.00     0.000 C 
BRANCH   4   5
ATOM      5  C   UNL     1      44.553  16.435  21.769  1.00  0.00     0.000 C 
BRANCH   5   6
ATOM      6  C   UNL     1      43.372  16.497  20.778  1.00  0.00     0.000 C 
BRANCH   6   7
ATOM      7  C   UNL     1      41.999  16.124  21.365  1.00  0.00     0.000 C 
BRANCH   7   8
ATOM      8  C   UNL     1      42.108  15.415  22.726  1.00  0.00     0.000 C 
BRANCH   8   9
ATOM      9  C   UNL     1      41.515  13.996  22.703  1.00  0.00     0.000 C 
BRANCH   9  10
ATOM     10  C   UNL     1      40.898  13.590  24.049  1.00  0.00     0.000 C 
BRANCH  10  11
ATOM     11  C   UNL     1      41.546  12.308  24.586  1.00  0.00     0.000 C 
BRANCH  11  12
ATOM     12  C   UNL     1      40.628  11.610  25.601  1.00  0.00     0.006 C 
BRANCH  12  13
ATOM     13  C   UNL     1      40.101  12.577  26.670  1.00  0.00     0.053 C 
BRANCH  13  14
ATOM     14  C   UNL     1      39.630  11.851  27.893  1.00  0.00     0.041 C 
ATOM     15  O   UNL     1      38.428  11.493  27.992  1.00  0.00    -0.550 OA
ATOM     16  O   UNL     1      40.513  11.599  28.935  1.00  0.00    -0.550 OA
ENDBRANCH  13  14
ENDBRANCH  12  13
ENDBRANCH  11  12
ENDBRANCH  10  11
ENDBRANCH   9  10
ENDBRANCH   8   9
ENDBRANCH   7   8
ENDBRANCH   6   7
ENDBRANCH   5   6
ENDBRANCH   4   5
ENDBRANCH   3   4
ENDBRANCH   2   3
ENDBRANCH   1   2
BRANCH   1  17
ATOM     17  C   UNL     1      44.229  11.635  22.071  1.00  0.00     0.000 C 
BRANCH  17  18
ATOM     18  C   UNL     1      45.000  10.462  21.445  1.00  0.00     0.000 C 
BRANCH  18  19
ATOM     19  C   UNL     1      46.045   9.858  22.396  1.00  0.00     0.000 C 
BRANCH  19  20
ATOM     20  C   UNL     1      45.775   8.376  22.708  1.00  0.00     0.000 C 
BRANCH  20  21
ATOM     21  C   UNL     1      45.393   8.144  24.178  1.00  0.00     0.000 C 
BRANCH  21  22
ATOM     22  C   UNL     1      43.933   8.529  24.483  1.00  0.00    -0.000 C 
BRANCH  22  23
ATOM     23  C   UNL     1      43.833   9.577  25.612  1.00  0.00    -0.000 C 
BRANCH  23  24
ATOM     24  C   UNL     1      45.198  10.023  26.165  1.00  0.00    -0.000 C 
BRANCH  24  25
ATOM     25  C   UNL     1      45.138  11.385  26.875  1.00  0.00    -0.000 C 
BRANCH  25  26
ATOM     26  C   UNL     1      43.760  11.663  27.498  1.00  0.00    -0.000 C 
BRANCH  26  27
ATOM     27  C   UNL     1      43.565  13.144  27.865  1.00  0.00    -0.000 C 
BRANCH  27  28
ATOM     28  C   UNL     1      44.488  14.083  27.067  1.00  0.00    -0.000 C 
BRANCH  28  29
ATOM     29  C   UNL     1      43.809  14.800  25.886  1.00  0.00    -0.003 C 
ATOM     30  C   UNL     1      43.060  16.065  26.304  1.00  0.00     0.004 C 
ENDBRANCH  28  29
ENDBRANCH  27  28
ENDBRANCH  26  27
ENDBRANCH  25  26
ENDBRANCH  24  25
ENDBRANCH  23  24
ENDBRANCH  22  23
ENDBRANCH  21  22
ENDBRANCH  20  21
ENDBRANCH  19  20
ENDBRANCH  18  19
ENDBRANCH  17  18
ENDBRANCH   1  17
TORSDOF 26
ENDMDL
