MODEL 1
REMARK VINA RESULT:    -6.996      0.000      0.000
REMARK INTER + INTRA:         -12.861
REMARK INTER:                 -11.494
REMARK INTRA:                  -1.367
REMARK UNBOUND:                -1.367
REMARK SMILES C[C@H]1O[C@H](OC[C@H]2O[C@@H](Oc3c(-c4ccc(O)c(O)c4)oc4cc(O)cc(O)c4c3=O)[C@@H](O)[C@H](O)[C@H]2O)[C@H](O)[C@@H](O)[C@H]1O
REMARK SMILES IDX 7 1 36 2 34 3 32 4 9 5 8 6 6 7 5 8 4 9 1 10 2 11 42 12 3 13
REMARK SMILES IDX 40 14 38 15 43 16 41 18 39 20 37 22 35 24 10 26 11 27 12 28
REMARK SMILES IDX 30 29 21 30 29 31 31 32 22 33 27 34 23 35 26 36 24 37 13 38
REMARK SMILES IDX 20 39 14 40 18 41 15 42 16 43 19 44 17 46 28 48 25 50 33 52
REMARK H PARENT 43 17 41 19 39 21 37 23 35 25 19 45 17 47 28 49 25 51 33 53
REMARK Flexibility Score: inf
ROOT
ATOM      1  C   UNL     1       9.750   2.228  -0.261  1.00  0.00     0.180 C 
ATOM      2  C   UNL     1      10.174   2.691   1.138  1.00  0.00     0.177 C 
ATOM      3  C   UNL     1       9.979   1.488   2.127  1.00  0.00     0.180 C 
ATOM      4  C   UNL     1      10.231   0.150   1.434  1.00  0.00     0.214 C 
ATOM      5  C   UNL     1      11.213   0.402   0.270  1.00  0.00     0.339 C 
ATOM      6  O   UNL     1      10.654   1.233  -0.765  1.00  0.00    -0.332 OA
ENDROOT
BRANCH   1   7
ATOM      7  C   UNL     1       9.415   3.338  -1.265  1.00  0.00     0.198 C 
BRANCH   7   8
ATOM      8  O   UNL     1      10.412   4.375  -1.215  1.00  0.00    -0.347 OA
BRANCH   8   9
ATOM      9  C   UNL     1       9.945   5.679  -1.075  1.00  0.00     0.281 C 
ATOM     10  C   UNL     1       8.244   7.477  -3.248  1.00  0.00     0.041 C 
ATOM     11  C   UNL     1       8.077   7.012  -1.827  1.00  0.00     0.150 C 
ATOM     12  C   UNL     1       8.202   8.011  -0.564  1.00  0.00     0.174 C 
ATOM     13  O   UNL     1       8.592   5.685  -1.578  1.00  0.00    -0.344 OA
ATOM     14  C   UNL     1       8.538   7.125   0.653  1.00  0.00     0.179 C 
ATOM     15  C   UNL     1       9.937   6.366   0.371  1.00  0.00     0.202 C 
BRANCH  12  16
ATOM     16  O   UNL     1       9.195   8.994  -0.637  1.00  0.00    -0.388 OA
ATOM     17  H   UNL     1      10.083   8.489  -0.591  1.00  0.00     0.211 HD
ENDBRANCH  12  16
BRANCH  14  18
ATOM     18  O   UNL     1       8.625   7.948   1.794  1.00  0.00    -0.387 OA
ATOM     19  H   UNL     1       8.583   7.394   2.641  1.00  0.00     0.211 HD
ENDBRANCH  14  18
BRANCH  15  20
ATOM     20  O   UNL     1      10.213   5.601   1.523  1.00  0.00    -0.385 OA
ATOM     21  H   UNL     1       9.655   6.192   2.255  1.00  0.00     0.211 HD
ENDBRANCH  15  20
ENDBRANCH   8   9
ENDBRANCH   7   8
ENDBRANCH   1   7
BRANCH   2  22
ATOM     22  O   UNL     1      11.499   3.141   1.171  1.00  0.00    -0.387 OA
ATOM     23  H   UNL     1      11.574   4.077   0.833  1.00  0.00     0.211 HD
ENDBRANCH   2  22
BRANCH   3  24
ATOM     24  O   UNL     1       8.583   1.462   2.541  1.00  0.00    -0.387 OA
ATOM     25  H   UNL     1       8.472   2.189   3.233  1.00  0.00     0.211 HD
ENDBRANCH   3  24
BRANCH   5  26
ATOM     26  O   UNL     1      12.434   0.945   0.809  1.00  0.00    -0.454 OA
BRANCH  26  27
ATOM     27  C   UNL     1      13.618   0.272   0.668  1.00  0.00     0.214 A 
ATOM     28  C   UNL     1      14.612   0.478   1.571  1.00  0.00     0.180 A 
ATOM     29  C   UNL     1      14.029  -0.319  -0.480  1.00  0.00     0.239 A 
ATOM     30  O   UNL     1      15.689   1.029   1.082  1.00  0.00    -0.452 OA
ATOM     31  C   UNL     1      15.369   0.108  -0.986  1.00  0.00     0.111 A 
ATOM     32  O   UNL     1      13.172  -0.959  -1.156  1.00  0.00    -0.285 OA
ATOM     33  C   UNL     1      16.136   0.870  -0.130  1.00  0.00     0.146 A 
ATOM     34  C   UNL     1      15.803   0.043  -2.317  1.00  0.00     0.134 A 
ATOM     35  C   UNL     1      17.334   1.470  -0.444  1.00  0.00     0.094 A 
ATOM     36  C   UNL     1      17.071   0.581  -2.642  1.00  0.00     0.093 A 
ATOM     37  C   UNL     1      17.824   1.311  -1.721  1.00  0.00     0.123 A 
BRANCH  28  38
ATOM     38  C   UNL     1      14.502   0.055   2.919  1.00  0.00     0.025 A 
ATOM     39  C   UNL     1      15.761   0.095   3.640  1.00  0.00     0.062 A 
ATOM     40  C   UNL     1      13.568  -0.909   3.370  1.00  0.00     0.016 A 
ATOM     41  C   UNL     1      15.745  -0.212   4.981  1.00  0.00     0.158 A 
ATOM     42  C   UNL     1      13.464  -1.125   4.740  1.00  0.00     0.051 A 
ATOM     43  C   UNL     1      14.522  -0.791   5.557  1.00  0.00     0.157 A 
BRANCH  41  44
ATOM     44  O   UNL     1      16.892  -0.013   5.735  1.00  0.00    -0.504 OA
ATOM     45  H   UNL     1      16.878   0.071   6.742  1.00  0.00     0.293 HD
ENDBRANCH  41  44
BRANCH  43  46
ATOM     46  O   UNL     1      14.298  -0.682   6.927  1.00  0.00    -0.504 OA
ATOM     47  H   UNL     1      13.592  -0.058   7.264  1.00  0.00     0.293 HD
ENDBRANCH  43  46
ENDBRANCH  28  38
BRANCH  34  48
ATOM     48  O   UNL     1      14.922  -0.251  -3.404  1.00  0.00    -0.507 OA
ATOM     49  H   UNL     1      14.228  -0.987  -3.412  1.00  0.00     0.293 HD
ENDBRANCH  34  48
BRANCH  37  50
ATOM     50  O   UNL     1      19.016   1.933  -2.061  1.00  0.00    -0.508 OA
ATOM     51  H   UNL     1      19.182   2.950  -2.070  1.00  0.00     0.293 HD
ENDBRANCH  37  50
ENDBRANCH  26  27
ENDBRANCH   5  26
BRANCH   4  52
ATOM     52  O   UNL     1      10.780  -0.868   2.277  1.00  0.00    -0.384 OA
ATOM     53  H   UNL     1      10.338  -0.815   3.166  1.00  0.00     0.211 HD
ENDBRANCH   4  52
TORSDOF 16
ENDMDL
MODEL 2
REMARK VINA RESULT:    -6.405      1.963      8.579
REMARK INTER + INTRA:         -11.892
REMARK INTER:                 -11.036
REMARK INTRA:                  -0.856
REMARK UNBOUND:                -1.367
REMARK SMILES C[C@H]1O[C@H](OC[C@H]2O[C@@H](Oc3c(-c4ccc(O)c(O)c4)oc4cc(O)cc(O)c4c3=O)[C@@H](O)[C@H](O)[C@H]2O)[C@H](O)[C@@H](O)[C@H]1O
REMARK SMILES IDX 7 1 36 2 34 3 32 4 9 5 8 6 6 7 5 8 4 9 1 10 2 11 42 12 3 13
REMARK SMILES IDX 40 14 38 15 43 16 41 18 39 20 37 22 35 24 10 26 11 27 12 28
REMARK SMILES IDX 30 29 21 30 29 31 31 32 22 33 27 34 23 35 26 36 24 37 13 38
REMARK SMILES IDX 20 39 14 40 18 41 15 42 16 43 19 44 17 46 28 48 25 50 33 52
REMARK H PARENT 43 17 41 19 39 21 37 23 35 25 19 45 17 47 28 49 25 51 33 53
REMARK Flexibility Score: inf
ROOT
ATOM      1  C   UNL     1      14.955   1.687  -0.253  1.00  0.00     0.180 C 
ATOM      2  C   UNL     1      15.017   3.112   0.309  1.00  0.00     0.177 C 
ATOM      3  C   UNL     1      15.426   4.076  -0.860  1.00  0.00     0.180 C 
ATOM      4  C   UNL     1      14.881   3.589  -2.201  1.00  0.00     0.214 C 
ATOM      5  C   UNL     1      13.607   2.765  -1.919  1.00  0.00     0.339 C 
ATOM      6  O   UNL     1      13.873   1.554  -1.189  1.00  0.00    -0.332 OA
ENDROOT
BRANCH   1   7
ATOM      7  C   UNL     1      15.039   0.552   0.776  1.00  0.00     0.198 C 
BRANCH   7   8
ATOM      8  O   UNL     1      14.331   0.913   1.976  1.00  0.00    -0.347 OA
BRANCH   8   9
ATOM      9  C   UNL     1      14.968   0.631   3.181  1.00  0.00     0.281 C 
ATOM     10  C   UNL     1      17.250   2.418   4.744  1.00  0.00     0.041 C 
ATOM     11  C   UNL     1      15.895   1.844   5.053  1.00  0.00     0.150 C 
ATOM     12  C   UNL     1      15.689   0.588   6.047  1.00  0.00     0.174 C 
ATOM     13  O   UNL     1      14.979   1.861   3.935  1.00  0.00    -0.344 OA
ATOM     14  C   UNL     1      14.330  -0.040   5.671  1.00  0.00     0.179 C 
ATOM     15  C   UNL     1      14.392  -0.523   4.130  1.00  0.00     0.202 C 
BRANCH  12  16
ATOM     16  O   UNL     1      16.641  -0.434   5.976  1.00  0.00    -0.388 OA
ATOM     17  H   UNL     1      17.545   0.026   6.113  1.00  0.00     0.211 HD
ENDBRANCH  12  16
BRANCH  14  18
ATOM     18  O   UNL     1      14.085  -1.125   6.537  1.00  0.00    -0.387 OA
ATOM     19  H   UNL     1      14.875  -1.282   7.150  1.00  0.00     0.211 HD
ENDBRANCH  14  18
BRANCH  15  20
ATOM     20  O   UNL     1      13.145  -1.117   3.850  1.00  0.00    -0.385 OA
ATOM     21  H   UNL     1      12.508  -0.236   3.969  1.00  0.00     0.211 HD
ENDBRANCH  15  20
ENDBRANCH   8   9
ENDBRANCH   7   8
ENDBRANCH   1   7
BRANCH   2  22
ATOM     22  O   UNL     1      13.802   3.515   0.874  1.00  0.00    -0.387 OA
ATOM     23  H   UNL     1      13.026   3.124   0.384  1.00  0.00     0.211 HD
ENDBRANCH   2  22
BRANCH   3  24
ATOM     24  O   UNL     1      16.876   4.046  -0.989  1.00  0.00    -0.387 OA
ATOM     25  H   UNL     1      17.201   3.271  -0.427  1.00  0.00     0.211 HD
ENDBRANCH   3  24
BRANCH   5  26
ATOM     26  O   UNL     1      12.652   3.611  -1.247  1.00  0.00    -0.454 OA
BRANCH  26  27
ATOM     27  C   UNL     1      11.407   3.140  -0.929  1.00  0.00     0.214 A 
ATOM     28  C   UNL     1      10.608   3.873  -0.111  1.00  0.00     0.180 A 
ATOM     29  C   UNL     1      11.020   1.849  -1.067  1.00  0.00     0.239 A 
ATOM     30  O   UNL     1      10.332   3.309   1.033  1.00  0.00    -0.452 OA
ATOM     31  C   UNL     1      10.480   1.198   0.166  1.00  0.00     0.111 A 
ATOM     32  O   UNL     1      11.378   1.232  -2.112  1.00  0.00    -0.285 OA
ATOM     33  C   UNL     1      10.220   2.027   1.237  1.00  0.00     0.146 A 
ATOM     34  C   UNL     1      10.469  -0.178   0.430  1.00  0.00     0.134 A 
ATOM     35  C   UNL     1       9.846   1.619   2.496  1.00  0.00     0.094 A 
ATOM     36  C   UNL     1      10.008  -0.621   1.693  1.00  0.00     0.093 A 
ATOM     37  C   UNL     1       9.720   0.268   2.729  1.00  0.00     0.123 A 
BRANCH  28  38
ATOM     38  C   UNL     1      10.063   5.119  -0.510  1.00  0.00     0.025 A 
ATOM     39  C   UNL     1       9.310   5.781   0.539  1.00  0.00     0.062 A 
ATOM     40  C   UNL     1       9.661   5.416  -1.834  1.00  0.00     0.016 A 
ATOM     41  C   UNL     1       8.814   7.039   0.279  1.00  0.00     0.158 A 
ATOM     42  C   UNL     1       9.282   6.723  -2.123  1.00  0.00     0.051 A 
ATOM     43  C   UNL     1       8.861   7.544  -1.100  1.00  0.00     0.157 A 
BRANCH  41  44
ATOM     44  O   UNL     1       8.246   7.769   1.313  1.00  0.00    -0.504 OA
ATOM     45  H   UNL     1       8.049   7.370   2.221  1.00  0.00     0.293 HD
ENDBRANCH  41  44
BRANCH  43  46
ATOM     46  O   UNL     1       8.816   8.917  -1.324  1.00  0.00    -0.504 OA
ATOM     47  H   UNL     1       9.649   9.462  -1.223  1.00  0.00     0.293 HD
ENDBRANCH  43  46
ENDBRANCH  28  38
BRANCH  34  48
ATOM     48  O   UNL     1      11.177  -1.125  -0.374  1.00  0.00    -0.507 OA
ATOM     49  H   UNL     1      12.133  -1.421  -0.226  1.00  0.00     0.293 HD
ENDBRANCH  34  48
BRANCH  37  50
ATOM     50  O   UNL     1       9.372  -0.160   4.001  1.00  0.00    -0.508 OA
ATOM     51  H   UNL     1       8.794   0.364   4.675  1.00  0.00     0.293 HD
ENDBRANCH  37  50
ENDBRANCH  26  27
ENDBRANCH   5  26
BRANCH   4  52
ATOM     52  O   UNL     1      14.551   4.629  -3.128  1.00  0.00    -0.384 OA
ATOM     53  H   UNL     1      14.572   5.500  -2.648  1.00  0.00     0.211 HD
ENDBRANCH   4  52
TORSDOF 16
ENDMDL
MODEL 3
REMARK VINA RESULT:    -5.969      2.348      5.653
REMARK INTER + INTRA:         -11.174
REMARK INTER:                  -9.312
REMARK INTRA:                  -1.862
REMARK UNBOUND:                -1.367
REMARK SMILES C[C@H]1O[C@H](OC[C@H]2O[C@@H](Oc3c(-c4ccc(O)c(O)c4)oc4cc(O)cc(O)c4c3=O)[C@@H](O)[C@H](O)[C@H]2O)[C@H](O)[C@@H](O)[C@H]1O
REMARK SMILES IDX 7 1 36 2 34 3 32 4 9 5 8 6 6 7 5 8 4 9 1 10 2 11 42 12 3 13
REMARK SMILES IDX 40 14 38 15 43 16 41 18 39 20 37 22 35 24 10 26 11 27 12 28
REMARK SMILES IDX 30 29 21 30 29 31 31 32 22 33 27 34 23 35 26 36 24 37 13 38
REMARK SMILES IDX 20 39 14 40 18 41 15 42 16 43 19 44 17 46 28 48 25 50 33 52
REMARK H PARENT 43 17 41 19 39 21 37 23 35 25 19 45 17 47 28 49 25 51 33 53
REMARK Flexibility Score: inf
ROOT
ATOM      1  C   UNL     1      12.335   4.191   2.485  1.00  0.00     0.180 C 
ATOM      2  C   UNL     1      13.229   4.733   1.364  1.00  0.00     0.177 C 
ATOM      3  C   UNL     1      14.716   4.366   1.709  1.00  0.00     0.180 C 
ATOM      4  C   UNL     1      14.803   3.038   2.458  1.00  0.00     0.214 C 
ATOM      5  C   UNL     1      13.582   2.188   2.050  1.00  0.00     0.339 C 
ATOM      6  O   UNL     1      12.332   2.755   2.487  1.00  0.00    -0.332 OA
ENDROOT
BRANCH   1   7
ATOM      7  C   UNL     1      10.942   4.822   2.600  1.00  0.00     0.198 C 
BRANCH   7   8
ATOM      8  O   UNL     1      10.012   4.141   1.738  1.00  0.00    -0.347 OA
BRANCH   8   9
ATOM      9  C   UNL     1       9.467   4.889   0.699  1.00  0.00     0.281 C 
ATOM     10  C   UNL     1       8.163   7.910   0.831  1.00  0.00     0.041 C 
ATOM     11  C   UNL     1       9.257   7.212   0.072  1.00  0.00     0.150 C 
ATOM     12  C   UNL     1       9.127   6.841  -1.495  1.00  0.00     0.174 C 
ATOM     13  O   UNL     1       9.979   6.230   0.848  1.00  0.00    -0.344 OA
ATOM     14  C   UNL     1      10.123   5.690  -1.748  1.00  0.00     0.179 C 
ATOM     15  C   UNL     1       9.710   4.435  -0.817  1.00  0.00     0.202 C 
BRANCH  12  16
ATOM     16  O   UNL     1       7.875   6.398  -1.935  1.00  0.00    -0.388 OA
ATOM     17  H   UNL     1       7.510   7.153  -2.521  1.00  0.00     0.211 HD
ENDBRANCH  12  16
BRANCH  14  18
ATOM     18  O   UNL     1      10.074   5.350  -3.115  1.00  0.00    -0.387 OA
ATOM     19  H   UNL     1      10.820   5.805  -3.626  1.00  0.00     0.211 HD
ENDBRANCH  14  18
BRANCH  15  20
ATOM     20  O   UNL     1      10.627   3.404  -1.111  1.00  0.00    -0.385 OA
ATOM     21  H   UNL     1      11.063   3.822  -2.024  1.00  0.00     0.211 HD
ENDBRANCH  15  20
ENDBRANCH   8   9
ENDBRANCH   7   8
ENDBRANCH   1   7
BRANCH   2  22
ATOM     22  O   UNL     1      12.879   4.222   0.109  1.00  0.00    -0.387 OA
ATOM     23  H   UNL     1      13.268   3.314  -0.036  1.00  0.00     0.211 HD
ENDBRANCH   2  22
BRANCH   3  24
ATOM     24  O   UNL     1      15.230   5.372   2.627  1.00  0.00    -0.387 OA
ATOM     25  H   UNL     1      16.198   5.524   2.379  1.00  0.00     0.211 HD
ENDBRANCH   3  24
BRANCH   5  26
ATOM     26  O   UNL     1      13.621   1.983   0.624  1.00  0.00    -0.454 OA
BRANCH  26  27
ATOM     27  C   UNL     1      13.228   0.789   0.081  1.00  0.00     0.214 A 
ATOM     28  C   UNL     1      13.410   0.571  -1.248  1.00  0.00     0.180 A 
ATOM     29  C   UNL     1      12.358  -0.068   0.667  1.00  0.00     0.239 A 
ATOM     30  O   UNL     1      12.309   0.429  -1.934  1.00  0.00    -0.452 OA
ATOM     31  C   UNL     1      11.171  -0.451  -0.157  1.00  0.00     0.111 A 
ATOM     32  O   UNL     1      12.464  -0.261   1.913  1.00  0.00    -0.285 OA
ATOM     33  C   UNL     1      11.200  -0.086  -1.487  1.00  0.00     0.146 A 
ATOM     34  C   UNL     1       9.937  -0.895   0.337  1.00  0.00     0.134 A 
ATOM     35  C   UNL     1      10.164  -0.226  -2.381  1.00  0.00     0.094 A 
ATOM     36  C   UNL     1       8.883  -1.124  -0.580  1.00  0.00     0.093 A 
ATOM     37  C   UNL     1       8.984  -0.771  -1.926  1.00  0.00     0.123 A 
BRANCH  28  38
ATOM     38  C   UNL     1      14.700   0.436  -1.819  1.00  0.00     0.025 A 
ATOM     39  C   UNL     1      15.581   1.549  -1.521  1.00  0.00     0.062 A 
ATOM     40  C   UNL     1      14.957  -0.240  -3.036  1.00  0.00     0.016 A 
ATOM     41  C   UNL     1      16.884   1.474  -1.956  1.00  0.00     0.158 A 
ATOM     42  C   UNL     1      16.283  -0.428  -3.410  1.00  0.00     0.051 A 
ATOM     43  C   UNL     1      17.253   0.402  -2.892  1.00  0.00     0.157 A 
BRANCH  41  44
ATOM     44  O   UNL     1      17.795   2.433  -1.537  1.00  0.00    -0.504 OA
ATOM     45  H   UNL     1      18.082   3.207  -2.121  1.00  0.00     0.293 HD
ENDBRANCH  41  44
BRANCH  43  46
ATOM     46  O   UNL     1      18.586   0.010  -2.986  1.00  0.00    -0.504 OA
ATOM     47  H   UNL     1      18.810  -0.896  -3.347  1.00  0.00     0.293 HD
ENDBRANCH  43  46
ENDBRANCH  28  38
BRANCH  34  48
ATOM     48  O   UNL     1       9.592  -0.833   1.723  1.00  0.00    -0.507 OA
ATOM     49  H   UNL     1       8.937  -0.182   2.136  1.00  0.00     0.293 HD
ENDBRANCH  34  48
BRANCH  37  50
ATOM     50  O   UNL     1       7.921  -0.892  -2.808  1.00  0.00    -0.508 OA
ATOM     51  H   UNL     1       6.923  -0.900  -2.551  1.00  0.00     0.293 HD
ENDBRANCH  37  50
ENDBRANCH  26  27
ENDBRANCH   5  26
BRANCH   4  52
ATOM     52  O   UNL     1      15.989   2.280   2.199  1.00  0.00    -0.384 OA
ATOM     53  H   UNL     1      16.288   1.859   3.048  1.00  0.00     0.211 HD
ENDBRANCH   4  52
TORSDOF 16
ENDMDL
MODEL 4
REMARK VINA RESULT:    -5.366     16.137     18.368
REMARK INTER + INTRA:         -10.184
REMARK INTER:                  -8.916
REMARK INTRA:                  -1.268
REMARK UNBOUND:                -1.367
REMARK SMILES C[C@H]1O[C@H](OC[C@H]2O[C@@H](Oc3c(-c4ccc(O)c(O)c4)oc4cc(O)cc(O)c4c3=O)[C@@H](O)[C@H](O)[C@H]2O)[C@H](O)[C@@H](O)[C@H]1O
REMARK SMILES IDX 7 1 36 2 34 3 32 4 9 5 8 6 6 7 5 8 4 9 1 10 2 11 42 12 3 13
REMARK SMILES IDX 40 14 38 15 43 16 41 18 39 20 37 22 35 24 10 26 11 27 12 28
REMARK SMILES IDX 30 29 21 30 29 31 31 32 22 33 27 34 23 35 26 36 24 37 13 38
REMARK SMILES IDX 20 39 14 40 18 41 15 42 16 43 19 44 17 46 28 48 25 50 33 52
REMARK H PARENT 43 17 41 19 39 21 37 23 35 25 19 45 17 47 28 49 25 51 33 53
REMARK Flexibility Score: inf
ROOT
ATOM      1  C   UNL     1      23.679  13.944   5.022  1.00  0.00     0.180 C 
ATOM      2  C   UNL     1      22.775  13.207   6.018  1.00  0.00     0.177 C 
ATOM      3  C   UNL     1      22.823  11.676   5.676  1.00  0.00     0.180 C 
ATOM      4  C   UNL     1      24.189  11.269   5.127  1.00  0.00     0.214 C 
ATOM      5  C   UNL     1      25.235  12.248   5.700  1.00  0.00     0.339 C 
ATOM      6  O   UNL     1      25.057  13.598   5.231  1.00  0.00    -0.332 OA
ENDROOT
BRANCH   1   7
ATOM      7  C   UNL     1      23.425  15.448   4.866  1.00  0.00     0.198 C 
BRANCH   7   8
ATOM      8  O   UNL     1      22.011  15.715   4.828  1.00  0.00    -0.347 OA
BRANCH   8   9
ATOM      9  C   UNL     1      21.456  16.288   5.967  1.00  0.00     0.281 C 
ATOM     10  C   UNL     1      22.292  19.116   7.436  1.00  0.00     0.041 C 
ATOM     11  C   UNL     1      21.050  18.499   6.853  1.00  0.00     0.150 C 
ATOM     12  C   UNL     1      19.828  17.974   7.769  1.00  0.00     0.174 C 
ATOM     13  O   UNL     1      21.289  17.693   5.678  1.00  0.00    -0.344 OA
ATOM     14  C   UNL     1      19.062  16.943   6.914  1.00  0.00     0.179 C 
ATOM     15  C   UNL     1      20.066  15.735   6.537  1.00  0.00     0.202 C 
BRANCH  12  16
ATOM     16  O   UNL     1      20.168  17.336   8.966  1.00  0.00    -0.388 OA
ATOM     17  H   UNL     1      20.873  16.638   8.712  1.00  0.00     0.211 HD
ENDBRANCH  12  16
BRANCH  14  18
ATOM     18  O   UNL     1      17.959  16.477   7.659  1.00  0.00    -0.387 OA
ATOM     19  H   UNL     1      17.792  17.069   8.463  1.00  0.00     0.211 HD
ENDBRANCH  14  18
BRANCH  15  20
ATOM     20  O   UNL     1      19.310  14.809   5.789  1.00  0.00    -0.385 OA
ATOM     21  H   UNL     1      18.726  14.371   6.604  1.00  0.00     0.211 HD
ENDBRANCH  15  20
ENDBRANCH   8   9
ENDBRANCH   7   8
ENDBRANCH   1   7
BRANCH   2  22
ATOM     22  O   UNL     1      23.160  13.424   7.346  1.00  0.00    -0.387 OA
ATOM     23  H   UNL     1      23.611  14.307   7.455  1.00  0.00     0.211 HD
ENDBRANCH   2  22
BRANCH   3  24
ATOM     24  O   UNL     1      21.874  11.421   4.602  1.00  0.00    -0.387 OA
ATOM     25  H   UNL     1      21.761  12.291   4.101  1.00  0.00     0.211 HD
ENDBRANCH   3  24
BRANCH   5  26
ATOM     26  O   UNL     1      25.207  12.161   7.139  1.00  0.00    -0.454 OA
BRANCH  26  27
ATOM     27  C   UNL     1      26.364  12.247   7.865  1.00  0.00     0.214 A 
ATOM     28  C   UNL     1      26.595  11.349   8.858  1.00  0.00     0.180 A 
ATOM     29  C   UNL     1      27.147  13.351   7.926  1.00  0.00     0.239 A 
ATOM     30  O   UNL     1      26.646  11.860  10.057  1.00  0.00    -0.452 OA
ATOM     31  C   UNL     1      27.432  13.869   9.300  1.00  0.00     0.111 A 
ATOM     32  O   UNL     1      27.350  13.994   6.856  1.00  0.00    -0.285 OA
ATOM     33  C   UNL     1      27.069  13.056  10.352  1.00  0.00     0.146 A 
ATOM     34  C   UNL     1      27.774  15.189   9.625  1.00  0.00     0.134 A 
ATOM     35  C   UNL     1      27.123  13.394  11.685  1.00  0.00     0.094 A 
ATOM     36  C   UNL     1      27.915  15.535  10.990  1.00  0.00     0.093 A 
ATOM     37  C   UNL     1      27.571  14.654  12.016  1.00  0.00     0.123 A 
BRANCH  28  38
ATOM     38  C   UNL     1      26.834   9.977   8.591  1.00  0.00     0.025 A 
ATOM     39  C   UNL     1      27.260   9.228   9.758  1.00  0.00     0.062 A 
ATOM     40  C   UNL     1      27.294   9.485   7.345  1.00  0.00     0.016 A 
ATOM     41  C   UNL     1      27.433   7.870   9.623  1.00  0.00     0.158 A 
ATOM     42  C   UNL     1      27.346   8.107   7.168  1.00  0.00     0.051 A 
ATOM     43  C   UNL     1      27.415   7.288   8.274  1.00  0.00     0.157 A 
BRANCH  41  44
ATOM     44  O   UNL     1      27.666   7.102  10.755  1.00  0.00    -0.504 OA
ATOM     45  H   UNL     1      27.298   7.343  11.665  1.00  0.00     0.293 HD
ENDBRANCH  41  44
BRANCH  43  46
ATOM     46  O   UNL     1      27.122   5.935   8.120  1.00  0.00    -0.504 OA
ATOM     47  H   UNL     1      27.741   5.352   7.594  1.00  0.00     0.293 HD
ENDBRANCH  43  46
ENDBRANCH  28  38
BRANCH  34  48
ATOM     48  O   UNL     1      27.685  16.264   8.686  1.00  0.00    -0.507 OA
ATOM     49  H   UNL     1      28.434  16.578   8.082  1.00  0.00     0.293 HD
ENDBRANCH  34  48
BRANCH  37  50
ATOM     50  O   UNL     1      27.603  15.020  13.353  1.00  0.00    -0.508 OA
ATOM     51  H   UNL     1      28.433  15.353  13.865  1.00  0.00     0.293 HD
ENDBRANCH  37  50
ENDBRANCH  26  27
ENDBRANCH   5  26
BRANCH   4  52
ATOM     52  O   UNL     1      24.592   9.935   5.452  1.00  0.00    -0.384 OA
ATOM     53  H   UNL     1      23.780   9.398   5.652  1.00  0.00     0.211 HD
ENDBRANCH   4  52
TORSDOF 16
ENDMDL
MODEL 5
REMARK VINA RESULT:    -5.332      2.251      6.534
REMARK INTER + INTRA:         -10.128
REMARK INTER:                  -9.638
REMARK INTRA:                  -0.490
REMARK UNBOUND:                -1.367
REMARK SMILES C[C@H]1O[C@H](OC[C@H]2O[C@@H](Oc3c(-c4ccc(O)c(O)c4)oc4cc(O)cc(O)c4c3=O)[C@@H](O)[C@H](O)[C@H]2O)[C@H](O)[C@@H](O)[C@H]1O
REMARK SMILES IDX 7 1 36 2 34 3 32 4 9 5 8 6 6 7 5 8 4 9 1 10 2 11 42 12 3 13
REMARK SMILES IDX 40 14 38 15 43 16 41 18 39 20 37 22 35 24 10 26 11 27 12 28
REMARK SMILES IDX 30 29 21 30 29 31 31 32 22 33 27 34 23 35 26 36 24 37 13 38
REMARK SMILES IDX 20 39 14 40 18 41 15 42 16 43 19 44 17 46 28 48 25 50 33 52
REMARK H PARENT 43 17 41 19 39 21 37 23 35 25 19 45 17 47 28 49 25 51 33 53
REMARK Flexibility Score: inf
ROOT
ATOM      1  C   UNL     1      15.240   1.000  -1.853  1.00  0.00     0.180 C 
ATOM      2  C   UNL     1      16.459   0.690  -0.976  1.00  0.00     0.177 C 
ATOM      3  C   UNL     1      17.401   1.945  -0.993  1.00  0.00     0.180 C 
ATOM      4  C   UNL     1      16.602   3.240  -1.113  1.00  0.00     0.214 C 
ATOM      5  C   UNL     1      15.204   2.987  -0.509  1.00  0.00     0.339 C 
ATOM      6  O   UNL     1      14.434   2.030  -1.260  1.00  0.00    -0.332 OA
ENDROOT
BRANCH   1   7
ATOM      7  C   UNL     1      14.443  -0.212  -2.353  1.00  0.00     0.198 C 
BRANCH   7   8
ATOM      8  O   UNL     1      13.866  -0.923  -1.243  1.00  0.00    -0.347 OA
BRANCH   8   9
ATOM      9  C   UNL     1      12.512  -0.707  -1.004  1.00  0.00     0.281 C 
ATOM     10  C   UNL     1      10.850  -1.124   1.809  1.00  0.00     0.041 C 
ATOM     11  C   UNL     1      11.096  -0.013   0.826  1.00  0.00     0.150 C 
ATOM     12  C   UNL     1       9.955   0.527  -0.182  1.00  0.00     0.174 C 
ATOM     13  O   UNL     1      12.425  -0.013   0.258  1.00  0.00    -0.344 OA
ATOM     14  C   UNL     1      10.698   1.203  -1.351  1.00  0.00     0.179 C 
ATOM     15  C   UNL     1      11.638   0.103  -2.073  1.00  0.00     0.202 C 
BRANCH  12  16
ATOM     16  O   UNL     1       9.105  -0.434  -0.741  1.00  0.00    -0.388 OA
ATOM     17  H   UNL     1       8.985  -1.147  -0.017  1.00  0.00     0.211 HD
ENDBRANCH  12  16
BRANCH  14  18
ATOM     18  O   UNL     1       9.742   1.724  -2.247  1.00  0.00    -0.387 OA
ATOM     19  H   UNL     1      10.014   2.646  -2.567  1.00  0.00     0.211 HD
ENDBRANCH  14  18
BRANCH  15  20
ATOM     20  O   UNL     1      12.265   0.762  -3.150  1.00  0.00    -0.385 OA
ATOM     21  H   UNL     1      11.468   0.664  -3.894  1.00  0.00     0.211 HD
ENDBRANCH  15  20
ENDBRANCH   8   9
ENDBRANCH   7   8
ENDBRANCH   1   7
BRANCH   2  22
ATOM     22  O   UNL     1      16.101   0.365   0.338  1.00  0.00    -0.387 OA
ATOM     23  H   UNL     1      15.709  -0.551   0.392  1.00  0.00     0.211 HD
ENDBRANCH   2  22
BRANCH   3  24
ATOM     24  O   UNL     1      18.226   1.877  -2.191  1.00  0.00    -0.387 OA
ATOM     25  H   UNL     1      19.174   2.073  -1.902  1.00  0.00     0.211 HD
ENDBRANCH   3  24
BRANCH   5  26
ATOM     26  O   UNL     1      15.362   2.601   0.870  1.00  0.00    -0.454 OA
BRANCH  26  27
ATOM     27  C   UNL     1      14.436   2.969   1.808  1.00  0.00     0.214 A 
ATOM     28  C   UNL     1      13.788   2.008   2.517  1.00  0.00     0.180 A 
ATOM     29  C   UNL     1      13.844   4.187   1.860  1.00  0.00     0.239 A 
ATOM     30  O   UNL     1      12.501   1.948   2.307  1.00  0.00    -0.452 OA
ATOM     31  C   UNL     1      12.348   4.182   1.847  1.00  0.00     0.111 A 
ATOM     32  O   UNL     1      14.564   5.206   1.652  1.00  0.00    -0.285 OA
ATOM     33  C   UNL     1      11.735   2.959   2.013  1.00  0.00     0.146 A 
ATOM     34  C   UNL     1      11.528   5.234   1.418  1.00  0.00     0.134 A 
ATOM     35  C   UNL     1      10.385   2.716   1.904  1.00  0.00     0.094 A 
ATOM     36  C   UNL     1      10.128   5.029   1.379  1.00  0.00     0.093 A 
ATOM     37  C   UNL     1       9.559   3.774   1.597  1.00  0.00     0.123 A 
BRANCH  28  38
ATOM     38  C   UNL     1      14.457   1.190   3.461  1.00  0.00     0.025 A 
ATOM     39  C   UNL     1      15.708   1.756   3.930  1.00  0.00     0.062 A 
ATOM     40  C   UNL     1      14.381  -0.224   3.474  1.00  0.00     0.016 A 
ATOM     41  C   UNL     1      16.391   1.080   4.915  1.00  0.00     0.158 A 
ATOM     42  C   UNL     1      14.963  -0.899   4.541  1.00  0.00     0.051 A 
ATOM     43  C   UNL     1      15.956  -0.279   5.268  1.00  0.00     0.157 A 
BRANCH  41  44
ATOM     44  O   UNL     1      17.492   1.679   5.508  1.00  0.00    -0.504 OA
ATOM     45  H   UNL     1      18.331   1.913   4.995  1.00  0.00     0.293 HD
ENDBRANCH  41  44
BRANCH  43  46
ATOM     46  O   UNL     1      16.289  -0.797   6.517  1.00  0.00    -0.504 OA
ATOM     47  H   UNL     1      16.185  -0.226   7.332  1.00  0.00     0.293 HD
ENDBRANCH  43  46
ENDBRANCH  28  38
BRANCH  34  48
ATOM     48  O   UNL     1      12.038   6.382   0.733  1.00  0.00    -0.507 OA
ATOM     49  H   UNL     1      11.568   6.873  -0.016  1.00  0.00     0.293 HD
ENDBRANCH  34  48
BRANCH  37  50
ATOM     50  O   UNL     1       8.199   3.539   1.455  1.00  0.00    -0.508 OA
ATOM     51  H   UNL     1       7.775   2.725   0.986  1.00  0.00     0.293 HD
ENDBRANCH  37  50
ENDBRANCH  26  27
ENDBRANCH   5  26
BRANCH   4  52
ATOM     52  O   UNL     1      17.183   4.367  -0.450  1.00  0.00    -0.384 OA
ATOM     53  H   UNL     1      16.458   4.885  -0.009  1.00  0.00     0.211 HD
ENDBRANCH   4  52
TORSDOF 16
ENDMDL
MODEL 6
REMARK VINA RESULT:    -4.653      2.126      6.016
REMARK INTER + INTRA:          -9.012
REMARK INTER:                  -5.674
REMARK INTRA:                  -3.338
REMARK UNBOUND:                -1.367
REMARK SMILES C[C@H]1O[C@H](OC[C@H]2O[C@@H](Oc3c(-c4ccc(O)c(O)c4)oc4cc(O)cc(O)c4c3=O)[C@@H](O)[C@H](O)[C@H]2O)[C@H](O)[C@@H](O)[C@H]1O
REMARK SMILES IDX 7 1 36 2 34 3 32 4 9 5 8 6 6 7 5 8 4 9 1 10 2 11 42 12 3 13
REMARK SMILES IDX 40 14 38 15 43 16 41 18 39 20 37 22 35 24 10 26 11 27 12 28
REMARK SMILES IDX 30 29 21 30 29 31 31 32 22 33 27 34 23 35 26 36 24 37 13 38
REMARK SMILES IDX 20 39 14 40 18 41 15 42 16 43 19 44 17 46 28 48 25 50 33 52
REMARK H PARENT 43 17 41 19 39 21 37 23 35 25 19 45 17 47 28 49 25 51 33 53
REMARK Flexibility Score: inf
ROOT
ATOM      1  C   UNL     1      14.544   4.266   0.694  1.00  0.00     0.180 C 
ATOM      2  C   UNL     1      14.220   3.759  -0.716  1.00  0.00     0.177 C 
ATOM      3  C   UNL     1      15.526   3.130  -1.318  1.00  0.00     0.180 C 
ATOM      4  C   UNL     1      16.385   2.485  -0.232  1.00  0.00     0.214 C 
ATOM      5  C   UNL     1      15.447   2.054   0.915  1.00  0.00     0.339 C 
ATOM      6  O   UNL     1      14.825   3.170   1.578  1.00  0.00    -0.332 OA
ENDROOT
BRANCH   1   7
ATOM      7  C   UNL     1      13.581   5.310   1.273  1.00  0.00     0.198 C 
BRANCH   7   8
ATOM      8  O   UNL     1      12.637   4.682   2.159  1.00  0.00    -0.347 OA
BRANCH   8   9
ATOM      9  C   UNL     1      11.315   4.638   1.729  1.00  0.00     0.281 C 
ATOM     10  C   UNL     1       9.882   6.433  -0.632  1.00  0.00     0.041 C 
ATOM     11  C   UNL     1      10.077   4.976  -0.318  1.00  0.00     0.150 C 
ATOM     12  C   UNL     1       8.871   4.025   0.183  1.00  0.00     0.174 C 
ATOM     13  O   UNL     1      11.354   4.669   0.286  1.00  0.00    -0.344 OA
ATOM     14  C   UNL     1       9.533   2.842   0.918  1.00  0.00     0.179 C 
ATOM     15  C   UNL     1      10.378   3.418   2.170  1.00  0.00     0.202 C 
BRANCH  12  16
ATOM     16  O   UNL     1       7.951   4.592   1.072  1.00  0.00    -0.388 OA
ATOM     17  H   UNL     1       7.117   4.787   0.512  1.00  0.00     0.211 HD
ENDBRANCH  12  16
BRANCH  14  18
ATOM     18  O   UNL     1       8.521   1.960   1.348  1.00  0.00    -0.387 OA
ATOM     19  H   UNL     1       7.623   2.429   1.376  1.00  0.00     0.211 HD
ENDBRANCH  14  18
BRANCH  15  20
ATOM     20  O   UNL     1      10.931   2.298   2.825  1.00  0.00    -0.385 OA
ATOM     21  H   UNL     1      11.967   2.641   2.900  1.00  0.00     0.211 HD
ENDBRANCH  15  20
ENDBRANCH   8   9
ENDBRANCH   7   8
ENDBRANCH   1   7
BRANCH   2  22
ATOM     22  O   UNL     1      13.180   2.822  -0.719  1.00  0.00    -0.387 OA
ATOM     23  H   UNL     1      12.319   3.235  -1.008  1.00  0.00     0.211 HD
ENDBRANCH   2  22
BRANCH   3  24
ATOM     24  O   UNL     1      16.334   4.206  -1.873  1.00  0.00    -0.387 OA
ATOM     25  H   UNL     1      15.695   4.945  -2.132  1.00  0.00     0.211 HD
ENDBRANCH   3  24
BRANCH   5  26
ATOM     26  O   UNL     1      14.482   1.120   0.393  1.00  0.00    -0.454 OA
BRANCH  26  27
ATOM     27  C   UNL     1      14.089   0.038   1.133  1.00  0.00     0.214 A 
ATOM     28  C   UNL     1      12.772  -0.126   1.426  1.00  0.00     0.180 A 
ATOM     29  C   UNL     1      14.921  -0.705   1.902  1.00  0.00     0.239 A 
ATOM     30  O   UNL     1      12.480  -0.050   2.695  1.00  0.00    -0.452 OA
ATOM     31  C   UNL     1      14.525  -0.847   3.337  1.00  0.00     0.111 A 
ATOM     32  O   UNL     1      16.063  -0.988   1.437  1.00  0.00    -0.285 OA
ATOM     33  C   UNL     1      13.261  -0.411   3.673  1.00  0.00     0.146 A 
ATOM     34  C   UNL     1      15.391  -1.120   4.404  1.00  0.00     0.134 A 
ATOM     35  C   UNL     1      12.751  -0.331   4.949  1.00  0.00     0.094 A 
ATOM     36  C   UNL     1      14.865  -1.125   5.718  1.00  0.00     0.093 A 
ATOM     37  C   UNL     1      13.561  -0.711   5.995  1.00  0.00     0.123 A 
BRANCH  28  38
ATOM     38  C   UNL     1      11.812  -0.426   0.427  1.00  0.00     0.025 A 
ATOM     39  C   UNL     1      10.506  -0.757   0.965  1.00  0.00     0.062 A 
ATOM     40  C   UNL     1      12.129  -1.018  -0.819  1.00  0.00     0.016 A 
ATOM     41  C   UNL     1       9.480  -0.979   0.075  1.00  0.00     0.158 A 
ATOM     42  C   UNL     1      11.117  -1.124  -1.767  1.00  0.00     0.051 A 
ATOM     43  C   UNL     1       9.803  -1.108  -1.353  1.00  0.00     0.157 A 
BRANCH  41  44
ATOM     44  O   UNL     1       8.186  -1.122   0.555  1.00  0.00    -0.504 OA
ATOM     45  H   UNL     1       7.971  -1.617   1.410  1.00  0.00     0.293 HD
ENDBRANCH  41  44
BRANCH  43  46
ATOM     46  O   UNL     1       8.809  -0.868  -2.299  1.00  0.00    -0.504 OA
ATOM     47  H   UNL     1       8.955  -0.171  -3.002  1.00  0.00     0.293 HD
ENDBRANCH  43  46
ENDBRANCH  28  38
BRANCH  34  48
ATOM     48  O   UNL     1      16.814  -1.089   4.272  1.00  0.00    -0.507 OA
ATOM     49  H   UNL     1      17.383  -0.252   4.258  1.00  0.00     0.293 HD
ENDBRANCH  34  48
BRANCH  37  50
ATOM     50  O   UNL     1      13.072  -0.610   7.289  1.00  0.00    -0.508 OA
ATOM     51  H   UNL     1      12.602   0.215   7.691  1.00  0.00     0.293 HD
ENDBRANCH  37  50
ENDBRANCH  26  27
ENDBRANCH   5  26
BRANCH   4  52
ATOM     52  O   UNL     1      17.132   1.341  -0.660  1.00  0.00    -0.384 OA
ATOM     53  H   UNL     1      17.991   1.318  -0.159  1.00  0.00     0.211 HD
ENDBRANCH   4  52
TORSDOF 16
ENDMDL
MODEL 7
REMARK VINA RESULT:    -4.515     17.137     19.462
REMARK INTER + INTRA:          -8.785
REMARK INTER:                  -6.639
REMARK INTRA:                  -2.146
REMARK UNBOUND:                -1.367
REMARK SMILES C[C@H]1O[C@H](OC[C@H]2O[C@@H](Oc3c(-c4ccc(O)c(O)c4)oc4cc(O)cc(O)c4c3=O)[C@@H](O)[C@H](O)[C@H]2O)[C@H](O)[C@@H](O)[C@H]1O
REMARK SMILES IDX 7 1 36 2 34 3 32 4 9 5 8 6 6 7 5 8 4 9 1 10 2 11 42 12 3 13
REMARK SMILES IDX 40 14 38 15 43 16 41 18 39 20 37 22 35 24 10 26 11 27 12 28
REMARK SMILES IDX 30 29 21 30 29 31 31 32 22 33 27 34 23 35 26 36 24 37 13 38
REMARK SMILES IDX 20 39 14 40 18 41 15 42 16 43 19 44 17 46 28 48 25 50 33 52
REMARK H PARENT 43 17 41 19 39 21 37 23 35 25 19 45 17 47 28 49 25 51 33 53
REMARK Flexibility Score: inf
ROOT
ATOM      1  C   UNL     1      23.264  14.145   4.912  1.00  0.00     0.180 C 
ATOM      2  C   UNL     1      22.509  13.346   5.981  1.00  0.00     0.177 C 
ATOM      3  C   UNL     1      22.762  11.820   5.715  1.00  0.00     0.180 C 
ATOM      4  C   UNL     1      24.152  11.579   5.131  1.00  0.00     0.214 C 
ATOM      5  C   UNL     1      25.068  12.725   5.610  1.00  0.00     0.339 C 
ATOM      6  O   UNL     1      24.684  14.008   5.081  1.00  0.00    -0.332 OA
ENDROOT
BRANCH   1   7
ATOM      7  C   UNL     1      22.794  15.588   4.691  1.00  0.00     0.198 C 
BRANCH   7   8
ATOM      8  O   UNL     1      23.266  16.435   5.755  1.00  0.00    -0.347 OA
BRANCH   8   9
ATOM      9  C   UNL     1      24.585  16.869   5.664  1.00  0.00     0.281 C 
ATOM     10  C   UNL     1      26.334  17.510   2.947  1.00  0.00     0.041 C 
ATOM     11  C   UNL     1      25.931  18.240   4.199  1.00  0.00     0.150 C 
ATOM     12  C   UNL     1      26.977  18.583   5.380  1.00  0.00     0.174 C 
ATOM     13  O   UNL     1      24.603  17.914   4.668  1.00  0.00    -0.344 OA
ATOM     14  C   UNL     1      26.134  18.787   6.656  1.00  0.00     0.179 C 
ATOM     15  C   UNL     1      25.331  17.420   6.969  1.00  0.00     0.202 C 
BRANCH  12  16
ATOM     16  O   UNL     1      27.933  17.606   5.678  1.00  0.00    -0.388 OA
ATOM     17  H   UNL     1      27.511  17.025   6.407  1.00  0.00     0.211 HD
ENDBRANCH  12  16
BRANCH  14  18
ATOM     18  O   UNL     1      27.000  19.125   7.715  1.00  0.00    -0.387 OA
ATOM     19  H   UNL     1      27.924  18.739   7.561  1.00  0.00     0.211 HD
ENDBRANCH  14  18
BRANCH  15  20
ATOM     20  O   UNL     1      24.606  17.648   8.157  1.00  0.00    -0.385 OA
ATOM     21  H   UNL     1      23.830  16.888   8.030  1.00  0.00     0.211 HD
ENDBRANCH  15  20
ENDBRANCH   8   9
ENDBRANCH   7   8
ENDBRANCH   1   7
BRANCH   2  22
ATOM     22  O   UNL     1      22.903  13.688   7.279  1.00  0.00    -0.387 OA
ATOM     23  H   UNL     1      23.194  14.641   7.332  1.00  0.00     0.211 HD
ENDBRANCH   2  22
BRANCH   3  24
ATOM     24  O   UNL     1      21.823  11.375   4.695  1.00  0.00    -0.387 OA
ATOM     25  H   UNL     1      20.966  11.888   4.846  1.00  0.00     0.211 HD
ENDBRANCH   3  24
BRANCH   5  26
ATOM     26  O   UNL     1      25.101  12.715   7.051  1.00  0.00    -0.454 OA
BRANCH  26  27
ATOM     27  C   UNL     1      26.295  12.737   7.721  1.00  0.00     0.214 A 
ATOM     28  C   UNL     1      26.540  11.802   8.675  1.00  0.00     0.180 A 
ATOM     29  C   UNL     1      27.121  13.809   7.774  1.00  0.00     0.239 A 
ATOM     30  O   UNL     1      26.668  12.276   9.884  1.00  0.00    -0.452 OA
ATOM     31  C   UNL     1      27.492  14.276   9.145  1.00  0.00     0.111 A 
ATOM     32  O   UNL     1      27.296  14.476   6.713  1.00  0.00    -0.285 OA
ATOM     33  C   UNL     1      27.150  13.446  10.191  1.00  0.00     0.146 A 
ATOM     34  C   UNL     1      27.899  15.572   9.489  1.00  0.00     0.134 A 
ATOM     35  C   UNL     1      27.282  13.743  11.528  1.00  0.00     0.094 A 
ATOM     36  C   UNL     1      28.120  15.872  10.854  1.00  0.00     0.093 A 
ATOM     37  C   UNL     1      27.792  14.974  11.871  1.00  0.00     0.123 A 
BRANCH  28  38
ATOM     38  C   UNL     1      26.713  10.431   8.359  1.00  0.00     0.025 A 
ATOM     39  C   UNL     1      26.889   9.588   9.526  1.00  0.00     0.062 A 
ATOM     40  C   UNL     1      27.327   9.968   7.170  1.00  0.00     0.016 A 
ATOM     41  C   UNL     1      26.977   8.229   9.331  1.00  0.00     0.158 A 
ATOM     42  C   UNL     1      27.302   8.602   6.912  1.00  0.00     0.051 A 
ATOM     43  C   UNL     1      27.131   7.723   7.959  1.00  0.00     0.157 A 
BRANCH  41  44
ATOM     44  O   UNL     1      26.967   7.385  10.432  1.00  0.00    -0.504 OA
ATOM     45  H   UNL     1      26.126   6.938  10.771  1.00  0.00     0.293 HD
ENDBRANCH  41  44
BRANCH  43  46
ATOM     46  O   UNL     1      26.764   6.410   7.674  1.00  0.00    -0.504 OA
ATOM     47  H   UNL     1      25.977   6.235   7.081  1.00  0.00     0.293 HD
ENDBRANCH  43  46
ENDBRANCH  28  38
BRANCH  34  48
ATOM     48  O   UNL     1      27.805  16.677   8.586  1.00  0.00    -0.507 OA
ATOM     49  H   UNL     1      28.586  17.226   8.249  1.00  0.00     0.293 HD
ENDBRANCH  34  48
BRANCH  37  50
ATOM     50  O   UNL     1      27.904  15.300  13.215  1.00  0.00    -0.508 OA
ATOM     51  H   UNL     1      28.296  14.693  13.950  1.00  0.00     0.293 HD
ENDBRANCH  37  50
ENDBRANCH  26  27
ENDBRANCH   5  26
BRANCH   4  52
ATOM     52  O   UNL     1      24.752  10.334   5.505  1.00  0.00    -0.384 OA
ATOM     53  H   UNL     1      24.392  10.063   6.392  1.00  0.00     0.211 HD
ENDBRANCH   4  52
TORSDOF 16
ENDMDL
