MODEL 1
REMARK VINA RESULT:    -4.246      0.000      0.000
REMARK INTER + INTRA:          -7.973
REMARK INTER:                  -7.224
REMARK INTRA:                  -0.749
REMARK UNBOUND:                -0.749
REMARK SMILES CCCCCCCCCCCCCC(=O)[O-]
REMARK SMILES IDX 8 1 9 2 10 3 11 4 12 5 13 6 14 7 15 8 16 9 7 10 6 11 5 12
REMARK SMILES IDX 4 13 3 14 2 15 1 16
REMARK H PARENT
REMARK Flexibility Score: inf
ROOT
ATOM      1  C   UNL     1       2.554 -37.513  20.032  1.00  0.00     0.000 C 
ENDROOT
BRANCH   1   2
ATOM      2  C   UNL     1       4.036 -37.257  19.721  1.00  0.00     0.000 C 
BRANCH   2   3
ATOM      3  C   UNL     1       4.355 -35.757  19.763  1.00  0.00     0.000 C 
BRANCH   3   4
ATOM      4  C   UNL     1       5.823 -35.517  20.147  1.00  0.00     0.000 C 
BRANCH   4   5
ATOM      5  C   UNL     1       6.119 -35.859  21.619  1.00  0.00     0.006 C 
BRANCH   5   6
ATOM      6  C   UNL     1       5.246 -35.100  22.631  1.00  0.00     0.053 C 
BRANCH   6   7
ATOM      7  C   UNL     1       5.833 -35.124  24.009  1.00  0.00     0.041 C 
ATOM      8  O   UNL     1       6.124 -34.046  24.592  1.00  0.00    -0.550 OA
ATOM      9  O   UNL     1       6.089 -36.337  24.636  1.00  0.00    -0.550 OA
ENDBRANCH   6   7
ENDBRANCH   5   6
ENDBRANCH   4   5
ENDBRANCH   3   4
ENDBRANCH   2   3
ENDBRANCH   1   2
BRANCH   1  10
ATOM     10  C   UNL     1       1.718 -37.768  18.769  1.00  0.00     0.000 C 
BRANCH  10  11
ATOM     11  C   UNL     1       2.522 -37.558  17.473  1.00  0.00    -0.000 C 
BRANCH  11  12
ATOM     12  C   UNL     1       1.839 -36.551  16.523  1.00  0.00    -0.000 C 
BRANCH  12  13
ATOM     13  C   UNL     1       2.818 -35.843  15.570  1.00  0.00    -0.000 C 
BRANCH  13  14
ATOM     14  C   UNL     1       2.864 -36.482  14.175  1.00  0.00    -0.000 C 
BRANCH  14  15
ATOM     15  C   UNL     1       4.241 -37.093  13.895  1.00  0.00    -0.003 C 
ATOM     16  C   UNL     1       4.258 -38.584  14.219  1.00  0.00     0.004 C 
ENDBRANCH  14  15
ENDBRANCH  13  14
ENDBRANCH  12  13
ENDBRANCH  11  12
ENDBRANCH  10  11
ENDBRANCH   1  10
TORSDOF 12
ENDMDL
MODEL 2
REMARK VINA RESULT:    -4.073      1.039      1.496
REMARK INTER + INTRA:          -7.679
REMARK INTER:                  -7.280
REMARK INTRA:                  -0.399
REMARK UNBOUND:                -0.749
REMARK SMILES CCCCCCCCCCCCCC(=O)[O-]
REMARK SMILES IDX 8 1 9 2 10 3 11 4 12 5 13 6 14 7 15 8 16 9 7 10 6 11 5 12
REMARK SMILES IDX 4 13 3 14 2 15 1 16
REMARK H PARENT
REMARK Flexibility Score: inf
ROOT
ATOM      1  C   UNL     1       3.931 -37.508  19.687  1.00  0.00     0.000 C 
ENDROOT
BRANCH   1   2
ATOM      2  C   UNL     1       4.530 -36.140  20.044  1.00  0.00     0.000 C 
BRANCH   2   3
ATOM      3  C   UNL     1       5.793 -36.299  20.899  1.00  0.00     0.000 C 
BRANCH   3   4
ATOM      4  C   UNL     1       6.125 -34.995  21.640  1.00  0.00     0.000 C 
BRANCH   4   5
ATOM      5  C   UNL     1       5.280 -34.799  22.912  1.00  0.00     0.006 C 
BRANCH   5   6
ATOM      6  C   UNL     1       6.025 -35.111  24.219  1.00  0.00     0.053 C 
BRANCH   6   7
ATOM      7  C   UNL     1       5.716 -36.485  24.728  1.00  0.00     0.041 C 
ATOM      8  O   UNL     1       5.262 -36.643  25.893  1.00  0.00    -0.550 OA
ATOM      9  O   UNL     1       5.960 -37.595  23.929  1.00  0.00    -0.550 OA
ENDBRANCH   6   7
ENDBRANCH   5   6
ENDBRANCH   4   5
ENDBRANCH   3   4
ENDBRANCH   2   3
ENDBRANCH   1   2
BRANCH   1  10
ATOM     10  C   UNL     1       2.395 -37.492  19.649  1.00  0.00     0.000 C 
BRANCH  10  11
ATOM     11  C   UNL     1       1.840 -37.236  18.236  1.00  0.00    -0.000 C 
BRANCH  11  12
ATOM     12  C   UNL     1       2.931 -37.362  17.152  1.00  0.00    -0.000 C 
BRANCH  12  13
ATOM     13  C   UNL     1       2.943 -36.192  16.152  1.00  0.00    -0.000 C 
BRANCH  13  14
ATOM     14  C   UNL     1       2.644 -36.631  14.712  1.00  0.00    -0.000 C 
BRANCH  14  15
ATOM     15  C   UNL     1       3.931 -37.022  13.978  1.00  0.00    -0.003 C 
ATOM     16  C   UNL     1       4.276 -38.489  14.213  1.00  0.00     0.004 C 
ENDBRANCH  14  15
ENDBRANCH  13  14
ENDBRANCH  12  13
ENDBRANCH  11  12
ENDBRANCH  10  11
ENDBRANCH   1  10
TORSDOF 12
ENDMDL
MODEL 3
REMARK VINA RESULT:    -3.594      4.046      8.023
REMARK INTER + INTRA:          -6.864
REMARK INTER:                  -7.191
REMARK INTRA:                   0.326
REMARK UNBOUND:                -0.749
REMARK SMILES CCCCCCCCCCCCCC(=O)[O-]
REMARK SMILES IDX 8 1 9 2 10 3 11 4 12 5 13 6 14 7 15 8 16 9 7 10 6 11 5 12
REMARK SMILES IDX 4 13 3 14 2 15 1 16
REMARK H PARENT
REMARK Flexibility Score: inf
ROOT
ATOM      1  C   UNL     1       3.937 -36.528  20.042  1.00  0.00     0.000 C 
ENDROOT
BRANCH   1   2
ATOM      2  C   UNL     1       3.530 -37.331  18.797  1.00  0.00     0.000 C 
BRANCH   2   3
ATOM      3  C   UNL     1       2.046 -37.712  18.850  1.00  0.00     0.000 C 
BRANCH   3   4
ATOM      4  C   UNL     1       1.383 -37.539  17.475  1.00  0.00     0.000 C 
BRANCH   4   5
ATOM      5  C   UNL     1       1.992 -36.382  16.660  1.00  0.00     0.006 C 
BRANCH   5   6
ATOM      6  C   UNL     1       3.409 -36.658  16.134  1.00  0.00     0.053 C 
BRANCH   6   7
ATOM      7  C   UNL     1       3.419 -36.932  14.662  1.00  0.00     0.041 C 
ATOM      8  O   UNL     1       2.508 -36.470  13.925  1.00  0.00    -0.550 OA
ATOM      9  O   UNL     1       4.417 -37.725  14.107  1.00  0.00    -0.550 OA
ENDBRANCH   6   7
ENDBRANCH   5   6
ENDBRANCH   4   5
ENDBRANCH   3   4
ENDBRANCH   2   3
ENDBRANCH   1   2
BRANCH   1  10
ATOM     10  C   UNL     1       5.389 -36.791  20.469  1.00  0.00     0.000 C 
BRANCH  10  11
ATOM     11  C   UNL     1       5.957 -35.671  21.359  1.00  0.00    -0.000 C 
BRANCH  11  12
ATOM     12  C   UNL     1       4.989 -35.288  22.499  1.00  0.00    -0.000 C 
BRANCH  12  13
ATOM     13  C   UNL     1       5.582 -34.277  23.496  1.00  0.00    -0.000 C 
BRANCH  13  14
ATOM     14  C   UNL     1       6.105 -34.938  24.778  1.00  0.00    -0.000 C 
BRANCH  14  15
ATOM     15  C   UNL     1       5.950 -36.461  24.715  1.00  0.00    -0.003 C 
ATOM     16  C   UNL     1       4.977 -36.961  25.778  1.00  0.00     0.004 C 
ENDBRANCH  14  15
ENDBRANCH  13  14
ENDBRANCH  12  13
ENDBRANCH  11  12
ENDBRANCH  10  11
ENDBRANCH   1  10
TORSDOF 12
ENDMDL
MODEL 4
REMARK VINA RESULT:    -3.466      3.879      7.745
REMARK INTER + INTRA:          -6.646
REMARK INTER:                  -6.199
REMARK INTRA:                  -0.447
REMARK UNBOUND:                -0.749
REMARK SMILES CCCCCCCCCCCCCC(=O)[O-]
REMARK SMILES IDX 8 1 9 2 10 3 11 4 12 5 13 6 14 7 15 8 16 9 7 10 6 11 5 12
REMARK SMILES IDX 4 13 3 14 2 15 1 16
REMARK H PARENT
REMARK Flexibility Score: inf
ROOT
ATOM      1  C   UNL     1       2.582 -37.331  19.899  1.00  0.00     0.000 C 
ENDROOT
BRANCH   1   2
ATOM      2  C   UNL     1       1.948 -38.062  18.705  1.00  0.00     0.000 C 
BRANCH   2   3
ATOM      3  C   UNL     1       1.527 -37.069  17.615  1.00  0.00     0.000 C 
BRANCH   3   4
ATOM      4  C   UNL     1       2.682 -36.803  16.637  1.00  0.00     0.000 C 
BRANCH   4   5
ATOM      5  C   UNL     1       2.225 -36.089  15.352  1.00  0.00     0.006 C 
BRANCH   5   6
ATOM      6  C   UNL     1       2.634 -36.803  14.054  1.00  0.00     0.053 C 
BRANCH   6   7
ATOM      7  C   UNL     1       3.953 -37.499  14.186  1.00  0.00     0.041 C 
ATOM      8  O   UNL     1       4.004 -38.685  14.608  1.00  0.00    -0.550 OA
ATOM      9  O   UNL     1       5.129 -36.828  13.875  1.00  0.00    -0.550 OA
ENDBRANCH   6   7
ENDBRANCH   5   6
ENDBRANCH   4   5
ENDBRANCH   3   4
ENDBRANCH   2   3
ENDBRANCH   1   2
BRANCH   1  10
ATOM     10  C   UNL     1       4.111 -37.479  19.939  1.00  0.00     0.000 C 
BRANCH  10  11
ATOM     11  C   UNL     1       4.842 -36.146  19.696  1.00  0.00    -0.000 C 
BRANCH  11  12
ATOM     12  C   UNL     1       5.824 -35.806  20.836  1.00  0.00    -0.000 C 
BRANCH  12  13
ATOM     13  C   UNL     1       5.131 -35.309  22.117  1.00  0.00    -0.000 C 
BRANCH  13  14
ATOM     14  C   UNL     1       6.100 -34.641  23.102  1.00  0.00    -0.000 C 
BRANCH  14  15
ATOM     15  C   UNL     1       5.917 -35.200  24.518  1.00  0.00    -0.003 C 
ATOM     16  C   UNL     1       6.124 -36.711  24.544  1.00  0.00     0.004 C 
ENDBRANCH  14  15
ENDBRANCH  13  14
ENDBRANCH  12  13
ENDBRANCH  11  12
ENDBRANCH  10  11
ENDBRANCH   1  10
TORSDOF 12
ENDMDL
MODEL 5
REMARK VINA RESULT:    -3.237      2.323      2.857
REMARK INTER + INTRA:          -6.256
REMARK INTER:                  -5.550
REMARK INTRA:                  -0.706
REMARK UNBOUND:                -0.749
REMARK SMILES CCCCCCCCCCCCCC(=O)[O-]
REMARK SMILES IDX 8 1 9 2 10 3 11 4 12 5 13 6 14 7 15 8 16 9 7 10 6 11 5 12
REMARK SMILES IDX 4 13 3 14 2 15 1 16
REMARK H PARENT
REMARK Flexibility Score: inf
ROOT
ATOM      1  C   UNL     1       2.935 -37.162  20.056  1.00  0.00     0.000 C 
ENDROOT
BRANCH   1   2
ATOM      2  C   UNL     1       3.904 -35.971  20.058  1.00  0.00     0.000 C 
BRANCH   2   3
ATOM      3  C   UNL     1       5.338 -36.429  20.349  1.00  0.00     0.000 C 
BRANCH   3   4
ATOM      4  C   UNL     1       5.674 -36.273  21.840  1.00  0.00     0.000 C 
BRANCH   4   5
ATOM      5  C   UNL     1       5.836 -37.624  22.561  1.00  0.00     0.006 C 
BRANCH   5   6
ATOM      6  C   UNL     1       5.737 -38.848  21.637  1.00  0.00     0.053 C 
BRANCH   6   7
ATOM      7  C   UNL     1       5.670 -40.131  22.408  1.00  0.00     0.041 C 
ATOM      8  O   UNL     1       5.230 -40.139  23.588  1.00  0.00    -0.550 OA
ATOM      9  O   UNL     1       6.124 -41.312  21.835  1.00  0.00    -0.550 OA
ENDBRANCH   6   7
ENDBRANCH   5   6
ENDBRANCH   4   5
ENDBRANCH   3   4
ENDBRANCH   2   3
ENDBRANCH   1   2
BRANCH   1  10
ATOM     10  C   UNL     1       2.263 -37.378  18.691  1.00  0.00     0.000 C 
BRANCH  10  11
ATOM     11  C   UNL     1       3.276 -37.428  17.532  1.00  0.00    -0.000 C 
BRANCH  11  12
ATOM     12  C   UNL     1       3.343 -36.092  16.762  1.00  0.00    -0.000 C 
BRANCH  12  13
ATOM     13  C   UNL     1       2.384 -36.026  15.560  1.00  0.00    -0.000 C 
BRANCH  13  14
ATOM     14  C   UNL     1       2.593 -37.174  14.564  1.00  0.00    -0.000 C 
BRANCH  14  15
ATOM     15  C   UNL     1       4.025 -37.175  14.019  1.00  0.00    -0.003 C 
ATOM     16  C   UNL     1       4.581 -38.594  13.934  1.00  0.00     0.004 C 
ENDBRANCH  14  15
ENDBRANCH  13  14
ENDBRANCH  12  13
ENDBRANCH  11  12
ENDBRANCH  10  11
ENDBRANCH   1  10
TORSDOF 12
ENDMDL
MODEL 6
REMARK VINA RESULT:    -2.820      4.212      7.628
REMARK INTER + INTRA:          -5.547
REMARK INTER:                  -4.633
REMARK INTRA:                  -0.914
REMARK UNBOUND:                -0.749
REMARK SMILES CCCCCCCCCCCCCC(=O)[O-]
REMARK SMILES IDX 8 1 9 2 10 3 11 4 12 5 13 6 14 7 15 8 16 9 7 10 6 11 5 12
REMARK SMILES IDX 4 13 3 14 2 15 1 16
REMARK H PARENT
REMARK Flexibility Score: inf
ROOT
ATOM      1  C   UNL     1       4.125 -35.589  21.291  1.00  0.00     0.000 C 
ENDROOT
BRANCH   1   2
ATOM      2  C   UNL     1       4.884 -35.923  19.998  1.00  0.00     0.000 C 
BRANCH   2   3
ATOM      3  C   UNL     1       4.430 -37.272  19.427  1.00  0.00     0.000 C 
BRANCH   3   4
ATOM      4  C   UNL     1       3.008 -37.177  18.854  1.00  0.00     0.000 C 
BRANCH   4   5
ATOM      5  C   UNL     1       2.948 -37.497  17.349  1.00  0.00     0.006 C 
BRANCH   5   6
ATOM      6  C   UNL     1       3.352 -36.327  16.438  1.00  0.00     0.053 C 
BRANCH   6   7
ATOM      7  C   UNL     1       3.115 -36.632  14.991  1.00  0.00     0.041 C 
ATOM      8  O   UNL     1       2.035 -36.291  14.440  1.00  0.00    -0.550 OA
ATOM      9  O   UNL     1       4.073 -37.324  14.260  1.00  0.00    -0.550 OA
ENDBRANCH   6   7
ENDBRANCH   5   6
ENDBRANCH   4   5
ENDBRANCH   3   4
ENDBRANCH   2   3
ENDBRANCH   1   2
BRANCH   1  10
ATOM     10  C   UNL     1       4.840 -34.527  22.140  1.00  0.00     0.000 C 
BRANCH  10  11
ATOM     11  C   UNL     1       6.067 -35.087  22.883  1.00  0.00    -0.000 C 
BRANCH  11  12
ATOM     12  C   UNL     1       5.721 -35.535  24.319  1.00  0.00    -0.000 C 
BRANCH  12  13
ATOM     13  C   UNL     1       5.843 -37.054  24.536  1.00  0.00    -0.000 C 
BRANCH  13  14
ATOM     14  C   UNL     1       5.976 -37.838  23.223  1.00  0.00    -0.000 C 
BRANCH  14  15
ATOM     15  C   UNL     1       5.331 -39.223  23.341  1.00  0.00    -0.003 C 
ATOM     16  C   UNL     1       5.682 -40.098  22.142  1.00  0.00     0.004 C 
ENDBRANCH  14  15
ENDBRANCH  13  14
ENDBRANCH  12  13
ENDBRANCH  11  12
ENDBRANCH  10  11
ENDBRANCH   1  10
TORSDOF 12
ENDMDL
MODEL 7
REMARK VINA RESULT:    -2.767      2.512      3.874
REMARK INTER + INTRA:          -5.457
REMARK INTER:                  -4.657
REMARK INTRA:                  -0.800
REMARK UNBOUND:                -0.749
REMARK SMILES CCCCCCCCCCCCCC(=O)[O-]
REMARK SMILES IDX 8 1 9 2 10 3 11 4 12 5 13 6 14 7 15 8 16 9 7 10 6 11 5 12
REMARK SMILES IDX 4 13 3 14 2 15 1 16
REMARK H PARENT
REMARK Flexibility Score: inf
ROOT
ATOM      1  C   UNL     1       4.367 -35.091  21.722  1.00  0.00     0.000 C 
ENDROOT
BRANCH   1   2
ATOM      2  C   UNL     1       5.793 -35.179  22.285  1.00  0.00     0.000 C 
BRANCH   2   3
ATOM      3  C   UNL     1       5.774 -35.286  23.815  1.00  0.00     0.000 C 
BRANCH   3   4
ATOM      4  C   UNL     1       5.872 -36.751  24.267  1.00  0.00     0.000 C 
BRANCH   4   5
ATOM      5  C   UNL     1       6.101 -37.723  23.095  1.00  0.00     0.006 C 
BRANCH   5   6
ATOM      6  C   UNL     1       5.362 -39.064  23.233  1.00  0.00     0.053 C 
BRANCH   6   7
ATOM      7  C   UNL     1       5.770 -40.042  22.174  1.00  0.00     0.041 C 
ATOM      8  O   UNL     1       5.824 -41.273  22.435  1.00  0.00    -0.550 OA
ATOM      9  O   UNL     1       6.121 -39.591  20.908  1.00  0.00    -0.550 OA
ENDBRANCH   6   7
ENDBRANCH   5   6
ENDBRANCH   4   5
ENDBRANCH   3   4
ENDBRANCH   2   3
ENDBRANCH   1   2
BRANCH   1  10
ATOM     10  C   UNL     1       4.271 -35.587  20.271  1.00  0.00     0.000 C 
BRANCH  10  11
ATOM     11  C   UNL     1       3.663 -36.997  20.166  1.00  0.00    -0.000 C 
BRANCH  11  12
ATOM     12  C   UNL     1       3.733 -37.554  18.728  1.00  0.00    -0.000 C 
BRANCH  12  13
ATOM     13  C   UNL     1       3.511 -36.484  17.643  1.00  0.00    -0.000 C 
BRANCH  13  14
ATOM     14  C   UNL     1       2.805 -37.033  16.396  1.00  0.00    -0.000 C 
BRANCH  14  15
ATOM     15  C   UNL     1       3.398 -36.431  15.118  1.00  0.00    -0.003 C 
ATOM     16  C   UNL     1       3.818 -37.523  14.139  1.00  0.00     0.004 C 
ENDBRANCH  14  15
ENDBRANCH  13  14
ENDBRANCH  12  13
ENDBRANCH  11  12
ENDBRANCH  10  11
ENDBRANCH   1  10
TORSDOF 12
ENDMDL
MODEL 8
REMARK VINA RESULT:    -2.492      3.044      4.443
REMARK INTER + INTRA:          -4.989
REMARK INTER:                  -4.081
REMARK INTRA:                  -0.908
REMARK UNBOUND:                -0.749
REMARK SMILES CCCCCCCCCCCCCC(=O)[O-]
REMARK SMILES IDX 8 1 9 2 10 3 11 4 12 5 13 6 14 7 15 8 16 9 7 10 6 11 5 12
REMARK SMILES IDX 4 13 3 14 2 15 1 16
REMARK H PARENT
REMARK Flexibility Score: inf
ROOT
ATOM      1  C   UNL     1       5.978 -34.591  19.807  1.00  0.00     0.000 C 
ENDROOT
BRANCH   1   2
ATOM      2  C   UNL     1       5.048 -35.412  20.711  1.00  0.00     0.000 C 
BRANCH   2   3
ATOM      3  C   UNL     1       5.577 -36.840  20.892  1.00  0.00     0.000 C 
BRANCH   3   4
ATOM      4  C   UNL     1       4.751 -37.842  20.070  1.00  0.00     0.000 C 
BRANCH   4   5
ATOM      5  C   UNL     1       3.233 -37.631  20.223  1.00  0.00     0.006 C 
BRANCH   5   6
ATOM      6  C   UNL     1       2.429 -37.878  18.937  1.00  0.00     0.053 C 
BRANCH   6   7
ATOM      7  C   UNL     1       0.964 -37.639  19.135  1.00  0.00     0.041 C 
ATOM      8  O   UNL     1       0.153 -37.861  18.197  1.00  0.00    -0.550 OA
ATOM      9  O   UNL     1       0.497 -37.140  20.345  1.00  0.00    -0.550 OA
ENDBRANCH   6   7
ENDBRANCH   5   6
ENDBRANCH   4   5
ENDBRANCH   3   4
ENDBRANCH   2   3
ENDBRANCH   1   2
BRANCH   1  10
ATOM     10  C   UNL     1       5.748 -34.866  18.313  1.00  0.00     0.000 C 
BRANCH  10  11
ATOM     11  C   UNL     1       4.255 -34.903  17.939  1.00  0.00    -0.000 C 
BRANCH  11  12
ATOM     12  C   UNL     1       3.947 -35.990  16.887  1.00  0.00    -0.000 C 
BRANCH  12  13
ATOM     13  C   UNL     1       2.568 -35.829  16.223  1.00  0.00    -0.000 C 
BRANCH  13  14
ATOM     14  C   UNL     1       2.471 -36.538  14.865  1.00  0.00    -0.000 C 
BRANCH  14  15
ATOM     15  C   UNL     1       3.863 -36.836  14.299  1.00  0.00    -0.003 C 
ATOM     16  C   UNL     1       4.140 -38.336  14.277  1.00  0.00     0.004 C 
ENDBRANCH  14  15
ENDBRANCH  13  14
ENDBRANCH  12  13
ENDBRANCH  11  12
ENDBRANCH  10  11
ENDBRANCH   1  10
TORSDOF 12
ENDMDL
MODEL 9
REMARK VINA RESULT:    -2.421      1.631      3.000
REMARK INTER + INTRA:          -4.868
REMARK INTER:                  -4.351
REMARK INTRA:                  -0.518
REMARK UNBOUND:                -0.749
REMARK SMILES CCCCCCCCCCCCCC(=O)[O-]
REMARK SMILES IDX 8 1 9 2 10 3 11 4 12 5 13 6 14 7 15 8 16 9 7 10 6 11 5 12
REMARK SMILES IDX 4 13 3 14 2 15 1 16
REMARK H PARENT
REMARK Flexibility Score: inf
ROOT
ATOM      1  C   UNL     1       4.222 -35.313  20.693  1.00  0.00     0.000 C 
ENDROOT
BRANCH   1   2
ATOM      2  C   UNL     1       5.446 -35.221  21.616  1.00  0.00     0.000 C 
BRANCH   2   3
ATOM      3  C   UNL     1       5.148 -34.342  22.837  1.00  0.00     0.000 C 
BRANCH   3   4
ATOM      4  C   UNL     1       6.125 -34.644  23.984  1.00  0.00     0.000 C 
BRANCH   4   5
ATOM      5  C   UNL     1       6.081 -36.116  24.435  1.00  0.00     0.006 C 
BRANCH   5   6
ATOM      6  C   UNL     1       5.338 -36.348  25.761  1.00  0.00     0.053 C 
BRANCH   6   7
ATOM      7  C   UNL     1       4.646 -37.676  25.792  1.00  0.00     0.041 C 
ATOM      8  O   UNL     1       5.026 -38.607  25.033  1.00  0.00    -0.550 OA
ATOM      9  O   UNL     1       3.561 -37.876  26.637  1.00  0.00    -0.550 OA
ENDBRANCH   6   7
ENDBRANCH   5   6
ENDBRANCH   4   5
ENDBRANCH   3   4
ENDBRANCH   2   3
ENDBRANCH   1   2
BRANCH   1  10
ATOM     10  C   UNL     1       4.117 -36.670  19.980  1.00  0.00     0.000 C 
BRANCH  10  11
ATOM     11  C   UNL     1       2.662 -37.144  19.819  1.00  0.00    -0.000 C 
BRANCH  11  12
ATOM     12  C   UNL     1       2.420 -37.820  18.452  1.00  0.00    -0.000 C 
BRANCH  12  13
ATOM     13  C   UNL     1       3.183 -37.154  17.293  1.00  0.00    -0.000 C 
BRANCH  13  14
ATOM     14  C   UNL     1       2.272 -36.761  16.123  1.00  0.00    -0.000 C 
BRANCH  14  15
ATOM     15  C   UNL     1       3.096 -36.322  14.907  1.00  0.00    -0.003 C 
ATOM     16  C   UNL     1       3.837 -37.504  14.289  1.00  0.00     0.004 C 
ENDBRANCH  14  15
ENDBRANCH  13  14
ENDBRANCH  12  13
ENDBRANCH  11  12
ENDBRANCH  10  11
ENDBRANCH   1  10
TORSDOF 12
ENDMDL
