MODEL 1
REMARK VINA RESULT:    -6.909      0.000      0.000
REMARK INTER + INTRA:          -8.632
REMARK INTER:                  -8.323
REMARK INTRA:                  -0.309
REMARK UNBOUND:                -0.309
REMARK SMILES O=c1c(O)c(-c2ccc(O)cc2O)oc2cc(O)cc(O)c12
REMARK SMILES IDX 5 1 3 2 2 3 1 4 22 5 20 6 19 7 17 8 16 9 15 10 14 11 6 12
REMARK SMILES IDX 8 13 7 14 9 15 11 16 12 17 10 18 13 20 4 22 21 24 18 26
REMARK H PARENT 10 19 13 21 4 23 21 25 18 27
REMARK Flexibility Score: inf
ROOT
ATOM      1  C   UNL     1     170.634 144.157 152.896  1.00  0.00     0.184 A 
ATOM      2  C   UNL     1     171.336 144.884 153.871  1.00  0.00     0.208 A 
ATOM      3  C   UNL     1     170.925 144.796 155.210  1.00  0.00     0.238 A 
ATOM      4  O   UNL     1     171.589 145.406 156.088  1.00  0.00    -0.285 OA
ATOM      5  C   UNL     1     169.809 143.994 155.554  1.00  0.00     0.111 A 
ATOM      6  C   UNL     1     169.279 143.862 156.873  1.00  0.00     0.134 A 
ATOM      7  C   UNL     1     168.254 142.942 157.116  1.00  0.00     0.093 A 
ATOM      8  C   UNL     1     167.693 142.195 156.077  1.00  0.00     0.123 A 
ATOM      9  C   UNL     1     168.162 142.360 154.776  1.00  0.00     0.094 A 
ATOM     10  C   UNL     1     169.209 143.244 154.506  1.00  0.00     0.146 A 
ATOM     11  O   UNL     1     169.634 143.363 153.254  1.00  0.00    -0.451 OA
ENDROOT
BRANCH   1  12
ATOM     12  C   UNL     1     171.004 144.220 151.466  1.00  0.00     0.063 A 
ATOM     13  C   UNL     1     171.910 143.105 149.504  1.00  0.00     0.047 A 
ATOM     14  C   UNL     1     171.553 143.082 150.855  1.00  0.00     0.020 A 
ATOM     15  C   UNL     1     171.708 144.259 148.744  1.00  0.00     0.119 A 
ATOM     16  C   UNL     1     171.139 145.393 149.338  1.00  0.00     0.093 A 
ATOM     17  C   UNL     1     170.773 145.377 150.693  1.00  0.00     0.130 A 
BRANCH  15  18
ATOM     18  O   UNL     1     172.072 144.269 147.399  1.00  0.00    -0.508 OA
ATOM     19  H   UNL     1     172.379 145.118 146.939  1.00  0.00     0.293 HD
ENDBRANCH  15  18
BRANCH  17  20
ATOM     20  O   UNL     1     170.163 146.495 151.261  1.00  0.00    -0.507 OA
ATOM     21  H   UNL     1     169.266 146.430 151.728  1.00  0.00     0.293 HD
ENDBRANCH  17  20
ENDBRANCH   1  12
BRANCH   2  22
ATOM     22  O   UNL     1     172.445 145.652 153.508  1.00  0.00    -0.502 OA
ATOM     23  H   UNL     1     173.163 145.917 154.171  1.00  0.00     0.293 HD
ENDBRANCH   2  22
BRANCH   6  24
ATOM     24  O   UNL     1     169.705 144.626 157.963  1.00  0.00    -0.507 OA
ATOM     25  H   UNL     1     169.161 144.795 158.795  1.00  0.00     0.293 HD
ENDBRANCH   6  24
BRANCH   8  26
ATOM     26  O   UNL     1     166.661 141.292 156.326  1.00  0.00    -0.508 OA
ATOM     27  H   UNL     1     166.746 140.312 156.088  1.00  0.00     0.293 HD
ENDBRANCH   8  26
TORSDOF 6
ENDMDL
MODEL 2
REMARK VINA RESULT:    -6.679      3.279      6.986
REMARK INTER + INTRA:          -8.354
REMARK INTER:                  -7.970
REMARK INTRA:                  -0.384
REMARK UNBOUND:                -0.309
REMARK SMILES O=c1c(O)c(-c2ccc(O)cc2O)oc2cc(O)cc(O)c12
REMARK SMILES IDX 5 1 3 2 2 3 1 4 22 5 20 6 19 7 17 8 16 9 15 10 14 11 6 12
REMARK SMILES IDX 8 13 7 14 9 15 11 16 12 17 10 18 13 20 4 22 21 24 18 26
REMARK H PARENT 10 19 13 21 4 23 21 25 18 27
REMARK Flexibility Score: inf
ROOT
ATOM      1  C   UNL     1     171.173 144.906 157.365  1.00  0.00     0.184 A 
ATOM      2  C   UNL     1     170.030 144.165 157.703  1.00  0.00     0.208 A 
ATOM      3  C   UNL     1     168.987 144.062 156.770  1.00  0.00     0.238 A 
ATOM      4  O   UNL     1     167.988 143.352 157.055  1.00  0.00    -0.285 OA
ATOM      5  C   UNL     1     169.094 144.715 155.518  1.00  0.00     0.111 A 
ATOM      6  C   UNL     1     168.082 144.713 154.511  1.00  0.00     0.134 A 
ATOM      7  C   UNL     1     168.349 145.284 153.262  1.00  0.00     0.093 A 
ATOM      8  C   UNL     1     169.568 145.915 153.003  1.00  0.00     0.123 A 
ATOM      9  C   UNL     1     170.541 145.975 153.998  1.00  0.00     0.094 A 
ATOM     10  C   UNL     1     170.318 145.383 155.243  1.00  0.00     0.146 A 
ATOM     11  O   UNL     1     171.276 145.453 156.160  1.00  0.00    -0.451 OA
ENDROOT
BRANCH   1  12
ATOM     12  C   UNL     1     172.300 145.069 158.307  1.00  0.00     0.063 A 
ATOM     13  C   UNL     1     174.158 144.068 159.516  1.00  0.00     0.047 A 
ATOM     14  C   UNL     1     173.083 143.949 158.632  1.00  0.00     0.020 A 
ATOM     15  C   UNL     1     174.474 145.309 160.076  1.00  0.00     0.119 A 
ATOM     16  C   UNL     1     173.714 146.437 159.741  1.00  0.00     0.093 A 
ATOM     17  C   UNL     1     172.636 146.327 158.849  1.00  0.00     0.130 A 
BRANCH  15  18
ATOM     18  O   UNL     1     175.547 145.411 160.959  1.00  0.00    -0.508 OA
ATOM     19  H   UNL     1     175.927 146.311 161.227  1.00  0.00     0.293 HD
ENDBRANCH  15  18
BRANCH  17  20
ATOM     20  O   UNL     1     171.917 147.466 158.485  1.00  0.00    -0.507 OA
ATOM     21  H   UNL     1     172.315 148.174 157.879  1.00  0.00     0.293 HD
ENDBRANCH  17  20
ENDBRANCH   1  12
BRANCH   2  22
ATOM     22  O   UNL     1     169.958 143.515 158.937  1.00  0.00    -0.502 OA
ATOM     23  H   UNL     1     170.592 142.769 159.196  1.00  0.00     0.293 HD
ENDBRANCH   2  22
BRANCH   6  24
ATOM     24  O   UNL     1     166.798 144.191 154.699  1.00  0.00    -0.507 OA
ATOM     25  H   UNL     1     166.120 144.552 155.352  1.00  0.00     0.293 HD
ENDBRANCH   6  24
BRANCH   8  26
ATOM     26  O   UNL     1     169.819 146.494 151.760  1.00  0.00    -0.508 OA
ATOM     27  H   UNL     1     170.041 145.931 150.948  1.00  0.00     0.293 HD
ENDBRANCH   8  26
TORSDOF 6
ENDMDL
MODEL 3
REMARK VINA RESULT:    -6.663      1.856      6.684
REMARK INTER + INTRA:          -8.335
REMARK INTER:                  -7.909
REMARK INTRA:                  -0.426
REMARK UNBOUND:                -0.309
REMARK SMILES O=c1c(O)c(-c2ccc(O)cc2O)oc2cc(O)cc(O)c12
REMARK SMILES IDX 5 1 3 2 2 3 1 4 22 5 20 6 19 7 17 8 16 9 15 10 14 11 6 12
REMARK SMILES IDX 8 13 7 14 9 15 11 16 12 17 10 18 13 20 4 22 21 24 18 26
REMARK H PARENT 10 19 13 21 4 23 21 25 18 27
REMARK Flexibility Score: inf
ROOT
ATOM      1  C   UNL     1     170.179 143.675 152.538  1.00  0.00     0.184 A 
ATOM      2  C   UNL     1     171.425 143.028 152.521  1.00  0.00     0.208 A 
ATOM      3  C   UNL     1     172.095 142.874 151.297  1.00  0.00     0.238 A 
ATOM      4  O   UNL     1     173.235 142.343 151.294  1.00  0.00    -0.285 OA
ATOM      5  C   UNL     1     171.502 143.356 150.105  1.00  0.00     0.111 A 
ATOM      6  C   UNL     1     172.070 143.220 148.803  1.00  0.00     0.134 A 
ATOM      7  C   UNL     1     171.458 143.848 147.712  1.00  0.00     0.093 A 
ATOM      8  C   UNL     1     170.261 144.553 147.865  1.00  0.00     0.123 A 
ATOM      9  C   UNL     1     169.666 144.642 149.120  1.00  0.00     0.094 A 
ATOM     10  C   UNL     1     170.272 144.056 150.235  1.00  0.00     0.146 A 
ATOM     11  O   UNL     1     169.677 144.174 151.416  1.00  0.00    -0.451 OA
ENDROOT
BRANCH   1  12
ATOM     12  C   UNL     1     169.414 143.853 153.790  1.00  0.00     0.063 A 
ATOM     13  C   UNL     1     168.011 142.883 155.524  1.00  0.00     0.047 A 
ATOM     14  C   UNL     1     168.740 142.751 154.339  1.00  0.00     0.020 A 
ATOM     15  C   UNL     1     167.959 144.114 156.182  1.00  0.00     0.119 A 
ATOM     16  C   UNL     1     168.647 145.215 155.656  1.00  0.00     0.093 A 
ATOM     17  C   UNL     1     169.386 145.089 154.469  1.00  0.00     0.130 A 
BRANCH  15  18
ATOM     18  O   UNL     1     167.225 144.233 157.361  1.00  0.00    -0.508 OA
ATOM     19  H   UNL     1     166.822 143.423 157.817  1.00  0.00     0.293 HD
ENDBRANCH  15  18
BRANCH  17  20
ATOM     20  O   UNL     1     170.106 146.179 153.981  1.00  0.00    -0.507 OA
ATOM     21  H   UNL     1     169.749 147.125 154.047  1.00  0.00     0.293 HD
ENDBRANCH  17  20
ENDBRANCH   1  12
BRANCH   2  22
ATOM     22  O   UNL     1     171.996 142.579 153.715  1.00  0.00    -0.502 OA
ATOM     23  H   UNL     1     171.701 142.921 154.621  1.00  0.00     0.293 HD
ENDBRANCH   2  22
BRANCH   6  24
ATOM     24  O   UNL     1     173.212 142.461 148.527  1.00  0.00    -0.507 OA
ATOM     25  H   UNL     1     173.436 142.066 147.627  1.00  0.00     0.293 HD
ENDBRANCH   6  24
BRANCH   8  26
ATOM     26  O   UNL     1     169.651 145.162 146.770  1.00  0.00    -0.508 OA
ATOM     27  H   UNL     1     169.286 144.618 145.997  1.00  0.00     0.293 HD
ENDBRANCH   8  26
TORSDOF 6
ENDMDL
MODEL 4
REMARK VINA RESULT:    -6.646      3.456      6.798
REMARK INTER + INTRA:          -8.315
REMARK INTER:                  -7.906
REMARK INTRA:                  -0.409
REMARK UNBOUND:                -0.309
REMARK SMILES O=c1c(O)c(-c2ccc(O)cc2O)oc2cc(O)cc(O)c12
REMARK SMILES IDX 5 1 3 2 2 3 1 4 22 5 20 6 19 7 17 8 16 9 15 10 14 11 6 12
REMARK SMILES IDX 8 13 7 14 9 15 11 16 12 17 10 18 13 20 4 22 21 24 18 26
REMARK H PARENT 10 19 13 21 4 23 21 25 18 27
REMARK Flexibility Score: inf
ROOT
ATOM      1  C   UNL     1     171.457 145.451 157.855  1.00  0.00     0.184 A 
ATOM      2  C   UNL     1     170.737 144.555 158.661  1.00  0.00     0.208 A 
ATOM      3  C   UNL     1     169.618 143.902 158.121  1.00  0.00     0.238 A 
ATOM      4  O   UNL     1     169.008 143.060 158.829  1.00  0.00    -0.285 OA
ATOM      5  C   UNL     1     169.225 144.167 156.786  1.00  0.00     0.111 A 
ATOM      6  C   UNL     1     168.085 143.594 156.146  1.00  0.00     0.134 A 
ATOM      7  C   UNL     1     167.867 143.827 154.784  1.00  0.00     0.093 A 
ATOM      8  C   UNL     1     168.711 144.666 154.052  1.00  0.00     0.123 A 
ATOM      9  C   UNL     1     169.793 145.278 154.680  1.00  0.00     0.094 A 
ATOM     10  C   UNL     1     170.058 145.036 156.030  1.00  0.00     0.146 A 
ATOM     11  O   UNL     1     171.106 145.631 156.588  1.00  0.00    -0.451 OA
ENDROOT
BRANCH   1  12
ATOM     12  C   UNL     1     172.633 146.184 158.368  1.00  0.00     0.063 A 
ATOM     13  C   UNL     1     175.013 146.202 158.872  1.00  0.00     0.047 A 
ATOM     14  C   UNL     1     173.879 145.537 158.397  1.00  0.00     0.020 A 
ATOM     15  C   UNL     1     174.919 147.525 159.309  1.00  0.00     0.119 A 
ATOM     16  C   UNL     1     173.686 148.188 159.263  1.00  0.00     0.093 A 
ATOM     17  C   UNL     1     172.544 147.529 158.783  1.00  0.00     0.130 A 
BRANCH  15  18
ATOM     18  O   UNL     1     176.057 148.174 159.784  1.00  0.00    -0.508 OA
ATOM     19  H   UNL     1     176.201 149.166 159.637  1.00  0.00     0.293 HD
ENDBRANCH  15  18
BRANCH  17  20
ATOM     20  O   UNL     1     171.332 148.215 158.695  1.00  0.00    -0.507 OA
ATOM     21  H   UNL     1     170.654 148.192 159.448  1.00  0.00     0.293 HD
ENDBRANCH  17  20
ENDBRANCH   1  12
BRANCH   2  22
ATOM     22  O   UNL     1     171.157 144.298 159.969  1.00  0.00    -0.502 OA
ATOM     23  H   UNL     1     171.079 144.985 160.709  1.00  0.00     0.293 HD
ENDBRANCH   2  22
BRANCH   6  24
ATOM     24  O   UNL     1     167.129 142.817 156.808  1.00  0.00    -0.507 OA
ATOM     25  H   UNL     1     166.157 142.759 156.550  1.00  0.00     0.293 HD
ENDBRANCH   6  24
BRANCH   8  26
ATOM     26  O   UNL     1     168.477 144.905 152.699  1.00  0.00    -0.508 OA
ATOM     27  H   UNL     1     168.747 145.778 152.261  1.00  0.00     0.293 HD
ENDBRANCH   8  26
TORSDOF 6
ENDMDL
MODEL 5
REMARK VINA RESULT:    -6.603      2.405      6.867
REMARK INTER + INTRA:          -8.263
REMARK INTER:                  -7.844
REMARK INTRA:                  -0.419
REMARK UNBOUND:                -0.309
REMARK SMILES O=c1c(O)c(-c2ccc(O)cc2O)oc2cc(O)cc(O)c12
REMARK SMILES IDX 5 1 3 2 2 3 1 4 22 5 20 6 19 7 17 8 16 9 15 10 14 11 6 12
REMARK SMILES IDX 8 13 7 14 9 15 11 16 12 17 10 18 13 20 4 22 21 24 18 26
REMARK H PARENT 10 19 13 21 4 23 21 25 18 27
REMARK Flexibility Score: inf
ROOT
ATOM      1  C   UNL     1     170.717 144.912 155.543  1.00  0.00     0.184 A 
ATOM      2  C   UNL     1     169.695 145.604 154.874  1.00  0.00     0.208 A 
ATOM      3  C   UNL     1     169.612 145.508 153.476  1.00  0.00     0.238 A 
ATOM      4  O   UNL     1     168.663 146.086 152.885  1.00  0.00    -0.285 OA
ATOM      5  C   UNL     1     170.562 144.735 152.765  1.00  0.00     0.111 A 
ATOM      6  C   UNL     1     170.599 144.599 151.345  1.00  0.00     0.134 A 
ATOM      7  C   UNL     1     171.503 143.705 150.760  1.00  0.00     0.093 A 
ATOM      8  C   UNL     1     172.416 142.990 151.538  1.00  0.00     0.123 A 
ATOM      9  C   UNL     1     172.429 143.160 152.920  1.00  0.00     0.094 A 
ATOM     10  C   UNL     1     171.515 144.018 153.537  1.00  0.00     0.146 A 
ATOM     11  O   UNL     1     171.554 144.142 154.859  1.00  0.00    -0.451 OA
ENDROOT
BRANCH   1  12
ATOM     12  C   UNL     1     170.871 144.985 157.011  1.00  0.00     0.063 A 
ATOM     13  C   UNL     1     170.140 144.262 159.215  1.00  0.00     0.047 A 
ATOM     14  C   UNL     1     170.019 144.220 157.823  1.00  0.00     0.020 A 
ATOM     15  C   UNL     1     171.123 145.056 159.812  1.00  0.00     0.119 A 
ATOM     16  C   UNL     1     171.994 145.805 159.009  1.00  0.00     0.093 A 
ATOM     17  C   UNL     1     171.882 145.765 157.611  1.00  0.00     0.130 A 
BRANCH  15  18
ATOM     18  O   UNL     1     171.229 145.090 161.200  1.00  0.00    -0.508 OA
ATOM     19  H   UNL     1     170.821 145.841 161.744  1.00  0.00     0.293 HD
ENDBRANCH  15  18
BRANCH  17  20
ATOM     20  O   UNL     1     172.786 146.476 156.822  1.00  0.00    -0.507 OA
ATOM     21  H   UNL     1     172.890 147.480 156.908  1.00  0.00     0.293 HD
ENDBRANCH  17  20
ENDBRANCH   1  12
BRANCH   2  22
ATOM     22  O   UNL     1     168.760 146.345 155.601  1.00  0.00    -0.502 OA
ATOM     23  H   UNL     1     167.856 145.971 155.863  1.00  0.00     0.293 HD
ENDBRANCH   2  22
BRANCH   6  24
ATOM     24  O   UNL     1     169.793 145.335 150.471  1.00  0.00    -0.507 OA
ATOM     25  H   UNL     1     169.519 145.032 149.549  1.00  0.00     0.293 HD
ENDBRANCH   6  24
BRANCH   8  26
ATOM     26  O   UNL     1     173.324 142.114 150.945  1.00  0.00    -0.508 OA
ATOM     27  H   UNL     1     173.194 141.110 150.986  1.00  0.00     0.293 HD
ENDBRANCH   8  26
TORSDOF 6
ENDMDL
MODEL 6
REMARK VINA RESULT:    -6.603      1.385      1.981
REMARK INTER + INTRA:          -8.263
REMARK INTER:                  -7.834
REMARK INTRA:                  -0.429
REMARK UNBOUND:                -0.309
REMARK SMILES O=c1c(O)c(-c2ccc(O)cc2O)oc2cc(O)cc(O)c12
REMARK SMILES IDX 5 1 3 2 2 3 1 4 22 5 20 6 19 7 17 8 16 9 15 10 14 11 6 12
REMARK SMILES IDX 8 13 7 14 9 15 11 16 12 17 10 18 13 20 4 22 21 24 18 26
REMARK H PARENT 10 19 13 21 4 23 21 25 18 27
REMARK Flexibility Score: inf
ROOT
ATOM      1  C   UNL     1     170.108 143.941 153.398  1.00  0.00     0.184 A 
ATOM      2  C   UNL     1     171.128 144.666 154.034  1.00  0.00     0.208 A 
ATOM      3  C   UNL     1     171.072 144.838 155.426  1.00  0.00     0.238 A 
ATOM      4  O   UNL     1     172.016 145.442 155.999  1.00  0.00    -0.285 OA
ATOM      5  C   UNL     1     169.989 144.297 156.160  1.00  0.00     0.111 A 
ATOM      6  C   UNL     1     169.809 144.444 157.569  1.00  0.00     0.134 A 
ATOM      7  C   UNL     1     168.770 143.757 158.208  1.00  0.00     0.093 A 
ATOM      8  C   UNL     1     167.865 142.980 157.480  1.00  0.00     0.123 A 
ATOM      9  C   UNL     1     167.996 142.877 156.098  1.00  0.00     0.094 A 
ATOM     10  C   UNL     1     169.044 143.522 155.436  1.00  0.00     0.146 A 
ATOM     11  O   UNL     1     169.139 143.389 154.118  1.00  0.00    -0.451 OA
ENDROOT
BRANCH   1  12
ATOM     12  C   UNL     1     170.097 143.738 151.934  1.00  0.00     0.063 A 
ATOM     13  C   UNL     1     169.709 144.649 149.713  1.00  0.00     0.047 A 
ATOM     14  C   UNL     1     169.725 144.805 151.102  1.00  0.00     0.020 A 
ATOM     15  C   UNL     1     170.077 143.430 149.138  1.00  0.00     0.119 A 
ATOM     16  C   UNL     1     170.472 142.365 149.959  1.00  0.00     0.093 A 
ATOM     17  C   UNL     1     170.497 142.516 151.354  1.00  0.00     0.130 A 
BRANCH  15  18
ATOM     18  O   UNL     1     170.052 143.288 147.753  1.00  0.00    -0.508 OA
ATOM     19  H   UNL     1     170.103 144.090 147.137  1.00  0.00     0.293 HD
ENDBRANCH  15  18
BRANCH  17  20
ATOM     20  O   UNL     1     170.938 141.465 152.157  1.00  0.00    -0.507 OA
ATOM     21  H   UNL     1     171.784 140.950 151.942  1.00  0.00     0.293 HD
ENDBRANCH  17  20
ENDBRANCH   1  12
BRANCH   2  22
ATOM     22  O   UNL     1     172.195 145.173 153.289  1.00  0.00    -0.502 OA
ATOM     23  H   UNL     1     172.597 144.672 152.505  1.00  0.00     0.293 HD
ENDBRANCH   2  22
BRANCH   6  24
ATOM     24  O   UNL     1     170.600 145.269 158.373  1.00  0.00    -0.507 OA
ATOM     25  H   UNL     1     170.513 146.272 158.430  1.00  0.00     0.293 HD
ENDBRANCH   6  24
BRANCH   8  26
ATOM     26  O   UNL     1     166.824 142.312 158.123  1.00  0.00    -0.508 OA
ATOM     27  H   UNL     1     166.551 142.545 159.070  1.00  0.00     0.293 HD
ENDBRANCH   8  26
TORSDOF 6
ENDMDL
MODEL 7
REMARK VINA RESULT:    -6.425      1.916      6.630
REMARK INTER + INTRA:          -8.048
REMARK INTER:                  -7.630
REMARK INTRA:                  -0.418
REMARK UNBOUND:                -0.309
REMARK SMILES O=c1c(O)c(-c2ccc(O)cc2O)oc2cc(O)cc(O)c12
REMARK SMILES IDX 5 1 3 2 2 3 1 4 22 5 20 6 19 7 17 8 16 9 15 10 14 11 6 12
REMARK SMILES IDX 8 13 7 14 9 15 11 16 12 17 10 18 13 20 4 22 21 24 18 26
REMARK H PARENT 10 19 13 21 4 23 21 25 18 27
REMARK Flexibility Score: inf
ROOT
ATOM      1  C   UNL     1     169.420 143.324 154.171  1.00  0.00     0.184 A 
ATOM      2  C   UNL     1     169.319 144.694 153.882  1.00  0.00     0.208 A 
ATOM      3  C   UNL     1     169.585 145.134 152.576  1.00  0.00     0.238 A 
ATOM      4  O   UNL     1     169.442 146.355 152.307  1.00  0.00    -0.285 OA
ATOM      5  C   UNL     1     169.964 144.199 151.581  1.00  0.00     0.111 A 
ATOM      6  C   UNL     1     170.296 144.536 150.235  1.00  0.00     0.134 A 
ATOM      7  C   UNL     1     170.530 143.517 149.305  1.00  0.00     0.093 A 
ATOM      8  C   UNL     1     170.508 142.173 149.687  1.00  0.00     0.123 A 
ATOM      9  C   UNL     1     170.244 141.835 151.012  1.00  0.00     0.094 A 
ATOM     10  C   UNL     1     169.971 142.828 151.956  1.00  0.00     0.146 A 
ATOM     11  O   UNL     1     169.712 142.463 153.206  1.00  0.00    -0.451 OA
ENDROOT
BRANCH   1  12
ATOM     12  C   UNL     1     169.170 142.798 155.530  1.00  0.00     0.063 A 
ATOM     13  C   UNL     1     167.612 141.838 157.132  1.00  0.00     0.047 A 
ATOM     14  C   UNL     1     167.882 142.346 155.859  1.00  0.00     0.020 A 
ATOM     15  C   UNL     1     168.628 141.761 158.088  1.00  0.00     0.119 A 
ATOM     16  C   UNL     1     169.922 142.187 157.763  1.00  0.00     0.093 A 
ATOM     17  C   UNL     1     170.203 142.694 156.484  1.00  0.00     0.130 A 
BRANCH  15  18
ATOM     18  O   UNL     1     168.343 141.256 159.355  1.00  0.00    -0.508 OA
ATOM     19  H   UNL     1     168.312 140.259 159.533  1.00  0.00     0.293 HD
ENDBRANCH  15  18
BRANCH  17  20
ATOM     20  O   UNL     1     171.506 143.069 156.157  1.00  0.00    -0.507 OA
ATOM     21  H   UNL     1     172.252 143.050 156.842  1.00  0.00     0.293 HD
ENDBRANCH  17  20
ENDBRANCH   1  12
BRANCH   2  22
ATOM     22  O   UNL     1     168.926 145.593 154.877  1.00  0.00    -0.502 OA
ATOM     23  H   UNL     1     168.180 145.386 155.531  1.00  0.00     0.293 HD
ENDBRANCH   2  22
BRANCH   6  24
ATOM     24  O   UNL     1     170.435 145.849 149.772  1.00  0.00    -0.507 OA
ATOM     25  H   UNL     1     170.976 146.120 148.966  1.00  0.00     0.293 HD
ENDBRANCH   6  24
BRANCH   8  26
ATOM     26  O   UNL     1     170.758 141.165 148.758  1.00  0.00    -0.508 OA
ATOM     27  H   UNL     1     170.472 141.255 147.790  1.00  0.00     0.293 HD
ENDBRANCH   8  26
TORSDOF 6
ENDMDL
MODEL 8
REMARK VINA RESULT:    -6.393      2.886      5.023
REMARK INTER + INTRA:          -8.010
REMARK INTER:                  -7.605
REMARK INTRA:                  -0.405
REMARK UNBOUND:                -0.309
REMARK SMILES O=c1c(O)c(-c2ccc(O)cc2O)oc2cc(O)cc(O)c12
REMARK SMILES IDX 5 1 3 2 2 3 1 4 22 5 20 6 19 7 17 8 16 9 15 10 14 11 6 12
REMARK SMILES IDX 8 13 7 14 9 15 11 16 12 17 10 18 13 20 4 22 21 24 18 26
REMARK H PARENT 10 19 13 21 4 23 21 25 18 27
REMARK Flexibility Score: inf
ROOT
ATOM      1  C   UNL     1     171.078 145.155 155.752  1.00  0.00     0.184 A 
ATOM      2  C   UNL     1     170.156 144.624 156.668  1.00  0.00     0.208 A 
ATOM      3  C   UNL     1     170.496 144.586 158.029  1.00  0.00     0.238 A 
ATOM      4  O   UNL     1     169.646 144.160 158.853  1.00  0.00    -0.285 OA
ATOM      5  C   UNL     1     171.760 145.063 158.453  1.00  0.00     0.111 A 
ATOM      6  C   UNL     1     172.228 145.036 159.802  1.00  0.00     0.134 A 
ATOM      7  C   UNL     1     173.442 145.653 160.124  1.00  0.00     0.093 A 
ATOM      8  C   UNL     1     174.237 146.240 159.137  1.00  0.00     0.123 A 
ATOM      9  C   UNL     1     173.819 146.220 157.809  1.00  0.00     0.094 A 
ATOM     10  C   UNL     1     172.595 145.643 157.460  1.00  0.00     0.146 A 
ATOM     11  O   UNL     1     172.228 145.655 156.184  1.00  0.00    -0.451 OA
ENDROOT
BRANCH   1  12
ATOM     12  C   UNL     1     170.790 145.208 154.303  1.00  0.00     0.063 A 
ATOM     13  C   UNL     1     169.540 146.203 152.469  1.00  0.00     0.047 A 
ATOM     14  C   UNL     1     169.834 146.123 153.833  1.00  0.00     0.020 A 
ATOM     15  C   UNL     1     170.207 145.382 151.557  1.00  0.00     0.119 A 
ATOM     16  C   UNL     1     171.180 144.483 152.013  1.00  0.00     0.093 A 
ATOM     17  C   UNL     1     171.485 144.400 153.380  1.00  0.00     0.130 A 
BRANCH  15  18
ATOM     18  O   UNL     1     169.901 145.471 150.201  1.00  0.00    -0.508 OA
ATOM     19  H   UNL     1     169.156 146.069 149.864  1.00  0.00     0.293 HD
ENDBRANCH  15  18
BRANCH  17  20
ATOM     20  O   UNL     1     172.489 143.536 153.816  1.00  0.00    -0.507 OA
ATOM     21  H   UNL     1     173.382 143.476 153.341  1.00  0.00     0.293 HD
ENDBRANCH  17  20
ENDBRANCH   1  12
BRANCH   2  22
ATOM     22  O   UNL     1     168.909 144.177 156.225  1.00  0.00    -0.502 OA
ATOM     23  H   UNL     1     168.341 143.533 156.762  1.00  0.00     0.293 HD
ENDBRANCH   2  22
BRANCH   6  24
ATOM     24  O   UNL     1     171.554 144.396 160.847  1.00  0.00    -0.507 OA
ATOM     25  H   UNL     1     171.278 144.839 161.709  1.00  0.00     0.293 HD
ENDBRANCH   6  24
BRANCH   8  26
ATOM     26  O   UNL     1     175.452 146.839 159.466  1.00  0.00    -0.508 OA
ATOM     27  H   UNL     1     176.315 146.570 159.009  1.00  0.00     0.293 HD
ENDBRANCH   8  26
TORSDOF 6
ENDMDL
MODEL 9
REMARK VINA RESULT:    -6.316      1.915      3.632
REMARK INTER + INTRA:          -7.917
REMARK INTER:                  -7.499
REMARK INTRA:                  -0.418
REMARK UNBOUND:                -0.309
REMARK SMILES O=c1c(O)c(-c2ccc(O)cc2O)oc2cc(O)cc(O)c12
REMARK SMILES IDX 5 1 3 2 2 3 1 4 22 5 20 6 19 7 17 8 16 9 15 10 14 11 6 12
REMARK SMILES IDX 8 13 7 14 9 15 11 16 12 17 10 18 13 20 4 22 21 24 18 26
REMARK H PARENT 10 19 13 21 4 23 21 25 18 27
REMARK Flexibility Score: inf
ROOT
ATOM      1  C   UNL     1     170.249 144.262 154.215  1.00  0.00     0.184 A 
ATOM      2  C   UNL     1     169.166 143.866 155.015  1.00  0.00     0.208 A 
ATOM      3  C   UNL     1     169.246 144.047 156.405  1.00  0.00     0.238 A 
ATOM      4  O   UNL     1     168.252 143.741 157.113  1.00  0.00    -0.285 OA
ATOM      5  C   UNL     1     170.415 144.607 156.976  1.00  0.00     0.111 A 
ATOM      6  C   UNL     1     170.623 144.799 158.375  1.00  0.00     0.134 A 
ATOM      7  C   UNL     1     171.763 145.480 158.817  1.00  0.00     0.093 A 
ATOM      8  C   UNL     1     172.735 145.919 157.915  1.00  0.00     0.123 A 
ATOM      9  C   UNL     1     172.571 145.684 156.552  1.00  0.00     0.094 A 
ATOM     10  C   UNL     1     171.427 145.038 156.077  1.00  0.00     0.146 A 
ATOM     11  O   UNL     1     171.304 144.844 154.769  1.00  0.00    -0.451 OA
ENDROOT
BRANCH   1  12
ATOM     12  C   UNL     1     170.236 144.083 152.748  1.00  0.00     0.063 A 
ATOM     13  C   UNL     1     170.328 142.581 150.837  1.00  0.00     0.047 A 
ATOM     14  C   UNL     1     170.342 142.787 152.219  1.00  0.00     0.020 A 
ATOM     15  C   UNL     1     170.194 143.666 149.966  1.00  0.00     0.119 A 
ATOM     16  C   UNL     1     170.064 144.961 150.484  1.00  0.00     0.093 A 
ATOM     17  C   UNL     1     170.071 145.176 151.871  1.00  0.00     0.130 A 
BRANCH  15  18
ATOM     18  O   UNL     1     170.186 143.446 148.591  1.00  0.00    -0.508 OA
ATOM     19  H   UNL     1     169.490 142.855 148.153  1.00  0.00     0.293 HD
ENDBRANCH  15  18
BRANCH  17  20
ATOM     20  O   UNL     1     169.892 146.464 152.375  1.00  0.00    -0.507 OA
ATOM     21  H   UNL     1     170.325 146.760 153.242  1.00  0.00     0.293 HD
ENDBRANCH  17  20
ENDBRANCH   1  12
BRANCH   2  22
ATOM     22  O   UNL     1     168.017 143.333 154.425  1.00  0.00    -0.502 OA
ATOM     23  H   UNL     1     168.025 142.916 153.502  1.00  0.00     0.293 HD
ENDBRANCH   2  22
BRANCH   6  24
ATOM     24  O   UNL     1     169.759 144.319 159.364  1.00  0.00    -0.507 OA
ATOM     25  H   UNL     1     168.753 144.387 159.332  1.00  0.00     0.293 HD
ENDBRANCH   6  24
BRANCH   8  26
ATOM     26  O   UNL     1     173.875 146.583 158.365  1.00  0.00    -0.508 OA
ATOM     27  H   UNL     1     173.826 147.281 159.097  1.00  0.00     0.293 HD
ENDBRANCH   8  26
TORSDOF 6
ENDMDL
