MODEL 1
REMARK VINA RESULT:    -5.213      0.000      0.000
REMARK INTER + INTRA:         -11.213
REMARK INTER:                  -9.784
REMARK INTRA:                  -1.429
REMARK UNBOUND:                -1.429
REMARK SMILES CCCCCCCCC=CCCCCCCCC(=O)[O-]
REMARK SMILES IDX 10 1 9 2 11 3 12 4 13 5 14 6 15 7 16 8 17 9 18 10 19 11
REMARK SMILES IDX 20 12 8 13 7 14 6 15 5 16 4 17 3 18 2 19 1 20
REMARK H PARENT
REMARK Flexibility Score: inf
ROOT
ATOM      1  C   UNL     1       6.454  -6.873  18.648  1.00  0.00    -0.031 C 
ATOM      2  C   UNL     1       7.513  -7.254  19.375  1.00  0.00    -0.031 C 
ENDROOT
BRANCH   1   3
ATOM      3  C   UNL     1       6.523  -6.758  17.150  1.00  0.00     0.027 C 
BRANCH   3   4
ATOM      4  C   UNL     1       6.857  -8.097  16.469  1.00  0.00     0.004 C 
BRANCH   4   5
ATOM      5  C   UNL     1       6.117  -8.331  15.137  1.00  0.00     0.000 C 
BRANCH   5   6
ATOM      6  C   UNL     1       6.413  -7.291  14.040  1.00  0.00     0.000 C 
BRANCH   6   7
ATOM      7  C   UNL     1       5.219  -6.366  13.721  1.00  0.00     0.000 C 
BRANCH   7   8
ATOM      8  C   UNL     1       5.655  -4.915  13.468  1.00  0.00     0.006 C 
BRANCH   8   9
ATOM      9  C   UNL     1       4.985  -3.959  14.460  1.00  0.00     0.053 C 
BRANCH   9  10
ATOM     10  C   UNL     1       6.013  -3.140  15.174  1.00  0.00     0.041 C 
ATOM     11  O   UNL     1       6.417  -3.485  16.316  1.00  0.00    -0.550 OA
ATOM     12  O   UNL     1       6.489  -1.967  14.601  1.00  0.00    -0.550 OA
ENDBRANCH   9  10
ENDBRANCH   8   9
ENDBRANCH   7   8
ENDBRANCH   6   7
ENDBRANCH   5   6
ENDBRANCH   4   5
ENDBRANCH   3   4
ENDBRANCH   1   3
BRANCH   2  13
ATOM     13  C   UNL     1       7.418  -7.362  20.873  1.00  0.00     0.027 C 
BRANCH  13  14
ATOM     14  C   UNL     1       5.977  -7.139  21.354  1.00  0.00     0.004 C 
BRANCH  14  15
ATOM     15  C   UNL     1       5.847  -5.932  22.298  1.00  0.00     0.000 C 
BRANCH  15  16
ATOM     16  C   UNL     1       5.855  -4.590  21.545  1.00  0.00     0.000 C 
BRANCH  16  17
ATOM     17  C   UNL     1       6.889  -3.603  22.110  1.00  0.00    -0.000 C 
BRANCH  17  18
ATOM     18  C   UNL     1       7.720  -4.207  23.255  1.00  0.00    -0.000 C 
BRANCH  18  19
ATOM     19  C   UNL     1       7.475  -3.499  24.597  1.00  0.00    -0.003 C 
ATOM     20  C   UNL     1       6.682  -4.355  25.584  1.00  0.00     0.004 C 
ENDBRANCH  18  19
ENDBRANCH  17  18
ENDBRANCH  16  17
ENDBRANCH  15  16
ENDBRANCH  14  15
ENDBRANCH  13  14
ENDBRANCH   2  13
TORSDOF 15
ENDMDL
MODEL 2
REMARK VINA RESULT:    -5.014      3.677      6.365
REMARK INTER + INTRA:         -10.840
REMARK INTER:                  -8.659
REMARK INTRA:                  -2.181
REMARK UNBOUND:                -1.429
REMARK SMILES CCCCCCCCC=CCCCCCCCC(=O)[O-]
REMARK SMILES IDX 10 1 9 2 11 3 12 4 13 5 14 6 15 7 16 8 17 9 18 10 19 11
REMARK SMILES IDX 20 12 8 13 7 14 6 15 5 16 4 17 3 18 2 19 1 20
REMARK H PARENT
REMARK Flexibility Score: inf
ROOT
ATOM      1  C   UNL     1       6.222  -4.659  25.340  1.00  0.00    -0.031 C 
ATOM      2  C   UNL     1       5.526  -5.454  24.515  1.00  0.00    -0.031 C 
ENDROOT
BRANCH   1   3
ATOM      3  C   UNL     1       7.423  -3.886  24.867  1.00  0.00     0.027 C 
BRANCH   3   4
ATOM      4  C   UNL     1       7.604  -3.951  23.340  1.00  0.00     0.004 C 
BRANCH   4   5
ATOM      5  C   UNL     1       7.482  -2.588  22.631  1.00  0.00     0.000 C 
BRANCH   5   6
ATOM      6  C   UNL     1       6.643  -2.603  21.339  1.00  0.00     0.000 C 
BRANCH   6   7
ATOM      7  C   UNL     1       5.903  -3.935  21.094  1.00  0.00     0.000 C 
BRANCH   7   8
ATOM      8  C   UNL     1       4.992  -3.880  19.859  1.00  0.00     0.006 C 
BRANCH   8   9
ATOM      9  C   UNL     1       3.525  -3.705  20.265  1.00  0.00     0.053 C 
BRANCH   9  10
ATOM     10  C   UNL     1       3.030  -2.351  19.868  1.00  0.00     0.041 C 
ATOM     11  O   UNL     1       3.004  -1.414  20.709  1.00  0.00    -0.550 OA
ATOM     12  O   UNL     1       2.546  -2.135  18.583  1.00  0.00    -0.550 OA
ENDBRANCH   9  10
ENDBRANCH   8   9
ENDBRANCH   7   8
ENDBRANCH   6   7
ENDBRANCH   5   6
ENDBRANCH   4   5
ENDBRANCH   3   4
ENDBRANCH   1   3
BRANCH   2  13
ATOM     13  C   UNL     1       4.327  -6.216  25.012  1.00  0.00     0.027 C 
BRANCH  13  14
ATOM     14  C   UNL     1       3.633  -6.965  23.865  1.00  0.00     0.004 C 
BRANCH  14  15
ATOM     15  C   UNL     1       4.565  -7.213  22.668  1.00  0.00     0.000 C 
BRANCH  15  16
ATOM     16  C   UNL     1       4.263  -8.540  21.950  1.00  0.00     0.000 C 
BRANCH  16  17
ATOM     17  C   UNL     1       5.140  -8.750  20.705  1.00  0.00    -0.000 C 
BRANCH  17  18
ATOM     18  C   UNL     1       5.372  -7.447  19.918  1.00  0.00    -0.000 C 
BRANCH  18  19
ATOM     19  C   UNL     1       6.864  -7.164  19.677  1.00  0.00    -0.003 C 
ATOM     20  C   UNL     1       7.712  -7.341  20.935  1.00  0.00     0.004 C 
ENDBRANCH  18  19
ENDBRANCH  17  18
ENDBRANCH  16  17
ENDBRANCH  15  16
ENDBRANCH  14  15
ENDBRANCH  13  14
ENDBRANCH   2  13
TORSDOF 15
ENDMDL
MODEL 3
REMARK VINA RESULT:    -4.909      2.780      6.077
REMARK INTER + INTRA:         -10.643
REMARK INTER:                  -8.334
REMARK INTRA:                  -2.310
REMARK UNBOUND:                -1.429
REMARK SMILES CCCCCCCCC=CCCCCCCCC(=O)[O-]
REMARK SMILES IDX 10 1 9 2 11 3 12 4 13 5 14 6 15 7 16 8 17 9 18 10 19 11
REMARK SMILES IDX 20 12 8 13 7 14 6 15 5 16 4 17 3 18 2 19 1 20
REMARK H PARENT
REMARK Flexibility Score: inf
ROOT
ATOM      1  C   UNL     1       5.582  -5.409  24.393  1.00  0.00    -0.031 C 
ATOM      2  C   UNL     1       6.278  -4.658  25.258  1.00  0.00    -0.031 C 
ENDROOT
BRANCH   1   3
ATOM      3  C   UNL     1       4.424  -6.260  24.839  1.00  0.00     0.027 C 
BRANCH   3   4
ATOM      4  C   UNL     1       3.934  -7.216  23.737  1.00  0.00     0.004 C 
BRANCH   4   5
ATOM      5  C   UNL     1       3.455  -6.508  22.454  1.00  0.00     0.000 C 
BRANCH   5   6
ATOM      6  C   UNL     1       3.960  -7.137  21.141  1.00  0.00     0.000 C 
BRANCH   6   7
ATOM      7  C   UNL     1       5.398  -7.690  21.229  1.00  0.00     0.000 C 
BRANCH   7   8
ATOM      8  C   UNL     1       6.245  -7.315  20.004  1.00  0.00     0.006 C 
BRANCH   8   9
ATOM      9  C   UNL     1       5.768  -8.063  18.756  1.00  0.00     0.053 C 
BRANCH   9  10
ATOM     10  C   UNL     1       6.679  -7.792  17.601  1.00  0.00     0.041 C 
ATOM     11  O   UNL     1       7.501  -6.840  17.654  1.00  0.00    -0.550 OA
ATOM     12  O   UNL     1       6.585  -8.557  16.445  1.00  0.00    -0.550 OA
ENDBRANCH   9  10
ENDBRANCH   8   9
ENDBRANCH   7   8
ENDBRANCH   6   7
ENDBRANCH   5   6
ENDBRANCH   4   5
ENDBRANCH   3   4
ENDBRANCH   1   3
BRANCH   2  13
ATOM     13  C   UNL     1       7.431  -3.814  24.787  1.00  0.00     0.027 C 
BRANCH  13  14
ATOM     14  C   UNL     1       7.535  -3.823  23.256  1.00  0.00     0.004 C 
BRANCH  14  15
ATOM     15  C   UNL     1       7.360  -2.425  22.640  1.00  0.00     0.000 C 
BRANCH  15  16
ATOM     16  C   UNL     1       6.734  -2.471  21.236  1.00  0.00     0.000 C 
BRANCH  16  17
ATOM     17  C   UNL     1       5.964  -3.776  20.976  1.00  0.00    -0.000 C 
BRANCH  17  18
ATOM     18  C   UNL     1       4.483  -3.531  20.636  1.00  0.00    -0.000 C 
BRANCH  18  19
ATOM     19  C   UNL     1       4.255  -3.303  19.133  1.00  0.00    -0.003 C 
ATOM     20  C   UNL     1       5.033  -4.285  18.258  1.00  0.00     0.004 C 
ENDBRANCH  18  19
ENDBRANCH  17  18
ENDBRANCH  16  17
ENDBRANCH  15  16
ENDBRANCH  14  15
ENDBRANCH  13  14
ENDBRANCH   2  13
TORSDOF 15
ENDMDL
MODEL 4
REMARK VINA RESULT:    -4.903      3.245      6.167
REMARK INTER + INTRA:         -10.632
REMARK INTER:                  -8.095
REMARK INTRA:                  -2.537
REMARK UNBOUND:                -1.429
REMARK SMILES CCCCCCCCC=CCCCCCCCC(=O)[O-]
REMARK SMILES IDX 10 1 9 2 11 3 12 4 13 5 14 6 15 7 16 8 17 9 18 10 19 11
REMARK SMILES IDX 20 12 8 13 7 14 6 15 5 16 4 17 3 18 2 19 1 20
REMARK H PARENT
REMARK Flexibility Score: inf
ROOT
ATOM      1  C   UNL     1       5.646  -5.531  24.609  1.00  0.00    -0.031 C 
ATOM      2  C   UNL     1       6.171  -4.578  25.392  1.00  0.00    -0.031 C 
ENDROOT
BRANCH   1   3
ATOM      3  C   UNL     1       4.443  -6.329  25.035  1.00  0.00     0.027 C 
BRANCH   3   4
ATOM      4  C   UNL     1       3.812  -7.113  23.871  1.00  0.00     0.004 C 
BRANCH   4   5
ATOM      5  C   UNL     1       2.880  -6.274  22.975  1.00  0.00     0.000 C 
BRANCH   5   6
ATOM      6  C   UNL     1       2.237  -7.045  21.807  1.00  0.00     0.000 C 
BRANCH   6   7
ATOM      7  C   UNL     1       3.175  -8.084  21.157  1.00  0.00     0.000 C 
BRANCH   7   8
ATOM      8  C   UNL     1       3.395  -7.819  19.660  1.00  0.00     0.006 C 
BRANCH   8   9
ATOM      9  C   UNL     1       4.487  -8.731  19.095  1.00  0.00     0.053 C 
BRANCH   9  10
ATOM     10  C   UNL     1       5.164  -8.080  17.931  1.00  0.00     0.041 C 
ATOM     11  O   UNL     1       4.783  -6.950  17.528  1.00  0.00    -0.550 OA
ATOM     12  O   UNL     1       6.183  -8.743  17.258  1.00  0.00    -0.550 OA
ENDBRANCH   9  10
ENDBRANCH   8   9
ENDBRANCH   7   8
ENDBRANCH   6   7
ENDBRANCH   5   6
ENDBRANCH   4   5
ENDBRANCH   3   4
ENDBRANCH   1   3
BRANCH   2  13
ATOM     13  C   UNL     1       7.373  -3.792  24.943  1.00  0.00     0.027 C 
BRANCH  13  14
ATOM     14  C   UNL     1       7.635  -3.988  23.443  1.00  0.00     0.004 C 
BRANCH  14  15
ATOM     15  C   UNL     1       7.247  -2.757  22.607  1.00  0.00     0.000 C 
BRANCH  15  16
ATOM     16  C   UNL     1       6.558  -3.134  21.284  1.00  0.00     0.000 C 
BRANCH  16  17
ATOM     17  C   UNL     1       5.656  -4.372  21.420  1.00  0.00    -0.000 C 
BRANCH  17  18
ATOM     18  C   UNL     1       6.135  -5.550  20.552  1.00  0.00    -0.000 C 
BRANCH  18  19
ATOM     19  C   UNL     1       6.578  -6.758  21.394  1.00  0.00    -0.003 C 
ATOM     20  C   UNL     1       7.784  -7.484  20.800  1.00  0.00     0.004 C 
ENDBRANCH  18  19
ENDBRANCH  17  18
ENDBRANCH  16  17
ENDBRANCH  15  16
ENDBRANCH  14  15
ENDBRANCH  13  14
ENDBRANCH   2  13
TORSDOF 15
ENDMDL
MODEL 5
REMARK VINA RESULT:    -4.887      2.812      6.944
REMARK INTER + INTRA:         -10.602
REMARK INTER:                  -8.063
REMARK INTRA:                  -2.539
REMARK UNBOUND:                -1.429
REMARK SMILES CCCCCCCCC=CCCCCCCCC(=O)[O-]
REMARK SMILES IDX 10 1 9 2 11 3 12 4 13 5 14 6 15 7 16 8 17 9 18 10 19 11
REMARK SMILES IDX 20 12 8 13 7 14 6 15 5 16 4 17 3 18 2 19 1 20
REMARK H PARENT
REMARK Flexibility Score: inf
ROOT
ATOM      1  C   UNL     1       6.376  -7.001  14.117  1.00  0.00    -0.031 C 
ATOM      2  C   UNL     1       5.691  -6.411  13.127  1.00  0.00    -0.031 C 
ENDROOT
BRANCH   1   3
ATOM      3  C   UNL     1       5.802  -8.148  14.903  1.00  0.00     0.027 C 
BRANCH   3   4
ATOM      4  C   UNL     1       6.581  -8.424  16.202  1.00  0.00     0.004 C 
BRANCH   4   5
ATOM      5  C   UNL     1       7.026  -7.154  16.953  1.00  0.00     0.000 C 
BRANCH   5   6
ATOM      6  C   UNL     1       7.113  -7.304  18.484  1.00  0.00     0.000 C 
BRANCH   6   7
ATOM      7  C   UNL     1       5.765  -7.648  19.152  1.00  0.00     0.000 C 
BRANCH   7   8
ATOM      8  C   UNL     1       5.887  -7.787  20.677  1.00  0.00     0.006 C 
BRANCH   8   9
ATOM      9  C   UNL     1       7.081  -6.989  21.209  1.00  0.00     0.053 C 
BRANCH   9  10
ATOM     10  C   UNL     1       6.615  -5.754  21.912  1.00  0.00     0.041 C 
ATOM     11  O   UNL     1       7.450  -4.908  22.327  1.00  0.00    -0.550 OA
ATOM     12  O   UNL     1       5.261  -5.560  22.154  1.00  0.00    -0.550 OA
ENDBRANCH   9  10
ENDBRANCH   8   9
ENDBRANCH   7   8
ENDBRANCH   6   7
ENDBRANCH   5   6
ENDBRANCH   4   5
ENDBRANCH   3   4
ENDBRANCH   1   3
BRANCH   2  13
ATOM     13  C   UNL     1       6.287  -5.266  12.355  1.00  0.00     0.027 C 
BRANCH  13  14
ATOM     14  C   UNL     1       5.620  -3.936  12.732  1.00  0.00     0.004 C 
BRANCH  14  15
ATOM     15  C   UNL     1       6.431  -3.137  13.766  1.00  0.00     0.000 C 
BRANCH  15  16
ATOM     16  C   UNL     1       5.638  -2.863  15.055  1.00  0.00     0.000 C 
BRANCH  16  17
ATOM     17  C   UNL     1       5.982  -3.852  16.181  1.00  0.00    -0.000 C 
BRANCH  17  18
ATOM     18  C   UNL     1       4.741  -4.302  16.972  1.00  0.00    -0.000 C 
BRANCH  18  19
ATOM     19  C   UNL     1       3.781  -5.152  16.124  1.00  0.00    -0.003 C 
ATOM     20  C   UNL     1       3.205  -6.342  16.891  1.00  0.00     0.004 C 
ENDBRANCH  18  19
ENDBRANCH  17  18
ENDBRANCH  16  17
ENDBRANCH  15  16
ENDBRANCH  14  15
ENDBRANCH  13  14
ENDBRANCH   2  13
TORSDOF 15
ENDMDL
MODEL 6
REMARK VINA RESULT:    -4.851      1.094      2.020
REMARK INTER + INTRA:         -10.534
REMARK INTER:                  -9.415
REMARK INTRA:                  -1.119
REMARK UNBOUND:                -1.429
REMARK SMILES CCCCCCCCC=CCCCCCCCC(=O)[O-]
REMARK SMILES IDX 10 1 9 2 11 3 12 4 13 5 14 6 15 7 16 8 17 9 18 10 19 11
REMARK SMILES IDX 20 12 8 13 7 14 6 15 5 16 4 17 3 18 2 19 1 20
REMARK H PARENT
REMARK Flexibility Score: inf
ROOT
ATOM      1  C   UNL     1       6.257  -8.480  16.749  1.00  0.00    -0.031 C 
ATOM      2  C   UNL     1       6.850  -7.368  17.205  1.00  0.00    -0.031 C 
ENDROOT
BRANCH   1   3
ATOM      3  C   UNL     1       5.865  -8.631  15.304  1.00  0.00     0.027 C 
BRANCH   3   4
ATOM      4  C   UNL     1       6.586  -7.628  14.387  1.00  0.00     0.004 C 
BRANCH   4   5
ATOM      5  C   UNL     1       5.652  -6.606  13.710  1.00  0.00     0.000 C 
BRANCH   5   6
ATOM      6  C   UNL     1       6.363  -5.571  12.817  1.00  0.00     0.000 C 
BRANCH   6   7
ATOM      7  C   UNL     1       5.694  -4.181  12.823  1.00  0.00     0.000 C 
BRANCH   7   8
ATOM      8  C   UNL     1       6.217  -3.285  13.956  1.00  0.00     0.006 C 
BRANCH   8   9
ATOM      9  C   UNL     1       5.155  -3.095  15.043  1.00  0.00     0.053 C 
BRANCH   9  10
ATOM     10  C   UNL     1       5.464  -3.948  16.232  1.00  0.00     0.041 C 
ATOM     11  O   UNL     1       6.587  -3.867  16.795  1.00  0.00    -0.550 OA
ATOM     12  O   UNL     1       4.531  -4.871  16.688  1.00  0.00    -0.550 OA
ENDBRANCH   9  10
ENDBRANCH   8   9
ENDBRANCH   7   8
ENDBRANCH   6   7
ENDBRANCH   5   6
ENDBRANCH   4   5
ENDBRANCH   3   4
ENDBRANCH   1   3
BRANCH   2  13
ATOM     13  C   UNL     1       7.233  -7.241  18.654  1.00  0.00     0.027 C 
BRANCH  13  14
ATOM     14  C   UNL     1       5.994  -7.273  19.560  1.00  0.00     0.004 C 
BRANCH  14  15
ATOM     15  C   UNL     1       5.897  -6.043  20.477  1.00  0.00     0.000 C 
BRANCH  15  16
ATOM     16  C   UNL     1       6.695  -6.212  21.781  1.00  0.00     0.000 C 
BRANCH  16  17
ATOM     17  C   UNL     1       6.231  -5.250  22.886  1.00  0.00    -0.000 C 
BRANCH  17  18
ATOM     18  C   UNL     1       7.112  -3.991  22.982  1.00  0.00    -0.000 C 
BRANCH  18  19
ATOM     19  C   UNL     1       7.638  -3.748  24.406  1.00  0.00    -0.003 C 
ATOM     20  C   UNL     1       6.680  -4.250  25.486  1.00  0.00     0.004 C 
ENDBRANCH  18  19
ENDBRANCH  17  18
ENDBRANCH  16  17
ENDBRANCH  15  16
ENDBRANCH  14  15
ENDBRANCH  13  14
ENDBRANCH   2  13
TORSDOF 15
ENDMDL
MODEL 7
REMARK VINA RESULT:    -4.818      2.748      7.307
REMARK INTER + INTRA:         -10.472
REMARK INTER:                  -8.314
REMARK INTRA:                  -2.158
REMARK UNBOUND:                -1.429
REMARK SMILES CCCCCCCCC=CCCCCCCCC(=O)[O-]
REMARK SMILES IDX 10 1 9 2 11 3 12 4 13 5 14 6 15 7 16 8 17 9 18 10 19 11
REMARK SMILES IDX 20 12 8 13 7 14 6 15 5 16 4 17 3 18 2 19 1 20
REMARK H PARENT
REMARK Flexibility Score: inf
ROOT
ATOM      1  C   UNL     1       6.522  -7.584  14.818  1.00  0.00    -0.031 C 
ATOM      2  C   UNL     1       5.315  -7.253  14.336  1.00  0.00    -0.031 C 
ENDROOT
BRANCH   1   3
ATOM      3  C   UNL     1       6.677  -8.364  16.095  1.00  0.00     0.027 C 
BRANCH   3   4
ATOM      4  C   UNL     1       5.398  -8.358  16.951  1.00  0.00     0.004 C 
BRANCH   4   5
ATOM      5  C   UNL     1       5.638  -8.044  18.441  1.00  0.00     0.000 C 
BRANCH   5   6
ATOM      6  C   UNL     1       6.703  -6.964  18.713  1.00  0.00     0.000 C 
BRANCH   6   7
ATOM      7  C   UNL     1       7.679  -7.326  19.851  1.00  0.00     0.000 C 
BRANCH   7   8
ATOM      8  C   UNL     1       7.051  -7.143  21.241  1.00  0.00     0.006 C 
BRANCH   8   9
ATOM      9  C   UNL     1       6.365  -5.779  21.359  1.00  0.00     0.053 C 
BRANCH   9  10
ATOM     10  C   UNL     1       6.765  -5.098  22.629  1.00  0.00     0.041 C 
ATOM     11  O   UNL     1       7.835  -4.437  22.683  1.00  0.00    -0.550 OA
ATOM     12  O   UNL     1       5.983  -5.235  23.769  1.00  0.00    -0.550 OA
ENDBRANCH   9  10
ENDBRANCH   8   9
ENDBRANCH   7   8
ENDBRANCH   6   7
ENDBRANCH   5   6
ENDBRANCH   4   5
ENDBRANCH   3   4
ENDBRANCH   1   3
BRANCH   2  13
ATOM     13  C   UNL     1       5.187  -6.473  13.056  1.00  0.00     0.027 C 
BRANCH  13  14
ATOM     14  C   UNL     1       6.566  -6.118  12.483  1.00  0.00     0.004 C 
BRANCH  14  15
ATOM     15  C   UNL     1       6.652  -4.660  12.002  1.00  0.00     0.000 C 
BRANCH  15  16
ATOM     16  C   UNL     1       5.753  -3.715  12.817  1.00  0.00     0.000 C 
BRANCH  16  17
ATOM     17  C   UNL     1       6.493  -3.073  14.002  1.00  0.00    -0.000 C 
BRANCH  17  18
ATOM     18  C   UNL     1       5.609  -2.955  15.257  1.00  0.00    -0.000 C 
BRANCH  18  19
ATOM     19  C   UNL     1       5.895  -4.063  16.284  1.00  0.00    -0.003 C 
ATOM     20  C   UNL     1       4.624  -4.636  16.908  1.00  0.00     0.004 C 
ENDBRANCH  18  19
ENDBRANCH  17  18
ENDBRANCH  16  17
ENDBRANCH  15  16
ENDBRANCH  14  15
ENDBRANCH  13  14
ENDBRANCH   2  13
TORSDOF 15
ENDMDL
MODEL 8
REMARK VINA RESULT:    -4.734      1.967      2.543
REMARK INTER + INTRA:         -10.315
REMARK INTER:                  -9.317
REMARK INTRA:                  -0.998
REMARK UNBOUND:                -1.429
REMARK SMILES CCCCCCCCC=CCCCCCCCC(=O)[O-]
REMARK SMILES IDX 10 1 9 2 11 3 12 4 13 5 14 6 15 7 16 8 17 9 18 10 19 11
REMARK SMILES IDX 20 12 8 13 7 14 6 15 5 16 4 17 3 18 2 19 1 20
REMARK H PARENT
REMARK Flexibility Score: inf
ROOT
ATOM      1  C   UNL     1       6.478  -7.679  17.498  1.00  0.00    -0.031 C 
ATOM      2  C   UNL     1       5.535  -8.093  18.357  1.00  0.00    -0.031 C 
ENDROOT
BRANCH   1   3
ATOM      3  C   UNL     1       6.687  -8.351  16.169  1.00  0.00     0.027 C 
BRANCH   3   4
ATOM      4  C   UNL     1       5.961  -7.628  15.020  1.00  0.00     0.004 C 
BRANCH   4   5
ATOM      5  C   UNL     1       5.790  -6.112  15.235  1.00  0.00     0.000 C 
BRANCH   5   6
ATOM      6  C   UNL     1       5.711  -5.279  13.942  1.00  0.00     0.000 C 
BRANCH   6   7
ATOM      7  C   UNL     1       6.344  -5.971  12.717  1.00  0.00     0.000 C 
BRANCH   7   8
ATOM      8  C   UNL     1       6.712  -4.975  11.607  1.00  0.00     0.006 C 
BRANCH   8   9
ATOM      9  C   UNL     1       5.512  -4.700  10.695  1.00  0.00     0.053 C 
BRANCH   9  10
ATOM     10  C   UNL     1       5.136  -3.253  10.746  1.00  0.00     0.041 C 
ATOM     11  O   UNL     1       4.712  -2.747  11.819  1.00  0.00    -0.550 OA
ATOM     12  O   UNL     1       5.203  -2.475   9.598  1.00  0.00    -0.550 OA
ENDBRANCH   9  10
ENDBRANCH   8   9
ENDBRANCH   7   8
ENDBRANCH   6   7
ENDBRANCH   5   6
ENDBRANCH   4   5
ENDBRANCH   3   4
ENDBRANCH   1   3
BRANCH   2  13
ATOM     13  C   UNL     1       5.345  -7.403  19.680  1.00  0.00     0.027 C 
BRANCH  13  14
ATOM     14  C   UNL     1       6.439  -7.808  20.678  1.00  0.00     0.004 C 
BRANCH  14  15
ATOM     15  C   UNL     1       7.102  -6.597  21.355  1.00  0.00     0.000 C 
BRANCH  15  16
ATOM     16  C   UNL     1       6.276  -5.309  21.203  1.00  0.00     0.000 C 
BRANCH  16  17
ATOM     17  C   UNL     1       6.168  -4.518  22.516  1.00  0.00    -0.000 C 
BRANCH  17  18
ATOM     18  C   UNL     1       7.544  -4.176  23.115  1.00  0.00    -0.000 C 
BRANCH  18  19
ATOM     19  C   UNL     1       7.466  -3.832  24.612  1.00  0.00    -0.003 C 
ATOM     20  C   UNL     1       6.382  -4.622  25.345  1.00  0.00     0.004 C 
ENDBRANCH  18  19
ENDBRANCH  17  18
ENDBRANCH  16  17
ENDBRANCH  15  16
ENDBRANCH  14  15
ENDBRANCH  13  14
ENDBRANCH   2  13
TORSDOF 15
ENDMDL
MODEL 9
REMARK VINA RESULT:    -4.641      2.819      7.542
REMARK INTER + INTRA:         -10.141
REMARK INTER:                  -7.844
REMARK INTRA:                  -2.297
REMARK UNBOUND:                -1.429
REMARK SMILES CCCCCCCCC=CCCCCCCCC(=O)[O-]
REMARK SMILES IDX 10 1 9 2 11 3 12 4 13 5 14 6 15 7 16 8 17 9 18 10 19 11
REMARK SMILES IDX 20 12 8 13 7 14 6 15 5 16 4 17 3 18 2 19 1 20
REMARK H PARENT
REMARK Flexibility Score: inf
ROOT
ATOM      1  C   UNL     1       5.401  -6.437  13.346  1.00  0.00    -0.031 C 
ATOM      2  C   UNL     1       6.541  -6.081  12.737  1.00  0.00    -0.031 C 
ENDROOT
BRANCH   1   3
ATOM      3  C   UNL     1       5.395  -7.352  14.540  1.00  0.00     0.027 C 
BRANCH   3   4
ATOM      4  C   UNL     1       6.812  -7.667  15.051  1.00  0.00     0.004 C 
BRANCH   4   5
ATOM      5  C   UNL     1       6.951  -7.638  16.586  1.00  0.00     0.000 C 
BRANCH   5   6
ATOM      6  C   UNL     1       5.632  -7.832  17.359  1.00  0.00     0.000 C 
BRANCH   6   7
ATOM      7  C   UNL     1       5.717  -7.421  18.844  1.00  0.00     0.000 C 
BRANCH   7   8
ATOM      8  C   UNL     1       7.167  -7.273  19.329  1.00  0.00     0.006 C 
BRANCH   8   9
ATOM      9  C   UNL     1       7.255  -7.416  20.852  1.00  0.00     0.053 C 
BRANCH   9  10
ATOM     10  C   UNL     1       6.366  -6.418  21.524  1.00  0.00     0.041 C 
ATOM     11  O   UNL     1       6.584  -5.185  21.389  1.00  0.00    -0.550 OA
ATOM     12  O   UNL     1       5.329  -6.849  22.341  1.00  0.00    -0.550 OA
ENDBRANCH   9  10
ENDBRANCH   8   9
ENDBRANCH   7   8
ENDBRANCH   6   7
ENDBRANCH   5   6
ENDBRANCH   4   5
ENDBRANCH   3   4
ENDBRANCH   1   3
BRANCH   2  13
ATOM     13  C   UNL     1       6.521  -5.163  11.545  1.00  0.00     0.027 C 
BRANCH  13  14
ATOM     14  C   UNL     1       5.106  -4.626  11.283  1.00  0.00     0.004 C 
BRANCH  14  15
ATOM     15  C   UNL     1       4.922  -3.178  11.766  1.00  0.00     0.000 C 
BRANCH  15  16
ATOM     16  C   UNL     1       3.784  -3.037  12.791  1.00  0.00     0.000 C 
BRANCH  16  17
ATOM     17  C   UNL     1       4.249  -2.386  14.104  1.00  0.00    -0.000 C 
BRANCH  17  18
ATOM     18  C   UNL     1       5.781  -2.381  14.252  1.00  0.00    -0.000 C 
BRANCH  18  19
ATOM     19  C   UNL     1       6.274  -3.394  15.298  1.00  0.00    -0.003 C 
ATOM     20  C   UNL     1       5.148  -3.931  16.180  1.00  0.00     0.004 C 
ENDBRANCH  18  19
ENDBRANCH  17  18
ENDBRANCH  16  17
ENDBRANCH  15  16
ENDBRANCH  14  15
ENDBRANCH  13  14
ENDBRANCH   2  13
TORSDOF 15
ENDMDL
