MODEL 1
REMARK VINA RESULT:    -1.693      0.000      0.000
REMARK INTER + INTRA:          -3.512
REMARK INTER:                  -2.881
REMARK INTRA:                  -0.632
REMARK UNBOUND:                -0.632
REMARK SMILES CCCCCCCCCCCCCC(=O)[O-]
REMARK SMILES IDX 8 1 9 2 10 3 11 4 12 5 13 6 14 7 15 8 16 9 7 10 6 11 5 12
REMARK SMILES IDX 4 13 3 14 2 15 1 16
REMARK H PARENT
REMARK Flexibility Score: inf
ROOT
ATOM      1  C   UNL     1      24.787  35.138  18.779  1.00  0.00     0.000 C 
ENDROOT
BRANCH   1   2
ATOM      2  C   UNL     1      23.479  35.403  19.550  1.00  0.00     0.000 C 
BRANCH   2   3
ATOM      3  C   UNL     1      23.290  36.852  20.031  1.00  0.00     0.000 C 
BRANCH   3   4
ATOM      4  C   UNL     1      22.498  36.947  21.346  1.00  0.00     0.000 C 
BRANCH   4   5
ATOM      5  C   UNL     1      22.499  38.374  21.933  1.00  0.00     0.006 C 
BRANCH   5   6
ATOM      6  C   UNL     1      22.399  38.407  23.466  1.00  0.00     0.053 C 
BRANCH   6   7
ATOM      7  C   UNL     1      23.602  39.028  24.103  1.00  0.00     0.041 C 
ATOM      8  O   UNL     1      24.042  40.131  23.683  1.00  0.00    -0.550 OA
ATOM      9  O   UNL     1      24.255  38.376  25.142  1.00  0.00    -0.550 OA
ENDBRANCH   6   7
ENDBRANCH   5   6
ENDBRANCH   4   5
ENDBRANCH   3   4
ENDBRANCH   2   3
ENDBRANCH   1   2
BRANCH   1  10
ATOM     10  C   UNL     1      25.258  36.294  17.875  1.00  0.00     0.000 C 
BRANCH  10  11
ATOM     11  C   UNL     1      26.774  36.574  17.909  1.00  0.00    -0.000 C 
BRANCH  11  12
ATOM     12  C   UNL     1      27.668  35.322  17.968  1.00  0.00    -0.000 C 
BRANCH  12  13
ATOM     13  C   UNL     1      29.168  35.659  17.986  1.00  0.00    -0.000 C 
BRANCH  13  14
ATOM     14  C   UNL     1      29.445  37.087  18.484  1.00  0.00    -0.000 C 
BRANCH  14  15
ATOM     15  C   UNL     1      29.835  37.132  19.968  1.00  0.00    -0.003 C 
ATOM     16  C   UNL     1      30.386  35.787  20.433  1.00  0.00     0.004 C 
ENDBRANCH  14  15
ENDBRANCH  13  14
ENDBRANCH  12  13
ENDBRANCH  11  12
ENDBRANCH  10  11
ENDBRANCH   1  10
TORSDOF 12
ENDMDL
MODEL 2
REMARK VINA RESULT:    -1.416      3.364      7.034
REMARK INTER + INTRA:          -3.042
REMARK INTER:                  -2.522
REMARK INTRA:                  -0.520
REMARK UNBOUND:                -0.632
REMARK SMILES CCCCCCCCCCCCCC(=O)[O-]
REMARK SMILES IDX 8 1 9 2 10 3 11 4 12 5 13 6 14 7 15 8 16 9 7 10 6 11 5 12
REMARK SMILES IDX 4 13 3 14 2 15 1 16
REMARK H PARENT
REMARK Flexibility Score: inf
ROOT
ATOM      1  C   UNL     1      24.119  36.691  19.075  1.00  0.00     0.000 C 
ENDROOT
BRANCH   1   2
ATOM      2  C   UNL     1      25.127  36.251  17.995  1.00  0.00     0.000 C 
BRANCH   2   3
ATOM      3  C   UNL     1      26.379  37.138  17.875  1.00  0.00     0.000 C 
BRANCH   3   4
ATOM      4  C   UNL     1      27.688  36.354  18.069  1.00  0.00     0.000 C 
BRANCH   4   5
ATOM      5  C   UNL     1      28.896  37.279  18.324  1.00  0.00     0.006 C 
BRANCH   5   6
ATOM      6  C   UNL     1      29.488  37.141  19.736  1.00  0.00     0.053 C 
BRANCH   6   7
ATOM      7  C   UNL     1      30.966  36.909  19.714  1.00  0.00     0.041 C 
ATOM      8  O   UNL     1      31.532  36.345  20.689  1.00  0.00    -0.550 OA
ATOM      9  O   UNL     1      31.724  37.339  18.632  1.00  0.00    -0.550 OA
ENDBRANCH   6   7
ENDBRANCH   5   6
ENDBRANCH   4   5
ENDBRANCH   3   4
ENDBRANCH   2   3
ENDBRANCH   1   2
BRANCH   1  10
ATOM     10  C   UNL     1      23.494  35.541  19.891  1.00  0.00     0.000 C 
BRANCH  10  11
ATOM     11  C   UNL     1      22.634  35.985  21.091  1.00  0.00    -0.000 C 
BRANCH  11  12
ATOM     12  C   UNL     1      22.474  37.508  21.252  1.00  0.00    -0.000 C 
BRANCH  12  13
ATOM     13  C   UNL     1      22.328  37.941  22.721  1.00  0.00    -0.000 C 
BRANCH  13  14
ATOM     14  C   UNL     1      23.350  39.015  23.124  1.00  0.00    -0.000 C 
BRANCH  14  15
ATOM     15  C   UNL     1      23.957  38.766  24.511  1.00  0.00    -0.003 C 
ATOM     16  C   UNL     1      23.120  37.768  25.307  1.00  0.00     0.004 C 
ENDBRANCH  14  15
ENDBRANCH  13  14
ENDBRANCH  12  13
ENDBRANCH  11  12
ENDBRANCH  10  11
ENDBRANCH   1  10
TORSDOF 12
ENDMDL
MODEL 3
REMARK VINA RESULT:    -0.907      2.995      7.062
REMARK INTER + INTRA:          -2.176
REMARK INTER:                  -1.674
REMARK INTRA:                  -0.501
REMARK UNBOUND:                -0.632
REMARK SMILES CCCCCCCCCCCCCC(=O)[O-]
REMARK SMILES IDX 8 1 9 2 10 3 11 4 12 5 13 6 14 7 15 8 16 9 7 10 6 11 5 12
REMARK SMILES IDX 4 13 3 14 2 15 1 16
REMARK H PARENT
REMARK Flexibility Score: inf
ROOT
ATOM      1  C   UNL     1      23.521  36.866  19.615  1.00  0.00     0.000 C 
ENDROOT
BRANCH   1   2
ATOM      2  C   UNL     1      24.112  35.586  18.991  1.00  0.00     0.000 C 
BRANCH   2   3
ATOM      3  C   UNL     1      25.205  35.824  17.934  1.00  0.00     0.000 C 
BRANCH   3   4
ATOM      4  C   UNL     1      26.438  34.927  18.139  1.00  0.00     0.000 C 
BRANCH   4   5
ATOM      5  C   UNL     1      27.761  35.678  17.882  1.00  0.00     0.006 C 
BRANCH   5   6
ATOM      6  C   UNL     1      28.767  35.562  19.038  1.00  0.00     0.053 C 
BRANCH   6   7
ATOM      7  C   UNL     1      29.553  36.820  19.239  1.00  0.00     0.041 C 
ATOM      8  O   UNL     1      29.520  37.732  18.370  1.00  0.00    -0.550 OA
ATOM      9  O   UNL     1      30.344  36.975  20.371  1.00  0.00    -0.550 OA
ENDBRANCH   6   7
ENDBRANCH   5   6
ENDBRANCH   4   5
ENDBRANCH   3   4
ENDBRANCH   2   3
ENDBRANCH   1   2
BRANCH   1  10
ATOM     10  C   UNL     1      22.807  36.663  20.967  1.00  0.00     0.000 C 
BRANCH  10  11
ATOM     11  C   UNL     1      22.023  37.887  21.481  1.00  0.00    -0.000 C 
BRANCH  11  12
ATOM     12  C   UNL     1      22.189  38.186  22.981  1.00  0.00    -0.000 C 
BRANCH  12  13
ATOM     13  C   UNL     1      23.389  39.102  23.278  1.00  0.00    -0.000 C 
BRANCH  13  14
ATOM     14  C   UNL     1      24.030  38.810  24.644  1.00  0.00    -0.000 C 
BRANCH  14  15
ATOM     15  C   UNL     1      23.183  37.863  25.506  1.00  0.00    -0.003 C 
ATOM     16  C   UNL     1      22.527  38.611  26.664  1.00  0.00     0.004 C 
ENDBRANCH  14  15
ENDBRANCH  13  14
ENDBRANCH  12  13
ENDBRANCH  11  12
ENDBRANCH  10  11
ENDBRANCH   1  10
TORSDOF 12
ENDMDL
MODEL 4
REMARK VINA RESULT:    -0.755      1.378      1.996
REMARK INTER + INTRA:          -1.916
REMARK INTER:                  -1.408
REMARK INTRA:                  -0.508
REMARK UNBOUND:                -0.632
REMARK SMILES CCCCCCCCCCCCCC(=O)[O-]
REMARK SMILES IDX 8 1 9 2 10 3 11 4 12 5 13 6 14 7 15 8 16 9 7 10 6 11 5 12
REMARK SMILES IDX 4 13 3 14 2 15 1 16
REMARK H PARENT
REMARK Flexibility Score: inf
ROOT
ATOM      1  C   UNL     1      23.731  36.909  19.549  1.00  0.00     0.000 C 
ENDROOT
BRANCH   1   2
ATOM      2  C   UNL     1      23.019  36.748  20.907  1.00  0.00     0.000 C 
BRANCH   2   3
ATOM      3  C   UNL     1      22.169  37.954  21.341  1.00  0.00     0.000 C 
BRANCH   3   4
ATOM      4  C   UNL     1      22.341  38.302  22.830  1.00  0.00     0.000 C 
BRANCH   4   5
ATOM      5  C   UNL     1      23.647  39.076  23.106  1.00  0.00     0.006 C 
BRANCH   5   6
ATOM      6  C   UNL     1      23.938  39.275  24.603  1.00  0.00     0.053 C 
BRANCH   6   7
ATOM      7  C   UNL     1      23.444  38.135  25.436  1.00  0.00     0.041 C 
ATOM      8  O   UNL     1      23.987  37.002  25.344  1.00  0.00    -0.550 OA
ATOM      9  O   UNL     1      22.366  38.314  26.294  1.00  0.00    -0.550 OA
ENDBRANCH   6   7
ENDBRANCH   5   6
ENDBRANCH   4   5
ENDBRANCH   3   4
ENDBRANCH   2   3
ENDBRANCH   1   2
BRANCH   1  10
ATOM     10  C   UNL     1      24.305  35.607  18.955  1.00  0.00     0.000 C 
BRANCH  10  11
ATOM     11  C   UNL     1      25.388  35.804  17.876  1.00  0.00    -0.000 C 
BRANCH  11  12
ATOM     12  C   UNL     1      26.614  34.882  18.005  1.00  0.00    -0.000 C 
BRANCH  12  13
ATOM     13  C   UNL     1      27.868  35.622  18.500  1.00  0.00    -0.000 C 
BRANCH  13  14
ATOM     14  C   UNL     1      27.846  37.118  18.150  1.00  0.00    -0.000 C 
BRANCH  14  15
ATOM     15  C   UNL     1      29.217  37.788  18.323  1.00  0.00    -0.003 C 
ATOM     16  C   UNL     1      30.318  36.747  18.507  1.00  0.00     0.004 C 
ENDBRANCH  14  15
ENDBRANCH  13  14
ENDBRANCH  12  13
ENDBRANCH  11  12
ENDBRANCH  10  11
ENDBRANCH   1  10
TORSDOF 12
ENDMDL
MODEL 5
REMARK VINA RESULT:    -0.698     12.143     13.638
REMARK INTER + INTRA:          -1.819
REMARK INTER:                  -1.568
REMARK INTRA:                  -0.252
REMARK UNBOUND:                -0.632
REMARK SMILES CCCCCCCCCCCCCC(=O)[O-]
REMARK SMILES IDX 8 1 9 2 10 3 11 4 12 5 13 6 14 7 15 8 16 9 7 10 6 11 5 12
REMARK SMILES IDX 4 13 3 14 2 15 1 16
REMARK H PARENT
REMARK Flexibility Score: inf
ROOT
ATOM      1  C   UNL     1      12.834  43.837  19.119  1.00  0.00     0.000 C 
ENDROOT
BRANCH   1   2
ATOM      2  C   UNL     1      11.921  42.628  18.831  1.00  0.00     0.000 C 
BRANCH   2   3
ATOM      3  C   UNL     1      12.530  41.559  17.907  1.00  0.00     0.000 C 
BRANCH   3   4
ATOM      4  C   UNL     1      12.136  40.127  18.310  1.00  0.00     0.000 C 
BRANCH   4   5
ATOM      5  C   UNL     1      11.908  39.984  19.829  1.00  0.00     0.006 C 
BRANCH   5   6
ATOM      6  C   UNL     1      13.211  39.907  20.641  1.00  0.00     0.053 C 
BRANCH   6   7
ATOM      7  C   UNL     1      13.078  40.533  21.993  1.00  0.00     0.041 C 
ATOM      8  O   UNL     1      14.047  40.511  22.798  1.00  0.00    -0.550 OA
ATOM      9  O   UNL     1      11.877  41.116  22.377  1.00  0.00    -0.550 OA
ENDBRANCH   6   7
ENDBRANCH   5   6
ENDBRANCH   4   5
ENDBRANCH   3   4
ENDBRANCH   2   3
ENDBRANCH   1   2
BRANCH   1  10
ATOM     10  C   UNL     1      13.264  44.640  17.875  1.00  0.00     0.000 C 
BRANCH  10  11
ATOM     11  C   UNL     1      14.313  45.738  18.138  1.00  0.00    -0.000 C 
BRANCH  11  12
ATOM     12  C   UNL     1      15.693  45.228  18.592  1.00  0.00    -0.000 C 
BRANCH  12  13
ATOM     13  C   UNL     1      15.872  43.716  18.375  1.00  0.00    -0.000 C 
BRANCH  13  14
ATOM     14  C   UNL     1      15.732  42.912  19.677  1.00  0.00    -0.000 C 
BRANCH  14  15
ATOM     15  C   UNL     1      15.856  43.789  20.931  1.00  0.00    -0.003 C 
ATOM     16  C   UNL     1      14.864  43.354  22.007  1.00  0.00     0.004 C 
ENDBRANCH  14  15
ENDBRANCH  13  14
ENDBRANCH  12  13
ENDBRANCH  11  12
ENDBRANCH  10  11
ENDBRANCH   1  10
TORSDOF 12
ENDMDL
MODEL 6
REMARK VINA RESULT:    -0.538      1.204      2.298
REMARK INTER + INTRA:          -1.547
REMARK INTER:                  -1.487
REMARK INTRA:                  -0.060
REMARK UNBOUND:                -0.632
REMARK SMILES CCCCCCCCCCCCCC(=O)[O-]
REMARK SMILES IDX 8 1 9 2 10 3 11 4 12 5 13 6 14 7 15 8 16 9 7 10 6 11 5 12
REMARK SMILES IDX 4 13 3 14 2 15 1 16
REMARK H PARENT
REMARK Flexibility Score: inf
ROOT
ATOM      1  C   UNL     1      23.814  37.403  20.033  1.00  0.00     0.000 C 
ENDROOT
BRANCH   1   2
ATOM      2  C   UNL     1      22.645  37.933  20.887  1.00  0.00     0.000 C 
BRANCH   2   3
ATOM      3  C   UNL     1      22.373  37.142  22.179  1.00  0.00     0.000 C 
BRANCH   3   4
ATOM      4  C   UNL     1      22.040  38.049  23.376  1.00  0.00     0.000 C 
BRANCH   4   5
ATOM      5  C   UNL     1      22.849  37.681  24.637  1.00  0.00     0.006 C 
BRANCH   5   6
ATOM      6  C   UNL     1      23.928  38.715  24.996  1.00  0.00     0.053 C 
BRANCH   6   7
ATOM      7  C   UNL     1      24.056  39.789  23.963  1.00  0.00     0.041 C 
ATOM      8  O   UNL     1      24.625  39.547  22.865  1.00  0.00    -0.550 OA
ATOM      9  O   UNL     1      23.572  41.066  24.220  1.00  0.00    -0.550 OA
ENDBRANCH   6   7
ENDBRANCH   5   6
ENDBRANCH   4   5
ENDBRANCH   3   4
ENDBRANCH   2   3
ENDBRANCH   1   2
BRANCH   1  10
ATOM     10  C   UNL     1      23.587  36.012  19.408  1.00  0.00     0.000 C 
BRANCH  10  11
ATOM     11  C   UNL     1      24.239  35.804  18.026  1.00  0.00    -0.000 C 
BRANCH  11  12
ATOM     12  C   UNL     1      25.762  35.581  18.049  1.00  0.00    -0.000 C 
BRANCH  12  13
ATOM     13  C   UNL     1      26.559  36.897  18.060  1.00  0.00    -0.000 C 
BRANCH  13  14
ATOM     14  C   UNL     1      28.068  36.673  17.875  1.00  0.00    -0.000 C 
BRANCH  14  15
ATOM     15  C   UNL     1      28.914  37.791  18.501  1.00  0.00    -0.003 C 
ATOM     16  C   UNL     1      30.042  37.214  19.353  1.00  0.00     0.004 C 
ENDBRANCH  14  15
ENDBRANCH  13  14
ENDBRANCH  12  13
ENDBRANCH  11  12
ENDBRANCH  10  11
ENDBRANCH   1  10
TORSDOF 12
ENDMDL
MODEL 7
REMARK VINA RESULT:    -0.322     12.198     14.174
REMARK INTER + INTRA:          -1.180
REMARK INTER:                  -0.478
REMARK INTRA:                  -0.701
REMARK UNBOUND:                -0.632
REMARK SMILES CCCCCCCCCCCCCC(=O)[O-]
REMARK SMILES IDX 8 1 9 2 10 3 11 4 12 5 13 6 14 7 15 8 16 9 7 10 6 11 5 12
REMARK SMILES IDX 4 13 3 14 2 15 1 16
REMARK H PARENT
REMARK Flexibility Score: inf
ROOT
ATOM      1  C   UNL     1      16.263  43.492  19.096  1.00  0.00     0.000 C 
ENDROOT
BRANCH   1   2
ATOM      2  C   UNL     1      15.332  44.140  18.052  1.00  0.00     0.000 C 
BRANCH   2   3
ATOM      3  C   UNL     1      14.535  45.355  18.558  1.00  0.00     0.000 C 
BRANCH   3   4
ATOM      4  C   UNL     1      13.031  45.066  18.702  1.00  0.00     0.000 C 
BRANCH   4   5
ATOM      5  C   UNL     1      12.585  43.841  17.875  1.00  0.00     0.006 C 
BRANCH   5   6
ATOM      6  C   UNL     1      11.975  42.715  18.725  1.00  0.00     0.053 C 
BRANCH   6   7
ATOM      7  C   UNL     1      12.670  41.406  18.521  1.00  0.00     0.041 C 
ATOM      8  O   UNL     1      13.927  41.343  18.568  1.00  0.00    -0.550 OA
ATOM      9  O   UNL     1      11.933  40.260  18.250  1.00  0.00    -0.550 OA
ENDBRANCH   6   7
ENDBRANCH   5   6
ENDBRANCH   4   5
ENDBRANCH   3   4
ENDBRANCH   2   3
ENDBRANCH   1   2
BRANCH   1  10
ATOM     10  C   UNL     1      16.518  44.338  20.358  1.00  0.00     0.000 C 
BRANCH  10  11
ATOM     11  C   UNL     1      15.511  44.120  21.505  1.00  0.00    -0.000 C 
BRANCH  11  12
ATOM     12  C   UNL     1      15.260  42.649  21.883  1.00  0.00    -0.000 C 
BRANCH  12  13
ATOM     13  C   UNL     1      13.765  42.291  21.929  1.00  0.00    -0.000 C 
BRANCH  13  14
ATOM     14  C   UNL     1      13.524  40.802  22.223  1.00  0.00    -0.000 C 
BRANCH  14  15
ATOM     15  C   UNL     1      12.055  40.393  22.050  1.00  0.00    -0.003 C 
ATOM     16  C   UNL     1      11.912  39.282  21.012  1.00  0.00     0.004 C 
ENDBRANCH  14  15
ENDBRANCH  13  14
ENDBRANCH  12  13
ENDBRANCH  11  12
ENDBRANCH  10  11
ENDBRANCH   1  10
TORSDOF 12
ENDMDL
MODEL 8
REMARK VINA RESULT:    -0.131     12.569     13.907
REMARK INTER + INTRA:          -0.855
REMARK INTER:                  -0.295
REMARK INTRA:                  -0.560
REMARK UNBOUND:                -0.632
REMARK SMILES CCCCCCCCCCCCCC(=O)[O-]
REMARK SMILES IDX 8 1 9 2 10 3 11 4 12 5 13 6 14 7 15 8 16 9 7 10 6 11 5 12
REMARK SMILES IDX 4 13 3 14 2 15 1 16
REMARK H PARENT
REMARK Flexibility Score: inf
ROOT
ATOM      1  C   UNL     1      13.288  40.506  19.602  1.00  0.00     0.000 C 
ENDROOT
BRANCH   1   2
ATOM      2  C   UNL     1      12.817  40.855  18.176  1.00  0.00     0.000 C 
BRANCH   2   3
ATOM      3  C   UNL     1      12.121  42.220  18.037  1.00  0.00     0.000 C 
BRANCH   3   4
ATOM      4  C   UNL     1      12.190  43.059  19.324  1.00  0.00     0.000 C 
BRANCH   4   5
ATOM      5  C   UNL     1      12.560  44.532  19.048  1.00  0.00     0.006 C 
BRANCH   5   6
ATOM      6  C   UNL     1      13.537  44.710  17.875  1.00  0.00     0.053 C 
BRANCH   6   7
ATOM      7  C   UNL     1      14.956  44.448  18.271  1.00  0.00     0.041 C 
ATOM      8  O   UNL     1      15.715  45.406  18.578  1.00  0.00    -0.550 OA
ATOM      9  O   UNL     1      15.451  43.150  18.274  1.00  0.00    -0.550 OA
ENDBRANCH   6   7
ENDBRANCH   5   6
ENDBRANCH   4   5
ENDBRANCH   3   4
ENDBRANCH   2   3
ENDBRANCH   1   2
BRANCH   1  10
ATOM     10  C   UNL     1      12.195  39.942  20.530  1.00  0.00     0.000 C 
BRANCH  10  11
ATOM     11  C   UNL     1      11.876  40.808  21.765  1.00  0.00    -0.000 C 
BRANCH  11  12
ATOM     12  C   UNL     1      12.901  40.715  22.910  1.00  0.00    -0.000 C 
BRANCH  12  13
ATOM     13  C   UNL     1      14.354  40.657  22.408  1.00  0.00    -0.000 C 
BRANCH  13  14
ATOM     14  C   UNL     1      15.115  41.969  22.653  1.00  0.00    -0.000 C 
BRANCH  14  15
ATOM     15  C   UNL     1      15.047  42.927  21.455  1.00  0.00    -0.003 C 
ATOM     16  C   UNL     1      15.495  44.332  21.848  1.00  0.00     0.004 C 
ENDBRANCH  14  15
ENDBRANCH  13  14
ENDBRANCH  12  13
ENDBRANCH  11  12
ENDBRANCH  10  11
ENDBRANCH   1  10
TORSDOF 12
ENDMDL
