MODEL 1
REMARK VINA RESULT:    -8.321      0.000      0.000
REMARK INTER + INTRA:         -10.186
REMARK INTER:                 -10.024
REMARK INTRA:                  -0.162
REMARK UNBOUND:                -0.162
REMARK SMILES O=c1c(O)c(-c2ccc(O)c(O)c2)oc2cc(O)cc(O)c12
REMARK SMILES IDX 5 1 3 2 2 3 1 4 22 5 20 6 19 7 17 8 16 9 15 10 14 11 6 12
REMARK SMILES IDX 7 13 8 14 9 15 13 16 11 17 10 18 12 20 4 22 21 24 18 26
REMARK H PARENT 10 19 12 21 4 23 21 25 18 27
REMARK Flexibility Score: inf
ROOT
ATOM      1  C   UNL     1     -10.794   6.797  35.294  1.00  0.00     0.180 A 
ATOM      2  C   UNL     1     -11.913   7.432  34.727  1.00  0.00     0.208 A 
ATOM      3  C   UNL     1     -13.067   6.676  34.469  1.00  0.00     0.238 A 
ATOM      4  O   UNL     1     -14.083   7.260  34.012  1.00  0.00    -0.285 OA
ATOM      5  C   UNL     1     -13.083   5.291  34.765  1.00  0.00     0.111 A 
ATOM      6  C   UNL     1     -14.184   4.420  34.507  1.00  0.00     0.134 A 
ATOM      7  C   UNL     1     -14.138   3.096  34.960  1.00  0.00     0.093 A 
ATOM      8  C   UNL     1     -13.004   2.595  35.604  1.00  0.00     0.123 A 
ATOM      9  C   UNL     1     -11.902   3.420  35.808  1.00  0.00     0.094 A 
ATOM     10  C   UNL     1     -11.932   4.755  35.398  1.00  0.00     0.146 A 
ATOM     11  O   UNL     1     -10.863   5.512  35.621  1.00  0.00    -0.452 OA
ENDROOT
BRANCH   1  12
ATOM     12  C   UNL     1      -9.533   7.522  35.573  1.00  0.00     0.025 A 
ATOM     13  C   UNL     1      -9.479   8.556  36.523  1.00  0.00     0.016 A 
ATOM     14  C   UNL     1      -8.283   9.242  36.752  1.00  0.00     0.051 A 
ATOM     15  C   UNL     1      -7.130   8.915  36.027  1.00  0.00     0.157 A 
ATOM     16  C   UNL     1      -8.379   7.212  34.833  1.00  0.00     0.062 A 
ATOM     17  C   UNL     1      -7.180   7.896  35.061  1.00  0.00     0.158 A 
BRANCH  15  18
ATOM     18  O   UNL     1      -5.938   9.600  36.259  1.00  0.00    -0.504 OA
ATOM     19  H   UNL     1      -5.408   9.468  37.113  1.00  0.00     0.293 HD
ENDBRANCH  15  18
BRANCH  17  20
ATOM     20  O   UNL     1      -6.052   7.553  34.317  1.00  0.00    -0.504 OA
ATOM     21  H   UNL     1      -5.137   7.935  34.520  1.00  0.00     0.293 HD
ENDBRANCH  17  20
ENDBRANCH   1  12
BRANCH   2  22
ATOM     22  O   UNL     1     -11.883   8.804  34.463  1.00  0.00    -0.502 OA
ATOM     23  H   UNL     1     -12.683   9.406  34.620  1.00  0.00     0.293 HD
ENDBRANCH   2  22
BRANCH   6  24
ATOM     24  O   UNL     1     -15.325   4.795  33.791  1.00  0.00    -0.507 OA
ATOM     25  H   UNL     1     -15.857   4.181  33.194  1.00  0.00     0.293 HD
ENDBRANCH   6  24
BRANCH   8  26
ATOM     26  O   UNL     1     -12.961   1.271  36.038  1.00  0.00    -0.508 OA
ATOM     27  H   UNL     1     -13.348   0.517  35.483  1.00  0.00     0.293 HD
ENDBRANCH   8  26
TORSDOF 6
ENDMDL
MODEL 2
REMARK VINA RESULT:    -8.289      1.592      7.120
REMARK INTER + INTRA:         -10.147
REMARK INTER:                  -9.969
REMARK INTRA:                  -0.178
REMARK UNBOUND:                -0.162
REMARK SMILES O=c1c(O)c(-c2ccc(O)c(O)c2)oc2cc(O)cc(O)c12
REMARK SMILES IDX 5 1 3 2 2 3 1 4 22 5 20 6 19 7 17 8 16 9 15 10 14 11 6 12
REMARK SMILES IDX 7 13 8 14 9 15 13 16 11 17 10 18 12 20 4 22 21 24 18 26
REMARK H PARENT 10 19 12 21 4 23 21 25 18 27
REMARK Flexibility Score: inf
ROOT
ATOM      1  C   UNL     1     -11.291   5.924  34.858  1.00  0.00     0.180 A 
ATOM      2  C   UNL     1     -10.041   5.468  34.407  1.00  0.00     0.208 A 
ATOM      3  C   UNL     1      -8.901   6.248  34.655  1.00  0.00     0.238 A 
ATOM      4  O   UNL     1      -7.777   5.809  34.297  1.00  0.00    -0.285 OA
ATOM      5  C   UNL     1      -9.027   7.483  35.337  1.00  0.00     0.111 A 
ATOM      6  C   UNL     1      -7.945   8.374  35.607  1.00  0.00     0.134 A 
ATOM      7  C   UNL     1      -8.164   9.505  36.403  1.00  0.00     0.093 A 
ATOM      8  C   UNL     1      -9.440   9.811  36.883  1.00  0.00     0.123 A 
ATOM      9  C   UNL     1     -10.513   8.979  36.576  1.00  0.00     0.094 A 
ATOM     10  C   UNL     1     -10.319   7.825  35.814  1.00  0.00     0.146 A 
ATOM     11  O   UNL     1     -11.367   7.053  35.552  1.00  0.00    -0.452 OA
ENDROOT
BRANCH   1  12
ATOM     12  C   UNL     1     -12.541   5.169  34.613  1.00  0.00     0.025 A 
ATOM     13  C   UNL     1     -13.558   5.686  33.791  1.00  0.00     0.016 A 
ATOM     14  C   UNL     1     -14.739   4.965  33.593  1.00  0.00     0.051 A 
ATOM     15  C   UNL     1     -14.928   3.728  34.222  1.00  0.00     0.157 A 
ATOM     16  C   UNL     1     -12.744   3.937  35.258  1.00  0.00     0.062 A 
ATOM     17  C   UNL     1     -13.925   3.213  35.060  1.00  0.00     0.158 A 
BRANCH  15  18
ATOM     18  O   UNL     1     -16.107   3.012  34.021  1.00  0.00    -0.504 OA
ATOM     19  H   UNL     1     -16.098   2.072  33.640  1.00  0.00     0.293 HD
ENDBRANCH  15  18
BRANCH  17  20
ATOM     20  O   UNL     1     -14.085   1.989  35.707  1.00  0.00    -0.504 OA
ATOM     21  H   UNL     1     -14.980   1.517  35.753  1.00  0.00     0.293 HD
ENDBRANCH  17  20
ENDBRANCH   1  12
BRANCH   2  22
ATOM     22  O   UNL     1      -9.935   4.236  33.755  1.00  0.00    -0.502 OA
ATOM     23  H   UNL     1      -9.190   4.027  33.101  1.00  0.00     0.293 HD
ENDBRANCH   2  22
BRANCH   6  24
ATOM     24  O   UNL     1      -6.653   8.209  35.098  1.00  0.00    -0.507 OA
ATOM     25  H   UNL     1      -5.811   8.531  35.550  1.00  0.00     0.293 HD
ENDBRANCH   6  24
BRANCH   8  26
ATOM     26  O   UNL     1      -9.651  10.947  37.661  1.00  0.00    -0.508 OA
ATOM     27  H   UNL     1     -10.270  10.935  38.463  1.00  0.00     0.293 HD
ENDBRANCH   8  26
TORSDOF 6
ENDMDL
MODEL 3
REMARK VINA RESULT:    -8.268      1.307      2.945
REMARK INTER + INTRA:         -10.122
REMARK INTER:                  -9.941
REMARK INTRA:                  -0.181
REMARK UNBOUND:                -0.162
REMARK SMILES O=c1c(O)c(-c2ccc(O)c(O)c2)oc2cc(O)cc(O)c12
REMARK SMILES IDX 5 1 3 2 2 3 1 4 22 5 20 6 19 7 17 8 16 9 15 10 14 11 6 12
REMARK SMILES IDX 7 13 8 14 9 15 13 16 11 17 10 18 12 20 4 22 21 24 18 26
REMARK H PARENT 10 19 12 21 4 23 21 25 18 27
REMARK Flexibility Score: inf
ROOT
ATOM      1  C   UNL     1     -10.827   5.988  35.099  1.00  0.00     0.180 A 
ATOM      2  C   UNL     1     -10.869   4.639  35.490  1.00  0.00     0.208 A 
ATOM      3  C   UNL     1     -12.051   3.909  35.290  1.00  0.00     0.238 A 
ATOM      4  O   UNL     1     -12.065   2.687  35.592  1.00  0.00    -0.285 OA
ATOM      5  C   UNL     1     -13.181   4.541  34.718  1.00  0.00     0.111 A 
ATOM      6  C   UNL     1     -14.444   3.908  34.506  1.00  0.00     0.134 A 
ATOM      7  C   UNL     1     -15.451   4.590  33.813  1.00  0.00     0.093 A 
ATOM      8  C   UNL     1     -15.262   5.906  33.381  1.00  0.00     0.123 A 
ATOM      9  C   UNL     1     -14.056   6.551  33.634  1.00  0.00     0.094 A 
ATOM     10  C   UNL     1     -13.020   5.885  34.292  1.00  0.00     0.146 A 
ATOM     11  O   UNL     1     -11.881   6.534  34.505  1.00  0.00    -0.452 OA
ENDROOT
BRANCH   1  12
ATOM     12  C   UNL     1      -9.625   6.830  35.300  1.00  0.00     0.025 A 
ATOM     13  C   UNL     1      -9.636   7.923  36.184  1.00  0.00     0.016 A 
ATOM     14  C   UNL     1      -8.497   8.717  36.339  1.00  0.00     0.051 A 
ATOM     15  C   UNL     1      -7.336   8.441  35.605  1.00  0.00     0.157 A 
ATOM     16  C   UNL     1      -8.465   6.570  34.550  1.00  0.00     0.062 A 
ATOM     17  C   UNL     1      -7.322   7.363  34.705  1.00  0.00     0.158 A 
BRANCH  15  18
ATOM     18  O   UNL     1      -6.201   9.234  35.764  1.00  0.00    -0.504 OA
ATOM     19  H   UNL     1      -6.228  10.100  36.291  1.00  0.00     0.293 HD
ENDBRANCH  15  18
BRANCH  17  20
ATOM     20  O   UNL     1      -6.185   7.067  33.954  1.00  0.00    -0.504 OA
ATOM     21  H   UNL     1      -5.250   7.207  34.315  1.00  0.00     0.293 HD
ENDBRANCH  17  20
ENDBRANCH   1  12
BRANCH   2  22
ATOM     22  O   UNL     1      -9.735   4.029  36.033  1.00  0.00    -0.502 OA
ATOM     23  H   UNL     1      -8.793   4.324  35.801  1.00  0.00     0.293 HD
ENDBRANCH   2  22
BRANCH   6  24
ATOM     24  O   UNL     1     -14.765   2.632  34.979  1.00  0.00    -0.507 OA
ATOM     25  H   UNL     1     -15.308   1.951  34.471  1.00  0.00     0.293 HD
ENDBRANCH   6  24
BRANCH   8  26
ATOM     26  O   UNL     1     -16.276   6.582  32.705  1.00  0.00    -0.508 OA
ATOM     27  H   UNL     1     -16.290   7.593  32.642  1.00  0.00     0.293 HD
ENDBRANCH   8  26
TORSDOF 6
ENDMDL
MODEL 4
REMARK VINA RESULT:    -8.201      1.453      6.783
REMARK INTER + INTRA:         -10.041
REMARK INTER:                  -9.898
REMARK INTRA:                  -0.143
REMARK UNBOUND:                -0.162
REMARK SMILES O=c1c(O)c(-c2ccc(O)c(O)c2)oc2cc(O)cc(O)c12
REMARK SMILES IDX 5 1 3 2 2 3 1 4 22 5 20 6 19 7 17 8 16 9 15 10 14 11 6 12
REMARK SMILES IDX 7 13 8 14 9 15 13 16 11 17 10 18 12 20 4 22 21 24 18 26
REMARK H PARENT 10 19 12 21 4 23 21 25 18 27
REMARK Flexibility Score: inf
ROOT
ATOM      1  C   UNL     1     -11.892   6.312  34.747  1.00  0.00     0.180 A 
ATOM      2  C   UNL     1     -12.003   7.537  35.426  1.00  0.00     0.208 A 
ATOM      3  C   UNL     1     -10.838   8.272  35.700  1.00  0.00     0.238 A 
ATOM      4  O   UNL     1     -10.948   9.393  36.259  1.00  0.00    -0.285 OA
ATOM      5  C   UNL     1      -9.576   7.763  35.307  1.00  0.00     0.111 A 
ATOM      6  C   UNL     1      -8.327   8.404  35.569  1.00  0.00     0.134 A 
ATOM      7  C   UNL     1      -7.152   7.876  35.020  1.00  0.00     0.093 A 
ATOM      8  C   UNL     1      -7.174   6.696  34.272  1.00  0.00     0.123 A 
ATOM      9  C   UNL     1      -8.379   6.032  34.061  1.00  0.00     0.094 A 
ATOM     10  C   UNL     1      -9.573   6.553  34.566  1.00  0.00     0.146 A 
ATOM     11  O   UNL     1     -10.702   5.894  34.333  1.00  0.00    -0.452 OA
ENDROOT
BRANCH   1  12
ATOM     12  C   UNL     1     -13.072   5.469  34.444  1.00  0.00     0.025 A 
ATOM     13  C   UNL     1     -14.100   5.926  33.600  1.00  0.00     0.016 A 
ATOM     14  C   UNL     1     -15.215   5.122  33.348  1.00  0.00     0.051 A 
ATOM     15  C   UNL     1     -15.327   3.859  33.943  1.00  0.00     0.157 A 
ATOM     16  C   UNL     1     -13.198   4.210  35.054  1.00  0.00     0.062 A 
ATOM     17  C   UNL     1     -14.313   3.403  34.802  1.00  0.00     0.158 A 
BRANCH  15  18
ATOM     18  O   UNL     1     -16.440   3.060  33.687  1.00  0.00    -0.504 OA
ATOM     19  H   UNL     1     -17.305   3.173  34.204  1.00  0.00     0.293 HD
ENDBRANCH  15  18
BRANCH  17  20
ATOM     20  O   UNL     1     -14.398   2.154  35.416  1.00  0.00    -0.504 OA
ATOM     21  H   UNL     1     -13.658   1.791  36.003  1.00  0.00     0.293 HD
ENDBRANCH  17  20
ENDBRANCH   1  12
BRANCH   2  22
ATOM     22  O   UNL     1     -13.260   8.031  35.785  1.00  0.00    -0.502 OA
ATOM     23  H   UNL     1     -14.069   7.432  35.897  1.00  0.00     0.293 HD
ENDBRANCH   2  22
BRANCH   6  24
ATOM     24  O   UNL     1      -8.186   9.534  36.379  1.00  0.00    -0.507 OA
ATOM     25  H   UNL     1      -7.424  10.193  36.318  1.00  0.00     0.293 HD
ENDBRANCH   6  24
BRANCH   8  26
ATOM     26  O   UNL     1      -5.997   6.170  33.743  1.00  0.00    -0.508 OA
ATOM     27  H   UNL     1      -6.009   5.410  33.072  1.00  0.00     0.293 HD
ENDBRANCH   8  26
TORSDOF 6
ENDMDL
MODEL 5
REMARK VINA RESULT:    -7.462      2.873      6.284
REMARK INTER + INTRA:          -9.151
REMARK INTER:                  -8.954
REMARK INTRA:                  -0.197
REMARK UNBOUND:                -0.162
REMARK SMILES O=c1c(O)c(-c2ccc(O)c(O)c2)oc2cc(O)cc(O)c12
REMARK SMILES IDX 5 1 3 2 2 3 1 4 22 5 20 6 19 7 17 8 16 9 15 10 14 11 6 12
REMARK SMILES IDX 7 13 8 14 9 15 13 16 11 17 10 18 12 20 4 22 21 24 18 26
REMARK H PARENT 10 19 12 21 4 23 21 25 18 27
REMARK Flexibility Score: inf
ROOT
ATOM      1  C   UNL     1     -11.180   5.091  34.589  1.00  0.00     0.180 A 
ATOM      2  C   UNL     1     -11.136   3.930  35.380  1.00  0.00     0.208 A 
ATOM      3  C   UNL     1      -9.965   3.155  35.386  1.00  0.00     0.238 A 
ATOM      4  O   UNL     1      -9.912   2.147  36.138  1.00  0.00    -0.285 OA
ATOM      5  C   UNL     1      -8.860   3.540  34.589  1.00  0.00     0.111 A 
ATOM      6  C   UNL     1      -7.639   2.807  34.488  1.00  0.00     0.134 A 
ATOM      7  C   UNL     1      -6.566   3.350  33.772  1.00  0.00     0.093 A 
ATOM      8  C   UNL     1      -6.691   4.569  33.100  1.00  0.00     0.123 A 
ATOM      9  C   UNL     1      -7.897   5.262  33.144  1.00  0.00     0.094 A 
ATOM     10  C   UNL     1      -8.975   4.763  33.879  1.00  0.00     0.146 A 
ATOM     11  O   UNL     1     -10.104   5.461  33.904  1.00  0.00    -0.452 OA
ENDROOT
BRANCH   1  12
ATOM     12  C   UNL     1     -12.386   5.946  34.510  1.00  0.00     0.025 A 
ATOM     13  C   UNL     1     -13.584   5.471  33.948  1.00  0.00     0.016 A 
ATOM     14  C   UNL     1     -14.703   6.305  33.864  1.00  0.00     0.051 A 
ATOM     15  C   UNL     1     -14.638   7.626  34.326  1.00  0.00     0.157 A 
ATOM     16  C   UNL     1     -12.320   7.278  34.954  1.00  0.00     0.062 A 
ATOM     17  C   UNL     1     -13.440   8.114  34.871  1.00  0.00     0.158 A 
BRANCH  15  18
ATOM     18  O   UNL     1     -15.757   8.453  34.242  1.00  0.00    -0.504 OA
ATOM     19  H   UNL     1     -16.454   8.480  34.977  1.00  0.00     0.293 HD
ENDBRANCH  15  18
BRANCH  17  20
ATOM     20  O   UNL     1     -13.340   9.426  35.333  1.00  0.00    -0.504 OA
ATOM     21  H   UNL     1     -12.504   9.777  35.782  1.00  0.00     0.293 HD
ENDBRANCH  17  20
ENDBRANCH   1  12
BRANCH   2  22
ATOM     22  O   UNL     1     -12.229   3.580  36.176  1.00  0.00    -0.502 OA
ATOM     23  H   UNL     1     -12.198   2.815  36.840  1.00  0.00     0.293 HD
ENDBRANCH   2  22
BRANCH   6  24
ATOM     24  O   UNL     1      -7.442   1.540  35.045  1.00  0.00    -0.507 OA
ATOM     25  H   UNL     1      -7.416   1.344  36.033  1.00  0.00     0.293 HD
ENDBRANCH   6  24
BRANCH   8  26
ATOM     26  O   UNL     1      -5.622   5.093  32.376  1.00  0.00    -0.508 OA
ATOM     27  H   UNL     1      -5.583   6.073  32.122  1.00  0.00     0.293 HD
ENDBRANCH   8  26
TORSDOF 6
ENDMDL
MODEL 6
REMARK VINA RESULT:    -7.394      2.435      4.279
REMARK INTER + INTRA:          -9.069
REMARK INTER:                  -8.918
REMARK INTRA:                  -0.151
REMARK UNBOUND:                -0.162
REMARK SMILES O=c1c(O)c(-c2ccc(O)c(O)c2)oc2cc(O)cc(O)c12
REMARK SMILES IDX 5 1 3 2 2 3 1 4 22 5 20 6 19 7 17 8 16 9 15 10 14 11 6 12
REMARK SMILES IDX 7 13 8 14 9 15 13 16 11 17 10 18 12 20 4 22 21 24 18 26
REMARK H PARENT 10 19 12 21 4 23 21 25 18 27
REMARK Flexibility Score: inf
ROOT
ATOM      1  C   UNL     1     -10.236   5.815  35.208  1.00  0.00     0.180 A 
ATOM      2  C   UNL     1      -9.216   5.390  34.341  1.00  0.00     0.208 A 
ATOM      3  C   UNL     1      -8.942   4.017  34.231  1.00  0.00     0.238 A 
ATOM      4  O   UNL     1      -8.065   3.639  33.413  1.00  0.00    -0.285 OA
ATOM      5  C   UNL     1      -9.681   3.088  35.004  1.00  0.00     0.111 A 
ATOM      6  C   UNL     1      -9.461   1.677  35.003  1.00  0.00     0.134 A 
ATOM      7  C   UNL     1     -10.336   0.842  35.707  1.00  0.00     0.093 A 
ATOM      8  C   UNL     1     -11.385   1.372  36.464  1.00  0.00     0.123 A 
ATOM      9  C   UNL     1     -11.571   2.750  36.518  1.00  0.00     0.094 A 
ATOM     10  C   UNL     1     -10.736   3.607  35.799  1.00  0.00     0.146 A 
ATOM     11  O   UNL     1     -10.955   4.915  35.869  1.00  0.00    -0.452 OA
ENDROOT
BRANCH   1  12
ATOM     12  C   UNL     1     -10.566   7.247  35.395  1.00  0.00     0.025 A 
ATOM     13  C   UNL     1      -9.617   8.158  35.890  1.00  0.00     0.016 A 
ATOM     14  C   UNL     1      -9.959   9.499  36.080  1.00  0.00     0.051 A 
ATOM     15  C   UNL     1     -11.255   9.947  35.794  1.00  0.00     0.157 A 
ATOM     16  C   UNL     1     -11.871   7.696  35.129  1.00  0.00     0.062 A 
ATOM     17  C   UNL     1     -12.215   9.040  35.317  1.00  0.00     0.158 A 
BRANCH  15  18
ATOM     18  O   UNL     1     -11.592  11.286  35.983  1.00  0.00    -0.504 OA
ATOM     19  H   UNL     1     -11.321  12.001  35.317  1.00  0.00     0.293 HD
ENDBRANCH  15  18
BRANCH  17  20
ATOM     20  O   UNL     1     -13.516   9.452  35.030  1.00  0.00    -0.504 OA
ATOM     21  H   UNL     1     -14.124   9.846  35.737  1.00  0.00     0.293 HD
ENDBRANCH  17  20
ENDBRANCH   1  12
BRANCH   2  22
ATOM     22  O   UNL     1      -8.514   6.322  33.571  1.00  0.00    -0.502 OA
ATOM     23  H   UNL     1      -8.112   7.164  33.967  1.00  0.00     0.293 HD
ENDBRANCH   2  22
BRANCH   6  24
ATOM     24  O   UNL     1      -8.389   1.056  34.356  1.00  0.00    -0.507 OA
ATOM     25  H   UNL     1      -7.552   1.526  34.048  1.00  0.00     0.293 HD
ENDBRANCH   6  24
BRANCH   8  26
ATOM     26  O   UNL     1     -12.242   0.533  37.174  1.00  0.00    -0.508 OA
ATOM     27  H   UNL     1     -12.161   0.416  38.177  1.00  0.00     0.293 HD
ENDBRANCH   8  26
TORSDOF 6
ENDMDL
MODEL 7
REMARK VINA RESULT:    -7.282      2.611      4.280
REMARK INTER + INTRA:          -8.934
REMARK INTER:                  -8.762
REMARK INTRA:                  -0.172
REMARK UNBOUND:                -0.162
REMARK SMILES O=c1c(O)c(-c2ccc(O)c(O)c2)oc2cc(O)cc(O)c12
REMARK SMILES IDX 5 1 3 2 2 3 1 4 22 5 20 6 19 7 17 8 16 9 15 10 14 11 6 12
REMARK SMILES IDX 7 13 8 14 9 15 13 16 11 17 10 18 12 20 4 22 21 24 18 26
REMARK H PARENT 10 19 12 21 4 23 21 25 18 27
REMARK Flexibility Score: inf
ROOT
ATOM      1  C   UNL     1     -10.261   5.726  34.472  1.00  0.00     0.180 A 
ATOM      2  C   UNL     1     -10.145   6.874  35.274  1.00  0.00     0.208 A 
ATOM      3  C   UNL     1     -11.274   7.684  35.472  1.00  0.00     0.238 A 
ATOM      4  O   UNL     1     -11.179   8.680  36.235  1.00  0.00    -0.285 OA
ATOM      5  C   UNL     1     -12.501   7.346  34.850  1.00  0.00     0.111 A 
ATOM      6  C   UNL     1     -13.699   8.117  34.949  1.00  0.00     0.134 A 
ATOM      7  C   UNL     1     -14.887   7.619  34.400  1.00  0.00     0.093 A 
ATOM      8  C   UNL     1     -14.906   6.409  33.701  1.00  0.00     0.123 A 
ATOM      9  C   UNL     1     -13.731   5.679  33.550  1.00  0.00     0.094 A 
ATOM     10  C   UNL     1     -12.537   6.132  34.116  1.00  0.00     0.146 A 
ATOM     11  O   UNL     1     -11.440   5.400  33.957  1.00  0.00    -0.452 OA
ENDROOT
BRANCH   1  12
ATOM     12  C   UNL     1      -9.109   4.837  34.197  1.00  0.00     0.025 A 
ATOM     13  C   UNL     1      -9.062   3.525  34.699  1.00  0.00     0.016 A 
ATOM     14  C   UNL     1      -7.954   2.712  34.447  1.00  0.00     0.051 A 
ATOM     15  C   UNL     1      -6.872   3.201  33.703  1.00  0.00     0.157 A 
ATOM     16  C   UNL     1      -8.013   5.329  33.469  1.00  0.00     0.062 A 
ATOM     17  C   UNL     1      -6.902   4.517  33.213  1.00  0.00     0.158 A 
BRANCH  15  18
ATOM     18  O   UNL     1      -5.769   2.386  33.451  1.00  0.00    -0.504 OA
ATOM     19  H   UNL     1      -4.868   2.776  33.201  1.00  0.00     0.293 HD
ENDBRANCH  15  18
BRANCH  17  20
ATOM     20  O   UNL     1      -5.839   5.035  32.476  1.00  0.00    -0.504 OA
ATOM     21  H   UNL     1      -5.965   5.426  31.551  1.00  0.00     0.293 HD
ENDBRANCH  17  20
ENDBRANCH   1  12
BRANCH   2  22
ATOM     22  O   UNL     1      -8.931   7.177  35.896  1.00  0.00    -0.502 OA
ATOM     23  H   UNL     1      -8.425   8.037  35.715  1.00  0.00     0.293 HD
ENDBRANCH   2  22
BRANCH   6  24
ATOM     24  O   UNL     1     -13.767   9.380  35.545  1.00  0.00    -0.507 OA
ATOM     25  H   UNL     1     -14.607   9.796  35.915  1.00  0.00     0.293 HD
ENDBRANCH   6  24
BRANCH   8  26
ATOM     26  O   UNL     1     -16.090   5.929  33.146  1.00  0.00    -0.508 OA
ATOM     27  H   UNL     1     -16.379   4.965  33.262  1.00  0.00     0.293 HD
ENDBRANCH   8  26
TORSDOF 6
ENDMDL
MODEL 8
REMARK VINA RESULT:    -7.279      2.993      5.382
REMARK INTER + INTRA:          -8.931
REMARK INTER:                  -8.619
REMARK INTRA:                  -0.312
REMARK UNBOUND:                -0.162
REMARK SMILES O=c1c(O)c(-c2ccc(O)c(O)c2)oc2cc(O)cc(O)c12
REMARK SMILES IDX 5 1 3 2 2 3 1 4 22 5 20 6 19 7 17 8 16 9 15 10 14 11 6 12
REMARK SMILES IDX 7 13 8 14 9 15 13 16 11 17 10 18 12 20 4 22 21 24 18 26
REMARK H PARENT 10 19 12 21 4 23 21 25 18 27
REMARK Flexibility Score: inf
ROOT
ATOM      1  C   UNL     1     -10.162   5.079  34.655  1.00  0.00     0.180 A 
ATOM      2  C   UNL     1      -9.025   5.158  33.832  1.00  0.00     0.208 A 
ATOM      3  C   UNL     1      -8.161   4.054  33.758  1.00  0.00     0.238 A 
ATOM      4  O   UNL     1      -7.174   4.110  32.979  1.00  0.00    -0.285 OA
ATOM      5  C   UNL     1      -8.435   2.892  34.520  1.00  0.00     0.111 A 
ATOM      6  C   UNL     1      -7.605   1.730  34.552  1.00  0.00     0.134 A 
ATOM      7  C   UNL     1      -8.040   0.590  35.238  1.00  0.00     0.093 A 
ATOM      8  C   UNL     1      -9.245   0.593  35.947  1.00  0.00     0.123 A 
ATOM      9  C   UNL     1     -10.032   1.740  35.969  1.00  0.00     0.094 A 
ATOM     10  C   UNL     1      -9.642   2.882  35.266  1.00  0.00     0.146 A 
ATOM     11  O   UNL     1     -10.427   3.952  35.305  1.00  0.00    -0.452 OA
ENDROOT
BRANCH   1  12
ATOM     12  C   UNL     1     -11.107   6.209  34.804  1.00  0.00     0.025 A 
ATOM     13  C   UNL     1     -10.826   7.290  35.658  1.00  0.00     0.016 A 
ATOM     14  C   UNL     1     -11.743   8.335  35.800  1.00  0.00     0.051 A 
ATOM     15  C   UNL     1     -12.959   8.308  35.105  1.00  0.00     0.157 A 
ATOM     16  C   UNL     1     -12.337   6.178  34.124  1.00  0.00     0.062 A 
ATOM     17  C   UNL     1     -13.257   7.223  34.264  1.00  0.00     0.158 A 
BRANCH  15  18
ATOM     18  O   UNL     1     -13.871   9.353  35.248  1.00  0.00    -0.504 OA
ATOM     19  H   UNL     1     -13.702  10.265  34.841  1.00  0.00     0.293 HD
ENDBRANCH  15  18
BRANCH  17  20
ATOM     20  O   UNL     1     -14.461   7.163  33.565  1.00  0.00    -0.504 OA
ATOM     21  H   UNL     1     -14.830   6.294  33.201  1.00  0.00     0.293 HD
ENDBRANCH  17  20
ENDBRANCH   1  12
BRANCH   2  22
ATOM     22  O   UNL     1      -8.786   6.306  33.072  1.00  0.00    -0.502 OA
ATOM     23  H   UNL     1      -9.369   6.571  32.288  1.00  0.00     0.293 HD
ENDBRANCH   2  22
BRANCH   6  24
ATOM     24  O   UNL     1      -6.343   1.656  33.955  1.00  0.00    -0.507 OA
ATOM     25  H   UNL     1      -5.756   2.451  33.752  1.00  0.00     0.293 HD
ENDBRANCH   6  24
BRANCH   8  26
ATOM     26  O   UNL     1      -9.662  -0.542  36.639  1.00  0.00    -0.508 OA
ATOM     27  H   UNL     1      -9.010  -1.267  36.914  1.00  0.00     0.293 HD
ENDBRANCH   8  26
TORSDOF 6
ENDMDL
MODEL 9
REMARK VINA RESULT:    -7.226      3.015      5.465
REMARK INTER + INTRA:          -8.867
REMARK INTER:                  -8.555
REMARK INTRA:                  -0.312
REMARK UNBOUND:                -0.162
REMARK SMILES O=c1c(O)c(-c2ccc(O)c(O)c2)oc2cc(O)cc(O)c12
REMARK SMILES IDX 5 1 3 2 2 3 1 4 22 5 20 6 19 7 17 8 16 9 15 10 14 11 6 12
REMARK SMILES IDX 7 13 8 14 9 15 13 16 11 17 10 18 12 20 4 22 21 24 18 26
REMARK H PARENT 10 19 12 21 4 23 21 25 18 27
REMARK Flexibility Score: inf
ROOT
ATOM      1  C   UNL     1     -10.519   4.914  35.054  1.00  0.00     0.180 A 
ATOM      2  C   UNL     1     -10.959   3.801  35.791  1.00  0.00     0.208 A 
ATOM      3  C   UNL     1     -10.253   2.592  35.685  1.00  0.00     0.238 A 
ATOM      4  O   UNL     1     -10.619   1.614  36.389  1.00  0.00    -0.285 OA
ATOM      5  C   UNL     1      -9.127   2.506  34.831  1.00  0.00     0.111 A 
ATOM      6  C   UNL     1      -8.362   1.320  34.616  1.00  0.00     0.134 A 
ATOM      7  C   UNL     1      -7.191   1.383  33.851  1.00  0.00     0.093 A 
ATOM      8  C   UNL     1      -6.794   2.575  33.240  1.00  0.00     0.123 A 
ATOM      9  C   UNL     1      -7.565   3.723  33.396  1.00  0.00     0.094 A 
ATOM     10  C   UNL     1      -8.720   3.700  34.182  1.00  0.00     0.146 A 
ATOM     11  O   UNL     1      -9.421   4.820  34.314  1.00  0.00    -0.452 OA
ENDROOT
BRANCH   1  12
ATOM     12  C   UNL     1     -11.225   6.215  35.095  1.00  0.00     0.025 A 
ATOM     13  C   UNL     1     -12.386   6.441  34.336  1.00  0.00     0.016 A 
ATOM     14  C   UNL     1     -13.022   7.685  34.372  1.00  0.00     0.051 A 
ATOM     15  C   UNL     1     -12.500   8.724  35.155  1.00  0.00     0.157 A 
ATOM     16  C   UNL     1     -10.695   7.266  35.862  1.00  0.00     0.062 A 
ATOM     17  C   UNL     1     -11.330   8.513  35.901  1.00  0.00     0.158 A 
BRANCH  15  18
ATOM     18  O   UNL     1     -13.138   9.963  35.190  1.00  0.00    -0.504 OA
ATOM     19  H   UNL     1     -12.844  10.728  34.593  1.00  0.00     0.293 HD
ENDBRANCH  15  18
BRANCH  17  20
ATOM     20  O   UNL     1     -10.782   9.528  36.684  1.00  0.00    -0.504 OA
ATOM     21  H   UNL     1      -9.931  10.010  36.421  1.00  0.00     0.293 HD
ENDBRANCH  17  20
ENDBRANCH   1  12
BRANCH   2  22
ATOM     22  O   UNL     1     -12.059   3.914  36.645  1.00  0.00    -0.502 OA
ATOM     23  H   UNL     1     -12.074   3.504  37.572  1.00  0.00     0.293 HD
ENDBRANCH   2  22
BRANCH   6  24
ATOM     24  O   UNL     1      -8.722   0.060  35.104  1.00  0.00    -0.507 OA
ATOM     25  H   UNL     1      -8.293  -0.809  34.825  1.00  0.00     0.293 HD
ENDBRANCH   6  24
BRANCH   8  26
ATOM     26  O   UNL     1      -5.635   2.625  32.468  1.00  0.00    -0.508 OA
ATOM     27  H   UNL     1      -5.246   1.794  32.039  1.00  0.00     0.293 HD
ENDBRANCH   8  26
TORSDOF 6
ENDMDL
