MODEL 1
REMARK VINA RESULT:    -7.956      0.000      0.000
REMARK INTER + INTRA:          -9.497
REMARK INTER:                  -9.584
REMARK INTRA:                   0.087
REMARK UNBOUND:                 0.087
REMARK SMILES O=c1c(O)c(-c2ccc(O)c(O)c2)oc2cc(O)cc(O)c12
REMARK SMILES IDX 5 1 3 2 2 3 1 4 22 5 20 6 19 7 17 8 16 9 15 10 14 11 6 12
REMARK SMILES IDX 7 13 8 14 9 15 13 16 11 17 10 18 12 20 4 22 21 24 18 26
REMARK H PARENT 10 19 12 21 4 23 21 25 18 27
REMARK Flexibility Score: inf
ROOT
ATOM      1  C   UNL     1      44.610  45.481  44.758  1.00  0.00     0.180 A 
ATOM      2  C   UNL     1      43.968  46.290  45.716  1.00  0.00     0.208 A 
ATOM      3  C   UNL     1      44.437  46.275  47.039  1.00  0.00     0.238 A 
ATOM      4  O   UNL     1      43.876  47.003  47.903  1.00  0.00    -0.285 OA
ATOM      5  C   UNL     1      45.519  45.442  47.385  1.00  0.00     0.111 A 
ATOM      6  C   UNL     1      46.049  45.366  48.697  1.00  0.00     0.134 A 
ATOM      7  C   UNL     1      47.123  44.504  48.964  1.00  0.00     0.093 A 
ATOM      8  C   UNL     1      47.677  43.719  47.947  1.00  0.00     0.123 A 
ATOM      9  C   UNL     1      47.158  43.790  46.653  1.00  0.00     0.094 A 
ATOM     10  C   UNL     1      46.088  44.644  46.366  1.00  0.00     0.146 A 
ATOM     11  O   UNL     1      45.619  44.697  45.125  1.00  0.00    -0.452 OA
ENDROOT
BRANCH   1  12
ATOM     12  C   UNL     1      44.187  45.456  43.338  1.00  0.00     0.025 A 
ATOM     13  C   UNL     1      45.125  45.504  42.295  1.00  0.00     0.016 A 
ATOM     14  C   UNL     1      44.703  45.455  40.965  1.00  0.00     0.051 A 
ATOM     15  C   UNL     1      43.344  45.344  40.650  1.00  0.00     0.157 A 
ATOM     16  C   UNL     1      42.826  45.323  43.025  1.00  0.00     0.062 A 
ATOM     17  C   UNL     1      42.393  45.272  41.695  1.00  0.00     0.158 A 
BRANCH  15  18
ATOM     18  O   UNL     1      42.989  45.303  39.301  1.00  0.00    -0.504 OA
ATOM     19  H   UNL     1      42.113  45.652  38.936  1.00  0.00     0.293 HD
ENDBRANCH  15  18
BRANCH  17  20
ATOM     20  O   UNL     1      41.022  45.151  41.459  1.00  0.00    -0.504 OA
ATOM     21  H   UNL     1      40.624  44.591  40.719  1.00  0.00     0.293 HD
ENDBRANCH  17  20
ENDBRANCH   1  12
BRANCH   2  22
ATOM     22  O   UNL     1      42.866  47.070  45.357  1.00  0.00    -0.502 OA
ATOM     23  H   UNL     1      42.021  46.669  44.967  1.00  0.00     0.293 HD
ENDBRANCH   2  22
BRANCH   6  24
ATOM     24  O   UNL     1      45.517  46.136  49.732  1.00  0.00    -0.507 OA
ATOM     25  H   UNL     1      46.001  46.949  50.093  1.00  0.00     0.293 HD
ENDBRANCH   6  24
BRANCH   8  26
ATOM     26  O   UNL     1      48.742  42.862  48.212  1.00  0.00    -0.508 OA
ATOM     27  H   UNL     1      49.633  43.211  48.548  1.00  0.00     0.293 HD
ENDBRANCH   8  26
TORSDOF 6
ENDMDL
MODEL 2
REMARK VINA RESULT:    -7.783      2.337      6.829
REMARK INTER + INTRA:          -9.289
REMARK INTER:                  -9.159
REMARK INTRA:                  -0.130
REMARK UNBOUND:                 0.087
REMARK SMILES O=c1c(O)c(-c2ccc(O)c(O)c2)oc2cc(O)cc(O)c12
REMARK SMILES IDX 5 1 3 2 2 3 1 4 22 5 20 6 19 7 17 8 16 9 15 10 14 11 6 12
REMARK SMILES IDX 7 13 8 14 9 15 13 16 11 17 10 18 12 20 4 22 21 24 18 26
REMARK H PARENT 10 19 12 21 4 23 21 25 18 27
REMARK Flexibility Score: inf
ROOT
ATOM      1  C   UNL     1      47.166  43.334  46.890  1.00  0.00     0.180 A 
ATOM      2  C   UNL     1      46.920  44.133  48.024  1.00  0.00     0.208 A 
ATOM      3  C   UNL     1      46.006  45.193  47.920  1.00  0.00     0.238 A 
ATOM      4  O   UNL     1      45.770  45.910  48.932  1.00  0.00    -0.285 OA
ATOM      5  C   UNL     1      45.371  45.448  46.688  1.00  0.00     0.111 A 
ATOM      6  C   UNL     1      44.441  46.500  46.499  1.00  0.00     0.134 A 
ATOM      7  C   UNL     1      43.859  46.695  45.238  1.00  0.00     0.093 A 
ATOM      8  C   UNL     1      44.188  45.861  44.164  1.00  0.00     0.123 A 
ATOM      9  C   UNL     1      45.105  44.824  44.345  1.00  0.00     0.094 A 
ATOM     10  C   UNL     1      45.695  44.611  45.595  1.00  0.00     0.146 A 
ATOM     11  O   UNL     1      46.559  43.614  45.741  1.00  0.00    -0.452 OA
ENDROOT
BRANCH   1  12
ATOM     12  C   UNL     1      48.101  42.186  46.924  1.00  0.00     0.025 A 
ATOM     13  C   UNL     1      47.666  40.880  46.649  1.00  0.00     0.016 A 
ATOM     14  C   UNL     1      48.572  39.818  46.664  1.00  0.00     0.051 A 
ATOM     15  C   UNL     1      49.927  40.037  46.940  1.00  0.00     0.157 A 
ATOM     16  C   UNL     1      49.462  42.411  47.180  1.00  0.00     0.062 A 
ATOM     17  C   UNL     1      50.378  41.352  47.197  1.00  0.00     0.158 A 
BRANCH  15  18
ATOM     18  O   UNL     1      50.778  38.931  46.943  1.00  0.00    -0.504 OA
ATOM     19  H   UNL     1      51.779  38.988  46.814  1.00  0.00     0.293 HD
ENDBRANCH  15  18
BRANCH  17  20
ATOM     20  O   UNL     1      51.714  41.650  47.470  1.00  0.00    -0.504 OA
ATOM     21  H   UNL     1      52.255  41.205  48.197  1.00  0.00     0.293 HD
ENDBRANCH  17  20
ENDBRANCH   1  12
BRANCH   2  22
ATOM     22  O   UNL     1      47.599  43.890  49.220  1.00  0.00    -0.502 OA
ATOM     23  H   UNL     1      48.609  43.820  49.267  1.00  0.00     0.293 HD
ENDBRANCH   2  22
BRANCH   6  24
ATOM     24  O   UNL     1      44.093  47.348  47.551  1.00  0.00    -0.507 OA
ATOM     25  H   UNL     1      43.329  47.131  48.180  1.00  0.00     0.293 HD
ENDBRANCH   6  24
BRANCH   8  26
ATOM     26  O   UNL     1      43.611  46.055  42.912  1.00  0.00    -0.508 OA
ATOM     27  H   UNL     1      42.611  45.966  42.768  1.00  0.00     0.293 HD
ENDBRANCH   8  26
TORSDOF 6
ENDMDL
MODEL 3
REMARK VINA RESULT:    -7.688      3.948      6.563
REMARK INTER + INTRA:          -9.174
REMARK INTER:                  -8.854
REMARK INTRA:                  -0.320
REMARK UNBOUND:                 0.087
REMARK SMILES O=c1c(O)c(-c2ccc(O)c(O)c2)oc2cc(O)cc(O)c12
REMARK SMILES IDX 5 1 3 2 2 3 1 4 22 5 20 6 19 7 17 8 16 9 15 10 14 11 6 12
REMARK SMILES IDX 7 13 8 14 9 15 13 16 11 17 10 18 12 20 4 22 21 24 18 26
REMARK H PARENT 10 19 12 21 4 23 21 25 18 27
REMARK Flexibility Score: inf
ROOT
ATOM      1  C   UNL     1      47.766  43.164  47.271  1.00  0.00     0.180 A 
ATOM      2  C   UNL     1      47.338  41.929  46.746  1.00  0.00     0.208 A 
ATOM      3  C   UNL     1      48.278  40.900  46.582  1.00  0.00     0.238 A 
ATOM      4  O   UNL     1      47.905  39.786  46.122  1.00  0.00    -0.285 OA
ATOM      5  C   UNL     1      49.626  41.127  46.924  1.00  0.00     0.111 A 
ATOM      6  C   UNL     1      50.637  40.143  46.785  1.00  0.00     0.134 A 
ATOM      7  C   UNL     1      51.959  40.450  47.139  1.00  0.00     0.093 A 
ATOM      8  C   UNL     1      52.290  41.719  47.628  1.00  0.00     0.123 A 
ATOM      9  C   UNL     1      51.298  42.691  47.766  1.00  0.00     0.094 A 
ATOM     10  C   UNL     1      49.973  42.404  47.421  1.00  0.00     0.146 A 
ATOM     11  O   UNL     1      49.049  43.346  47.568  1.00  0.00    -0.452 OA
ENDROOT
BRANCH   1  12
ATOM     12  C   UNL     1      46.831  44.292  47.491  1.00  0.00     0.025 A 
ATOM     13  C   UNL     1      46.625  45.273  46.508  1.00  0.00     0.016 A 
ATOM     14  C   UNL     1      45.721  46.313  46.730  1.00  0.00     0.051 A 
ATOM     15  C   UNL     1      44.997  46.389  47.925  1.00  0.00     0.157 A 
ATOM     16  C   UNL     1      46.091  44.354  48.681  1.00  0.00     0.062 A 
ATOM     17  C   UNL     1      45.182  45.393  48.913  1.00  0.00     0.158 A 
BRANCH  15  18
ATOM     18  O   UNL     1      44.113  47.457  48.085  1.00  0.00    -0.504 OA
ATOM     19  H   UNL     1      43.114  47.388  47.953  1.00  0.00     0.293 HD
ENDBRANCH  15  18
BRANCH  17  20
ATOM     20  O   UNL     1      44.490  45.397  50.125  1.00  0.00    -0.504 OA
ATOM     21  H   UNL     1      44.015  46.204  50.502  1.00  0.00     0.293 HD
ENDBRANCH  17  20
ENDBRANCH   1  12
BRANCH   2  22
ATOM     22  O   UNL     1      46.006  41.746  46.369  1.00  0.00    -0.502 OA
ATOM     23  H   UNL     1      45.447  42.490  45.968  1.00  0.00     0.293 HD
ENDBRANCH   2  22
BRANCH   6  24
ATOM     24  O   UNL     1      50.338  38.870  46.299  1.00  0.00    -0.507 OA
ATOM     25  H   UNL     1      51.016  38.118  46.322  1.00  0.00     0.293 HD
ENDBRANCH   6  24
BRANCH   8  26
ATOM     26  O   UNL     1      53.603  42.024  47.978  1.00  0.00    -0.508 OA
ATOM     27  H   UNL     1      54.387  41.730  47.406  1.00  0.00     0.293 HD
ENDBRANCH   8  26
TORSDOF 6
ENDMDL
MODEL 4
REMARK VINA RESULT:    -7.633     11.399     11.967
REMARK INTER + INTRA:          -9.108
REMARK INTER:                  -8.886
REMARK INTRA:                  -0.222
REMARK UNBOUND:                 0.087
REMARK SMILES O=c1c(O)c(-c2ccc(O)c(O)c2)oc2cc(O)cc(O)c12
REMARK SMILES IDX 5 1 3 2 2 3 1 4 22 5 20 6 19 7 17 8 16 9 15 10 14 11 6 12
REMARK SMILES IDX 7 13 8 14 9 15 13 16 11 17 10 18 12 20 4 22 21 24 18 26
REMARK H PARENT 10 19 12 21 4 23 21 25 18 27
REMARK Flexibility Score: inf
ROOT
ATOM      1  C   UNL     1      49.883  45.772  34.895  1.00  0.00     0.180 A 
ATOM      2  C   UNL     1      49.396  47.092  34.968  1.00  0.00     0.208 A 
ATOM      3  C   UNL     1      50.229  48.094  35.488  1.00  0.00     0.238 A 
ATOM      4  O   UNL     1      49.807  49.282  35.549  1.00  0.00    -0.285 OA
ATOM      5  C   UNL     1      51.520  47.761  35.944  1.00  0.00     0.111 A 
ATOM      6  C   UNL     1      52.420  48.711  36.486  1.00  0.00     0.134 A 
ATOM      7  C   UNL     1      53.686  48.298  36.926  1.00  0.00     0.093 A 
ATOM      8  C   UNL     1      54.069  46.955  36.836  1.00  0.00     0.123 A 
ATOM      9  C   UNL     1      53.185  46.015  36.303  1.00  0.00     0.094 A 
ATOM     10  C   UNL     1      51.919  46.407  35.856  1.00  0.00     0.146 A 
ATOM     11  O   UNL     1      51.101  45.493  35.348  1.00  0.00    -0.452 OA
ENDROOT
BRANCH   1  12
ATOM     12  C   UNL     1      49.073  44.663  34.342  1.00  0.00     0.025 A 
ATOM     13  C   UNL     1      48.529  43.669  35.172  1.00  0.00     0.016 A 
ATOM     14  C   UNL     1      47.749  42.647  34.630  1.00  0.00     0.051 A 
ATOM     15  C   UNL     1      47.483  42.602  33.257  1.00  0.00     0.157 A 
ATOM     16  C   UNL     1      48.790  44.632  32.968  1.00  0.00     0.062 A 
ATOM     17  C   UNL     1      48.008  43.610  32.415  1.00  0.00     0.158 A 
BRANCH  15  18
ATOM     18  O   UNL     1      46.699  41.551  32.779  1.00  0.00    -0.504 OA
ATOM     19  H   UNL     1      45.691  41.523  32.844  1.00  0.00     0.293 HD
ENDBRANCH  15  18
BRANCH  17  20
ATOM     20  O   UNL     1      47.778  43.637  31.038  1.00  0.00    -0.504 OA
ATOM     21  H   UNL     1      48.357  43.164  30.360  1.00  0.00     0.293 HD
ENDBRANCH  17  20
ENDBRANCH   1  12
BRANCH   2  22
ATOM     22  O   UNL     1      48.094  47.387  34.556  1.00  0.00    -0.502 OA
ATOM     23  H   UNL     1      47.658  46.929  33.764  1.00  0.00     0.293 HD
ENDBRANCH   2  22
BRANCH   6  24
ATOM     24  O   UNL     1      52.066  50.057  36.590  1.00  0.00    -0.507 OA
ATOM     25  H   UNL     1      51.474  50.507  35.902  1.00  0.00     0.293 HD
ENDBRANCH   6  24
BRANCH   8  26
ATOM     26  O   UNL     1      55.325  46.544  37.274  1.00  0.00    -0.508 OA
ATOM     27  H   UNL     1      56.054  46.277  36.622  1.00  0.00     0.293 HD
ENDBRANCH   8  26
TORSDOF 6
ENDMDL
MODEL 5
REMARK VINA RESULT:    -7.453      3.756      6.797
REMARK INTER + INTRA:          -8.891
REMARK INTER:                  -8.580
REMARK INTRA:                  -0.311
REMARK UNBOUND:                 0.087
REMARK SMILES O=c1c(O)c(-c2ccc(O)c(O)c2)oc2cc(O)cc(O)c12
REMARK SMILES IDX 5 1 3 2 2 3 1 4 22 5 20 6 19 7 17 8 16 9 15 10 14 11 6 12
REMARK SMILES IDX 7 13 8 14 9 15 13 16 11 17 10 18 12 20 4 22 21 24 18 26
REMARK H PARENT 10 19 12 21 4 23 21 25 18 27
REMARK Flexibility Score: inf
ROOT
ATOM      1  C   UNL     1      47.980  43.218  46.850  1.00  0.00     0.180 A 
ATOM      2  C   UNL     1      47.973  41.858  46.482  1.00  0.00     0.208 A 
ATOM      3  C   UNL     1      49.111  41.318  45.862  1.00  0.00     0.238 A 
ATOM      4  O   UNL     1      49.120  40.099  45.537  1.00  0.00    -0.285 OA
ATOM      5  C   UNL     1      50.223  42.145  45.604  1.00  0.00     0.111 A 
ATOM      6  C   UNL     1      51.406  41.679  44.980  1.00  0.00     0.134 A 
ATOM      7  C   UNL     1      52.466  42.567  44.749  1.00  0.00     0.093 A 
ATOM      8  C   UNL     1      52.367  43.910  45.129  1.00  0.00     0.123 A 
ATOM      9  C   UNL     1      51.203  44.374  45.744  1.00  0.00     0.094 A 
ATOM     10  C   UNL     1      50.135  43.504  45.985  1.00  0.00     0.146 A 
ATOM     11  O   UNL     1      49.042  43.970  46.577  1.00  0.00    -0.452 OA
ENDROOT
BRANCH   1  12
ATOM     12  C   UNL     1      46.826  43.857  47.524  1.00  0.00     0.025 A 
ATOM     13  C   UNL     1      46.608  43.703  48.903  1.00  0.00     0.016 A 
ATOM     14  C   UNL     1      45.527  44.335  49.519  1.00  0.00     0.051 A 
ATOM     15  C   UNL     1      44.652  45.139  48.781  1.00  0.00     0.157 A 
ATOM     16  C   UNL     1      45.964  44.680  46.785  1.00  0.00     0.062 A 
ATOM     17  C   UNL     1      44.876  45.317  47.395  1.00  0.00     0.158 A 
BRANCH  15  18
ATOM     18  O   UNL     1      43.589  45.739  49.457  1.00  0.00    -0.504 OA
ATOM     19  H   UNL     1      43.663  46.144  50.380  1.00  0.00     0.293 HD
ENDBRANCH  15  18
BRANCH  17  20
ATOM     20  O   UNL     1      44.053  46.112  46.595  1.00  0.00    -0.504 OA
ATOM     21  H   UNL     1      43.913  45.963  45.606  1.00  0.00     0.293 HD
ENDBRANCH  17  20
ENDBRANCH   1  12
BRANCH   2  22
ATOM     22  O   UNL     1      46.840  41.072  46.704  1.00  0.00    -0.502 OA
ATOM     23  H   UNL     1      46.688  40.571  47.572  1.00  0.00     0.293 HD
ENDBRANCH   2  22
BRANCH   6  24
ATOM     24  O   UNL     1      51.535  40.345  44.589  1.00  0.00    -0.507 OA
ATOM     25  H   UNL     1      52.043  39.672  45.150  1.00  0.00     0.293 HD
ENDBRANCH   6  24
BRANCH   8  26
ATOM     26  O   UNL     1      53.419  44.793  44.899  1.00  0.00    -0.508 OA
ATOM     27  H   UNL     1      53.632  45.545  45.544  1.00  0.00     0.293 HD
ENDBRANCH   8  26
TORSDOF 6
ENDMDL
MODEL 6
REMARK VINA RESULT:    -7.404     10.734     12.087
REMARK INTER + INTRA:          -8.832
REMARK INTER:                  -8.553
REMARK INTRA:                  -0.279
REMARK UNBOUND:                 0.087
REMARK SMILES O=c1c(O)c(-c2ccc(O)c(O)c2)oc2cc(O)cc(O)c12
REMARK SMILES IDX 5 1 3 2 2 3 1 4 22 5 20 6 19 7 17 8 16 9 15 10 14 11 6 12
REMARK SMILES IDX 7 13 8 14 9 15 13 16 11 17 10 18 12 20 4 22 21 24 18 26
REMARK H PARENT 10 19 12 21 4 23 21 25 18 27
REMARK Flexibility Score: inf
ROOT
ATOM      1  C   UNL     1      50.017  45.954  35.145  1.00  0.00     0.180 A 
ATOM      2  C   UNL     1      51.129  45.680  35.965  1.00  0.00     0.208 A 
ATOM      3  C   UNL     1      51.896  46.752  36.448  1.00  0.00     0.238 A 
ATOM      4  O   UNL     1      52.888  46.520  37.191  1.00  0.00    -0.285 OA
ATOM      5  C   UNL     1      51.552  48.071  36.090  1.00  0.00     0.111 A 
ATOM      6  C   UNL     1      52.276  49.207  36.531  1.00  0.00     0.134 A 
ATOM      7  C   UNL     1      51.876  50.487  36.122  1.00  0.00     0.093 A 
ATOM      8  C   UNL     1      50.769  50.655  35.282  1.00  0.00     0.123 A 
ATOM      9  C   UNL     1      50.054  49.539  34.845  1.00  0.00     0.094 A 
ATOM     10  C   UNL     1      50.435  48.254  35.243  1.00  0.00     0.146 A 
ATOM     11  O   UNL     1      49.733  47.211  34.816  1.00  0.00    -0.452 OA
ENDROOT
BRANCH   1  12
ATOM     12  C   UNL     1      49.148  44.879  34.612  1.00  0.00     0.025 A 
ATOM     13  C   UNL     1      49.278  44.423  33.291  1.00  0.00     0.016 A 
ATOM     14  C   UNL     1      48.464  43.392  32.818  1.00  0.00     0.051 A 
ATOM     15  C   UNL     1      47.517  42.789  33.653  1.00  0.00     0.157 A 
ATOM     16  C   UNL     1      48.215  44.262  35.458  1.00  0.00     0.062 A 
ATOM     17  C   UNL     1      47.394  43.227  34.993  1.00  0.00     0.158 A 
BRANCH  15  18
ATOM     18  O   UNL     1      46.732  41.766  33.118  1.00  0.00    -0.504 OA
ATOM     19  H   UNL     1      46.612  40.861  33.549  1.00  0.00     0.293 HD
ENDBRANCH  15  18
BRANCH  17  20
ATOM     20  O   UNL     1      46.479  42.668  35.887  1.00  0.00    -0.504 OA
ATOM     21  H   UNL     1      46.339  42.997  36.831  1.00  0.00     0.293 HD
ENDBRANCH  17  20
ENDBRANCH   1  12
BRANCH   2  22
ATOM     22  O   UNL     1      51.477  44.361  36.265  1.00  0.00    -0.502 OA
ATOM     23  H   UNL     1      51.013  43.567  35.840  1.00  0.00     0.293 HD
ENDBRANCH   2  22
BRANCH   6  24
ATOM     24  O   UNL     1      53.384  49.072  37.368  1.00  0.00    -0.507 OA
ATOM     25  H   UNL     1      54.211  48.562  37.079  1.00  0.00     0.293 HD
ENDBRANCH   6  24
BRANCH   8  26
ATOM     26  O   UNL     1      50.373  51.926  34.876  1.00  0.00    -0.508 OA
ATOM     27  H   UNL     1      50.985  52.729  34.971  1.00  0.00     0.293 HD
ENDBRANCH   8  26
TORSDOF 6
ENDMDL
MODEL 7
REMARK VINA RESULT:    -7.348      9.529     10.233
REMARK INTER + INTRA:          -8.765
REMARK INTER:                  -8.432
REMARK INTRA:                  -0.333
REMARK UNBOUND:                 0.087
REMARK SMILES O=c1c(O)c(-c2ccc(O)c(O)c2)oc2cc(O)cc(O)c12
REMARK SMILES IDX 5 1 3 2 2 3 1 4 22 5 20 6 19 7 17 8 16 9 15 10 14 11 6 12
REMARK SMILES IDX 7 13 8 14 9 15 13 16 11 17 10 18 12 20 4 22 21 24 18 26
REMARK H PARENT 10 19 12 21 4 23 21 25 18 27
REMARK Flexibility Score: inf
ROOT
ATOM      1  C   UNL     1      49.497  45.323  36.012  1.00  0.00     0.180 A 
ATOM      2  C   UNL     1      49.044  46.593  36.418  1.00  0.00     0.208 A 
ATOM      3  C   UNL     1      49.748  47.275  37.422  1.00  0.00     0.238 A 
ATOM      4  O   UNL     1      49.358  48.418  37.786  1.00  0.00    -0.285 OA
ATOM      5  C   UNL     1      50.876  46.672  38.014  1.00  0.00     0.111 A 
ATOM      6  C   UNL     1      51.639  47.291  39.035  1.00  0.00     0.134 A 
ATOM      7  C   UNL     1      52.743  46.621  39.581  1.00  0.00     0.093 A 
ATOM      8  C   UNL     1      53.099  45.346  39.127  1.00  0.00     0.123 A 
ATOM      9  C   UNL     1      52.351  44.732  38.121  1.00  0.00     0.094 A 
ATOM     10  C   UNL     1      51.247  45.384  37.563  1.00  0.00     0.146 A 
ATOM     11  O   UNL     1      50.556  44.780  36.604  1.00  0.00    -0.452 OA
ENDROOT
BRANCH   1  12
ATOM     12  C   UNL     1      48.819  44.549  34.947  1.00  0.00     0.025 A 
ATOM     13  C   UNL     1      49.192  44.677  33.599  1.00  0.00     0.016 A 
ATOM     14  C   UNL     1      48.554  43.919  32.616  1.00  0.00     0.051 A 
ATOM     15  C   UNL     1      47.544  43.012  32.955  1.00  0.00     0.157 A 
ATOM     16  C   UNL     1      47.822  43.624  35.292  1.00  0.00     0.062 A 
ATOM     17  C   UNL     1      47.176  42.859  34.313  1.00  0.00     0.158 A 
BRANCH  15  18
ATOM     18  O   UNL     1      46.944  42.288  31.924  1.00  0.00    -0.504 OA
ATOM     19  H   UNL     1      46.382  42.703  31.195  1.00  0.00     0.293 HD
ENDBRANCH  15  18
BRANCH  17  20
ATOM     20  O   UNL     1      46.186  41.968  34.729  1.00  0.00    -0.504 OA
ATOM     21  H   UNL     1      46.141  41.565  35.654  1.00  0.00     0.293 HD
ENDBRANCH  17  20
ENDBRANCH   1  12
BRANCH   2  22
ATOM     22  O   UNL     1      47.894  47.148  35.849  1.00  0.00    -0.502 OA
ATOM     23  H   UNL     1      47.923  47.967  35.254  1.00  0.00     0.293 HD
ENDBRANCH   2  22
BRANCH   6  24
ATOM     24  O   UNL     1      51.308  48.562  39.509  1.00  0.00    -0.507 OA
ATOM     25  H   UNL     1      50.646  49.155  39.023  1.00  0.00     0.293 HD
ENDBRANCH   6  24
BRANCH   8  26
ATOM     26  O   UNL     1      54.195  44.680  39.669  1.00  0.00    -0.508 OA
ATOM     27  H   UNL     1      54.103  44.079  40.481  1.00  0.00     0.293 HD
ENDBRANCH   8  26
TORSDOF 6
ENDMDL
MODEL 8
REMARK VINA RESULT:    -7.346      2.294      6.760
REMARK INTER + INTRA:          -8.762
REMARK INTER:                  -8.514
REMARK INTRA:                  -0.248
REMARK UNBOUND:                 0.087
REMARK SMILES O=c1c(O)c(-c2ccc(O)c(O)c2)oc2cc(O)cc(O)c12
REMARK SMILES IDX 5 1 3 2 2 3 1 4 22 5 20 6 19 7 17 8 16 9 15 10 14 11 6 12
REMARK SMILES IDX 7 13 8 14 9 15 13 16 11 17 10 18 12 20 4 22 21 24 18 26
REMARK H PARENT 10 19 12 21 4 23 21 25 18 27
REMARK Flexibility Score: inf
ROOT
ATOM      1  C   UNL     1      47.670  43.958  46.987  1.00  0.00     0.180 A 
ATOM      2  C   UNL     1      47.149  44.293  48.252  1.00  0.00     0.208 A 
ATOM      3  C   UNL     1      45.911  44.951  48.322  1.00  0.00     0.238 A 
ATOM      4  O   UNL     1      45.429  45.247  49.450  1.00  0.00    -0.285 OA
ATOM      5  C   UNL     1      45.228  45.279  47.134  1.00  0.00     0.111 A 
ATOM      6  C   UNL     1      43.978  45.946  47.118  1.00  0.00     0.134 A 
ATOM      7  C   UNL     1      43.365  46.246  45.892  1.00  0.00     0.093 A 
ATOM      8  C   UNL     1      43.978  45.893  44.684  1.00  0.00     0.123 A 
ATOM      9  C   UNL     1      45.209  45.237  44.695  1.00  0.00     0.094 A 
ATOM     10  C   UNL     1      45.836  44.927  45.906  1.00  0.00     0.146 A 
ATOM     11  O   UNL     1      47.004  44.297  45.887  1.00  0.00    -0.452 OA
ENDROOT
BRANCH   1  12
ATOM     12  C   UNL     1      48.960  43.247  46.830  1.00  0.00     0.025 A 
ATOM     13  C   UNL     1      50.118  43.919  46.404  1.00  0.00     0.016 A 
ATOM     14  C   UNL     1      51.327  43.232  46.288  1.00  0.00     0.051 A 
ATOM     15  C   UNL     1      51.411  41.872  46.604  1.00  0.00     0.157 A 
ATOM     16  C   UNL     1      49.046  41.889  47.169  1.00  0.00     0.062 A 
ATOM     17  C   UNL     1      50.256  41.192  47.055  1.00  0.00     0.158 A 
BRANCH  15  18
ATOM     18  O   UNL     1      52.650  41.244  46.461  1.00  0.00    -0.504 OA
ATOM     19  H   UNL     1      53.349  41.202  47.189  1.00  0.00     0.293 HD
ENDBRANCH  15  18
BRANCH  17  20
ATOM     20  O   UNL     1      50.264  39.839  47.398  1.00  0.00    -0.504 OA
ATOM     21  H   UNL     1      50.207  39.086  46.728  1.00  0.00     0.293 HD
ENDBRANCH  17  20
ENDBRANCH   1  12
BRANCH   2  22
ATOM     22  O   UNL     1      47.869  44.001  49.412  1.00  0.00    -0.502 OA
ATOM     23  H   UNL     1      47.822  44.580  50.242  1.00  0.00     0.293 HD
ENDBRANCH   2  22
BRANCH   6  24
ATOM     24  O   UNL     1      43.343  46.310  48.306  1.00  0.00    -0.507 OA
ATOM     25  H   UNL     1      43.466  47.229  48.716  1.00  0.00     0.293 HD
ENDBRANCH   6  24
BRANCH   8  26
ATOM     26  O   UNL     1      43.370  46.192  43.467  1.00  0.00    -0.508 OA
ATOM     27  H   UNL     1      42.761  46.996  43.361  1.00  0.00     0.293 HD
ENDBRANCH   8  26
TORSDOF 6
ENDMDL
MODEL 9
REMARK VINA RESULT:    -7.183      1.337      2.749
REMARK INTER + INTRA:          -8.566
REMARK INTER:                  -8.284
REMARK INTRA:                  -0.281
REMARK UNBOUND:                 0.087
REMARK SMILES O=c1c(O)c(-c2ccc(O)c(O)c2)oc2cc(O)cc(O)c12
REMARK SMILES IDX 5 1 3 2 2 3 1 4 22 5 20 6 19 7 17 8 16 9 15 10 14 11 6 12
REMARK SMILES IDX 7 13 8 14 9 15 13 16 11 17 10 18 12 20 4 22 21 24 18 26
REMARK H PARENT 10 19 12 21 4 23 21 25 18 27
REMARK Flexibility Score: inf
ROOT
ATOM      1  C   UNL     1      45.041  45.119  44.584  1.00  0.00     0.180 A 
ATOM      2  C   UNL     1      45.618  43.918  45.040  1.00  0.00     0.208 A 
ATOM      3  C   UNL     1      46.147  43.871  46.340  1.00  0.00     0.238 A 
ATOM      4  O   UNL     1      46.657  42.798  46.763  1.00  0.00    -0.285 OA
ATOM      5  C   UNL     1      46.110  45.024  47.149  1.00  0.00     0.111 A 
ATOM      6  C   UNL     1      46.626  45.061  48.468  1.00  0.00     0.134 A 
ATOM      7  C   UNL     1      46.559  46.251  49.207  1.00  0.00     0.093 A 
ATOM      8  C   UNL     1      45.989  47.403  48.654  1.00  0.00     0.123 A 
ATOM      9  C   UNL     1      45.480  47.371  47.355  1.00  0.00     0.094 A 
ATOM     10  C   UNL     1      45.535  46.194  46.602  1.00  0.00     0.146 A 
ATOM     11  O   UNL     1      45.038  46.191  45.371  1.00  0.00    -0.452 OA
ENDROOT
BRANCH   1  12
ATOM     12  C   UNL     1      44.445  45.243  43.233  1.00  0.00     0.025 A 
ATOM     13  C   UNL     1      45.248  45.381  42.090  1.00  0.00     0.016 A 
ATOM     14  C   UNL     1      44.664  45.472  40.826  1.00  0.00     0.051 A 
ATOM     15  C   UNL     1      43.274  45.413  40.674  1.00  0.00     0.157 A 
ATOM     16  C   UNL     1      43.053  45.161  43.082  1.00  0.00     0.062 A 
ATOM     17  C   UNL     1      42.458  45.251  41.818  1.00  0.00     0.158 A 
BRANCH  15  18
ATOM     18  O   UNL     1      42.754  45.514  39.383  1.00  0.00    -0.504 OA
ATOM     19  H   UNL     1      41.767  45.567  39.173  1.00  0.00     0.293 HD
ENDBRANCH  15  18
BRANCH  17  20
ATOM     20  O   UNL     1      41.066  45.174  41.745  1.00  0.00    -0.504 OA
ATOM     21  H   UNL     1      40.439  45.747  42.292  1.00  0.00     0.293 HD
ENDBRANCH  17  20
ENDBRANCH   1  12
BRANCH   2  22
ATOM     22  O   UNL     1      45.686  42.804  44.201  1.00  0.00    -0.502 OA
ATOM     23  H   UNL     1      45.111  42.712  43.371  1.00  0.00     0.293 HD
ENDBRANCH   2  22
BRANCH   6  24
ATOM     24  O   UNL     1      47.201  43.929  49.046  1.00  0.00    -0.507 OA
ATOM     25  H   UNL     1      46.829  43.516  49.894  1.00  0.00     0.293 HD
ENDBRANCH   6  24
BRANCH   8  26
ATOM     26  O   UNL     1      45.924  48.585  49.387  1.00  0.00    -0.508 OA
ATOM     27  H   UNL     1      45.209  49.282  49.209  1.00  0.00     0.293 HD
ENDBRANCH   8  26
TORSDOF 6
ENDMDL
