MODEL 1
REMARK VINA RESULT:    -2.137      0.000      0.000
REMARK INTER + INTRA:          -3.310
REMARK INTER:                  -3.510
REMARK INTRA:                   0.201
REMARK UNBOUND:                 0.201
REMARK SMILES C[C@@H]1O[C@@H](OC[C@H]2O[C@@H](Oc3c(-c4ccc(O)c(O)c4)oc4cc(O)cc(O)c4c3=O)[C@@H](O)[C@H](O)[C@@H]2O)[C@@H](O)[C@H](O)[C@@H]1O
REMARK SMILES IDX 7 1 36 2 34 3 32 4 9 5 8 6 6 7 5 8 4 9 1 10 2 11 42 12 3 13
REMARK SMILES IDX 40 14 38 15 43 16 41 18 39 20 37 22 35 24 10 26 11 27 12 28
REMARK SMILES IDX 30 29 21 30 29 31 31 32 22 33 27 34 23 35 26 36 24 37 13 38
REMARK SMILES IDX 20 39 14 40 18 41 15 42 16 43 19 44 17 46 28 48 25 50 33 52
REMARK H PARENT 43 17 41 19 39 21 37 23 35 25 19 45 17 47 28 49 25 51 33 53
REMARK Flexibility Score: inf
ROOT
ATOM      1  C   UNL     1      64.020  43.125   6.768  1.00  0.00     0.180 C 
ATOM      2  C   UNL     1      64.296  42.674   5.309  1.00  0.00     0.177 C 
ATOM      3  C   UNL     1      64.224  41.151   5.192  1.00  0.00     0.180 C 
ATOM      4  C   UNL     1      65.186  40.533   6.222  1.00  0.00     0.214 C 
ATOM      5  C   UNL     1      64.840  41.030   7.636  1.00  0.00     0.339 C 
ATOM      6  O   UNL     1      64.821  42.454   7.743  1.00  0.00    -0.332 OA
ENDROOT
BRANCH   1   7
ATOM      7  C   UNL     1      62.523  43.120   7.133  1.00  0.00     0.198 C 
BRANCH   7   8
ATOM      8  O   UNL     1      61.862  42.161   6.338  1.00  0.00    -0.347 OA
BRANCH   8   9
ATOM      9  C   UNL     1      60.479  42.431   6.147  1.00  0.00     0.281 C 
ATOM     10  C   UNL     1      58.123  41.193   8.750  1.00  0.00     0.041 C 
ATOM     11  C   UNL     1      58.966  41.102   7.473  1.00  0.00     0.150 C 
ATOM     12  C   UNL     1      58.067  40.818   6.258  1.00  0.00     0.174 C 
ATOM     13  O   UNL     1      59.711  42.306   7.345  1.00  0.00    -0.344 OA
ATOM     14  C   UNL     1      58.954  40.645   5.021  1.00  0.00     0.179 C 
ATOM     15  C   UNL     1      59.864  41.873   4.820  1.00  0.00     0.202 C 
BRANCH  12  16
ATOM     16  O   UNL     1      57.087  41.815   6.075  1.00  0.00    -0.388 OA
ATOM     17  H   UNL     1      56.215  41.376   5.892  1.00  0.00     0.211 HD
ENDBRANCH  12  16
BRANCH  14  18
ATOM     18  O   UNL     1      58.174  40.395   3.879  1.00  0.00    -0.387 OA
ATOM     19  H   UNL     1      57.498  39.698   4.104  1.00  0.00     0.211 HD
ENDBRANCH  14  18
BRANCH  15  20
ATOM     20  O   UNL     1      60.885  41.572   3.899  1.00  0.00    -0.385 OA
ATOM     21  H   UNL     1      61.646  42.178   4.104  1.00  0.00     0.211 HD
ENDBRANCH  15  20
ENDBRANCH   8   9
ENDBRANCH   7   8
ENDBRANCH   1   7
BRANCH   2  22
ATOM     22  O   UNL     1      65.569  43.122   4.911  1.00  0.00    -0.387 OA
ATOM     23  H   UNL     1      65.629  42.972   3.927  1.00  0.00     0.211 HD
ENDBRANCH   2  22
BRANCH   3  24
ATOM     24  O   UNL     1      64.573  40.758   3.893  1.00  0.00    -0.387 OA
ATOM     25  H   UNL     1      63.750  40.861   3.339  1.00  0.00     0.211 HD
ENDBRANCH   3  24
BRANCH   5  26
ATOM     26  O   UNL     1      63.601  40.462   8.061  1.00  0.00    -0.454 OA
BRANCH  26  27
ATOM     27  C   UNL     1      63.159  40.397   9.390  1.00  0.00     0.214 A 
ATOM     28  C   UNL     1      62.037  39.605   9.702  1.00  0.00     0.180 A 
ATOM     29  C   UNL     1      63.816  41.079  10.428  1.00  0.00     0.239 A 
ATOM     30  O   UNL     1      61.665  39.452  10.971  1.00  0.00    -0.452 OA
ATOM     31  C   UNL     1      63.384  40.899  11.761  1.00  0.00     0.111 A 
ATOM     32  O   UNL     1      64.770  41.857  10.159  1.00  0.00    -0.285 OA
ATOM     33  C   UNL     1      62.280  40.044  11.987  1.00  0.00     0.146 A 
ATOM     34  C   UNL     1      64.000  41.532  12.870  1.00  0.00     0.134 A 
ATOM     35  C   UNL     1      61.816  39.817  13.287  1.00  0.00     0.094 A 
ATOM     36  C   UNL     1      63.522  41.286  14.166  1.00  0.00     0.093 A 
ATOM     37  C   UNL     1      62.437  40.432  14.377  1.00  0.00     0.123 A 
BRANCH  28  38
ATOM     38  C   UNL     1      61.277  38.889   8.654  1.00  0.00     0.025 A 
ATOM     39  C   UNL     1      61.604  39.029   7.294  1.00  0.00     0.062 A 
ATOM     40  C   UNL     1      60.206  38.057   9.016  1.00  0.00     0.016 A 
ATOM     41  C   UNL     1      60.901  38.319   6.312  1.00  0.00     0.158 A 
ATOM     42  C   UNL     1      59.500  37.349   8.036  1.00  0.00     0.051 A 
ATOM     43  C   UNL     1      59.848  37.467   6.686  1.00  0.00     0.157 A 
BRANCH  41  44
ATOM     44  O   UNL     1      61.246  38.461   4.969  1.00  0.00    -0.504 OA
ATOM     45  H   UNL     1      60.892  37.829   4.259  1.00  0.00     0.293 HD
ENDBRANCH  41  44
BRANCH  43  46
ATOM     46  O   UNL     1      59.141  36.728   5.738  1.00  0.00    -0.504 OA
ATOM     47  H   UNL     1      58.129  36.694   5.727  1.00  0.00     0.293 HD
ENDBRANCH  43  46
ENDBRANCH  28  38
BRANCH  34  48
ATOM     48  O   UNL     1      65.077  42.400  12.694  1.00  0.00    -0.507 OA
ATOM     49  H   UNL     1      65.983  42.218  13.111  1.00  0.00     0.293 HD
ENDBRANCH  34  48
BRANCH  37  50
ATOM     50  O   UNL     1      61.981  40.203  15.674  1.00  0.00    -0.508 OA
ATOM     51  H   UNL     1      61.042  39.868  15.850  1.00  0.00     0.293 HD
ENDBRANCH  37  50
ENDBRANCH  26  27
ENDBRANCH   5  26
BRANCH   4  52
ATOM     52  O   UNL     1      65.175  39.126   6.168  1.00  0.00    -0.384 OA
ATOM     53  H   UNL     1      66.045  38.789   6.511  1.00  0.00     0.211 HD
ENDBRANCH   4  52
TORSDOF 16
ENDMDL
MODEL 2
REMARK VINA RESULT:     0.360     16.634     20.415
REMARK INTER + INTRA:           0.792
REMARK INTER:                   1.918
REMARK INTRA:                  -1.126
REMARK UNBOUND:                 0.201
REMARK SMILES C[C@@H]1O[C@@H](OC[C@H]2O[C@@H](Oc3c(-c4ccc(O)c(O)c4)oc4cc(O)cc(O)c4c3=O)[C@@H](O)[C@H](O)[C@@H]2O)[C@@H](O)[C@H](O)[C@@H]1O
REMARK SMILES IDX 7 1 36 2 34 3 32 4 9 5 8 6 6 7 5 8 4 9 1 10 2 11 42 12 3 13
REMARK SMILES IDX 40 14 38 15 43 16 41 18 39 20 37 22 35 24 10 26 11 27 12 28
REMARK SMILES IDX 30 29 21 30 29 31 31 32 22 33 27 34 23 35 26 36 24 37 13 38
REMARK SMILES IDX 20 39 14 40 18 41 15 42 16 43 19 44 17 46 28 48 25 50 33 52
REMARK H PARENT 43 17 41 19 39 21 37 23 35 25 19 45 17 47 28 49 25 51 33 53
REMARK Flexibility Score: inf
ROOT
ATOM      1  C   UNL     1      58.686  23.141  21.098  1.00  0.00     0.180 C 
ATOM      2  C   UNL     1      58.590  24.096  22.317  1.00  0.00     0.177 C 
ATOM      3  C   UNL     1      59.400  25.370  22.070  1.00  0.00     0.180 C 
ATOM      4  C   UNL     1      60.842  24.973  21.708  1.00  0.00     0.214 C 
ATOM      5  C   UNL     1      60.844  24.030  20.492  1.00  0.00     0.339 C 
ATOM      6  O   UNL     1      60.024  22.875  20.674  1.00  0.00    -0.332 OA
ENDROOT
BRANCH   1   7
ATOM      7  C   UNL     1      57.770  23.552  19.929  1.00  0.00     0.198 C 
BRANCH   7   8
ATOM      8  O   UNL     1      56.539  22.875  20.054  1.00  0.00    -0.347 OA
BRANCH   8   9
ATOM      9  C   UNL     1      55.478  23.698  20.521  1.00  0.00     0.281 C 
ATOM     10  C   UNL     1      54.232  23.082  23.975  1.00  0.00     0.041 C 
ATOM     11  C   UNL     1      54.298  22.877  22.457  1.00  0.00     0.150 C 
ATOM     12  C   UNL     1      52.931  23.177  21.816  1.00  0.00     0.174 C 
ATOM     13  O   UNL     1      55.345  23.691  21.943  1.00  0.00    -0.344 OA
ATOM     14  C   UNL     1      53.015  22.875  20.318  1.00  0.00     0.179 C 
ATOM     15  C   UNL     1      54.170  23.657  19.661  1.00  0.00     0.202 C 
BRANCH  12  16
ATOM     16  O   UNL     1      52.503  24.496  22.071  1.00  0.00    -0.388 OA
ATOM     17  H   UNL     1      53.223  24.978  22.556  1.00  0.00     0.211 HD
ENDBRANCH  12  16
BRANCH  14  18
ATOM     18  O   UNL     1      51.790  23.147  19.685  1.00  0.00    -0.387 OA
ATOM     19  H   UNL     1      51.331  22.282  19.498  1.00  0.00     0.211 HD
ENDBRANCH  14  18
BRANCH  15  20
ATOM     20  O   UNL     1      54.444  23.133  18.384  1.00  0.00    -0.385 OA
ATOM     21  H   UNL     1      55.135  22.428  18.503  1.00  0.00     0.211 HD
ENDBRANCH  15  20
ENDBRANCH   8   9
ENDBRANCH   7   8
ENDBRANCH   1   7
BRANCH   2  22
ATOM     22  O   UNL     1      59.072  23.442  23.466  1.00  0.00    -0.387 OA
ATOM     23  H   UNL     1      58.628  22.549  23.494  1.00  0.00     0.211 HD
ENDBRANCH   2  22
BRANCH   3  24
ATOM     24  O   UNL     1      59.382  26.173  23.218  1.00  0.00    -0.387 OA
ATOM     25  H   UNL     1      58.557  26.729  23.158  1.00  0.00     0.211 HD
ENDBRANCH   3  24
BRANCH   5  26
ATOM     26  O   UNL     1      60.468  24.752  19.319  1.00  0.00    -0.454 OA
BRANCH  26  27
ATOM     27  C   UNL     1      61.362  25.275  18.375  1.00  0.00     0.214 A 
ATOM     28  C   UNL     1      60.986  26.407  17.625  1.00  0.00     0.180 A 
ATOM     29  C   UNL     1      62.637  24.721  18.168  1.00  0.00     0.239 A 
ATOM     30  O   UNL     1      61.859  26.977  16.799  1.00  0.00    -0.452 OA
ATOM     31  C   UNL     1      63.532  25.349  17.274  1.00  0.00     0.111 A 
ATOM     32  O   UNL     1      62.962  23.662  18.767  1.00  0.00    -0.285 OA
ATOM     33  C   UNL     1      63.087  26.512  16.603  1.00  0.00     0.146 A 
ATOM     34  C   UNL     1      64.842  24.870  17.020  1.00  0.00     0.134 A 
ATOM     35  C   UNL     1      63.934  27.184  15.716  1.00  0.00     0.094 A 
ATOM     36  C   UNL     1      65.677  25.562  16.130  1.00  0.00     0.093 A 
ATOM     37  C   UNL     1      65.229  26.716  15.481  1.00  0.00     0.123 A 
BRANCH  28  38
ATOM     38  C   UNL     1      59.646  27.020  17.766  1.00  0.00     0.025 A 
ATOM     39  C   UNL     1      59.185  27.482  19.012  1.00  0.00     0.062 A 
ATOM     40  C   UNL     1      58.813  27.141  16.642  1.00  0.00     0.016 A 
ATOM     41  C   UNL     1      57.930  28.093  19.128  1.00  0.00     0.158 A 
ATOM     42  C   UNL     1      57.558  27.749  16.757  1.00  0.00     0.051 A 
ATOM     43  C   UNL     1      57.114  28.235  17.992  1.00  0.00     0.157 A 
BRANCH  41  44
ATOM     44  O   UNL     1      57.493  28.556  20.368  1.00  0.00    -0.504 OA
ATOM     45  H   UNL     1      57.884  29.391  20.792  1.00  0.00     0.293 HD
ENDBRANCH  41  44
BRANCH  43  46
ATOM     46  O   UNL     1      55.869  28.858  18.066  1.00  0.00    -0.504 OA
ATOM     47  H   UNL     1      55.065  28.518  17.552  1.00  0.00     0.293 HD
ENDBRANCH  43  46
ENDBRANCH  28  38
BRANCH  34  48
ATOM     48  O   UNL     1      65.317  23.716  17.642  1.00  0.00    -0.507 OA
ATOM     49  H   UNL     1      64.781  22.855  17.652  1.00  0.00     0.293 HD
ENDBRANCH  34  48
BRANCH  37  50
ATOM     50  O   UNL     1      66.077  27.386  14.602  1.00  0.00    -0.508 OA
ATOM     51  H   UNL     1      65.775  27.639  13.669  1.00  0.00     0.293 HD
ENDBRANCH  37  50
ENDBRANCH  26  27
ENDBRANCH   5  26
BRANCH   4  52
ATOM     52  O   UNL     1      61.650  26.101  21.470  1.00  0.00    -0.384 OA
ATOM     53  H   UNL     1      62.160  26.305  22.298  1.00  0.00     0.211 HD
ENDBRANCH   4  52
TORSDOF 16
ENDMDL
