MODEL 1
REMARK VINA RESULT:    -4.719      0.000      0.000
REMARK INTER + INTRA:         -13.126
REMARK INTER:                 -10.788
REMARK INTRA:                  -2.338
REMARK UNBOUND:                -2.338
REMARK SMILES CCCCCCCCCCCCCCCCCCCCCCCC(=O)[O-]
REMARK SMILES IDX 13 1 14 2 15 3 16 4 17 5 18 6 19 7 20 8 21 9 22 10 23 11
REMARK SMILES IDX 24 12 25 13 26 14 12 15 11 16 10 17 9 18 8 19 7 20 6 21 5 22
REMARK SMILES IDX 4 23 3 24 2 25 1 26
REMARK H PARENT
REMARK Flexibility Score: inf
ROOT
ATOM      1  C   UNL     1       2.300  53.698  22.558  1.00  0.00     0.000 C 
ENDROOT
BRANCH   1   2
ATOM      2  C   UNL     1       1.465  52.405  22.503  1.00  0.00     0.000 C 
BRANCH   2   3
ATOM      3  C   UNL     1       2.278  51.097  22.533  1.00  0.00     0.000 C 
BRANCH   3   4
ATOM      4  C   UNL     1       1.427  49.866  22.892  1.00  0.00     0.000 C 
BRANCH   4   5
ATOM      5  C   UNL     1       2.275  48.622  23.211  1.00  0.00     0.000 C 
BRANCH   5   6
ATOM      6  C   UNL     1       1.947  47.371  22.375  1.00  0.00     0.000 C 
BRANCH   6   7
ATOM      7  C   UNL     1       2.946  47.136  21.228  1.00  0.00     0.000 C 
BRANCH   7   8
ATOM      8  C   UNL     1       4.288  47.850  21.461  1.00  0.00     0.000 C 
BRANCH   8   9
ATOM      9  C   UNL     1       5.395  46.882  21.919  1.00  0.00     0.000 C 
BRANCH   9  10
ATOM     10  C   UNL     1       5.850  47.142  23.367  1.00  0.00     0.006 C 
BRANCH  10  11
ATOM     11  C   UNL     1       6.849  48.300  23.519  1.00  0.00     0.053 C 
BRANCH  11  12
ATOM     12  C   UNL     1       6.591  49.108  24.754  1.00  0.00     0.041 C 
ATOM     13  O   UNL     1       5.418  49.228  25.198  1.00  0.00    -0.550 OA
ATOM     14  O   UNL     1       7.649  49.696  25.436  1.00  0.00    -0.550 OA
ENDBRANCH  11  12
ENDBRANCH  10  11
ENDBRANCH   9  10
ENDBRANCH   8   9
ENDBRANCH   7   8
ENDBRANCH   6   7
ENDBRANCH   5   6
ENDBRANCH   4   5
ENDBRANCH   3   4
ENDBRANCH   2   3
ENDBRANCH   1   2
BRANCH   1  15
ATOM     15  C   UNL     1       2.751  54.179  21.169  1.00  0.00     0.000 C 
BRANCH  15  16
ATOM     16  C   UNL     1       2.135  55.534  20.775  1.00  0.00     0.000 C 
BRANCH  16  17
ATOM     17  C   UNL     1       1.859  56.489  21.952  1.00  0.00     0.000 C 
BRANCH  17  18
ATOM     18  C   UNL     1       2.819  57.690  22.064  1.00  0.00    -0.000 C 
BRANCH  18  19
ATOM     19  C   UNL     1       3.481  57.837  23.452  1.00  0.00    -0.000 C 
BRANCH  19  20
ATOM     20  C   UNL     1       2.971  56.797  24.465  1.00  0.00    -0.000 C 
BRANCH  20  21
ATOM     21  C   UNL     1       2.089  57.416  25.561  1.00  0.00    -0.000 C 
BRANCH  21  22
ATOM     22  C   UNL     1       0.650  57.680  25.080  1.00  0.00    -0.000 C 
BRANCH  22  23
ATOM     23  C   UNL     1       0.274  59.169  25.135  1.00  0.00    -0.000 C 
BRANCH  23  24
ATOM     24  C   UNL     1       0.469  59.881  23.784  1.00  0.00    -0.000 C 
BRANCH  24  25
ATOM     25  C   UNL     1       1.126  61.262  23.937  1.00  0.00    -0.003 C 
ATOM     26  C   UNL     1       2.488  61.347  23.250  1.00  0.00     0.004 C 
ENDBRANCH  24  25
ENDBRANCH  23  24
ENDBRANCH  22  23
ENDBRANCH  21  22
ENDBRANCH  20  21
ENDBRANCH  19  20
ENDBRANCH  18  19
ENDBRANCH  17  18
ENDBRANCH  16  17
ENDBRANCH  15  16
ENDBRANCH   1  15
TORSDOF 22
ENDMDL
MODEL 2
REMARK VINA RESULT:    -4.599      1.507      2.694
REMARK INTER + INTRA:         -12.851
REMARK INTER:                 -11.057
REMARK INTRA:                  -1.794
REMARK UNBOUND:                -2.338
REMARK SMILES CCCCCCCCCCCCCCCCCCCCCCCC(=O)[O-]
REMARK SMILES IDX 13 1 14 2 15 3 16 4 17 5 18 6 19 7 20 8 21 9 22 10 23 11
REMARK SMILES IDX 24 12 25 13 26 14 12 15 11 16 10 17 9 18 8 19 7 20 6 21 5 22
REMARK SMILES IDX 4 23 3 24 2 25 1 26
REMARK H PARENT
REMARK Flexibility Score: inf
ROOT
ATOM      1  C   UNL     1       1.585  52.102  22.502  1.00  0.00     0.000 C 
ENDROOT
BRANCH   1   2
ATOM      2  C   UNL     1       2.483  50.904  22.861  1.00  0.00     0.000 C 
BRANCH   2   3
ATOM      3  C   UNL     1       1.782  49.532  22.850  1.00  0.00     0.000 C 
BRANCH   3   4
ATOM      4  C   UNL     1       2.720  48.379  22.452  1.00  0.00     0.000 C 
BRANCH   4   5
ATOM      5  C   UNL     1       2.459  47.090  23.251  1.00  0.00     0.000 C 
BRANCH   5   6
ATOM      6  C   UNL     1       2.022  47.299  24.713  1.00  0.00     0.000 C 
BRANCH   6   7
ATOM      7  C   UNL     1       3.184  47.162  25.712  1.00  0.00     0.000 C 
BRANCH   7   8
ATOM      8  C   UNL     1       4.100  48.396  25.722  1.00  0.00     0.000 C 
BRANCH   8   9
ATOM      9  C   UNL     1       5.571  48.037  25.443  1.00  0.00     0.000 C 
BRANCH   9  10
ATOM     10  C   UNL     1       6.348  49.187  24.776  1.00  0.00     0.006 C 
BRANCH  10  11
ATOM     11  C   UNL     1       7.817  48.862  24.461  1.00  0.00     0.053 C 
BRANCH  11  12
ATOM     12  C   UNL     1       8.758  49.510  25.430  1.00  0.00     0.041 C 
ATOM     13  O   UNL     1       8.476  50.631  25.932  1.00  0.00    -0.550 OA
ATOM     14  O   UNL     1       9.928  48.861  25.806  1.00  0.00    -0.550 OA
ENDBRANCH  11  12
ENDBRANCH  10  11
ENDBRANCH   9  10
ENDBRANCH   8   9
ENDBRANCH   7   8
ENDBRANCH   6   7
ENDBRANCH   5   6
ENDBRANCH   4   5
ENDBRANCH   3   4
ENDBRANCH   2   3
ENDBRANCH   1   2
BRANCH   1  15
ATOM     15  C   UNL     1       2.380  53.314  21.990  1.00  0.00     0.000 C 
BRANCH  15  16
ATOM     16  C   UNL     1       2.001  54.625  22.703  1.00  0.00     0.000 C 
BRANCH  16  17
ATOM     17  C   UNL     1       2.888  54.987  23.910  1.00  0.00     0.000 C 
BRANCH  17  18
ATOM     18  C   UNL     1       2.622  56.372  24.530  1.00  0.00    -0.000 C 
BRANCH  18  19
ATOM     19  C   UNL     1       3.689  57.432  24.180  1.00  0.00    -0.000 C 
BRANCH  19  20
ATOM     20  C   UNL     1       3.471  58.058  22.791  1.00  0.00    -0.000 C 
BRANCH  20  21
ATOM     21  C   UNL     1       2.278  59.027  22.756  1.00  0.00    -0.000 C 
BRANCH  21  22
ATOM     22  C   UNL     1       2.690  60.481  23.045  1.00  0.00    -0.000 C 
BRANCH  22  23
ATOM     23  C   UNL     1       1.627  61.247  23.849  1.00  0.00    -0.000 C 
BRANCH  23  24
ATOM     24  C   UNL     1       0.219  60.644  23.697  1.00  0.00    -0.000 C 
BRANCH  24  25
ATOM     25  C   UNL     1      -0.401  60.254  25.048  1.00  0.00    -0.003 C 
ATOM     26  C   UNL     1       0.076  58.891  25.545  1.00  0.00     0.004 C 
ENDBRANCH  24  25
ENDBRANCH  23  24
ENDBRANCH  22  23
ENDBRANCH  21  22
ENDBRANCH  20  21
ENDBRANCH  19  20
ENDBRANCH  18  19
ENDBRANCH  17  18
ENDBRANCH  16  17
ENDBRANCH  15  16
ENDBRANCH   1  15
TORSDOF 22
ENDMDL
MODEL 3
REMARK VINA RESULT:    -4.547      1.456      3.161
REMARK INTER + INTRA:         -12.733
REMARK INTER:                 -10.170
REMARK INTRA:                  -2.563
REMARK UNBOUND:                -2.338
REMARK SMILES CCCCCCCCCCCCCCCCCCCCCCCC(=O)[O-]
REMARK SMILES IDX 13 1 14 2 15 3 16 4 17 5 18 6 19 7 20 8 21 9 22 10 23 11
REMARK SMILES IDX 24 12 25 13 26 14 12 15 11 16 10 17 9 18 8 19 7 20 6 21 5 22
REMARK SMILES IDX 4 23 3 24 2 25 1 26
REMARK H PARENT
REMARK Flexibility Score: inf
ROOT
ATOM      1  C   UNL     1       3.568  55.310  24.337  1.00  0.00     0.000 C 
ENDROOT
BRANCH   1   2
ATOM      2  C   UNL     1       3.233  53.899  23.819  1.00  0.00     0.000 C 
BRANCH   2   3
ATOM      3  C   UNL     1       2.425  53.855  22.508  1.00  0.00     0.000 C 
BRANCH   3   4
ATOM      4  C   UNL     1       1.635  52.547  22.330  1.00  0.00     0.000 C 
BRANCH   4   5
ATOM      5  C   UNL     1       2.401  51.311  22.835  1.00  0.00     0.000 C 
BRANCH   5   6
ATOM      6  C   UNL     1       1.634  49.979  22.742  1.00  0.00     0.000 C 
BRANCH   6   7
ATOM      7  C   UNL     1       2.524  48.753  23.009  1.00  0.00     0.000 C 
BRANCH   7   8
ATOM      8  C   UNL     1       1.953  47.838  24.106  1.00  0.00     0.000 C 
BRANCH   8   9
ATOM      9  C   UNL     1       3.057  47.128  24.911  1.00  0.00     0.000 C 
BRANCH   9  10
ATOM     10  C   UNL     1       3.818  48.083  25.848  1.00  0.00     0.006 C 
BRANCH  10  11
ATOM     11  C   UNL     1       5.332  47.828  25.921  1.00  0.00     0.053 C 
BRANCH  11  12
ATOM     12  C   UNL     1       6.075  48.528  24.824  1.00  0.00     0.041 C 
ATOM     13  O   UNL     1       6.565  49.671  25.022  1.00  0.00    -0.550 OA
ATOM     14  O   UNL     1       6.257  47.903  23.597  1.00  0.00    -0.550 OA
ENDBRANCH  11  12
ENDBRANCH  10  11
ENDBRANCH   9  10
ENDBRANCH   8   9
ENDBRANCH   7   8
ENDBRANCH   6   7
ENDBRANCH   5   6
ENDBRANCH   4   5
ENDBRANCH   3   4
ENDBRANCH   2   3
ENDBRANCH   1   2
BRANCH   1  15
ATOM     15  C   UNL     1       2.700  55.731  25.534  1.00  0.00     0.000 C 
BRANCH  15  16
ATOM     16  C   UNL     1       2.371  57.235  25.537  1.00  0.00     0.000 C 
BRANCH  16  17
ATOM     17  C   UNL     1       1.006  57.602  24.923  1.00  0.00     0.000 C 
BRANCH  17  18
ATOM     18  C   UNL     1       0.659  56.879  23.607  1.00  0.00    -0.000 C 
BRANCH  18  19
ATOM     19  C   UNL     1       0.940  57.715  22.340  1.00  0.00    -0.000 C 
BRANCH  19  20
ATOM     20  C   UNL     1       2.376  57.533  21.815  1.00  0.00    -0.000 C 
BRANCH  20  21
ATOM     21  C   UNL     1       3.356  58.566  22.393  1.00  0.00    -0.000 C 
BRANCH  21  22
ATOM     22  C   UNL     1       3.488  59.816  21.505  1.00  0.00    -0.000 C 
BRANCH  22  23
ATOM     23  C   UNL     1       3.139  61.112  22.253  1.00  0.00    -0.000 C 
BRANCH  23  24
ATOM     24  C   UNL     1       2.407  60.851  23.582  1.00  0.00    -0.000 C 
BRANCH  24  25
ATOM     25  C   UNL     1       0.919  61.228  23.517  1.00  0.00    -0.003 C 
ATOM     26  C   UNL     1       0.197  61.014  24.847  1.00  0.00     0.004 C 
ENDBRANCH  24  25
ENDBRANCH  23  24
ENDBRANCH  22  23
ENDBRANCH  21  22
ENDBRANCH  20  21
ENDBRANCH  19  20
ENDBRANCH  18  19
ENDBRANCH  17  18
ENDBRANCH  16  17
ENDBRANCH  15  16
ENDBRANCH   1  15
TORSDOF 22
ENDMDL
MODEL 4
REMARK VINA RESULT:    -4.505      1.185      1.990
REMARK INTER + INTRA:         -12.638
REMARK INTER:                 -10.440
REMARK INTRA:                  -2.197
REMARK UNBOUND:                -2.338
REMARK SMILES CCCCCCCCCCCCCCCCCCCCCCCC(=O)[O-]
REMARK SMILES IDX 13 1 14 2 15 3 16 4 17 5 18 6 19 7 20 8 21 9 22 10 23 11
REMARK SMILES IDX 24 12 25 13 26 14 12 15 11 16 10 17 9 18 8 19 7 20 6 21 5 22
REMARK SMILES IDX 4 23 3 24 2 25 1 26
REMARK H PARENT
REMARK Flexibility Score: inf
ROOT
ATOM      1  C   UNL     1       2.745  54.583  21.356  1.00  0.00     0.000 C 
ENDROOT
BRANCH   1   2
ATOM      2  C   UNL     1       2.033  54.087  22.628  1.00  0.00     0.000 C 
BRANCH   2   3
ATOM      3  C   UNL     1       1.348  52.713  22.501  1.00  0.00     0.000 C 
BRANCH   3   4
ATOM      4  C   UNL     1       2.343  51.539  22.526  1.00  0.00     0.000 C 
BRANCH   4   5
ATOM      5  C   UNL     1       1.676  50.193  22.862  1.00  0.00     0.000 C 
BRANCH   5   6
ATOM      6  C   UNL     1       2.600  48.964  22.787  1.00  0.00     0.000 C 
BRANCH   6   7
ATOM      7  C   UNL     1       1.888  47.653  23.162  1.00  0.00     0.000 C 
BRANCH   7   8
ATOM      8  C   UNL     1       2.628  46.875  24.263  1.00  0.00     0.000 C 
BRANCH   8   9
ATOM      9  C   UNL     1       3.055  47.779  25.433  1.00  0.00     0.000 C 
BRANCH   9  10
ATOM     10  C   UNL     1       4.527  47.575  25.836  1.00  0.00     0.006 C 
BRANCH  10  11
ATOM     11  C   UNL     1       5.418  47.008  24.718  1.00  0.00     0.053 C 
BRANCH  11  12
ATOM     12  C   UNL     1       6.146  48.086  23.976  1.00  0.00     0.041 C 
ATOM     13  O   UNL     1       6.286  48.011  22.726  1.00  0.00    -0.550 OA
ATOM     14  O   UNL     1       6.638  49.191  24.659  1.00  0.00    -0.550 OA
ENDBRANCH  11  12
ENDBRANCH  10  11
ENDBRANCH   9  10
ENDBRANCH   8   9
ENDBRANCH   7   8
ENDBRANCH   6   7
ENDBRANCH   5   6
ENDBRANCH   4   5
ENDBRANCH   3   4
ENDBRANCH   2   3
ENDBRANCH   1   2
BRANCH   1  15
ATOM     15  C   UNL     1       2.117  55.862  20.777  1.00  0.00     0.000 C 
BRANCH  15  16
ATOM     16  C   UNL     1       1.929  56.968  21.832  1.00  0.00     0.000 C 
BRANCH  16  17
ATOM     17  C   UNL     1       3.167  57.854  22.072  1.00  0.00     0.000 C 
BRANCH  17  18
ATOM     18  C   UNL     1       3.523  58.100  23.551  1.00  0.00    -0.000 C 
BRANCH  18  19
ATOM     19  C   UNL     1       3.170  56.922  24.486  1.00  0.00    -0.000 C 
BRANCH  19  20
ATOM     20  C   UNL     1       2.060  57.276  25.493  1.00  0.00    -0.000 C 
BRANCH  20  21
ATOM     21  C   UNL     1       0.765  57.744  24.810  1.00  0.00    -0.000 C 
BRANCH  21  22
ATOM     22  C   UNL     1      -0.040  58.725  25.681  1.00  0.00    -0.000 C 
BRANCH  22  23
ATOM     23  C   UNL     1       0.104  60.182  25.214  1.00  0.00    -0.000 C 
BRANCH  23  24
ATOM     24  C   UNL     1       0.474  60.295  23.724  1.00  0.00    -0.000 C 
BRANCH  24  25
ATOM     25  C   UNL     1       1.248  61.584  23.407  1.00  0.00    -0.003 C 
ATOM     26  C   UNL     1       2.745  61.457  23.686  1.00  0.00     0.004 C 
ENDBRANCH  24  25
ENDBRANCH  23  24
ENDBRANCH  22  23
ENDBRANCH  21  22
ENDBRANCH  20  21
ENDBRANCH  19  20
ENDBRANCH  18  19
ENDBRANCH  17  18
ENDBRANCH  16  17
ENDBRANCH  15  16
ENDBRANCH   1  15
TORSDOF 22
ENDMDL
MODEL 5
REMARK VINA RESULT:    -4.479      3.898     10.513
REMARK INTER + INTRA:         -12.577
REMARK INTER:                 -10.610
REMARK INTRA:                  -1.968
REMARK UNBOUND:                -2.338
REMARK SMILES CCCCCCCCCCCCCCCCCCCCCCCC(=O)[O-]
REMARK SMILES IDX 13 1 14 2 15 3 16 4 17 5 18 6 19 7 20 8 21 9 22 10 23 11
REMARK SMILES IDX 24 12 25 13 26 14 12 15 11 16 10 17 9 18 8 19 7 20 6 21 5 22
REMARK SMILES IDX 4 23 3 24 2 25 1 26
REMARK H PARENT
REMARK Flexibility Score: inf
ROOT
ATOM      1  C   UNL     1       2.325  51.655  22.495  1.00  0.00     0.000 C 
ENDROOT
BRANCH   1   2
ATOM      2  C   UNL     1       1.405  52.889  22.441  1.00  0.00     0.000 C 
BRANCH   2   3
ATOM      3  C   UNL     1       2.037  54.201  22.944  1.00  0.00     0.000 C 
BRANCH   3   4
ATOM      4  C   UNL     1       3.384  53.986  23.656  1.00  0.00     0.000 C 
BRANCH   4   5
ATOM      5  C   UNL     1       3.772  55.160  24.573  1.00  0.00     0.000 C 
BRANCH   5   6
ATOM      6  C   UNL     1       2.666  55.637  25.533  1.00  0.00     0.000 C 
BRANCH   6   7
ATOM      7  C   UNL     1       2.533  57.169  25.582  1.00  0.00     0.000 C 
BRANCH   7   8
ATOM      8  C   UNL     1       1.172  57.660  25.061  1.00  0.00     0.000 C 
BRANCH   8   9
ATOM      9  C   UNL     1       1.273  58.285  23.658  1.00  0.00     0.000 C 
BRANCH   9  10
ATOM     10  C   UNL     1       2.347  59.384  23.571  1.00  0.00     0.006 C 
BRANCH  10  11
ATOM     11  C   UNL     1       1.790  60.803  23.375  1.00  0.00     0.053 C 
BRANCH  11  12
ATOM     12  C   UNL     1       0.421  60.957  23.965  1.00  0.00     0.041 C 
ATOM     13  O   UNL     1       0.274  61.011  25.215  1.00  0.00    -0.550 OA
ATOM     14  O   UNL     1      -0.686  61.078  23.135  1.00  0.00    -0.550 OA
ENDBRANCH  11  12
ENDBRANCH  10  11
ENDBRANCH   9  10
ENDBRANCH   8   9
ENDBRANCH   7   8
ENDBRANCH   6   7
ENDBRANCH   5   6
ENDBRANCH   4   5
ENDBRANCH   3   4
ENDBRANCH   2   3
ENDBRANCH   1   2
BRANCH   1  15
ATOM     15  C   UNL     1       1.570  50.359  22.832  1.00  0.00     0.000 C 
BRANCH  15  16
ATOM     16  C   UNL     1       2.473  49.112  22.797  1.00  0.00     0.000 C 
BRANCH  16  17
ATOM     17  C   UNL     1       1.755  47.783  23.100  1.00  0.00     0.000 C 
BRANCH  17  18
ATOM     18  C   UNL     1       2.167  47.098  24.418  1.00  0.00    -0.000 C 
BRANCH  18  19
ATOM     19  C   UNL     1       3.110  47.947  25.298  1.00  0.00    -0.000 C 
BRANCH  19  20
ATOM     20  C   UNL     1       4.085  47.087  26.123  1.00  0.00    -0.000 C 
BRANCH  20  21
ATOM     21  C   UNL     1       5.554  47.487  25.912  1.00  0.00    -0.000 C 
BRANCH  21  22
ATOM     22  C   UNL     1       5.705  48.729  25.015  1.00  0.00    -0.000 C 
BRANCH  22  23
ATOM     23  C   UNL     1       7.003  48.709  24.193  1.00  0.00    -0.000 C 
BRANCH  23  24
ATOM     24  C   UNL     1       6.762  48.378  22.709  1.00  0.00    -0.000 C 
BRANCH  24  25
ATOM     25  C   UNL     1       5.802  47.193  22.520  1.00  0.00    -0.003 C 
ATOM     26  C   UNL     1       4.877  47.370  21.317  1.00  0.00     0.004 C 
ENDBRANCH  24  25
ENDBRANCH  23  24
ENDBRANCH  22  23
ENDBRANCH  21  22
ENDBRANCH  20  21
ENDBRANCH  19  20
ENDBRANCH  18  19
ENDBRANCH  17  18
ENDBRANCH  16  17
ENDBRANCH  15  16
ENDBRANCH   1  15
TORSDOF 22
ENDMDL
MODEL 6
REMARK VINA RESULT:    -4.473      1.444      2.053
REMARK INTER + INTRA:         -12.563
REMARK INTER:                 -10.763
REMARK INTRA:                  -1.800
REMARK UNBOUND:                -2.338
REMARK SMILES CCCCCCCCCCCCCCCCCCCCCCCC(=O)[O-]
REMARK SMILES IDX 13 1 14 2 15 3 16 4 17 5 18 6 19 7 20 8 21 9 22 10 23 11
REMARK SMILES IDX 24 12 25 13 26 14 12 15 11 16 10 17 9 18 8 19 7 20 6 21 5 22
REMARK SMILES IDX 4 23 3 24 2 25 1 26
REMARK H PARENT
REMARK Flexibility Score: inf
ROOT
ATOM      1  C   UNL     1       2.047  53.337  22.648  1.00  0.00     0.000 C 
ENDROOT
BRANCH   1   2
ATOM      2  C   UNL     1       1.413  51.941  22.499  1.00  0.00     0.000 C 
BRANCH   2   3
ATOM      3  C   UNL     1       2.360  50.758  22.776  1.00  0.00     0.000 C 
BRANCH   3   4
ATOM      4  C   UNL     1       1.621  49.415  22.914  1.00  0.00     0.000 C 
BRANCH   4   5
ATOM      5  C   UNL     1       2.447  48.220  22.406  1.00  0.00     0.000 C 
BRANCH   5   6
ATOM      6  C   UNL     1       2.559  47.035  23.383  1.00  0.00     0.000 C 
BRANCH   6   7
ATOM      7  C   UNL     1       2.069  47.377  24.801  1.00  0.00     0.000 C 
BRANCH   7   8
ATOM      8  C   UNL     1       3.228  47.613  25.784  1.00  0.00     0.000 C 
BRANCH   8   9
ATOM      9  C   UNL     1       4.605  47.490  25.106  1.00  0.00     0.000 C 
BRANCH   9  10
ATOM     10  C   UNL     1       5.437  48.781  25.210  1.00  0.00     0.006 C 
BRANCH  10  11
ATOM     11  C   UNL     1       6.815  48.704  24.534  1.00  0.00     0.053 C 
BRANCH  11  12
ATOM     12  C   UNL     1       7.920  49.120  25.457  1.00  0.00     0.041 C 
ATOM     13  O   UNL     1       9.034  49.477  24.990  1.00  0.00    -0.550 OA
ATOM     14  O   UNL     1       7.707  49.148  26.830  1.00  0.00    -0.550 OA
ENDBRANCH  11  12
ENDBRANCH  10  11
ENDBRANCH   9  10
ENDBRANCH   8   9
ENDBRANCH   7   8
ENDBRANCH   6   7
ENDBRANCH   5   6
ENDBRANCH   4   5
ENDBRANCH   3   4
ENDBRANCH   2   3
ENDBRANCH   1   2
BRANCH   1  15
ATOM     15  C   UNL     1       2.674  53.853  21.342  1.00  0.00     0.000 C 
BRANCH  15  16
ATOM     16  C   UNL     1       2.174  55.256  20.952  1.00  0.00     0.000 C 
BRANCH  16  17
ATOM     17  C   UNL     1       2.532  56.374  21.950  1.00  0.00     0.000 C 
BRANCH  17  18
ATOM     18  C   UNL     1       1.444  57.446  22.157  1.00  0.00    -0.000 C 
BRANCH  18  19
ATOM     19  C   UNL     1       0.460  57.127  23.304  1.00  0.00    -0.000 C 
BRANCH  19  20
ATOM     20  C   UNL     1       0.948  57.649  24.667  1.00  0.00    -0.000 C 
BRANCH  20  21
ATOM     21  C   UNL     1      -0.164  58.337  25.475  1.00  0.00    -0.000 C 
BRANCH  21  22
ATOM     22  C   UNL     1      -0.009  59.868  25.509  1.00  0.00    -0.000 C 
BRANCH  22  23
ATOM     23  C   UNL     1      -0.377  60.528  24.171  1.00  0.00    -0.000 C 
BRANCH  23  24
ATOM     24  C   UNL     1       0.674  61.552  23.705  1.00  0.00    -0.000 C 
BRANCH  24  25
ATOM     25  C   UNL     1       2.043  60.908  23.434  1.00  0.00    -0.003 C 
ATOM     26  C   UNL     1       3.183  61.925  23.427  1.00  0.00     0.004 C 
ENDBRANCH  24  25
ENDBRANCH  23  24
ENDBRANCH  22  23
ENDBRANCH  21  22
ENDBRANCH  20  21
ENDBRANCH  19  20
ENDBRANCH  18  19
ENDBRANCH  17  18
ENDBRANCH  16  17
ENDBRANCH  15  16
ENDBRANCH   1  15
TORSDOF 22
ENDMDL
MODEL 7
REMARK VINA RESULT:    -4.444      3.709     10.266
REMARK INTER + INTRA:         -12.496
REMARK INTER:                 -10.376
REMARK INTRA:                  -2.120
REMARK UNBOUND:                -2.338
REMARK SMILES CCCCCCCCCCCCCCCCCCCCCCCC(=O)[O-]
REMARK SMILES IDX 13 1 14 2 15 3 16 4 17 5 18 6 19 7 20 8 21 9 22 10 23 11
REMARK SMILES IDX 24 12 25 13 26 14 12 15 11 16 10 17 9 18 8 19 7 20 6 21 5 22
REMARK SMILES IDX 4 23 3 24 2 25 1 26
REMARK H PARENT
REMARK Flexibility Score: inf
ROOT
ATOM      1  C   UNL     1       2.281  53.620  22.542  1.00  0.00     0.000 C 
ENDROOT
BRANCH   1   2
ATOM      2  C   UNL     1       2.699  54.066  21.129  1.00  0.00     0.000 C 
BRANCH   2   3
ATOM      3  C   UNL     1       2.326  55.516  20.763  1.00  0.00     0.000 C 
BRANCH   3   4
ATOM      4  C   UNL     1       1.941  56.366  21.986  1.00  0.00     0.000 C 
BRANCH   4   5
ATOM      5  C   UNL     1       2.769  57.659  22.103  1.00  0.00     0.000 C 
BRANCH   5   6
ATOM      6  C   UNL     1       3.550  57.823  23.420  1.00  0.00     0.000 C 
BRANCH   6   7
ATOM      7  C   UNL     1       3.473  56.579  24.322  1.00  0.00     0.000 C 
BRANCH   7   8
ATOM      8  C   UNL     1       2.365  56.689  25.383  1.00  0.00     0.000 C 
BRANCH   8   9
ATOM      9  C   UNL     1       1.773  58.108  25.468  1.00  0.00     0.000 C 
BRANCH   9  10
ATOM     10  C   UNL     1       0.326  58.182  24.947  1.00  0.00     0.006 C 
BRANCH  10  11
ATOM     11  C   UNL     1       0.119  59.166  23.785  1.00  0.00     0.053 C 
BRANCH  11  12
ATOM     12  C   UNL     1       0.677  60.523  24.089  1.00  0.00     0.041 C 
ATOM     13  O   UNL     1       1.719  60.924  23.506  1.00  0.00    -0.550 OA
ATOM     14  O   UNL     1       0.026  61.358  24.989  1.00  0.00    -0.550 OA
ENDBRANCH  11  12
ENDBRANCH  10  11
ENDBRANCH   9  10
ENDBRANCH   8   9
ENDBRANCH   7   8
ENDBRANCH   6   7
ENDBRANCH   5   6
ENDBRANCH   4   5
ENDBRANCH   3   4
ENDBRANCH   2   3
ENDBRANCH   1   2
BRANCH   1  15
ATOM     15  C   UNL     1       1.466  52.316  22.541  1.00  0.00     0.000 C 
BRANCH  15  16
ATOM     16  C   UNL     1       2.348  51.057  22.625  1.00  0.00     0.000 C 
BRANCH  16  17
ATOM     17  C   UNL     1       1.591  49.754  22.946  1.00  0.00     0.000 C 
BRANCH  17  18
ATOM     18  C   UNL     1       2.455  48.477  22.963  1.00  0.00    -0.000 C 
BRANCH  18  19
ATOM     19  C   UNL     1       1.998  47.425  23.997  1.00  0.00    -0.000 C 
BRANCH  19  20
ATOM     20  C   UNL     1       2.649  47.628  25.377  1.00  0.00    -0.000 C 
BRANCH  20  21
ATOM     21  C   UNL     1       3.992  46.893  25.516  1.00  0.00    -0.000 C 
BRANCH  21  22
ATOM     22  C   UNL     1       5.124  47.817  26.001  1.00  0.00    -0.000 C 
BRANCH  22  23
ATOM     23  C   UNL     1       5.515  48.870  24.953  1.00  0.00    -0.000 C 
BRANCH  23  24
ATOM     24  C   UNL     1       7.004  48.799  24.567  1.00  0.00    -0.000 C 
BRANCH  24  25
ATOM     25  C   UNL     1       7.222  48.176  23.180  1.00  0.00    -0.003 C 
ATOM     26  C   UNL     1       5.913  47.935  22.429  1.00  0.00     0.004 C 
ENDBRANCH  24  25
ENDBRANCH  23  24
ENDBRANCH  22  23
ENDBRANCH  21  22
ENDBRANCH  20  21
ENDBRANCH  19  20
ENDBRANCH  18  19
ENDBRANCH  17  18
ENDBRANCH  16  17
ENDBRANCH  15  16
ENDBRANCH   1  15
TORSDOF 22
ENDMDL
MODEL 8
REMARK VINA RESULT:    -4.383      3.948     10.403
REMARK INTER + INTRA:         -12.357
REMARK INTER:                 -10.267
REMARK INTRA:                  -2.089
REMARK UNBOUND:                -2.338
REMARK SMILES CCCCCCCCCCCCCCCCCCCCCCCC(=O)[O-]
REMARK SMILES IDX 13 1 14 2 15 3 16 4 17 5 18 6 19 7 20 8 21 9 22 10 23 11
REMARK SMILES IDX 24 12 25 13 26 14 12 15 11 16 10 17 9 18 8 19 7 20 6 21 5 22
REMARK SMILES IDX 4 23 3 24 2 25 1 26
REMARK H PARENT
REMARK Flexibility Score: inf
ROOT
ATOM      1  C   UNL     1       2.254  53.302  21.861  1.00  0.00     0.000 C 
ENDROOT
BRANCH   1   2
ATOM      2  C   UNL     1       2.460  54.524  22.775  1.00  0.00     0.000 C 
BRANCH   2   3
ATOM      3  C   UNL     1       3.319  54.268  24.029  1.00  0.00     0.000 C 
BRANCH   3   4
ATOM      4  C   UNL     1       2.853  55.076  25.253  1.00  0.00     0.000 C 
BRANCH   4   5
ATOM      5  C   UNL     1       3.028  56.594  25.072  1.00  0.00     0.000 C 
BRANCH   5   6
ATOM      6  C   UNL     1       1.730  57.419  25.141  1.00  0.00     0.000 C 
BRANCH   6   7
ATOM      7  C   UNL     1       1.041  57.569  23.773  1.00  0.00     0.000 C 
BRANCH   7   8
ATOM      8  C   UNL     1       2.005  58.059  22.679  1.00  0.00     0.000 C 
BRANCH   8   9
ATOM      9  C   UNL     1       2.876  59.237  23.150  1.00  0.00     0.000 C 
BRANCH   9  10
ATOM     10  C   UNL     1       2.305  60.604  22.732  1.00  0.00     0.006 C 
BRANCH  10  11
ATOM     11  C   UNL     1       1.719  61.428  23.890  1.00  0.00     0.053 C 
BRANCH  11  12
ATOM     12  C   UNL     1       0.268  61.133  24.114  1.00  0.00     0.041 C 
ATOM     13  O   UNL     1      -0.509  60.995  23.132  1.00  0.00    -0.550 OA
ATOM     14  O   UNL     1      -0.220  60.974  25.405  1.00  0.00    -0.550 OA
ENDBRANCH  11  12
ENDBRANCH  10  11
ENDBRANCH   9  10
ENDBRANCH   8   9
ENDBRANCH   7   8
ENDBRANCH   6   7
ENDBRANCH   5   6
ENDBRANCH   4   5
ENDBRANCH   3   4
ENDBRANCH   2   3
ENDBRANCH   1   2
BRANCH   1  15
ATOM     15  C   UNL     1       1.551  52.134  22.571  1.00  0.00     0.000 C 
BRANCH  15  16
ATOM     16  C   UNL     1       2.363  50.826  22.523  1.00  0.00     0.000 C 
BRANCH  16  17
ATOM     17  C   UNL     1       1.653  49.599  23.127  1.00  0.00     0.000 C 
BRANCH  17  18
ATOM     18  C   UNL     1       1.826  48.285  22.341  1.00  0.00    -0.000 C 
BRANCH  18  19
ATOM     19  C   UNL     1       1.310  47.035  23.086  1.00  0.00    -0.000 C 
BRANCH  19  20
ATOM     20  C   UNL     1       1.575  47.096  24.601  1.00  0.00    -0.000 C 
BRANCH  20  21
ATOM     21  C   UNL     1       3.055  46.875  24.955  1.00  0.00    -0.000 C 
BRANCH  21  22
ATOM     22  C   UNL     1       3.606  47.966  25.891  1.00  0.00    -0.000 C 
BRANCH  22  23
ATOM     23  C   UNL     1       4.582  48.915  25.179  1.00  0.00    -0.000 C 
BRANCH  23  24
ATOM     24  C   UNL     1       5.379  48.220  24.060  1.00  0.00    -0.000 C 
BRANCH  24  25
ATOM     25  C   UNL     1       6.877  48.559  24.107  1.00  0.00    -0.003 C 
ATOM     26  C   UNL     1       7.215  49.590  25.183  1.00  0.00     0.004 C 
ENDBRANCH  24  25
ENDBRANCH  23  24
ENDBRANCH  22  23
ENDBRANCH  21  22
ENDBRANCH  20  21
ENDBRANCH  19  20
ENDBRANCH  18  19
ENDBRANCH  17  18
ENDBRANCH  16  17
ENDBRANCH  15  16
ENDBRANCH   1  15
TORSDOF 22
ENDMDL
MODEL 9
REMARK VINA RESULT:    -4.332      1.033      2.127
REMARK INTER + INTRA:         -12.241
REMARK INTER:                 -10.401
REMARK INTRA:                  -1.839
REMARK UNBOUND:                -2.338
REMARK SMILES CCCCCCCCCCCCCCCCCCCCCCCC(=O)[O-]
REMARK SMILES IDX 13 1 14 2 15 3 16 4 17 5 18 6 19 7 20 8 21 9 22 10 23 11
REMARK SMILES IDX 24 12 25 13 26 14 12 15 11 16 10 17 9 18 8 19 7 20 6 21 5 22
REMARK SMILES IDX 4 23 3 24 2 25 1 26
REMARK H PARENT
REMARK Flexibility Score: inf
ROOT
ATOM      1  C   UNL     1       3.500  54.150  24.060  1.00  0.00     0.000 C 
ENDROOT
BRANCH   1   2
ATOM      2  C   UNL     1       2.257  53.995  23.164  1.00  0.00     0.000 C 
BRANCH   2   3
ATOM      3  C   UNL     1       2.341  52.869  22.115  1.00  0.00     0.000 C 
BRANCH   3   4
ATOM      4  C   UNL     1       1.543  51.615  22.512  1.00  0.00     0.000 C 
BRANCH   4   5
ATOM      5  C   UNL     1       2.443  50.404  22.819  1.00  0.00     0.000 C 
BRANCH   5   6
ATOM      6  C   UNL     1       1.727  49.040  22.833  1.00  0.00     0.000 C 
BRANCH   6   7
ATOM      7  C   UNL     1       2.687  47.862  23.073  1.00  0.00     0.000 C 
BRANCH   7   8
ATOM      8  C   UNL     1       3.281  47.311  21.766  1.00  0.00     0.000 C 
BRANCH   8   9
ATOM      9  C   UNL     1       4.765  47.681  21.594  1.00  0.00     0.000 C 
BRANCH   9  10
ATOM     10  C   UNL     1       5.638  47.203  22.769  1.00  0.00     0.006 C 
BRANCH  10  11
ATOM     11  C   UNL     1       6.714  48.208  23.210  1.00  0.00     0.053 C 
BRANCH  11  12
ATOM     12  C   UNL     1       6.523  48.652  24.628  1.00  0.00     0.041 C 
ATOM     13  O   UNL     1       7.224  49.588  25.098  1.00  0.00    -0.550 OA
ATOM     14  O   UNL     1       5.547  48.059  25.418  1.00  0.00    -0.550 OA
ENDBRANCH  11  12
ENDBRANCH  10  11
ENDBRANCH   9  10
ENDBRANCH   8   9
ENDBRANCH   7   8
ENDBRANCH   6   7
ENDBRANCH   5   6
ENDBRANCH   4   5
ENDBRANCH   3   4
ENDBRANCH   2   3
ENDBRANCH   1   2
BRANCH   1  15
ATOM     15  C   UNL     1       3.174  54.750  25.438  1.00  0.00     0.000 C 
BRANCH  15  16
ATOM     16  C   UNL     1       3.065  56.285  25.413  1.00  0.00     0.000 C 
BRANCH  16  17
ATOM     17  C   UNL     1       3.979  56.985  24.389  1.00  0.00     0.000 C 
BRANCH  17  18
ATOM     18  C   UNL     1       3.462  58.336  23.858  1.00  0.00    -0.000 C 
BRANCH  18  19
ATOM     19  C   UNL     1       3.132  58.333  22.350  1.00  0.00    -0.000 C 
BRANCH  19  20
ATOM     20  C   UNL     1       1.948  57.413  22.003  1.00  0.00    -0.000 C 
BRANCH  20  21
ATOM     21  C   UNL     1       0.924  57.305  23.144  1.00  0.00    -0.000 C 
BRANCH  21  22
ATOM     22  C   UNL     1       0.138  58.612  23.357  1.00  0.00    -0.000 C 
BRANCH  22  23
ATOM     23  C   UNL     1       0.259  59.146  24.793  1.00  0.00    -0.000 C 
BRANCH  23  24
ATOM     24  C   UNL     1       0.218  60.683  24.861  1.00  0.00    -0.000 C 
BRANCH  24  25
ATOM     25  C   UNL     1       0.731  61.342  23.571  1.00  0.00    -0.003 C 
ATOM     26  C   UNL     1       2.229  61.639  23.615  1.00  0.00     0.004 C 
ENDBRANCH  24  25
ENDBRANCH  23  24
ENDBRANCH  22  23
ENDBRANCH  21  22
ENDBRANCH  20  21
ENDBRANCH  19  20
ENDBRANCH  18  19
ENDBRANCH  17  18
ENDBRANCH  16  17
ENDBRANCH  15  16
ENDBRANCH   1  15
TORSDOF 22
ENDMDL
