MODEL 1
REMARK VINA RESULT:    -3.888      0.000      0.000
REMARK INTER + INTRA:          -9.013
REMARK INTER:                  -7.525
REMARK INTRA:                  -1.489
REMARK UNBOUND:                -1.489
REMARK SMILES CCCCCCCCCCCCCCCCCC(=O)[O-]
REMARK SMILES IDX 10 1 11 2 12 3 13 4 14 5 15 6 16 7 17 8 18 9 19 10 20 11
REMARK SMILES IDX 9 12 8 13 7 14 6 15 5 16 4 17 3 18 2 19 1 20
REMARK H PARENT
REMARK Flexibility Score: inf
ROOT
ATOM      1  C   UNL     1      -1.898   2.212   8.738  1.00  0.00     0.000 C 
ENDROOT
BRANCH   1   2
ATOM      2  C   UNL     1      -1.496   3.344   9.696  1.00  0.00     0.000 C 
BRANCH   2   3
ATOM      3  C   UNL     1      -1.466   4.693   8.967  1.00  0.00     0.000 C 
BRANCH   3   4
ATOM      4  C   UNL     1      -1.092   5.830   9.928  1.00  0.00     0.000 C 
BRANCH   4   5
ATOM      5  C   UNL     1      -1.879   7.124   9.659  1.00  0.00     0.000 C 
BRANCH   5   6
ATOM      6  C   UNL     1      -0.985   8.322   9.273  1.00  0.00     0.000 C 
BRANCH   6   7
ATOM      7  C   UNL     1      -0.128   8.029   8.029  1.00  0.00     0.006 C 
BRANCH   7   8
ATOM      8  C   UNL     1       1.173   8.841   8.015  1.00  0.00     0.053 C 
BRANCH   8   9
ATOM      9  C   UNL     1       2.113   8.367   6.950  1.00  0.00     0.041 C 
ATOM     10  O   UNL     1       3.207   7.828   7.262  1.00  0.00    -0.550 OA
ATOM     11  O   UNL     1       1.763   8.491   5.611  1.00  0.00    -0.550 OA
ENDBRANCH   8   9
ENDBRANCH   7   8
ENDBRANCH   6   7
ENDBRANCH   5   6
ENDBRANCH   4   5
ENDBRANCH   3   4
ENDBRANCH   2   3
ENDBRANCH   1   2
BRANCH   1  12
ATOM     12  C   UNL     1      -3.244   1.571   9.108  1.00  0.00     0.000 C 
BRANCH  12  13
ATOM     13  C   UNL     1      -4.040   2.413  10.122  1.00  0.00    -0.000 C 
BRANCH  13  14
ATOM     14  C   UNL     1      -5.180   3.216   9.470  1.00  0.00    -0.000 C 
BRANCH  14  15
ATOM     15  C   UNL     1      -5.145   4.732   9.738  1.00  0.00    -0.000 C 
BRANCH  15  16
ATOM     16  C   UNL     1      -4.903   5.560   8.464  1.00  0.00    -0.000 C 
BRANCH  16  17
ATOM     17  C   UNL     1      -5.649   6.903   8.482  1.00  0.00    -0.000 C 
BRANCH  17  18
ATOM     18  C   UNL     1      -7.059   6.803   7.881  1.00  0.00    -0.000 C 
BRANCH  18  19
ATOM     19  C   UNL     1      -7.288   7.900   6.834  1.00  0.00    -0.003 C 
ATOM     20  C   UNL     1      -8.129   7.382   5.670  1.00  0.00     0.004 C 
ENDBRANCH  18  19
ENDBRANCH  17  18
ENDBRANCH  16  17
ENDBRANCH  15  16
ENDBRANCH  14  15
ENDBRANCH  13  14
ENDBRANCH  12  13
ENDBRANCH   1  12
TORSDOF 16
ENDMDL
MODEL 2
REMARK VINA RESULT:    -3.823      1.435      2.461
REMARK INTER + INTRA:          -8.887
REMARK INTER:                  -7.350
REMARK INTRA:                  -1.537
REMARK UNBOUND:                -1.489
REMARK SMILES CCCCCCCCCCCCCCCCCC(=O)[O-]
REMARK SMILES IDX 10 1 11 2 12 3 13 4 14 5 15 6 16 7 17 8 18 9 19 10 20 11
REMARK SMILES IDX 9 12 8 13 7 14 6 15 5 16 4 17 3 18 2 19 1 20
REMARK H PARENT
REMARK Flexibility Score: inf
ROOT
ATOM      1  C   UNL     1      -2.252   2.201   9.024  1.00  0.00     0.000 C 
ENDROOT
BRANCH   1   2
ATOM      2  C   UNL     1      -1.424   3.327   9.664  1.00  0.00     0.000 C 
BRANCH   2   3
ATOM      3  C   UNL     1      -1.754   4.680   9.022  1.00  0.00     0.000 C 
BRANCH   3   4
ATOM      4  C   UNL     1      -1.098   5.832   9.798  1.00  0.00     0.000 C 
BRANCH   4   5
ATOM      5  C   UNL     1      -1.845   7.166   9.633  1.00  0.00     0.000 C 
BRANCH   5   6
ATOM      6  C   UNL     1      -0.965   8.301   9.067  1.00  0.00     0.000 C 
BRANCH   6   7
ATOM      7  C   UNL     1       0.063   7.783   8.045  1.00  0.00     0.006 C 
BRANCH   7   8
ATOM      8  C   UNL     1       1.487   8.259   8.362  1.00  0.00     0.053 C 
BRANCH   8   9
ATOM      9  C   UNL     1       2.381   8.171   7.164  1.00  0.00     0.041 C 
ATOM     10  O   UNL     1       3.556   7.733   7.279  1.00  0.00    -0.550 OA
ATOM     11  O   UNL     1       1.904   8.542   5.913  1.00  0.00    -0.550 OA
ENDBRANCH   8   9
ENDBRANCH   7   8
ENDBRANCH   6   7
ENDBRANCH   5   6
ENDBRANCH   4   5
ENDBRANCH   3   4
ENDBRANCH   2   3
ENDBRANCH   1   2
BRANCH   1  12
ATOM     12  C   UNL     1      -3.431   1.758   9.904  1.00  0.00     0.000 C 
BRANCH  12  13
ATOM     13  C   UNL     1      -4.485   0.957   9.117  1.00  0.00    -0.000 C 
BRANCH  13  14
ATOM     14  C   UNL     1      -5.786   0.739   9.910  1.00  0.00    -0.000 C 
BRANCH  14  15
ATOM     15  C   UNL     1      -7.061   0.632   9.053  1.00  0.00    -0.000 C 
BRANCH  15  16
ATOM     16  C   UNL     1      -7.856   1.948   8.994  1.00  0.00    -0.000 C 
BRANCH  16  17
ATOM     17  C   UNL     1      -7.321   3.005   9.971  1.00  0.00    -0.000 C 
BRANCH  17  18
ATOM     18  C   UNL     1      -7.041   4.352   9.288  1.00  0.00    -0.000 C 
BRANCH  18  19
ATOM     19  C   UNL     1      -5.541   4.529   9.019  1.00  0.00    -0.003 C 
ATOM     20  C   UNL     1      -5.233   5.941   8.530  1.00  0.00     0.004 C 
ENDBRANCH  18  19
ENDBRANCH  17  18
ENDBRANCH  16  17
ENDBRANCH  15  16
ENDBRANCH  14  15
ENDBRANCH  13  14
ENDBRANCH  12  13
ENDBRANCH   1  12
TORSDOF 16
ENDMDL
MODEL 3
REMARK VINA RESULT:    -3.768      0.803      1.200
REMARK INTER + INTRA:          -8.782
REMARK INTER:                  -7.449
REMARK INTRA:                  -1.333
REMARK UNBOUND:                -1.489
REMARK SMILES CCCCCCCCCCCCCCCCCC(=O)[O-]
REMARK SMILES IDX 10 1 11 2 12 3 13 4 14 5 15 6 16 7 17 8 18 9 19 10 20 11
REMARK SMILES IDX 9 12 8 13 7 14 6 15 5 16 4 17 3 18 2 19 1 20
REMARK H PARENT
REMARK Flexibility Score: inf
ROOT
ATOM      1  C   UNL     1      -3.168   1.877   9.776  1.00  0.00     0.000 C 
ENDROOT
BRANCH   1   2
ATOM      2  C   UNL     1      -1.906   2.286   9.001  1.00  0.00     0.000 C 
BRANCH   2   3
ATOM      3  C   UNL     1      -1.148   3.397   9.737  1.00  0.00     0.000 C 
BRANCH   3   4
ATOM      4  C   UNL     1      -1.534   4.780   9.194  1.00  0.00     0.000 C 
BRANCH   4   5
ATOM      5  C   UNL     1      -0.651   5.910   9.751  1.00  0.00     0.000 C 
BRANCH   5   6
ATOM      6  C   UNL     1      -0.121   6.872   8.666  1.00  0.00     0.000 C 
BRANCH   6   7
ATOM      7  C   UNL     1       1.004   7.779   9.195  1.00  0.00     0.006 C 
BRANCH   7   8
ATOM      8  C   UNL     1       1.369   8.891   8.203  1.00  0.00     0.053 C 
BRANCH   8   9
ATOM      9  C   UNL     1       2.092   8.353   7.007  1.00  0.00     0.041 C 
ATOM     10  O   UNL     1       3.267   7.916   7.119  1.00  0.00    -0.550 OA
ATOM     11  O   UNL     1       1.453   8.304   5.774  1.00  0.00    -0.550 OA
ENDBRANCH   8   9
ENDBRANCH   7   8
ENDBRANCH   6   7
ENDBRANCH   5   6
ENDBRANCH   4   5
ENDBRANCH   3   4
ENDBRANCH   2   3
ENDBRANCH   1   2
BRANCH   1  12
ATOM     12  C   UNL     1      -4.462   2.166   8.999  1.00  0.00     0.000 C 
BRANCH  12  13
ATOM     13  C   UNL     1      -5.498   2.931   9.843  1.00  0.00    -0.000 C 
BRANCH  13  14
ATOM     14  C   UNL     1      -5.094   4.393  10.108  1.00  0.00    -0.000 C 
BRANCH  14  15
ATOM     15  C   UNL     1      -4.901   5.254   8.846  1.00  0.00    -0.000 C 
BRANCH  15  16
ATOM     16  C   UNL     1      -4.831   6.760   9.153  1.00  0.00    -0.000 C 
BRANCH  16  17
ATOM     17  C   UNL     1      -6.106   7.508   8.737  1.00  0.00    -0.000 C 
BRANCH  17  18
ATOM     18  C   UNL     1      -7.040   6.646   7.875  1.00  0.00    -0.000 C 
BRANCH  18  19
ATOM     19  C   UNL     1      -7.186   7.236   6.466  1.00  0.00    -0.003 C 
ATOM     20  C   UNL     1      -8.625   7.125   5.969  1.00  0.00     0.004 C 
ENDBRANCH  18  19
ENDBRANCH  17  18
ENDBRANCH  16  17
ENDBRANCH  15  16
ENDBRANCH  14  15
ENDBRANCH  13  14
ENDBRANCH  12  13
ENDBRANCH   1  12
TORSDOF 16
ENDMDL
MODEL 4
REMARK VINA RESULT:    -3.752      3.079      6.842
REMARK INTER + INTRA:          -8.749
REMARK INTER:                  -7.188
REMARK INTRA:                  -1.561
REMARK UNBOUND:                -1.489
REMARK SMILES CCCCCCCCCCCCCCCCCC(=O)[O-]
REMARK SMILES IDX 10 1 11 2 12 3 13 4 14 5 15 6 16 7 17 8 18 9 19 10 20 11
REMARK SMILES IDX 9 12 8 13 7 14 6 15 5 16 4 17 3 18 2 19 1 20
REMARK H PARENT
REMARK Flexibility Score: inf
ROOT
ATOM      1  C   UNL     1      -2.217   2.212   9.051  1.00  0.00     0.000 C 
ENDROOT
BRANCH   1   2
ATOM      2  C   UNL     1      -3.405   1.909   9.977  1.00  0.00     0.000 C 
BRANCH   2   3
ATOM      3  C   UNL     1      -4.713   2.440   9.379  1.00  0.00     0.000 C 
BRANCH   3   4
ATOM      4  C   UNL     1      -4.966   3.892   9.810  1.00  0.00     0.000 C 
BRANCH   4   5
ATOM      5  C   UNL     1      -4.898   4.885   8.637  1.00  0.00     0.000 C 
BRANCH   5   6
ATOM      6  C   UNL     1      -4.927   6.364   9.077  1.00  0.00     0.000 C 
BRANCH   6   7
ATOM      7  C   UNL     1      -6.363   6.908   9.188  1.00  0.00     0.006 C 
BRANCH   7   8
ATOM      8  C   UNL     1      -7.234   6.493   7.996  1.00  0.00     0.053 C 
BRANCH   8   9
ATOM      9  C   UNL     1      -7.194   7.512   6.898  1.00  0.00     0.041 C 
ATOM     10  O   UNL     1      -6.871   8.702   7.148  1.00  0.00    -0.550 OA
ATOM     11  O   UNL     1      -7.480   7.136   5.592  1.00  0.00    -0.550 OA
ENDBRANCH   8   9
ENDBRANCH   7   8
ENDBRANCH   6   7
ENDBRANCH   5   6
ENDBRANCH   4   5
ENDBRANCH   3   4
ENDBRANCH   2   3
ENDBRANCH   1   2
BRANCH   1  12
ATOM     12  C   UNL     1      -1.256   3.257   9.641  1.00  0.00     0.000 C 
BRANCH  12  13
ATOM     13  C   UNL     1      -1.355   4.618   8.929  1.00  0.00    -0.000 C 
BRANCH  13  14
ATOM     14  C   UNL     1      -0.856   5.787   9.797  1.00  0.00    -0.000 C 
BRANCH  14  15
ATOM     15  C   UNL     1      -1.332   7.181   9.349  1.00  0.00    -0.000 C 
BRANCH  15  16
ATOM     16  C   UNL     1      -0.171   8.122   8.985  1.00  0.00    -0.000 C 
BRANCH  16  17
ATOM     17  C   UNL     1       0.219   8.033   7.502  1.00  0.00    -0.000 C 
BRANCH  17  18
ATOM     18  C   UNL     1       1.670   8.466   7.246  1.00  0.00    -0.000 C 
BRANCH  18  19
ATOM     19  C   UNL     1       2.598   7.957   8.357  1.00  0.00    -0.003 C 
ATOM     20  C   UNL     1       4.064   8.138   7.976  1.00  0.00     0.004 C 
ENDBRANCH  18  19
ENDBRANCH  17  18
ENDBRANCH  16  17
ENDBRANCH  15  16
ENDBRANCH  14  15
ENDBRANCH  13  14
ENDBRANCH  12  13
ENDBRANCH   1  12
TORSDOF 16
ENDMDL
MODEL 5
REMARK VINA RESULT:    -3.731      1.972      2.979
REMARK INTER + INTRA:          -8.709
REMARK INTER:                  -7.391
REMARK INTRA:                  -1.317
REMARK UNBOUND:                -1.489
REMARK SMILES CCCCCCCCCCCCCCCCCC(=O)[O-]
REMARK SMILES IDX 10 1 11 2 12 3 13 4 14 5 15 6 16 7 17 8 18 9 19 10 20 11
REMARK SMILES IDX 9 12 8 13 7 14 6 15 5 16 4 17 3 18 2 19 1 20
REMARK H PARENT
REMARK Flexibility Score: inf
ROOT
ATOM      1  C   UNL     1      -0.562   3.598  10.119  1.00  0.00     0.000 C 
ENDROOT
BRANCH   1   2
ATOM      2  C   UNL     1      -0.216   5.061   9.798  1.00  0.00     0.000 C 
BRANCH   2   3
ATOM      3  C   UNL     1      -1.444   5.809   9.265  1.00  0.00     0.000 C 
BRANCH   3   4
ATOM      4  C   UNL     1      -1.119   7.287   9.006  1.00  0.00     0.000 C 
BRANCH   4   5
ATOM      5  C   UNL     1       0.392   7.560   8.915  1.00  0.00     0.000 C 
BRANCH   5   6
ATOM      6  C   UNL     1       0.834   8.141   7.554  1.00  0.00     0.000 C 
BRANCH   6   7
ATOM      7  C   UNL     1       2.180   8.880   7.649  1.00  0.00     0.006 C 
BRANCH   7   8
ATOM      8  C   UNL     1       3.374   7.917   7.630  1.00  0.00     0.053 C 
BRANCH   8   9
ATOM      9  C   UNL     1       4.599   8.539   8.227  1.00  0.00     0.041 C 
ATOM     10  O   UNL     1       4.510   9.250   9.262  1.00  0.00    -0.550 OA
ATOM     11  O   UNL     1       5.844   8.305   7.658  1.00  0.00    -0.550 OA
ENDBRANCH   8   9
ENDBRANCH   7   8
ENDBRANCH   6   7
ENDBRANCH   5   6
ENDBRANCH   4   5
ENDBRANCH   3   4
ENDBRANCH   2   3
ENDBRANCH   1   2
BRANCH   1  12
ATOM     12  C   UNL     1      -1.630   3.020   9.177  1.00  0.00     0.000 C 
BRANCH  12  13
ATOM     13  C   UNL     1      -2.748   2.281   9.934  1.00  0.00    -0.000 C 
BRANCH  13  14
ATOM     14  C   UNL     1      -3.742   1.574   8.995  1.00  0.00    -0.000 C 
BRANCH  14  15
ATOM     15  C   UNL     1      -4.998   1.009   9.684  1.00  0.00    -0.000 C 
BRANCH  15  16
ATOM     16  C   UNL     1      -6.242   1.891   9.478  1.00  0.00    -0.000 C 
BRANCH  16  17
ATOM     17  C   UNL     1      -6.092   3.281  10.114  1.00  0.00    -0.000 C 
BRANCH  17  18
ATOM     18  C   UNL     1      -6.332   4.418   9.110  1.00  0.00    -0.000 C 
BRANCH  18  19
ATOM     19  C   UNL     1      -5.035   5.189   8.836  1.00  0.00    -0.003 C 
ATOM     20  C   UNL     1      -5.219   6.683   9.085  1.00  0.00     0.004 C 
ENDBRANCH  18  19
ENDBRANCH  17  18
ENDBRANCH  16  17
ENDBRANCH  15  16
ENDBRANCH  14  15
ENDBRANCH  13  14
ENDBRANCH  12  13
ENDBRANCH   1  12
TORSDOF 16
ENDMDL
MODEL 6
REMARK VINA RESULT:    -3.685      3.330      6.926
REMARK INTER + INTRA:          -8.621
REMARK INTER:                  -7.209
REMARK INTRA:                  -1.412
REMARK UNBOUND:                -1.489
REMARK SMILES CCCCCCCCCCCCCCCCCC(=O)[O-]
REMARK SMILES IDX 10 1 11 2 12 3 13 4 14 5 15 6 16 7 17 8 18 9 19 10 20 11
REMARK SMILES IDX 9 12 8 13 7 14 6 15 5 16 4 17 3 18 2 19 1 20
REMARK H PARENT
REMARK Flexibility Score: inf
ROOT
ATOM      1  C   UNL     1      -2.898   1.900   9.798  1.00  0.00     0.000 C 
ENDROOT
BRANCH   1   2
ATOM      2  C   UNL     1      -4.227   2.065   9.043  1.00  0.00     0.000 C 
BRANCH   2   3
ATOM      3  C   UNL     1      -5.353   2.471  10.001  1.00  0.00     0.000 C 
BRANCH   3   4
ATOM      4  C   UNL     1      -6.159   3.649   9.435  1.00  0.00     0.000 C 
BRANCH   4   5
ATOM      5  C   UNL     1      -5.435   4.997   9.586  1.00  0.00     0.000 C 
BRANCH   5   6
ATOM      6  C   UNL     1      -5.251   5.753   8.252  1.00  0.00     0.000 C 
BRANCH   6   7
ATOM      7  C   UNL     1      -6.136   7.009   8.171  1.00  0.00     0.006 C 
BRANCH   7   8
ATOM      8  C   UNL     1      -7.161   6.925   7.032  1.00  0.00     0.053 C 
BRANCH   8   9
ATOM      9  C   UNL     1      -7.578   8.284   6.558  1.00  0.00     0.041 C 
ATOM     10  O   UNL     1      -7.977   9.148   7.382  1.00  0.00    -0.550 OA
ATOM     11  O   UNL     1      -7.492   8.605   5.210  1.00  0.00    -0.550 OA
ENDBRANCH   8   9
ENDBRANCH   7   8
ENDBRANCH   6   7
ENDBRANCH   5   6
ENDBRANCH   4   5
ENDBRANCH   3   4
ENDBRANCH   2   3
ENDBRANCH   1   2
BRANCH   1  12
ATOM     12  C   UNL     1      -1.766   2.751   9.200  1.00  0.00     0.000 C 
BRANCH  12  13
ATOM     13  C   UNL     1      -1.728   4.175   9.784  1.00  0.00    -0.000 C 
BRANCH  13  14
ATOM     14  C   UNL     1      -1.654   5.265   8.699  1.00  0.00    -0.000 C 
BRANCH  14  15
ATOM     15  C   UNL     1      -0.840   6.514   9.086  1.00  0.00    -0.000 C 
BRANCH  15  16
ATOM     16  C   UNL     1       0.561   6.174   9.622  1.00  0.00    -0.000 C 
BRANCH  16  17
ATOM     17  C   UNL     1       1.608   7.236   9.254  1.00  0.00    -0.000 C 
BRANCH  17  18
ATOM     18  C   UNL     1       1.104   8.215   8.184  1.00  0.00    -0.000 C 
BRANCH  18  19
ATOM     19  C   UNL     1       2.189   8.485   7.133  1.00  0.00    -0.003 C 
ATOM     20  C   UNL     1       3.522   7.867   7.547  1.00  0.00     0.004 C 
ENDBRANCH  18  19
ENDBRANCH  17  18
ENDBRANCH  16  17
ENDBRANCH  15  16
ENDBRANCH  14  15
ENDBRANCH  13  14
ENDBRANCH  12  13
ENDBRANCH   1  12
TORSDOF 16
ENDMDL
MODEL 7
REMARK VINA RESULT:    -3.621      3.420      6.827
REMARK INTER + INTRA:          -8.497
REMARK INTER:                  -7.120
REMARK INTRA:                  -1.376
REMARK UNBOUND:                -1.489
REMARK SMILES CCCCCCCCCCCCCCCCCC(=O)[O-]
REMARK SMILES IDX 10 1 11 2 12 3 13 4 14 5 15 6 16 7 17 8 18 9 19 10 20 11
REMARK SMILES IDX 9 12 8 13 7 14 6 15 5 16 4 17 3 18 2 19 1 20
REMARK H PARENT
REMARK Flexibility Score: inf
ROOT
ATOM      1  C   UNL     1      -3.193   1.866   9.724  1.00  0.00     0.000 C 
ENDROOT
BRANCH   1   2
ATOM      2  C   UNL     1      -4.480   2.320   9.017  1.00  0.00     0.000 C 
BRANCH   2   3
ATOM      3  C   UNL     1      -5.034   3.598   9.656  1.00  0.00     0.000 C 
BRANCH   3   4
ATOM      4  C   UNL     1      -4.959   4.780   8.679  1.00  0.00     0.000 C 
BRANCH   4   5
ATOM      5  C   UNL     1      -4.683   6.120   9.382  1.00  0.00     0.000 C 
BRANCH   5   6
ATOM      6  C   UNL     1      -5.698   7.227   9.022  1.00  0.00     0.000 C 
BRANCH   6   7
ATOM      7  C   UNL     1      -6.421   6.941   7.694  1.00  0.00     0.006 C 
BRANCH   7   8
ATOM      8  C   UNL     1      -7.387   8.067   7.305  1.00  0.00     0.053 C 
BRANCH   8   9
ATOM      9  C   UNL     1      -8.121   7.756   6.037  1.00  0.00     0.041 C 
ATOM     10  O   UNL     1      -7.944   8.463   5.010  1.00  0.00    -0.550 OA
ATOM     11  O   UNL     1      -8.976   6.662   5.980  1.00  0.00    -0.550 OA
ENDBRANCH   8   9
ENDBRANCH   7   8
ENDBRANCH   6   7
ENDBRANCH   5   6
ENDBRANCH   4   5
ENDBRANCH   3   4
ENDBRANCH   2   3
ENDBRANCH   1   2
BRANCH   1  12
ATOM     12  C   UNL     1      -1.921   2.300   8.978  1.00  0.00     0.000 C 
BRANCH  12  13
ATOM     13  C   UNL     1      -1.153   3.409   9.718  1.00  0.00    -0.000 C 
BRANCH  13  14
ATOM     14  C   UNL     1      -1.349   4.799   9.084  1.00  0.00    -0.000 C 
BRANCH  14  15
ATOM     15  C   UNL     1      -0.972   5.986   9.989  1.00  0.00    -0.000 C 
BRANCH  15  16
ATOM     16  C   UNL     1      -1.164   7.349   9.301  1.00  0.00    -0.000 C 
BRANCH  16  17
ATOM     17  C   UNL     1      -0.043   7.667   8.300  1.00  0.00    -0.000 C 
BRANCH  17  18
ATOM     18  C   UNL     1       1.294   7.978   8.990  1.00  0.00    -0.000 C 
BRANCH  18  19
ATOM     19  C   UNL     1       2.462   7.850   8.004  1.00  0.00    -0.003 C 
ATOM     20  C   UNL     1       2.506   9.036   7.046  1.00  0.00     0.004 C 
ENDBRANCH  18  19
ENDBRANCH  17  18
ENDBRANCH  16  17
ENDBRANCH  15  16
ENDBRANCH  14  15
ENDBRANCH  13  14
ENDBRANCH  12  13
ENDBRANCH   1  12
TORSDOF 16
ENDMDL
MODEL 8
REMARK VINA RESULT:    -3.482      3.138      4.223
REMARK INTER + INTRA:          -8.227
REMARK INTER:                  -7.470
REMARK INTRA:                  -0.757
REMARK UNBOUND:                -1.489
REMARK SMILES CCCCCCCCCCCCCCCCCC(=O)[O-]
REMARK SMILES IDX 10 1 11 2 12 3 13 4 14 5 15 6 16 7 17 8 18 9 19 10 20 11
REMARK SMILES IDX 9 12 8 13 7 14 6 15 5 16 4 17 3 18 2 19 1 20
REMARK H PARENT
REMARK Flexibility Score: inf
ROOT
ATOM      1  C   UNL     1      -1.516   4.853   8.997  1.00  0.00     0.000 C 
ENDROOT
BRANCH   1   2
ATOM      2  C   UNL     1      -0.857   6.075   9.656  1.00  0.00     0.000 C 
BRANCH   2   3
ATOM      3  C   UNL     1       0.625   5.808   9.944  1.00  0.00     0.000 C 
BRANCH   3   4
ATOM      4  C   UNL     1       1.498   6.979   9.471  1.00  0.00     0.000 C 
BRANCH   4   5
ATOM      5  C   UNL     1       0.859   7.777   8.322  1.00  0.00     0.000 C 
BRANCH   5   6
ATOM      6  C   UNL     1       1.853   8.696   7.579  1.00  0.00     0.000 C 
BRANCH   6   7
ATOM      7  C   UNL     1       2.806   9.420   8.547  1.00  0.00     0.006 C 
BRANCH   7   8
ATOM      8  C   UNL     1       4.191   9.654   7.930  1.00  0.00     0.053 C 
BRANCH   8   9
ATOM      9  C   UNL     1       5.204   8.683   8.454  1.00  0.00     0.041 C 
ATOM     10  O   UNL     1       6.324   8.568   7.891  1.00  0.00    -0.550 OA
ATOM     11  O   UNL     1       4.921   7.928   9.585  1.00  0.00    -0.550 OA
ENDBRANCH   8   9
ENDBRANCH   7   8
ENDBRANCH   6   7
ENDBRANCH   5   6
ENDBRANCH   4   5
ENDBRANCH   3   4
ENDBRANCH   2   3
ENDBRANCH   1   2
BRANCH   1  12
ATOM     12  C   UNL     1      -1.133   3.531   9.680  1.00  0.00     0.000 C 
BRANCH  12  13
ATOM     13  C   UNL     1      -1.897   2.326   9.103  1.00  0.00    -0.000 C 
BRANCH  13  14
ATOM     14  C   UNL     1      -3.231   2.060   9.826  1.00  0.00    -0.000 C 
BRANCH  14  15
ATOM     15  C   UNL     1      -4.223   1.170   9.055  1.00  0.00    -0.000 C 
BRANCH  15  16
ATOM     16  C   UNL     1      -5.582   1.035   9.763  1.00  0.00    -0.000 C 
BRANCH  16  17
ATOM     17  C   UNL     1      -6.604   0.243   8.934  1.00  0.00    -0.000 C 
BRANCH  17  18
ATOM     18  C   UNL     1      -8.052   0.502   9.378  1.00  0.00    -0.000 C 
BRANCH  18  19
ATOM     19  C   UNL     1      -8.983   0.625   8.165  1.00  0.00    -0.003 C 
ATOM     20  C   UNL     1      -9.371   2.079   7.914  1.00  0.00     0.004 C 
ENDBRANCH  18  19
ENDBRANCH  17  18
ENDBRANCH  16  17
ENDBRANCH  15  16
ENDBRANCH  14  15
ENDBRANCH  13  14
ENDBRANCH  12  13
ENDBRANCH   1  12
TORSDOF 16
ENDMDL
MODEL 9
REMARK VINA RESULT:    -3.391      1.978      2.988
REMARK INTER + INTRA:          -8.052
REMARK INTER:                  -6.695
REMARK INTRA:                  -1.357
REMARK UNBOUND:                -1.489
REMARK SMILES CCCCCCCCCCCCCCCCCC(=O)[O-]
REMARK SMILES IDX 10 1 11 2 12 3 13 4 14 5 15 6 16 7 17 8 18 9 19 10 20 11
REMARK SMILES IDX 9 12 8 13 7 14 6 15 5 16 4 17 3 18 2 19 1 20
REMARK H PARENT
REMARK Flexibility Score: inf
ROOT
ATOM      1  C   UNL     1      -1.672   5.386   8.985  1.00  0.00     0.000 C 
ENDROOT
BRANCH   1   2
ATOM      2  C   UNL     1      -0.809   6.327   9.839  1.00  0.00     0.000 C 
BRANCH   2   3
ATOM      3  C   UNL     1       0.669   5.924   9.774  1.00  0.00     0.000 C 
BRANCH   3   4
ATOM      4  C   UNL     1       1.550   7.120   9.388  1.00  0.00     0.000 C 
BRANCH   4   5
ATOM      5  C   UNL     1       1.031   7.873   8.152  1.00  0.00     0.000 C 
BRANCH   5   6
ATOM      6  C   UNL     1       2.122   8.681   7.417  1.00  0.00     0.000 C 
BRANCH   6   7
ATOM      7  C   UNL     1       2.950   9.548   8.382  1.00  0.00     0.006 C 
BRANCH   7   8
ATOM      8  C   UNL     1       4.384   9.764   7.883  1.00  0.00     0.053 C 
BRANCH   8   9
ATOM      9  C   UNL     1       5.318   8.715   8.403  1.00  0.00     0.041 C 
ATOM     10  O   UNL     1       6.445   8.547   7.869  1.00  0.00    -0.550 OA
ATOM     11  O   UNL     1       4.954   7.945   9.501  1.00  0.00    -0.550 OA
ENDBRANCH   8   9
ENDBRANCH   7   8
ENDBRANCH   6   7
ENDBRANCH   5   6
ENDBRANCH   4   5
ENDBRANCH   3   4
ENDBRANCH   2   3
ENDBRANCH   1   2
BRANCH   1  12
ATOM     12  C   UNL     1      -1.558   3.917   9.421  1.00  0.00     0.000 C 
BRANCH  12  13
ATOM     13  C   UNL     1      -2.931   3.230   9.542  1.00  0.00    -0.000 C 
BRANCH  13  14
ATOM     14  C   UNL     1      -4.045   4.193   9.993  1.00  0.00    -0.000 C 
BRANCH  14  15
ATOM     15  C   UNL     1      -5.175   4.407   8.969  1.00  0.00    -0.000 C 
BRANCH  15  16
ATOM     16  C   UNL     1      -5.481   5.893   8.717  1.00  0.00    -0.000 C 
BRANCH  16  17
ATOM     17  C   UNL     1      -4.905   6.809   9.808  1.00  0.00    -0.000 C 
BRANCH  17  18
ATOM     18  C   UNL     1      -4.853   8.281   9.375  1.00  0.00    -0.000 C 
BRANCH  18  19
ATOM     19  C   UNL     1      -6.259   8.814   9.072  1.00  0.00    -0.003 C 
ATOM     20  C   UNL     1      -6.263   9.670   7.809  1.00  0.00     0.004 C 
ENDBRANCH  18  19
ENDBRANCH  17  18
ENDBRANCH  16  17
ENDBRANCH  15  16
ENDBRANCH  14  15
ENDBRANCH  13  14
ENDBRANCH  12  13
ENDBRANCH   1  12
TORSDOF 16
ENDMDL
