MODEL 1
REMARK VINA RESULT:    -5.206      0.000      0.000
REMARK INTER + INTRA:         -14.911
REMARK INTER:                 -11.901
REMARK INTRA:                  -3.010
REMARK UNBOUND:                -3.010
REMARK SMILES CCCCCCCCCCCCCCCCCCCCCCCC(=O)[O-]
REMARK SMILES IDX 13 1 14 2 15 3 16 4 17 5 18 6 19 7 20 8 21 9 22 10 23 11
REMARK SMILES IDX 24 12 25 13 26 14 12 15 11 16 10 17 9 18 8 19 7 20 6 21 5 22
REMARK SMILES IDX 4 23 3 24 2 25 1 26
REMARK H PARENT
REMARK Flexibility Score: inf
ROOT
ATOM      1  C   UNL     1     -21.375  42.046  89.673  1.00  0.00     0.000 C 
ENDROOT
BRANCH   1   2
ATOM      2  C   UNL     1     -22.510  43.028  89.990  1.00  0.00     0.000 C 
BRANCH   2   3
ATOM      3  C   UNL     1     -22.393  44.305  89.142  1.00  0.00     0.000 C 
BRANCH   3   4
ATOM      4  C   UNL     1     -23.390  44.310  87.966  1.00  0.00     0.000 C 
BRANCH   4   5
ATOM      5  C   UNL     1     -23.306  45.569  87.085  1.00  0.00     0.000 C 
BRANCH   5   6
ATOM      6  C   UNL     1     -24.634  46.336  87.004  1.00  0.00     0.000 C 
BRANCH   6   7
ATOM      7  C   UNL     1     -25.762  45.658  87.799  1.00  0.00     0.000 C 
BRANCH   7   8
ATOM      8  C   UNL     1     -26.427  46.607  88.812  1.00  0.00     0.000 C 
BRANCH   8   9
ATOM      9  C   UNL     1     -26.500  45.991  90.225  1.00  0.00     0.000 C 
BRANCH   9  10
ATOM     10  C   UNL     1     -26.123  44.498  90.276  1.00  0.00     0.006 C 
BRANCH  10  11
ATOM     11  C   UNL     1     -26.938  43.680  91.295  1.00  0.00     0.053 C 
BRANCH  11  12
ATOM     12  C   UNL     1     -28.060  42.905  90.669  1.00  0.00     0.041 C 
ATOM     13  O   UNL     1     -27.923  42.396  89.525  1.00  0.00    -0.550 OA
ATOM     14  O   UNL     1     -29.228  42.669  91.387  1.00  0.00    -0.550 OA
ENDBRANCH  11  12
ENDBRANCH  10  11
ENDBRANCH   9  10
ENDBRANCH   8   9
ENDBRANCH   7   8
ENDBRANCH   6   7
ENDBRANCH   5   6
ENDBRANCH   4   5
ENDBRANCH   3   4
ENDBRANCH   2   3
ENDBRANCH   1   2
BRANCH   1  15
ATOM     15  C   UNL     1     -21.002  41.145  90.867  1.00  0.00     0.000 C 
BRANCH  15  16
ATOM     16  C   UNL     1     -19.505  40.777  90.997  1.00  0.00     0.000 C 
BRANCH  16  17
ATOM     17  C   UNL     1     -19.214  39.363  91.552  1.00  0.00     0.000 C 
BRANCH  17  18
ATOM     18  C   UNL     1     -18.682  38.371  90.504  1.00  0.00    -0.000 C 
BRANCH  18  19
ATOM     19  C   UNL     1     -19.790  37.749  89.640  1.00  0.00    -0.000 C 
BRANCH  19  20
ATOM     20  C   UNL     1     -19.711  38.211  88.176  1.00  0.00    -0.000 C 
BRANCH  20  21
ATOM     21  C   UNL     1     -21.043  38.800  87.682  1.00  0.00    -0.000 C 
BRANCH  21  22
ATOM     22  C   UNL     1     -20.855  40.115  86.905  1.00  0.00    -0.000 C 
BRANCH  22  23
ATOM     23  C   UNL     1     -19.422  40.684  86.947  1.00  0.00    -0.000 C 
BRANCH  23  24
ATOM     24  C   UNL     1     -19.257  42.096  86.345  1.00  0.00    -0.000 C 
BRANCH  24  25
ATOM     25  C   UNL     1     -20.563  42.896  86.202  1.00  0.00    -0.003 C 
ATOM     26  C   UNL     1     -20.396  44.160  85.357  1.00  0.00     0.004 C 
ENDBRANCH  24  25
ENDBRANCH  23  24
ENDBRANCH  22  23
ENDBRANCH  21  22
ENDBRANCH  20  21
ENDBRANCH  19  20
ENDBRANCH  18  19
ENDBRANCH  17  18
ENDBRANCH  16  17
ENDBRANCH  15  16
ENDBRANCH   1  15
TORSDOF 22
ENDMDL
MODEL 2
REMARK VINA RESULT:    -5.175      5.782      9.827
REMARK INTER + INTRA:         -14.841
REMARK INTER:                 -12.702
REMARK INTRA:                  -2.138
REMARK UNBOUND:                -3.010
REMARK SMILES CCCCCCCCCCCCCCCCCCCCCCCC(=O)[O-]
REMARK SMILES IDX 13 1 14 2 15 3 16 4 17 5 18 6 19 7 20 8 21 9 22 10 23 11
REMARK SMILES IDX 24 12 25 13 26 14 12 15 11 16 10 17 9 18 8 19 7 20 6 21 5 22
REMARK SMILES IDX 4 23 3 24 2 25 1 26
REMARK H PARENT
REMARK Flexibility Score: inf
ROOT
ATOM      1  C   UNL     1     -19.619  37.849  88.783  1.00  0.00     0.000 C 
ENDROOT
BRANCH   1   2
ATOM      2  C   UNL     1     -20.833  38.381  88.011  1.00  0.00     0.000 C 
BRANCH   2   3
ATOM      3  C   UNL     1     -20.456  38.748  86.567  1.00  0.00     0.000 C 
BRANCH   3   4
ATOM      4  C   UNL     1     -19.554  37.679  85.916  1.00  0.00     0.000 C 
BRANCH   4   5
ATOM      5  C   UNL     1     -19.075  38.048  84.500  1.00  0.00     0.000 C 
BRANCH   5   6
ATOM      6  C   UNL     1     -18.369  36.887  83.784  1.00  0.00     0.000 C 
BRANCH   6   7
ATOM      7  C   UNL     1     -16.929  37.229  83.370  1.00  0.00     0.000 C 
BRANCH   7   8
ATOM      8  C   UNL     1     -16.197  36.038  82.727  1.00  0.00     0.000 C 
BRANCH   8   9
ATOM      9  C   UNL     1     -17.175  35.028  82.091  1.00  0.00     0.000 C 
BRANCH   9  10
ATOM     10  C   UNL     1     -17.082  34.950  80.555  1.00  0.00     0.006 C 
BRANCH  10  11
ATOM     11  C   UNL     1     -18.373  35.367  79.826  1.00  0.00     0.053 C 
BRANCH  11  12
ATOM     12  C   UNL     1     -18.414  36.828  79.487  1.00  0.00     0.041 C 
ATOM     13  O   UNL     1     -19.439  37.331  78.953  1.00  0.00    -0.550 OA
ATOM     14  O   UNL     1     -17.353  37.655  79.841  1.00  0.00    -0.550 OA
ENDBRANCH  11  12
ENDBRANCH  10  11
ENDBRANCH   9  10
ENDBRANCH   8   9
ENDBRANCH   7   8
ENDBRANCH   6   7
ENDBRANCH   5   6
ENDBRANCH   4   5
ENDBRANCH   3   4
ENDBRANCH   2   3
ENDBRANCH   1   2
BRANCH   1  15
ATOM     15  C   UNL     1     -19.143  38.804  89.895  1.00  0.00     0.000 C 
BRANCH  15  16
ATOM     16  C   UNL     1     -20.031  38.868  91.160  1.00  0.00     0.000 C 
BRANCH  16  17
ATOM     17  C   UNL     1     -20.958  40.102  91.259  1.00  0.00     0.000 C 
BRANCH  17  18
ATOM     18  C   UNL     1     -20.503  41.303  90.412  1.00  0.00    -0.000 C 
BRANCH  18  19
ATOM     19  C   UNL     1     -21.674  42.108  89.825  1.00  0.00    -0.000 C 
BRANCH  19  20
ATOM     20  C   UNL     1     -21.362  42.639  88.416  1.00  0.00    -0.000 C 
BRANCH  20  21
ATOM     21  C   UNL     1     -20.079  42.021  87.836  1.00  0.00    -0.000 C 
BRANCH  21  22
ATOM     22  C   UNL     1     -19.869  42.379  86.354  1.00  0.00    -0.000 C 
BRANCH  22  23
ATOM     23  C   UNL     1     -20.286  43.815  85.978  1.00  0.00    -0.000 C 
BRANCH  23  24
ATOM     24  C   UNL     1     -19.346  44.535  84.987  1.00  0.00    -0.000 C 
BRANCH  24  25
ATOM     25  C   UNL     1     -17.952  44.872  85.545  1.00  0.00    -0.003 C 
ATOM     26  C   UNL     1     -17.233  45.950  84.734  1.00  0.00     0.004 C 
ENDBRANCH  24  25
ENDBRANCH  23  24
ENDBRANCH  22  23
ENDBRANCH  21  22
ENDBRANCH  20  21
ENDBRANCH  19  20
ENDBRANCH  18  19
ENDBRANCH  17  18
ENDBRANCH  16  17
ENDBRANCH  15  16
ENDBRANCH   1  15
TORSDOF 22
ENDMDL
MODEL 3
REMARK VINA RESULT:    -5.171      2.394      6.567
REMARK INTER + INTRA:         -14.832
REMARK INTER:                 -11.538
REMARK INTRA:                  -3.295
REMARK UNBOUND:                -3.010
REMARK SMILES CCCCCCCCCCCCCCCCCCCCCCCC(=O)[O-]
REMARK SMILES IDX 13 1 14 2 15 3 16 4 17 5 18 6 19 7 20 8 21 9 22 10 23 11
REMARK SMILES IDX 24 12 25 13 26 14 12 15 11 16 10 17 9 18 8 19 7 20 6 21 5 22
REMARK SMILES IDX 4 23 3 24 2 25 1 26
REMARK H PARENT
REMARK Flexibility Score: inf
ROOT
ATOM      1  C   UNL     1     -21.017  39.068  87.574  1.00  0.00     0.000 C 
ENDROOT
BRANCH   1   2
ATOM      2  C   UNL     1     -19.627  38.489  87.871  1.00  0.00     0.000 C 
BRANCH   2   3
ATOM      3  C   UNL     1     -19.692  37.434  88.987  1.00  0.00     0.000 C 
BRANCH   3   4
ATOM      4  C   UNL     1     -18.461  37.497  89.913  1.00  0.00     0.000 C 
BRANCH   4   5
ATOM      5  C   UNL     1     -18.118  38.919  90.395  1.00  0.00     0.000 C 
BRANCH   5   6
ATOM      6  C   UNL     1     -19.285  39.606  91.119  1.00  0.00     0.000 C 
BRANCH   6   7
ATOM      7  C   UNL     1     -19.593  41.004  90.560  1.00  0.00     0.000 C 
BRANCH   7   8
ATOM      8  C   UNL     1     -21.087  41.362  90.648  1.00  0.00     0.000 C 
BRANCH   8   9
ATOM      9  C   UNL     1     -21.485  42.454  89.633  1.00  0.00     0.000 C 
BRANCH   9  10
ATOM     10  C   UNL     1     -22.822  43.147  89.953  1.00  0.00     0.006 C 
BRANCH  10  11
ATOM     11  C   UNL     1     -23.710  43.397  88.720  1.00  0.00     0.053 C 
BRANCH  11  12
ATOM     12  C   UNL     1     -23.963  44.853  88.458  1.00  0.00     0.041 C 
ATOM     13  O   UNL     1     -23.245  45.732  89.004  1.00  0.00    -0.550 OA
ATOM     14  O   UNL     1     -24.935  45.236  87.539  1.00  0.00    -0.550 OA
ENDBRANCH  11  12
ENDBRANCH  10  11
ENDBRANCH   9  10
ENDBRANCH   8   9
ENDBRANCH   7   8
ENDBRANCH   6   7
ENDBRANCH   5   6
ENDBRANCH   4   5
ENDBRANCH   3   4
ENDBRANCH   2   3
ENDBRANCH   1   2
BRANCH   1  15
ATOM     15  C   UNL     1     -20.964  40.423  86.841  1.00  0.00     0.000 C 
BRANCH  15  16
ATOM     16  C   UNL     1     -19.584  41.118  86.798  1.00  0.00     0.000 C 
BRANCH  16  17
ATOM     17  C   UNL     1     -19.571  42.535  86.178  1.00  0.00     0.000 C 
BRANCH  17  18
ATOM     18  C   UNL     1     -20.845  43.353  86.450  1.00  0.00    -0.000 C 
BRANCH  18  19
ATOM     19  C   UNL     1     -20.609  44.872  86.411  1.00  0.00    -0.000 C 
BRANCH  19  20
ATOM     20  C   UNL     1     -21.743  45.615  85.685  1.00  0.00    -0.000 C 
BRANCH  20  21
ATOM     21  C   UNL     1     -21.208  46.692  84.726  1.00  0.00    -0.000 C 
BRANCH  21  22
ATOM     22  C   UNL     1     -20.864  46.127  83.337  1.00  0.00    -0.000 C 
BRANCH  22  23
ATOM     23  C   UNL     1     -19.579  46.708  82.711  1.00  0.00    -0.000 C 
BRANCH  23  24
ATOM     24  C   UNL     1     -18.329  46.663  83.615  1.00  0.00    -0.000 C 
BRANCH  24  25
ATOM     25  C   UNL     1     -17.890  45.252  84.045  1.00  0.00    -0.003 C 
ATOM     26  C   UNL     1     -17.086  45.250  85.345  1.00  0.00     0.004 C 
ENDBRANCH  24  25
ENDBRANCH  23  24
ENDBRANCH  22  23
ENDBRANCH  21  22
ENDBRANCH  20  21
ENDBRANCH  19  20
ENDBRANCH  18  19
ENDBRANCH  17  18
ENDBRANCH  16  17
ENDBRANCH  15  16
ENDBRANCH   1  15
TORSDOF 22
ENDMDL
MODEL 4
REMARK VINA RESULT:    -5.140      3.693      8.184
REMARK INTER + INTRA:         -14.761
REMARK INTER:                 -11.729
REMARK INTRA:                  -3.033
REMARK UNBOUND:                -3.010
REMARK SMILES CCCCCCCCCCCCCCCCCCCCCCCC(=O)[O-]
REMARK SMILES IDX 13 1 14 2 15 3 16 4 17 5 18 6 19 7 20 8 21 9 22 10 23 11
REMARK SMILES IDX 24 12 25 13 26 14 12 15 11 16 10 17 9 18 8 19 7 20 6 21 5 22
REMARK SMILES IDX 4 23 3 24 2 25 1 26
REMARK H PARENT
REMARK Flexibility Score: inf
ROOT
ATOM      1  C   UNL     1     -20.640  42.655  86.635  1.00  0.00     0.000 C 
ENDROOT
BRANCH   1   2
ATOM      2  C   UNL     1     -20.194  42.355  88.072  1.00  0.00     0.000 C 
BRANCH   2   3
ATOM      3  C   UNL     1     -21.381  41.904  88.939  1.00  0.00     0.000 C 
BRANCH   3   4
ATOM      4  C   UNL     1     -20.918  41.297  90.279  1.00  0.00     0.000 C 
BRANCH   4   5
ATOM      5  C   UNL     1     -19.393  41.123  90.389  1.00  0.00     0.000 C 
BRANCH   5   6
ATOM      6  C   UNL     1     -18.943  40.632  91.773  1.00  0.00     0.000 C 
BRANCH   6   7
ATOM      7  C   UNL     1     -18.302  39.235  91.731  1.00  0.00     0.000 C 
BRANCH   7   8
ATOM      8  C   UNL     1     -18.031  38.750  90.296  1.00  0.00     0.000 C 
BRANCH   8   9
ATOM      9  C   UNL     1     -18.709  37.395  90.002  1.00  0.00     0.000 C 
BRANCH   9  10
ATOM     10  C   UNL     1     -19.471  37.354  88.665  1.00  0.00     0.006 C 
BRANCH  10  11
ATOM     11  C   UNL     1     -19.611  38.726  87.980  1.00  0.00     0.053 C 
BRANCH  11  12
ATOM     12  C   UNL     1     -20.345  38.662  86.672  1.00  0.00     0.041 C 
ATOM     13  O   UNL     1     -21.461  39.231  86.538  1.00  0.00    -0.550 OA
ATOM     14  O   UNL     1     -19.754  38.048  85.572  1.00  0.00    -0.550 OA
ENDBRANCH  11  12
ENDBRANCH  10  11
ENDBRANCH   9  10
ENDBRANCH   8   9
ENDBRANCH   7   8
ENDBRANCH   6   7
ENDBRANCH   5   6
ENDBRANCH   4   5
ENDBRANCH   3   4
ENDBRANCH   2   3
ENDBRANCH   1   2
BRANCH   1  15
ATOM     15  C   UNL     1     -19.492  43.157  85.737  1.00  0.00     0.000 C 
BRANCH  15  16
ATOM     16  C   UNL     1     -18.919  44.551  86.085  1.00  0.00     0.000 C 
BRANCH  16  17
ATOM     17  C   UNL     1     -17.577  44.907  85.403  1.00  0.00     0.000 C 
BRANCH  17  18
ATOM     18  C   UNL     1     -17.684  46.009  84.336  1.00  0.00    -0.000 C 
BRANCH  18  19
ATOM     19  C   UNL     1     -18.654  45.657  83.197  1.00  0.00    -0.000 C 
BRANCH  19  20
ATOM     20  C   UNL     1     -19.376  46.898  82.646  1.00  0.00    -0.000 C 
BRANCH  20  21
ATOM     21  C   UNL     1     -20.906  46.746  82.691  1.00  0.00    -0.000 C 
BRANCH  21  22
ATOM     22  C   UNL     1     -21.398  46.114  84.005  1.00  0.00    -0.000 C 
BRANCH  22  23
ATOM     23  C   UNL     1     -21.479  47.092  85.195  1.00  0.00    -0.000 C 
BRANCH  23  24
ATOM     24  C   UNL     1     -22.697  46.899  86.123  1.00  0.00    -0.000 C 
BRANCH  24  25
ATOM     25  C   UNL     1     -22.656  45.629  86.991  1.00  0.00    -0.003 C 
ATOM     26  C   UNL     1     -21.842  45.811  88.272  1.00  0.00     0.004 C 
ENDBRANCH  24  25
ENDBRANCH  23  24
ENDBRANCH  22  23
ENDBRANCH  21  22
ENDBRANCH  20  21
ENDBRANCH  19  20
ENDBRANCH  18  19
ENDBRANCH  17  18
ENDBRANCH  16  17
ENDBRANCH  15  16
ENDBRANCH   1  15
TORSDOF 22
ENDMDL
MODEL 5
REMARK VINA RESULT:    -5.100      5.915     10.355
REMARK INTER + INTRA:         -14.669
REMARK INTER:                 -12.044
REMARK INTRA:                  -2.625
REMARK UNBOUND:                -3.010
REMARK SMILES CCCCCCCCCCCCCCCCCCCCCCCC(=O)[O-]
REMARK SMILES IDX 13 1 14 2 15 3 16 4 17 5 18 6 19 7 20 8 21 9 22 10 23 11
REMARK SMILES IDX 24 12 25 13 26 14 12 15 11 16 10 17 9 18 8 19 7 20 6 21 5 22
REMARK SMILES IDX 4 23 3 24 2 25 1 26
REMARK H PARENT
REMARK Flexibility Score: inf
ROOT
ATOM      1  C   UNL     1     -19.634  40.308  87.473  1.00  0.00     0.000 C 
ENDROOT
BRANCH   1   2
ATOM      2  C   UNL     1     -20.377  39.037  87.043  1.00  0.00     0.000 C 
BRANCH   2   3
ATOM      3  C   UNL     1     -19.449  38.085  86.272  1.00  0.00     0.000 C 
BRANCH   3   4
ATOM      4  C   UNL     1     -19.785  38.043  84.767  1.00  0.00     0.000 C 
BRANCH   4   5
ATOM      5  C   UNL     1     -18.767  37.256  83.923  1.00  0.00     0.000 C 
BRANCH   5   6
ATOM      6  C   UNL     1     -17.993  36.209  84.738  1.00  0.00     0.000 C 
BRANCH   6   7
ATOM      7  C   UNL     1     -16.927  35.476  83.909  1.00  0.00     0.000 C 
BRANCH   7   8
ATOM      8  C   UNL     1     -16.242  36.393  82.880  1.00  0.00     0.000 C 
BRANCH   8   9
ATOM      9  C   UNL     1     -16.423  35.884  81.435  1.00  0.00     0.000 C 
BRANCH   9  10
ATOM     10  C   UNL     1     -17.635  34.953  81.247  1.00  0.00     0.006 C 
BRANCH  10  11
ATOM     11  C   UNL     1     -18.293  35.052  79.858  1.00  0.00     0.053 C 
BRANCH  11  12
ATOM     12  C   UNL     1     -18.693  36.451  79.491  1.00  0.00     0.041 C 
ATOM     13  O   UNL     1     -18.445  36.904  78.342  1.00  0.00    -0.550 OA
ATOM     14  O   UNL     1     -19.419  37.225  80.390  1.00  0.00    -0.550 OA
ENDBRANCH  11  12
ENDBRANCH  10  11
ENDBRANCH   9  10
ENDBRANCH   8   9
ENDBRANCH   7   8
ENDBRANCH   6   7
ENDBRANCH   5   6
ENDBRANCH   4   5
ENDBRANCH   3   4
ENDBRANCH   2   3
ENDBRANCH   1   2
BRANCH   1  15
ATOM     15  C   UNL     1     -20.578  41.429  87.950  1.00  0.00     0.000 C 
BRANCH  15  16
ATOM     16  C   UNL     1     -20.436  41.851  89.431  1.00  0.00     0.000 C 
BRANCH  16  17
ATOM     17  C   UNL     1     -20.877  40.792  90.469  1.00  0.00     0.000 C 
BRANCH  17  18
ATOM     18  C   UNL     1     -19.999  40.741  91.730  1.00  0.00    -0.000 C 
BRANCH  18  19
ATOM     19  C   UNL     1     -18.495  40.668  91.419  1.00  0.00    -0.000 C 
BRANCH  19  20
ATOM     20  C   UNL     1     -17.945  39.239  91.551  1.00  0.00    -0.000 C 
BRANCH  20  21
ATOM     21  C   UNL     1     -17.931  38.498  90.203  1.00  0.00    -0.000 C 
BRANCH  21  22
ATOM     22  C   UNL     1     -19.067  37.466  90.085  1.00  0.00    -0.000 C 
BRANCH  22  23
ATOM     23  C   UNL     1     -18.784  36.314  89.098  1.00  0.00    -0.000 C 
BRANCH  23  24
ATOM     24  C   UNL     1     -17.328  35.802  89.085  1.00  0.00    -0.000 C 
BRANCH  24  25
ATOM     25  C   UNL     1     -16.981  34.866  87.914  1.00  0.00    -0.003 C 
ATOM     26  C   UNL     1     -16.284  33.583  88.366  1.00  0.00     0.004 C 
ENDBRANCH  24  25
ENDBRANCH  23  24
ENDBRANCH  22  23
ENDBRANCH  21  22
ENDBRANCH  20  21
ENDBRANCH  19  20
ENDBRANCH  18  19
ENDBRANCH  17  18
ENDBRANCH  16  17
ENDBRANCH  15  16
ENDBRANCH   1  15
TORSDOF 22
ENDMDL
MODEL 6
REMARK VINA RESULT:    -5.079      1.140      3.970
REMARK INTER + INTRA:         -14.621
REMARK INTER:                 -11.945
REMARK INTRA:                  -2.676
REMARK UNBOUND:                -3.010
REMARK SMILES CCCCCCCCCCCCCCCCCCCCCCCC(=O)[O-]
REMARK SMILES IDX 13 1 14 2 15 3 16 4 17 5 18 6 19 7 20 8 21 9 22 10 23 11
REMARK SMILES IDX 24 12 25 13 26 14 12 15 11 16 10 17 9 18 8 19 7 20 6 21 5 22
REMARK SMILES IDX 4 23 3 24 2 25 1 26
REMARK H PARENT
REMARK Flexibility Score: inf
ROOT
ATOM      1  C   UNL     1     -19.218  44.879  85.760  1.00  0.00     0.000 C 
ENDROOT
BRANCH   1   2
ATOM      2  C   UNL     1     -19.975  45.498  84.579  1.00  0.00     0.000 C 
BRANCH   2   3
ATOM      3  C   UNL     1     -21.450  45.748  84.934  1.00  0.00     0.000 C 
BRANCH   3   4
ATOM      4  C   UNL     1     -21.624  46.180  86.404  1.00  0.00     0.000 C 
BRANCH   4   5
ATOM      5  C   UNL     1     -23.002  45.832  86.996  1.00  0.00     0.000 C 
BRANCH   5   6
ATOM      6  C   UNL     1     -23.017  45.845  88.531  1.00  0.00     0.000 C 
BRANCH   6   7
ATOM      7  C   UNL     1     -23.929  44.760  89.128  1.00  0.00     0.000 C 
BRANCH   7   8
ATOM      8  C   UNL     1     -25.392  44.897  88.669  1.00  0.00     0.000 C 
BRANCH   8   9
ATOM      9  C   UNL     1     -26.186  45.888  89.545  1.00  0.00     0.000 C 
BRANCH   9  10
ATOM     10  C   UNL     1     -26.982  45.219  90.681  1.00  0.00     0.006 C 
BRANCH  10  11
ATOM     11  C   UNL     1     -26.815  43.689  90.748  1.00  0.00     0.053 C 
BRANCH  11  12
ATOM     12  C   UNL     1     -28.075  42.942  90.421  1.00  0.00     0.041 C 
ATOM     13  O   UNL     1     -28.974  42.797  91.291  1.00  0.00    -0.550 OA
ATOM     14  O   UNL     1     -28.294  42.482  89.126  1.00  0.00    -0.550 OA
ENDBRANCH  11  12
ENDBRANCH  10  11
ENDBRANCH   9  10
ENDBRANCH   8   9
ENDBRANCH   7   8
ENDBRANCH   6   7
ENDBRANCH   5   6
ENDBRANCH   4   5
ENDBRANCH   3   4
ENDBRANCH   2   3
ENDBRANCH   1   2
BRANCH   1  15
ATOM     15  C   UNL     1     -19.145  43.340  85.694  1.00  0.00     0.000 C 
BRANCH  15  16
ATOM     16  C   UNL     1     -20.289  42.576  86.400  1.00  0.00     0.000 C 
BRANCH  16  17
ATOM     17  C   UNL     1     -20.557  42.987  87.867  1.00  0.00     0.000 C 
BRANCH  17  18
ATOM     18  C   UNL     1     -21.658  42.167  88.560  1.00  0.00    -0.000 C 
BRANCH  18  19
ATOM     19  C   UNL     1     -21.224  41.596  89.920  1.00  0.00    -0.000 C 
BRANCH  19  20
ATOM     20  C   UNL     1     -19.767  41.106  89.903  1.00  0.00    -0.000 C 
BRANCH  20  21
ATOM     21  C   UNL     1     -19.463  40.155  91.074  1.00  0.00    -0.000 C 
BRANCH  21  22
ATOM     22  C   UNL     1     -19.940  38.717  90.806  1.00  0.00    -0.000 C 
BRANCH  22  23
ATOM     23  C   UNL     1     -18.894  37.812  90.125  1.00  0.00    -0.000 C 
BRANCH  23  24
ATOM     24  C   UNL     1     -19.240  37.374  88.686  1.00  0.00    -0.000 C 
BRANCH  24  25
ATOM     25  C   UNL     1     -20.515  38.008  88.104  1.00  0.00    -0.003 C 
ATOM     26  C   UNL     1     -20.245  38.848  86.856  1.00  0.00     0.004 C 
ENDBRANCH  24  25
ENDBRANCH  23  24
ENDBRANCH  22  23
ENDBRANCH  21  22
ENDBRANCH  20  21
ENDBRANCH  19  20
ENDBRANCH  18  19
ENDBRANCH  17  18
ENDBRANCH  16  17
ENDBRANCH  15  16
ENDBRANCH   1  15
TORSDOF 22
ENDMDL
MODEL 7
REMARK VINA RESULT:    -5.022      5.463      9.622
REMARK INTER + INTRA:         -14.490
REMARK INTER:                 -12.650
REMARK INTRA:                  -1.840
REMARK UNBOUND:                -3.010
REMARK SMILES CCCCCCCCCCCCCCCCCCCCCCCC(=O)[O-]
REMARK SMILES IDX 13 1 14 2 15 3 16 4 17 5 18 6 19 7 20 8 21 9 22 10 23 11
REMARK SMILES IDX 24 12 25 13 26 14 12 15 11 16 10 17 9 18 8 19 7 20 6 21 5 22
REMARK SMILES IDX 4 23 3 24 2 25 1 26
REMARK H PARENT
REMARK Flexibility Score: inf
ROOT
ATOM      1  C   UNL     1     -20.683  39.286  90.538  1.00  0.00     0.000 C 
ENDROOT
BRANCH   1   2
ATOM      2  C   UNL     1     -19.320  38.713  90.132  1.00  0.00     0.000 C 
BRANCH   2   3
ATOM      3  C   UNL     1     -19.455  37.749  88.942  1.00  0.00     0.000 C 
BRANCH   3   4
ATOM      4  C   UNL     1     -20.604  38.155  87.998  1.00  0.00     0.000 C 
BRANCH   4   5
ATOM      5  C   UNL     1     -20.134  38.865  86.715  1.00  0.00     0.000 C 
BRANCH   5   6
ATOM      6  C   UNL     1     -20.055  37.926  85.503  1.00  0.00     0.000 C 
BRANCH   6   7
ATOM      7  C   UNL     1     -18.809  38.173  84.637  1.00  0.00     0.000 C 
BRANCH   7   8
ATOM      8  C   UNL     1     -18.344  36.909  83.893  1.00  0.00     0.000 C 
BRANCH   8   9
ATOM      9  C   UNL     1     -16.987  37.115  83.187  1.00  0.00     0.000 C 
BRANCH   9  10
ATOM     10  C   UNL     1     -16.833  36.311  81.883  1.00  0.00     0.006 C 
BRANCH  10  11
ATOM     11  C   UNL     1     -17.217  37.094  80.614  1.00  0.00     0.053 C 
BRANCH  11  12
ATOM     12  C   UNL     1     -18.291  36.423  79.808  1.00  0.00     0.041 C 
ATOM     13  O   UNL     1     -18.957  37.078  78.963  1.00  0.00    -0.550 OA
ATOM     14  O   UNL     1     -18.497  35.052  79.928  1.00  0.00    -0.550 OA
ENDBRANCH  11  12
ENDBRANCH  10  11
ENDBRANCH   9  10
ENDBRANCH   8   9
ENDBRANCH   7   8
ENDBRANCH   6   7
ENDBRANCH   5   6
ENDBRANCH   4   5
ENDBRANCH   3   4
ENDBRANCH   2   3
ENDBRANCH   1   2
BRANCH   1  15
ATOM     15  C   UNL     1     -20.681  40.822  90.666  1.00  0.00     0.000 C 
BRANCH  15  16
ATOM     16  C   UNL     1     -21.209  41.605  89.442  1.00  0.00     0.000 C 
BRANCH  16  17
ATOM     17  C   UNL     1     -20.162  41.911  88.346  1.00  0.00     0.000 C 
BRANCH  17  18
ATOM     18  C   UNL     1     -20.723  42.667  87.130  1.00  0.00    -0.000 C 
BRANCH  18  19
ATOM     19  C   UNL     1     -20.517  44.187  87.213  1.00  0.00    -0.000 C 
BRANCH  19  20
ATOM     20  C   UNL     1     -21.657  44.964  86.535  1.00  0.00    -0.000 C 
BRANCH  20  21
ATOM     21  C   UNL     1     -21.136  45.947  85.473  1.00  0.00    -0.000 C 
BRANCH  21  22
ATOM     22  C   UNL     1     -20.794  45.252  84.143  1.00  0.00    -0.000 C 
BRANCH  22  23
ATOM     23  C   UNL     1     -19.752  45.996  83.282  1.00  0.00    -0.000 C 
BRANCH  23  24
ATOM     24  C   UNL     1     -18.666  46.755  84.074  1.00  0.00    -0.000 C 
BRANCH  24  25
ATOM     25  C   UNL     1     -17.343  45.991  84.256  1.00  0.00    -0.003 C 
ATOM     26  C   UNL     1     -17.355  45.064  85.471  1.00  0.00     0.004 C 
ENDBRANCH  24  25
ENDBRANCH  23  24
ENDBRANCH  22  23
ENDBRANCH  21  22
ENDBRANCH  20  21
ENDBRANCH  19  20
ENDBRANCH  18  19
ENDBRANCH  17  18
ENDBRANCH  16  17
ENDBRANCH  15  16
ENDBRANCH   1  15
TORSDOF 22
ENDMDL
MODEL 8
REMARK VINA RESULT:    -5.012      1.864      5.087
REMARK INTER + INTRA:         -14.467
REMARK INTER:                 -11.308
REMARK INTRA:                  -3.159
REMARK UNBOUND:                -3.010
REMARK SMILES CCCCCCCCCCCCCCCCCCCCCCCC(=O)[O-]
REMARK SMILES IDX 13 1 14 2 15 3 16 4 17 5 18 6 19 7 20 8 21 9 22 10 23 11
REMARK SMILES IDX 24 12 25 13 26 14 12 15 11 16 10 17 9 18 8 19 7 20 6 21 5 22
REMARK SMILES IDX 4 23 3 24 2 25 1 26
REMARK H PARENT
REMARK Flexibility Score: inf
ROOT
ATOM      1  C   UNL     1     -18.015  45.773  84.741  1.00  0.00     0.000 C 
ENDROOT
BRANCH   1   2
ATOM      2  C   UNL     1     -18.825  45.577  83.453  1.00  0.00     0.000 C 
BRANCH   2   3
ATOM      3  C   UNL     1     -19.928  46.640  83.323  1.00  0.00     0.000 C 
BRANCH   3   4
ATOM      4  C   UNL     1     -21.269  46.154  83.908  1.00  0.00     0.000 C 
BRANCH   4   5
ATOM      5  C   UNL     1     -21.601  46.754  85.286  1.00  0.00     0.000 C 
BRANCH   5   6
ATOM      6  C   UNL     1     -22.090  45.705  86.296  1.00  0.00     0.000 C 
BRANCH   6   7
ATOM      7  C   UNL     1     -21.244  45.673  87.579  1.00  0.00     0.000 C 
BRANCH   7   8
ATOM      8  C   UNL     1     -21.975  45.001  88.755  1.00  0.00     0.000 C 
BRANCH   8   9
ATOM      9  C   UNL     1     -23.509  45.048  88.590  1.00  0.00     0.000 C 
BRANCH   9  10
ATOM     10  C   UNL     1     -24.213  43.717  88.912  1.00  0.00     0.006 C 
BRANCH  10  11
ATOM     11  C   UNL     1     -24.702  43.601  90.367  1.00  0.00     0.053 C 
BRANCH  11  12
ATOM     12  C   UNL     1     -26.101  44.109  90.563  1.00  0.00     0.041 C 
ATOM     13  O   UNL     1     -26.322  45.346  90.659  1.00  0.00    -0.550 OA
ATOM     14  O   UNL     1     -27.172  43.222  90.550  1.00  0.00    -0.550 OA
ENDBRANCH  11  12
ENDBRANCH  10  11
ENDBRANCH   9  10
ENDBRANCH   8   9
ENDBRANCH   7   8
ENDBRANCH   6   7
ENDBRANCH   5   6
ENDBRANCH   4   5
ENDBRANCH   3   4
ENDBRANCH   2   3
ENDBRANCH   1   2
BRANCH   1  15
ATOM     15  C   UNL     1     -18.125  44.583  85.713  1.00  0.00     0.000 C 
BRANCH  15  16
ATOM     16  C   UNL     1     -19.244  43.559  85.408  1.00  0.00     0.000 C 
BRANCH  16  17
ATOM     17  C   UNL     1     -19.503  42.509  86.514  1.00  0.00     0.000 C 
BRANCH  17  18
ATOM     18  C   UNL     1     -20.968  42.053  86.619  1.00  0.00    -0.000 C 
BRANCH  18  19
ATOM     19  C   UNL     1     -21.280  41.315  87.931  1.00  0.00    -0.000 C 
BRANCH  19  20
ATOM     20  C   UNL     1     -20.385  41.788  89.088  1.00  0.00    -0.000 C 
BRANCH  20  21
ATOM     21  C   UNL     1     -20.818  41.187  90.437  1.00  0.00    -0.000 C 
BRANCH  21  22
ATOM     22  C   UNL     1     -19.661  40.483  91.168  1.00  0.00    -0.000 C 
BRANCH  22  23
ATOM     23  C   UNL     1     -18.465  40.115  90.266  1.00  0.00    -0.000 C 
BRANCH  23  24
ATOM     24  C   UNL     1     -18.029  38.635  90.323  1.00  0.00    -0.000 C 
BRANCH  24  25
ATOM     25  C   UNL     1     -18.985  37.651  89.625  1.00  0.00    -0.003 C 
ATOM     26  C   UNL     1     -18.340  36.294  89.345  1.00  0.00     0.004 C 
ENDBRANCH  24  25
ENDBRANCH  23  24
ENDBRANCH  22  23
ENDBRANCH  21  22
ENDBRANCH  20  21
ENDBRANCH  19  20
ENDBRANCH  18  19
ENDBRANCH  17  18
ENDBRANCH  16  17
ENDBRANCH  15  16
ENDBRANCH   1  15
TORSDOF 22
ENDMDL
MODEL 9
REMARK VINA RESULT:    -4.971      3.023      8.353
REMARK INTER + INTRA:         -14.374
REMARK INTER:                 -11.632
REMARK INTRA:                  -2.742
REMARK UNBOUND:                -3.010
REMARK SMILES CCCCCCCCCCCCCCCCCCCCCCCC(=O)[O-]
REMARK SMILES IDX 13 1 14 2 15 3 16 4 17 5 18 6 19 7 20 8 21 9 22 10 23 11
REMARK SMILES IDX 24 12 25 13 26 14 12 15 11 16 10 17 9 18 8 19 7 20 6 21 5 22
REMARK SMILES IDX 4 23 3 24 2 25 1 26
REMARK H PARENT
REMARK Flexibility Score: inf
ROOT
ATOM      1  C   UNL     1     -21.271  42.179  89.951  1.00  0.00     0.000 C 
ENDROOT
BRANCH   1   2
ATOM      2  C   UNL     1     -21.044  41.139  91.055  1.00  0.00     0.000 C 
BRANCH   2   3
ATOM      3  C   UNL     1     -19.994  40.099  90.631  1.00  0.00     0.000 C 
BRANCH   3   4
ATOM      4  C   UNL     1     -20.625  38.924  89.857  1.00  0.00     0.000 C 
BRANCH   4   5
ATOM      5  C   UNL     1     -19.745  38.391  88.711  1.00  0.00     0.000 C 
BRANCH   5   6
ATOM      6  C   UNL     1     -20.420  38.498  87.336  1.00  0.00     0.000 C 
BRANCH   6   7
ATOM      7  C   UNL     1     -20.914  39.920  87.023  1.00  0.00     0.000 C 
BRANCH   7   8
ATOM      8  C   UNL     1     -19.761  40.928  86.868  1.00  0.00     0.000 C 
BRANCH   8   9
ATOM      9  C   UNL     1     -20.268  42.343  86.518  1.00  0.00     0.000 C 
BRANCH   9  10
ATOM     10  C   UNL     1     -19.258  43.188  85.719  1.00  0.00     0.006 C 
BRANCH  10  11
ATOM     11  C   UNL     1     -19.582  44.693  85.692  1.00  0.00     0.053 C 
BRANCH  11  12
ATOM     12  C   UNL     1     -19.843  45.216  84.310  1.00  0.00     0.041 C 
ATOM     13  O   UNL     1     -21.024  45.406  83.912  1.00  0.00    -0.550 OA
ATOM     14  O   UNL     1     -18.779  45.580  83.491  1.00  0.00    -0.550 OA
ENDBRANCH  11  12
ENDBRANCH  10  11
ENDBRANCH   9  10
ENDBRANCH   8   9
ENDBRANCH   7   8
ENDBRANCH   6   7
ENDBRANCH   5   6
ENDBRANCH   4   5
ENDBRANCH   3   4
ENDBRANCH   2   3
ENDBRANCH   1   2
BRANCH   1  15
ATOM     15  C   UNL     1     -22.580  42.974  90.128  1.00  0.00     0.000 C 
BRANCH  15  16
ATOM     16  C   UNL     1     -23.154  43.628  88.850  1.00  0.00     0.000 C 
BRANCH  16  17
ATOM     17  C   UNL     1     -22.390  44.872  88.339  1.00  0.00     0.000 C 
BRANCH  17  18
ATOM     18  C   UNL     1     -22.926  45.442  87.014  1.00  0.00    -0.000 C 
BRANCH  18  19
ATOM     19  C   UNL     1     -23.986  46.537  87.210  1.00  0.00    -0.000 C 
BRANCH  19  20
ATOM     20  C   UNL     1     -25.415  45.968  87.203  1.00  0.00    -0.000 C 
BRANCH  20  21
ATOM     21  C   UNL     1     -26.270  46.535  88.349  1.00  0.00    -0.000 C 
BRANCH  21  22
ATOM     22  C   UNL     1     -25.706  46.181  89.737  1.00  0.00    -0.000 C 
BRANCH  22  23
ATOM     23  C   UNL     1     -26.672  45.380  90.633  1.00  0.00    -0.000 C 
BRANCH  23  24
ATOM     24  C   UNL     1     -26.423  43.857  90.672  1.00  0.00    -0.000 C 
BRANCH  24  25
ATOM     25  C   UNL     1     -27.372  43.069  91.593  1.00  0.00    -0.003 C 
ATOM     26  C   UNL     1     -28.774  42.908  91.004  1.00  0.00     0.004 C 
ENDBRANCH  24  25
ENDBRANCH  23  24
ENDBRANCH  22  23
ENDBRANCH  21  22
ENDBRANCH  20  21
ENDBRANCH  19  20
ENDBRANCH  18  19
ENDBRANCH  17  18
ENDBRANCH  16  17
ENDBRANCH  15  16
ENDBRANCH   1  15
TORSDOF 22
ENDMDL
