MODEL 1
REMARK VINA RESULT:    -3.820      0.000      0.000
REMARK INTER + INTRA:          -7.381
REMARK INTER:                  -6.053
REMARK INTRA:                  -1.328
REMARK UNBOUND:                -1.328
REMARK SMILES CCCCCCCCCCCC(=O)[O-]
REMARK SMILES IDX 7 1 8 2 9 3 10 4 11 5 12 6 13 7 14 8 6 9 5 10 4 11 3 12 2 13
REMARK SMILES IDX 1 14
REMARK H PARENT
REMARK Flexibility Score: inf
ROOT
ATOM      1  C   UNL     1      41.395  26.898 226.433  1.00  0.00     0.000 C 
ENDROOT
BRANCH   1   2
ATOM      2  C   UNL     1      39.939  27.395 226.390  1.00  0.00     0.000 C 
BRANCH   2   3
ATOM      3  C   UNL     1      38.922  26.242 226.404  1.00  0.00     0.000 C 
BRANCH   3   4
ATOM      4  C   UNL     1      38.350  25.939 225.011  1.00  0.00     0.006 C 
BRANCH   4   5
ATOM      5  C   UNL     1      37.526  24.648 225.026  1.00  0.00     0.053 C 
BRANCH   5   6
ATOM      6  C   UNL     1      36.076  24.947 224.817  1.00  0.00     0.041 C 
ATOM      7  O   UNL     1      35.522  25.878 225.460  1.00  0.00    -0.550 OA
ATOM      8  O   UNL     1      35.346  24.232 223.876  1.00  0.00    -0.550 OA
ENDBRANCH   5   6
ENDBRANCH   4   5
ENDBRANCH   3   4
ENDBRANCH   2   3
ENDBRANCH   1   2
BRANCH   1   9
ATOM      9  C   UNL     1      41.542  25.572 227.197  1.00  0.00     0.000 C 
BRANCH   9  10
ATOM     10  C   UNL     1      42.533  24.605 226.526  1.00  0.00    -0.000 C 
BRANCH  10  11
ATOM     11  C   UNL     1      42.053  24.133 225.144  1.00  0.00    -0.000 C 
BRANCH  11  12
ATOM     12  C   UNL     1      41.063  22.962 225.231  1.00  0.00    -0.000 C 
BRANCH  12  13
ATOM     13  C   UNL     1      40.465  22.647 223.854  1.00  0.00    -0.003 C 
ATOM     14  C   UNL     1      40.543  23.858 222.929  1.00  0.00     0.004 C 
ENDBRANCH  12  13
ENDBRANCH  11  12
ENDBRANCH  10  11
ENDBRANCH   9  10
ENDBRANCH   1   9
TORSDOF 10
ENDMDL
MODEL 2
REMARK VINA RESULT:    -3.784      1.523      3.556
REMARK INTER + INTRA:          -7.324
REMARK INTER:                  -5.551
REMARK INTRA:                  -1.773
REMARK UNBOUND:                -1.328
REMARK SMILES CCCCCCCCCCCC(=O)[O-]
REMARK SMILES IDX 7 1 8 2 9 3 10 4 11 5 12 6 13 7 14 8 6 9 5 10 4 11 3 12 2 13
REMARK SMILES IDX 1 14
REMARK H PARENT
REMARK Flexibility Score: inf
ROOT
ATOM      1  C   UNL     1      40.043  23.477 226.686  1.00  0.00     0.000 C 
ENDROOT
BRANCH   1   2
ATOM      2  C   UNL     1      39.817  23.201 225.188  1.00  0.00     0.000 C 
BRANCH   2   3
ATOM      3  C   UNL     1      39.761  24.491 224.353  1.00  0.00     0.000 C 
BRANCH   3   4
ATOM      4  C   UNL     1      38.370  24.751 223.756  1.00  0.00     0.006 C 
BRANCH   4   5
ATOM      5  C   UNL     1      37.612  25.803 224.571  1.00  0.00     0.053 C 
BRANCH   5   6
ATOM      6  C   UNL     1      36.342  25.230 225.116  1.00  0.00     0.041 C 
ATOM      7  O   UNL     1      35.434  25.993 225.538  1.00  0.00    -0.550 OA
ATOM      8  O   UNL     1      36.141  23.856 225.112  1.00  0.00    -0.550 OA
ENDBRANCH   5   6
ENDBRANCH   4   5
ENDBRANCH   3   4
ENDBRANCH   2   3
ENDBRANCH   1   2
BRANCH   1   9
ATOM      9  C   UNL     1      38.728  23.531 227.479  1.00  0.00     0.000 C 
BRANCH   9  10
ATOM     10  C   UNL     1      38.481  24.905 228.126  1.00  0.00    -0.000 C 
BRANCH  10  11
ATOM     11  C   UNL     1      39.700  25.836 228.018  1.00  0.00    -0.000 C 
BRANCH  11  12
ATOM     12  C   UNL     1      39.327  27.241 227.524  1.00  0.00    -0.000 C 
BRANCH  12  13
ATOM     13  C   UNL     1      40.216  27.662 226.347  1.00  0.00    -0.003 C 
ATOM     14  C   UNL     1      41.593  27.011 226.437  1.00  0.00     0.004 C 
ENDBRANCH  12  13
ENDBRANCH  11  12
ENDBRANCH  10  11
ENDBRANCH   9  10
ENDBRANCH   1   9
TORSDOF 10
ENDMDL
MODEL 3
REMARK VINA RESULT:    -3.780      1.106      2.161
REMARK INTER + INTRA:          -7.318
REMARK INTER:                  -5.845
REMARK INTRA:                  -1.473
REMARK UNBOUND:                -1.328
REMARK SMILES CCCCCCCCCCCC(=O)[O-]
REMARK SMILES IDX 7 1 8 2 9 3 10 4 11 5 12 6 13 7 14 8 6 9 5 10 4 11 3 12 2 13
REMARK SMILES IDX 1 14
REMARK H PARENT
REMARK Flexibility Score: inf
ROOT
ATOM      1  C   UNL     1      39.452  27.026 227.262  1.00  0.00     0.000 C 
ENDROOT
BRANCH   1   2
ATOM      2  C   UNL     1      38.577  26.030 226.481  1.00  0.00     0.000 C 
BRANCH   2   3
ATOM      3  C   UNL     1      38.670  26.229 224.960  1.00  0.00     0.000 C 
BRANCH   3   4
ATOM      4  C   UNL     1      38.330  24.955 224.172  1.00  0.00     0.006 C 
BRANCH   4   5
ATOM      5  C   UNL     1      37.270  24.126 224.904  1.00  0.00     0.053 C 
BRANCH   5   6
ATOM      6  C   UNL     1      35.896  24.588 224.535  1.00  0.00     0.041 C 
ATOM      7  O   UNL     1      35.321  24.120 223.517  1.00  0.00    -0.550 OA
ATOM      8  O   UNL     1      35.228  25.499 225.344  1.00  0.00    -0.550 OA
ENDBRANCH   5   6
ENDBRANCH   4   5
ENDBRANCH   3   4
ENDBRANCH   2   3
ENDBRANCH   1   2
BRANCH   1   9
ATOM      9  C   UNL     1      40.624  27.562 226.425  1.00  0.00     0.000 C 
BRANCH   9  10
ATOM     10  C   UNL     1      41.995  27.161 226.997  1.00  0.00    -0.000 C 
BRANCH  10  11
ATOM     11  C   UNL     1      42.259  25.650 226.894  1.00  0.00    -0.000 C 
BRANCH  11  12
ATOM     12  C   UNL     1      42.674  25.218 225.480  1.00  0.00    -0.000 C 
BRANCH  12  13
ATOM     13  C   UNL     1      41.891  23.978 225.034  1.00  0.00    -0.003 C 
ATOM     14  C   UNL     1      41.124  23.361 226.200  1.00  0.00     0.004 C 
ENDBRANCH  12  13
ENDBRANCH  11  12
ENDBRANCH  10  11
ENDBRANCH   9  10
ENDBRANCH   1   9
TORSDOF 10
ENDMDL
MODEL 4
REMARK VINA RESULT:    -3.777      3.304      4.854
REMARK INTER + INTRA:          -7.313
REMARK INTER:                  -5.936
REMARK INTRA:                  -1.377
REMARK UNBOUND:                -1.328
REMARK SMILES CCCCCCCCCCCC(=O)[O-]
REMARK SMILES IDX 7 1 8 2 9 3 10 4 11 5 12 6 13 7 14 8 6 9 5 10 4 11 3 12 2 13
REMARK SMILES IDX 1 14
REMARK H PARENT
REMARK Flexibility Score: inf
ROOT
ATOM      1  C   UNL     1      36.476  24.155 223.404  1.00  0.00     0.000 C 
ENDROOT
BRANCH   1   2
ATOM      2  C   UNL     1      36.584  22.704 223.906  1.00  0.00     0.000 C 
BRANCH   2   3
ATOM      3  C   UNL     1      36.879  22.623 225.414  1.00  0.00     0.000 C 
BRANCH   3   4
ATOM      4  C   UNL     1      37.654  21.354 225.798  1.00  0.00     0.006 C 
BRANCH   4   5
ATOM      5  C   UNL     1      36.848  20.496 226.778  1.00  0.00     0.053 C 
BRANCH   5   6
ATOM      6  C   UNL     1      36.230  19.331 226.072  1.00  0.00     0.041 C 
ATOM      7  O   UNL     1      34.981  19.271 225.923  1.00  0.00    -0.550 OA
ATOM      8  O   UNL     1      37.036  18.337 225.533  1.00  0.00    -0.550 OA
ENDBRANCH   5   6
ENDBRANCH   4   5
ENDBRANCH   3   4
ENDBRANCH   2   3
ENDBRANCH   1   2
BRANCH   1   9
ATOM      9  C   UNL     1      36.884  25.180 224.474  1.00  0.00     0.000 C 
BRANCH   9  10
ATOM     10  C   UNL     1      38.236  25.850 224.171  1.00  0.00    -0.000 C 
BRANCH  10  11
ATOM     11  C   UNL     1      39.314  25.499 225.210  1.00  0.00    -0.000 C 
BRANCH  11  12
ATOM     12  C   UNL     1      40.085  24.221 224.851  1.00  0.00    -0.000 C 
BRANCH  12  13
ATOM     13  C   UNL     1      40.472  24.212 223.368  1.00  0.00    -0.003 C 
ATOM     14  C   UNL     1      40.060  22.904 222.699  1.00  0.00     0.004 C 
ENDBRANCH  12  13
ENDBRANCH  11  12
ENDBRANCH  10  11
ENDBRANCH   9  10
ENDBRANCH   1   9
TORSDOF 10
ENDMDL
MODEL 5
REMARK VINA RESULT:    -3.740      2.682      3.941
REMARK INTER + INTRA:          -7.254
REMARK INTER:                  -5.912
REMARK INTRA:                  -1.342
REMARK UNBOUND:                -1.328
REMARK SMILES CCCCCCCCCCCC(=O)[O-]
REMARK SMILES IDX 7 1 8 2 9 3 10 4 11 5 12 6 13 7 14 8 6 9 5 10 4 11 3 12 2 13
REMARK SMILES IDX 1 14
REMARK H PARENT
REMARK Flexibility Score: inf
ROOT
ATOM      1  C   UNL     1      41.422  21.863 222.797  1.00  0.00     0.000 C 
ENDROOT
BRANCH   1   2
ATOM      2  C   UNL     1      41.074  23.319 223.154  1.00  0.00     0.000 C 
BRANCH   2   3
ATOM      3  C   UNL     1      39.671  23.725 222.673  1.00  0.00     0.000 C 
BRANCH   3   4
ATOM      4  C   UNL     1      38.933  24.617 223.683  1.00  0.00     0.006 C 
BRANCH   4   5
ATOM      5  C   UNL     1      37.417  24.539 223.478  1.00  0.00     0.053 C 
BRANCH   5   6
ATOM      6  C   UNL     1      36.699  24.782 224.767  1.00  0.00     0.041 C 
ATOM      7  O   UNL     1      36.408  25.955 225.119  1.00  0.00    -0.550 OA
ATOM      8  O   UNL     1      36.306  23.709 225.557  1.00  0.00    -0.550 OA
ENDBRANCH   5   6
ENDBRANCH   4   5
ENDBRANCH   3   4
ENDBRANCH   2   3
ENDBRANCH   1   2
BRANCH   1   9
ATOM      9  C   UNL     1      42.497  21.272 223.724  1.00  0.00     0.000 C 
BRANCH   9  10
ATOM     10  C   UNL     1      42.024  19.998 224.446  1.00  0.00    -0.000 C 
BRANCH  10  11
ATOM     11  C   UNL     1      40.590  19.599 224.060  1.00  0.00    -0.000 C 
BRANCH  11  12
ATOM     12  C   UNL     1      39.622  19.650 225.251  1.00  0.00    -0.000 C 
BRANCH  12  13
ATOM     13  C   UNL     1      38.803  20.947 225.236  1.00  0.00    -0.003 C 
ATOM     14  C   UNL     1      39.322  21.938 226.274  1.00  0.00     0.004 C 
ENDBRANCH  12  13
ENDBRANCH  11  12
ENDBRANCH  10  11
ENDBRANCH   9  10
ENDBRANCH   1   9
TORSDOF 10
ENDMDL
MODEL 6
REMARK VINA RESULT:    -3.730      0.981      3.261
REMARK INTER + INTRA:          -7.239
REMARK INTER:                  -5.791
REMARK INTRA:                  -1.448
REMARK UNBOUND:                -1.328
REMARK SMILES CCCCCCCCCCCC(=O)[O-]
REMARK SMILES IDX 7 1 8 2 9 3 10 4 11 5 12 6 13 7 14 8 6 9 5 10 4 11 3 12 2 13
REMARK SMILES IDX 1 14
REMARK H PARENT
REMARK Flexibility Score: inf
ROOT
ATOM      1  C   UNL     1      41.626  23.459 225.632  1.00  0.00     0.000 C 
ENDROOT
BRANCH   1   2
ATOM      2  C   UNL     1      40.198  23.334 225.070  1.00  0.00     0.000 C 
BRANCH   2   3
ATOM      3  C   UNL     1      39.817  24.513 224.161  1.00  0.00     0.000 C 
BRANCH   3   4
ATOM      4  C   UNL     1      38.386  24.401 223.613  1.00  0.00     0.006 C 
BRANCH   4   5
ATOM      5  C   UNL     1      37.542  25.607 224.035  1.00  0.00     0.053 C 
BRANCH   5   6
ATOM      6  C   UNL     1      36.217  25.160 224.567  1.00  0.00     0.041 C 
ATOM      7  O   UNL     1      35.739  24.047 224.224  1.00  0.00    -0.550 OA
ATOM      8  O   UNL     1      35.533  25.951 225.482  1.00  0.00    -0.550 OA
ENDBRANCH   5   6
ENDBRANCH   4   5
ENDBRANCH   3   4
ENDBRANCH   2   3
ENDBRANCH   1   2
BRANCH   1   9
ATOM      9  C   UNL     1      42.281  24.804 225.279  1.00  0.00     0.000 C 
BRANCH   9  10
ATOM     10  C   UNL     1      42.930  25.486 226.495  1.00  0.00    -0.000 C 
BRANCH  10  11
ATOM     11  C   UNL     1      41.939  26.359 227.281  1.00  0.00    -0.000 C 
BRANCH  11  12
ATOM     12  C   UNL     1      41.114  27.282 226.372  1.00  0.00    -0.000 C 
BRANCH  12  13
ATOM     13  C   UNL     1      39.621  27.192 226.709  1.00  0.00    -0.003 C 
ATOM     14  C   UNL     1      39.326  25.974 227.581  1.00  0.00     0.004 C 
ENDBRANCH  12  13
ENDBRANCH  11  12
ENDBRANCH  10  11
ENDBRANCH   9  10
ENDBRANCH   1   9
TORSDOF 10
ENDMDL
MODEL 7
REMARK VINA RESULT:    -3.703      1.792      3.065
REMARK INTER + INTRA:          -7.196
REMARK INTER:                  -5.488
REMARK INTRA:                  -1.708
REMARK UNBOUND:                -1.328
REMARK SMILES CCCCCCCCCCCC(=O)[O-]
REMARK SMILES IDX 7 1 8 2 9 3 10 4 11 5 12 6 13 7 14 8 6 9 5 10 4 11 3 12 2 13
REMARK SMILES IDX 1 14
REMARK H PARENT
REMARK Flexibility Score: inf
ROOT
ATOM      1  C   UNL     1      41.912  24.152 224.857  1.00  0.00     0.000 C 
ENDROOT
BRANCH   1   2
ATOM      2  C   UNL     1      41.055  23.295 223.908  1.00  0.00     0.000 C 
BRANCH   2   3
ATOM      3  C   UNL     1      40.082  24.140 223.068  1.00  0.00     0.000 C 
BRANCH   3   4
ATOM      4  C   UNL     1      38.613  23.902 223.446  1.00  0.00     0.006 C 
BRANCH   4   5
ATOM      5  C   UNL     1      37.952  25.199 223.921  1.00  0.00     0.053 C 
BRANCH   5   6
ATOM      6  C   UNL     1      36.610  24.918 224.518  1.00  0.00     0.041 C 
ATOM      7  O   UNL     1      36.086  23.780 224.390  1.00  0.00    -0.550 OA
ATOM      8  O   UNL     1      35.960  25.896 225.259  1.00  0.00    -0.550 OA
ENDBRANCH   5   6
ENDBRANCH   4   5
ENDBRANCH   3   4
ENDBRANCH   2   3
ENDBRANCH   1   2
BRANCH   1   9
ATOM      9  C   UNL     1      41.077  24.826 225.957  1.00  0.00     0.000 C 
BRANCH   9  10
ATOM     10  C   UNL     1      40.569  23.828 227.012  1.00  0.00    -0.000 C 
BRANCH  10  11
ATOM     11  C   UNL     1      39.056  23.948 227.257  1.00  0.00    -0.000 C 
BRANCH  11  12
ATOM     12  C   UNL     1      38.302  22.645 226.950  1.00  0.00    -0.000 C 
BRANCH  12  13
ATOM     13  C   UNL     1      39.280  21.510 226.625  1.00  0.00    -0.003 C 
ATOM     14  C   UNL     1      38.822  20.723 225.400  1.00  0.00     0.004 C 
ENDBRANCH  12  13
ENDBRANCH  11  12
ENDBRANCH  10  11
ENDBRANCH   9  10
ENDBRANCH   1   9
TORSDOF 10
ENDMDL
MODEL 8
REMARK VINA RESULT:    -3.686      3.934      5.521
REMARK INTER + INTRA:          -7.169
REMARK INTER:                  -6.070
REMARK INTRA:                  -1.099
REMARK UNBOUND:                -1.328
REMARK SMILES CCCCCCCCCCCC(=O)[O-]
REMARK SMILES IDX 7 1 8 2 9 3 10 4 11 5 12 6 13 7 14 8 6 9 5 10 4 11 3 12 2 13
REMARK SMILES IDX 1 14
REMARK H PARENT
REMARK Flexibility Score: inf
ROOT
ATOM      1  C   UNL     1      39.642  22.666 223.958  1.00  0.00     0.000 C 
ENDROOT
BRANCH   1   2
ATOM      2  C   UNL     1      38.960  22.416 225.315  1.00  0.00     0.000 C 
BRANCH   2   3
ATOM      3  C   UNL     1      37.756  21.466 225.203  1.00  0.00     0.000 C 
BRANCH   3   4
ATOM      4  C   UNL     1      37.855  20.268 226.159  1.00  0.00     0.006 C 
BRANCH   4   5
ATOM      5  C   UNL     1      36.515  20.007 226.852  1.00  0.00     0.053 C 
BRANCH   5   6
ATOM      6  C   UNL     1      36.130  18.567 226.728  1.00  0.00     0.041 C 
ATOM      7  O   UNL     1      35.838  18.083 225.603  1.00  0.00    -0.550 OA
ATOM      8  O   UNL     1      36.144  17.745 227.848  1.00  0.00    -0.550 OA
ENDBRANCH   5   6
ENDBRANCH   4   5
ENDBRANCH   3   4
ENDBRANCH   2   3
ENDBRANCH   1   2
BRANCH   1   9
ATOM      9  C   UNL     1      39.878  24.160 223.685  1.00  0.00     0.000 C 
BRANCH   9  10
ATOM     10  C   UNL     1      38.991  25.070 224.553  1.00  0.00    -0.000 C 
BRANCH  10  11
ATOM     11  C   UNL     1      37.725  25.536 223.817  1.00  0.00    -0.000 C 
BRANCH  11  12
ATOM     12  C   UNL     1      36.441  24.941 224.415  1.00  0.00    -0.000 C 
BRANCH  12  13
ATOM     13  C   UNL     1      35.715  24.063 223.389  1.00  0.00    -0.003 C 
ATOM     14  C   UNL     1      36.519  23.943 222.098  1.00  0.00     0.004 C 
ENDBRANCH  12  13
ENDBRANCH  11  12
ENDBRANCH  10  11
ENDBRANCH   9  10
ENDBRANCH   1   9
TORSDOF 10
ENDMDL
MODEL 9
REMARK VINA RESULT:    -3.653      3.532      5.158
REMARK INTER + INTRA:          -7.116
REMARK INTER:                  -5.848
REMARK INTRA:                  -1.268
REMARK UNBOUND:                -1.328
REMARK SMILES CCCCCCCCCCCC(=O)[O-]
REMARK SMILES IDX 7 1 8 2 9 3 10 4 11 5 12 6 13 7 14 8 6 9 5 10 4 11 3 12 2 13
REMARK SMILES IDX 1 14
REMARK H PARENT
REMARK Flexibility Score: inf
ROOT
ATOM      1  C   UNL     1      37.732  22.897 225.828  1.00  0.00     0.000 C 
ENDROOT
BRANCH   1   2
ATOM      2  C   UNL     1      38.938  22.047 226.265  1.00  0.00     0.000 C 
BRANCH   2   3
ATOM      3  C   UNL     1      38.920  20.638 225.650  1.00  0.00     0.000 C 
BRANCH   3   4
ATOM      4  C   UNL     1      38.384  19.574 226.619  1.00  0.00     0.006 C 
BRANCH   4   5
ATOM      5  C   UNL     1      37.487  18.570 225.890  1.00  0.00     0.053 C 
BRANCH   5   6
ATOM      6  C   UNL     1      36.112  19.130 225.707  1.00  0.00     0.041 C 
ATOM      7  O   UNL     1      35.388  18.735 224.755  1.00  0.00    -0.550 OA
ATOM      8  O   UNL     1      35.610  20.052 226.617  1.00  0.00    -0.550 OA
ENDBRANCH   5   6
ENDBRANCH   4   5
ENDBRANCH   3   4
ENDBRANCH   2   3
ENDBRANCH   1   2
BRANCH   1   9
ATOM      9  C   UNL     1      37.459  22.800 224.319  1.00  0.00     0.000 C 
BRANCH   9  10
ATOM     10  C   UNL     1      38.124  23.934 223.520  1.00  0.00    -0.000 C 
BRANCH  10  11
ATOM     11  C   UNL     1      39.271  23.433 222.626  1.00  0.00    -0.000 C 
BRANCH  11  12
ATOM     12  C   UNL     1      40.646  23.929 223.096  1.00  0.00    -0.000 C 
BRANCH  12  13
ATOM     13  C   UNL     1      41.494  22.768 223.630  1.00  0.00    -0.003 C 
ATOM     14  C   UNL     1      41.414  21.556 222.706  1.00  0.00     0.004 C 
ENDBRANCH  12  13
ENDBRANCH  11  12
ENDBRANCH  10  11
ENDBRANCH   9  10
ENDBRANCH   1   9
TORSDOF 10
ENDMDL
