MODEL 1
REMARK VINA RESULT:    -3.294      0.000      0.000
REMARK INTER + INTRA:          -4.168
REMARK INTER:                  -3.871
REMARK INTRA:                  -0.297
REMARK UNBOUND:                -0.297
REMARK SMILES O=c1cc(-c2ccc(O)c(O)c2)oc2cc(O)cc(O)c12
REMARK SMILES IDX 4 1 3 2 2 3 1 4 21 5 19 6 18 7 16 8 15 9 14 10 13 11 5 12
REMARK SMILES IDX 6 13 7 14 8 15 12 16 10 17 9 18 11 20 20 22 17 24
REMARK H PARENT 9 19 11 21 20 23 17 25
REMARK Flexibility Score: inf
ROOT
ATOM      1  C   UNL     1      22.100  44.505  29.951  1.00  0.00     0.138 A 
ATOM      2  C   UNL     1      22.509  45.228  28.822  1.00  0.00     0.100 A 
ATOM      3  C   UNL     1      22.513  44.610  27.570  1.00  0.00     0.197 A 
ATOM      4  O   UNL     1      22.825  45.302  26.567  1.00  0.00    -0.289 OA
ATOM      5  C   UNL     1      22.135  43.251  27.456  1.00  0.00     0.107 A 
ATOM      6  C   UNL     1      22.139  42.507  26.239  1.00  0.00     0.134 A 
ATOM      7  C   UNL     1      21.633  41.200  26.227  1.00  0.00     0.093 A 
ATOM      8  C   UNL     1      21.179  40.593  27.397  1.00  0.00     0.123 A 
ATOM      9  C   UNL     1      21.221  41.293  28.604  1.00  0.00     0.094 A 
ATOM     10  C   UNL     1      21.688  42.609  28.642  1.00  0.00     0.146 A 
ATOM     11  O   UNL     1      21.697  43.247  29.808  1.00  0.00    -0.456 OA
ENDROOT
BRANCH   1  12
ATOM     12  C   UNL     1      22.078  45.113  31.306  1.00  0.00     0.021 A 
ATOM     13  C   UNL     1      23.125  45.965  31.697  1.00  0.00     0.016 A 
ATOM     14  C   UNL     1      23.124  46.556  32.964  1.00  0.00     0.051 A 
ATOM     15  C   UNL     1      22.077  46.314  33.856  1.00  0.00     0.157 A 
ATOM     16  C   UNL     1      21.019  44.883  32.204  1.00  0.00     0.062 A 
ATOM     17  C   UNL     1      21.016  45.476  33.475  1.00  0.00     0.158 A 
BRANCH  15  18
ATOM     18  O   UNL     1      22.105  46.917  35.113  1.00  0.00    -0.504 OA
ATOM     19  H   UNL     1      21.944  46.392  35.965  1.00  0.00     0.293 HD
ENDBRANCH  15  18
BRANCH  17  20
ATOM     20  O   UNL     1      19.963  45.240  34.357  1.00  0.00    -0.504 OA
ATOM     21  H   UNL     1      19.236  45.929  34.512  1.00  0.00     0.293 HD
ENDBRANCH  17  20
ENDBRANCH   1  12
BRANCH   6  22
ATOM     22  O   UNL     1      22.648  42.989  25.030  1.00  0.00    -0.507 OA
ATOM     23  H   UNL     1      22.651  43.958  24.751  1.00  0.00     0.293 HD
ENDBRANCH   6  22
BRANCH   8  24
ATOM     24  O   UNL     1      20.697  39.287  27.351  1.00  0.00    -0.508 OA
ATOM     25  H   UNL     1      19.757  39.080  27.034  1.00  0.00     0.293 HD
ENDBRANCH   8  24
TORSDOF 5
ENDMDL
MODEL 2
REMARK VINA RESULT:    -3.227      1.463      3.070
REMARK INTER + INTRA:          -4.090
REMARK INTER:                  -3.819
REMARK INTRA:                  -0.271
REMARK UNBOUND:                -0.297
REMARK SMILES O=c1cc(-c2ccc(O)c(O)c2)oc2cc(O)cc(O)c12
REMARK SMILES IDX 4 1 3 2 2 3 1 4 21 5 19 6 18 7 16 8 15 9 14 10 13 11 5 12
REMARK SMILES IDX 6 13 7 14 8 15 12 16 10 17 9 18 11 20 20 22 17 24
REMARK H PARENT 9 19 11 21 20 23 17 25
REMARK Flexibility Score: inf
ROOT
ATOM      1  C   UNL     1      22.134  44.632  29.583  1.00  0.00     0.138 A 
ATOM      2  C   UNL     1      21.987  43.274  29.272  1.00  0.00     0.100 A 
ATOM      3  C   UNL     1      22.065  42.857  27.943  1.00  0.00     0.197 A 
ATOM      4  O   UNL     1      21.991  41.625  27.701  1.00  0.00    -0.289 OA
ATOM      5  C   UNL     1      22.259  43.813  26.917  1.00  0.00     0.107 A 
ATOM      6  C   UNL     1      22.314  43.509  25.524  1.00  0.00     0.134 A 
ATOM      7  C   UNL     1      22.628  44.522  24.608  1.00  0.00     0.093 A 
ATOM      8  C   UNL     1      22.830  45.836  25.029  1.00  0.00     0.123 A 
ATOM      9  C   UNL     1      22.725  46.155  26.383  1.00  0.00     0.094 A 
ATOM     10  C   UNL     1      22.448  45.160  27.325  1.00  0.00     0.146 A 
ATOM     11  O   UNL     1      22.371  45.502  28.607  1.00  0.00    -0.456 OA
ENDROOT
BRANCH   1  12
ATOM     12  C   UNL     1      22.059  45.129  30.981  1.00  0.00     0.021 A 
ATOM     13  C   UNL     1      23.123  45.884  31.503  1.00  0.00     0.016 A 
ATOM     14  C   UNL     1      23.074  46.369  32.813  1.00  0.00     0.051 A 
ATOM     15  C   UNL     1      21.960  46.119  33.619  1.00  0.00     0.157 A 
ATOM     16  C   UNL     1      20.933  44.891  31.792  1.00  0.00     0.062 A 
ATOM     17  C   UNL     1      20.882  45.380  33.106  1.00  0.00     0.158 A 
BRANCH  15  18
ATOM     18  O   UNL     1      21.941  46.616  34.921  1.00  0.00    -0.504 OA
ATOM     19  H   UNL     1      22.394  46.133  35.688  1.00  0.00     0.293 HD
ENDBRANCH  15  18
BRANCH  17  20
ATOM     20  O   UNL     1      19.763  45.136  33.901  1.00  0.00    -0.504 OA
ATOM     21  H   UNL     1      18.827  45.365  33.585  1.00  0.00     0.293 HD
ENDBRANCH  17  20
ENDBRANCH   1  12
BRANCH   6  22
ATOM     22  O   UNL     1      22.045  42.246  24.988  1.00  0.00    -0.507 OA
ATOM     23  H   UNL     1      22.732  41.522  24.846  1.00  0.00     0.293 HD
ENDBRANCH   6  22
BRANCH   8  24
ATOM     24  O   UNL     1      23.125  46.821  24.089  1.00  0.00    -0.508 OA
ATOM     25  H   UNL     1      24.069  47.164  23.960  1.00  0.00     0.293 HD
ENDBRANCH   8  24
TORSDOF 5
ENDMDL
MODEL 3
REMARK VINA RESULT:    -3.207      1.369      2.796
REMARK INTER + INTRA:          -4.066
REMARK INTER:                  -3.799
REMARK INTRA:                  -0.267
REMARK UNBOUND:                -0.297
REMARK SMILES O=c1cc(-c2ccc(O)c(O)c2)oc2cc(O)cc(O)c12
REMARK SMILES IDX 4 1 3 2 2 3 1 4 21 5 19 6 18 7 16 8 15 9 14 10 13 11 5 12
REMARK SMILES IDX 6 13 7 14 8 15 12 16 10 17 9 18 11 20 20 22 17 24
REMARK H PARENT 9 19 11 21 20 23 17 25
REMARK Flexibility Score: inf
ROOT
ATOM      1  C   UNL     1      21.737  44.003  30.885  1.00  0.00     0.138 A 
ATOM      2  C   UNL     1      21.258  42.706  31.112  1.00  0.00     0.100 A 
ATOM      3  C   UNL     1      21.151  41.813  30.044  1.00  0.00     0.197 A 
ATOM      4  O   UNL     1      20.779  40.637  30.288  1.00  0.00    -0.289 OA
ATOM      5  C   UNL     1      21.497  42.236  28.737  1.00  0.00     0.107 A 
ATOM      6  C   UNL     1      21.390  41.426  27.568  1.00  0.00     0.134 A 
ATOM      7  C   UNL     1      21.871  41.912  26.345  1.00  0.00     0.093 A 
ATOM      8  C   UNL     1      22.399  43.198  26.239  1.00  0.00     0.123 A 
ATOM      9  C   UNL     1      22.458  44.019  27.366  1.00  0.00     0.094 A 
ATOM     10  C   UNL     1      22.018  43.550  28.607  1.00  0.00     0.146 A 
ATOM     11  O   UNL     1      22.106  44.357  29.659  1.00  0.00    -0.456 OA
ENDROOT
BRANCH   1  12
ATOM     12  C   UNL     1      21.869  44.993  31.985  1.00  0.00     0.021 A 
ATOM     13  C   UNL     1      22.974  44.920  32.850  1.00  0.00     0.016 A 
ATOM     14  C   UNL     1      23.125  45.843  33.889  1.00  0.00     0.051 A 
ATOM     15  C   UNL     1      22.184  46.859  34.074  1.00  0.00     0.157 A 
ATOM     16  C   UNL     1      20.930  46.026  32.168  1.00  0.00     0.062 A 
ATOM     17  C   UNL     1      21.082  46.955  33.209  1.00  0.00     0.158 A 
BRANCH  15  18
ATOM     18  O   UNL     1      22.362  47.765  35.120  1.00  0.00    -0.504 OA
ATOM     19  H   UNL     1      22.203  47.508  36.087  1.00  0.00     0.293 HD
ENDBRANCH  15  18
BRANCH  17  20
ATOM     20  O   UNL     1      20.145  47.973  33.382  1.00  0.00    -0.504 OA
ATOM     21  H   UNL     1      20.412  48.885  33.734  1.00  0.00     0.293 HD
ENDBRANCH  17  20
ENDBRANCH   1  12
BRANCH   6  22
ATOM     22  O   UNL     1      20.801  40.158  27.546  1.00  0.00    -0.507 OA
ATOM     23  H   UNL     1      21.299  39.289  27.662  1.00  0.00     0.293 HD
ENDBRANCH   6  22
BRANCH   8  24
ATOM     24  O   UNL     1      22.853  43.654  25.004  1.00  0.00    -0.508 OA
ATOM     25  H   UNL     1      23.030  43.017  24.236  1.00  0.00     0.293 HD
ENDBRANCH   8  24
TORSDOF 5
ENDMDL
MODEL 4
REMARK VINA RESULT:    -0.496      2.144      7.212
REMARK INTER + INTRA:          -0.879
REMARK INTER:                  -0.562
REMARK INTRA:                  -0.317
REMARK UNBOUND:                -0.297
REMARK SMILES O=c1cc(-c2ccc(O)c(O)c2)oc2cc(O)cc(O)c12
REMARK SMILES IDX 4 1 3 2 2 3 1 4 21 5 19 6 18 7 16 8 15 9 14 10 13 11 5 12
REMARK SMILES IDX 6 13 7 14 8 15 12 16 10 17 9 18 11 20 20 22 17 24
REMARK H PARENT 9 19 11 21 20 23 17 25
REMARK Flexibility Score: inf
ROOT
ATOM      1  C   UNL     1      21.764  42.725  27.227  1.00  0.00     0.138 A 
ATOM      2  C   UNL     1      21.263  41.451  27.527  1.00  0.00     0.100 A 
ATOM      3  C   UNL     1      20.934  41.131  28.845  1.00  0.00     0.197 A 
ATOM      4  O   UNL     1      20.428  40.002  29.073  1.00  0.00    -0.289 OA
ATOM      5  C   UNL     1      21.140  42.083  29.872  1.00  0.00     0.107 A 
ATOM      6  C   UNL     1      20.879  41.854  31.255  1.00  0.00     0.134 A 
ATOM      7  C   UNL     1      21.010  42.909  32.167  1.00  0.00     0.093 A 
ATOM      8  C   UNL     1      21.448  44.167  31.754  1.00  0.00     0.123 A 
ATOM      9  C   UNL     1      21.758  44.388  30.412  1.00  0.00     0.094 A 
ATOM     10  C   UNL     1      21.604  43.364  29.473  1.00  0.00     0.146 A 
ATOM     11  O   UNL     1      21.895  43.619  28.201  1.00  0.00    -0.456 OA
ENDROOT
BRANCH   1  12
ATOM     12  C   UNL     1      22.131  43.118  25.843  1.00  0.00     0.021 A 
ATOM     13  C   UNL     1      22.127  42.148  24.826  1.00  0.00     0.016 A 
ATOM     14  C   UNL     1      22.461  42.493  23.513  1.00  0.00     0.051 A 
ATOM     15  C   UNL     1      22.795  43.811  23.192  1.00  0.00     0.157 A 
ATOM     16  C   UNL     1      22.455  44.447  25.511  1.00  0.00     0.062 A 
ATOM     17  C   UNL     1      22.789  44.795  24.194  1.00  0.00     0.158 A 
BRANCH  15  18
ATOM     18  O   UNL     1      23.125  44.124  21.873  1.00  0.00    -0.504 OA
ATOM     19  H   UNL     1      22.824  43.552  21.094  1.00  0.00     0.293 HD
ENDBRANCH  15  18
BRANCH  17  20
ATOM     20  O   UNL     1      23.110  46.114  23.877  1.00  0.00    -0.504 OA
ATOM     21  H   UNL     1      23.428  46.375  22.951  1.00  0.00     0.293 HD
ENDBRANCH  17  20
ENDBRANCH   1  12
BRANCH   6  22
ATOM     22  O   UNL     1      20.517  40.613  31.787  1.00  0.00    -0.507 OA
ATOM     23  H   UNL     1      20.591  40.359  32.760  1.00  0.00     0.293 HD
ENDBRANCH   6  22
BRANCH   8  24
ATOM     24  O   UNL     1      21.582  45.190  32.691  1.00  0.00    -0.508 OA
ATOM     25  H   UNL     1      21.909  46.111  32.426  1.00  0.00     0.293 HD
ENDBRANCH   8  24
TORSDOF 5
ENDMDL
