MODEL 1
REMARK VINA RESULT:    -5.632      0.000      0.000
REMARK INTER + INTRA:          -7.068
REMARK INTER:                  -6.784
REMARK INTRA:                  -0.284
REMARK UNBOUND:                -0.284
REMARK SMILES O=c1c(O)c(-c2ccc(O)c(O)c2)oc2cc(O)cc(O)c12
REMARK SMILES IDX 5 1 3 2 2 3 1 4 22 5 20 6 19 7 17 8 16 9 15 10 14 11 6 12
REMARK SMILES IDX 7 13 8 14 9 15 13 16 11 17 10 18 12 20 4 22 21 24 18 26
REMARK H PARENT 10 19 12 21 4 23 21 25 18 27
REMARK Flexibility Score: inf
ROOT
ATOM      1  C   UNL     1      -4.705  -7.700  11.080  1.00  0.00     0.180 A 
ATOM      2  C   UNL     1      -5.608  -6.885  10.377  1.00  0.00     0.208 A 
ATOM      3  C   UNL     1      -6.717  -6.353  11.055  1.00  0.00     0.238 A 
ATOM      4  O   UNL     1      -7.551  -5.669  10.407  1.00  0.00    -0.285 OA
ATOM      5  C   UNL     1      -6.898  -6.629  12.431  1.00  0.00     0.111 A 
ATOM      6  C   UNL     1      -7.963  -6.109  13.228  1.00  0.00     0.134 A 
ATOM      7  C   UNL     1      -8.119  -6.553  14.547  1.00  0.00     0.093 A 
ATOM      8  C   UNL     1      -7.213  -7.446  15.118  1.00  0.00     0.123 A 
ATOM      9  C   UNL     1      -6.133  -7.913  14.367  1.00  0.00     0.094 A 
ATOM     10  C   UNL     1      -5.972  -7.517  13.037  1.00  0.00     0.146 A 
ATOM     11  O   UNL     1      -4.939  -7.993  12.354  1.00  0.00    -0.452 OA
ENDROOT
BRANCH   1  12
ATOM     12  C   UNL     1      -3.500  -8.276  10.440  1.00  0.00     0.025 A 
ATOM     13  C   UNL     1      -3.472  -9.610   9.999  1.00  0.00     0.016 A 
ATOM     14  C   UNL     1      -2.333 -10.125   9.375  1.00  0.00     0.051 A 
ATOM     15  C   UNL     1      -1.210  -9.312   9.172  1.00  0.00     0.157 A 
ATOM     16  C   UNL     1      -2.380  -7.459  10.214  1.00  0.00     0.062 A 
ATOM     17  C   UNL     1      -1.236  -7.972   9.592  1.00  0.00     0.158 A 
BRANCH  15  18
ATOM     18  O   UNL     1      -0.074  -9.830   8.552  1.00  0.00    -0.504 OA
ATOM     19  H   UNL     1       0.057  -9.770   7.549  1.00  0.00     0.293 HD
ENDBRANCH  15  18
BRANCH  17  20
ATOM     20  O   UNL     1      -0.138  -7.135   9.397  1.00  0.00    -0.504 OA
ATOM     21  H   UNL     1       0.714  -7.458   8.954  1.00  0.00     0.293 HD
ENDBRANCH  17  20
ENDBRANCH   1  12
BRANCH   2  22
ATOM     22  O   UNL     1      -5.422  -6.643   9.012  1.00  0.00    -0.502 OA
ATOM     23  H   UNL     1      -5.922  -7.155   8.296  1.00  0.00     0.293 HD
ENDBRANCH   2  22
BRANCH   6  24
ATOM     24  O   UNL     1      -8.872  -5.144  12.783  1.00  0.00    -0.507 OA
ATOM     25  H   UNL     1      -8.858  -4.721  11.868  1.00  0.00     0.293 HD
ENDBRANCH   6  24
BRANCH   8  26
ATOM     26  O   UNL     1      -7.389  -7.854  16.438  1.00  0.00    -0.508 OA
ATOM     27  H   UNL     1      -6.602  -7.968  17.067  1.00  0.00     0.293 HD
ENDBRANCH   8  26
TORSDOF 6
ENDMDL
MODEL 2
REMARK VINA RESULT:    -5.477      2.366      6.798
REMARK INTER + INTRA:          -6.881
REMARK INTER:                  -7.290
REMARK INTRA:                   0.409
REMARK UNBOUND:                -0.284
REMARK SMILES O=c1c(O)c(-c2ccc(O)c(O)c2)oc2cc(O)cc(O)c12
REMARK SMILES IDX 5 1 3 2 2 3 1 4 22 5 20 6 19 7 17 8 16 9 15 10 14 11 6 12
REMARK SMILES IDX 7 13 8 14 9 15 13 16 11 17 10 18 12 20 4 22 21 24 18 26
REMARK H PARENT 10 19 12 21 4 23 21 25 18 27
REMARK Flexibility Score: inf
ROOT
ATOM      1  C   UNL     1      -4.118  -7.673  11.987  1.00  0.00     0.180 A 
ATOM      2  C   UNL     1      -3.911  -8.077  13.316  1.00  0.00     0.208 A 
ATOM      3  C   UNL     1      -2.689  -8.675  13.664  1.00  0.00     0.238 A 
ATOM      4  O   UNL     1      -2.530  -9.085  14.843  1.00  0.00    -0.285 OA
ATOM      5  C   UNL     1      -1.683  -8.844  12.682  1.00  0.00     0.111 A 
ATOM      6  C   UNL     1      -0.393  -9.401  12.932  1.00  0.00     0.134 A 
ATOM      7  C   UNL     1       0.475  -9.641  11.859  1.00  0.00     0.093 A 
ATOM      8  C   UNL     1       0.126  -9.286  10.557  1.00  0.00     0.123 A 
ATOM      9  C   UNL     1      -1.110  -8.687  10.310  1.00  0.00     0.094 A 
ATOM     10  C   UNL     1      -2.012  -8.467  11.354  1.00  0.00     0.146 A 
ATOM     11  O   UNL     1      -3.181  -7.904  11.075  1.00  0.00    -0.452 OA
ENDROOT
BRANCH   1  12
ATOM     12  C   UNL     1      -5.370  -7.013  11.549  1.00  0.00     0.025 A 
ATOM     13  C   UNL     1      -6.541  -7.078  12.324  1.00  0.00     0.016 A 
ATOM     14  C   UNL     1      -7.704  -6.428  11.904  1.00  0.00     0.051 A 
ATOM     15  C   UNL     1      -7.711  -5.693  10.711  1.00  0.00     0.157 A 
ATOM     16  C   UNL     1      -5.377  -6.257  10.365  1.00  0.00     0.062 A 
ATOM     17  C   UNL     1      -6.539  -5.606   9.940  1.00  0.00     0.158 A 
BRANCH  15  18
ATOM     18  O   UNL     1      -8.873  -5.047  10.293  1.00  0.00    -0.504 OA
ATOM     19  H   UNL     1      -8.884  -4.056  10.082  1.00  0.00     0.293 HD
ENDBRANCH  15  18
BRANCH  17  20
ATOM     20  O   UNL     1      -6.511  -4.876   8.752  1.00  0.00    -0.504 OA
ATOM     21  H   UNL     1      -6.117  -3.944   8.702  1.00  0.00     0.293 HD
ENDBRANCH  17  20
ENDBRANCH   1  12
BRANCH   2  22
ATOM     22  O   UNL     1      -4.926  -7.920  14.265  1.00  0.00    -0.502 OA
ATOM     23  H   UNL     1      -5.488  -8.696  14.593  1.00  0.00     0.293 HD
ENDBRANCH   2  22
BRANCH   6  24
ATOM     24  O   UNL     1       0.092  -9.707  14.207  1.00  0.00    -0.507 OA
ATOM     25  H   UNL     1      -0.409 -10.244  14.898  1.00  0.00     0.293 HD
ENDBRANCH   6  24
BRANCH   8  26
ATOM     26  O   UNL     1       1.020  -9.525   9.516  1.00  0.00    -0.508 OA
ATOM     27  H   UNL     1       1.657  -8.808   9.190  1.00  0.00     0.293 HD
ENDBRANCH   8  26
TORSDOF 6
ENDMDL
MODEL 3
REMARK VINA RESULT:    -5.217      3.135      7.516
REMARK INTER + INTRA:          -6.569
REMARK INTER:                  -6.246
REMARK INTRA:                  -0.323
REMARK UNBOUND:                -0.284
REMARK SMILES O=c1c(O)c(-c2ccc(O)c(O)c2)oc2cc(O)cc(O)c12
REMARK SMILES IDX 5 1 3 2 2 3 1 4 22 5 20 6 19 7 17 8 16 9 15 10 14 11 6 12
REMARK SMILES IDX 7 13 8 14 9 15 13 16 11 17 10 18 12 20 4 22 21 24 18 26
REMARK H PARENT 10 19 12 21 4 23 21 25 18 27
REMARK Flexibility Score: inf
ROOT
ATOM      1  C   UNL     1      -2.048  -8.976  11.387  1.00  0.00     0.180 A 
ATOM      2  C   UNL     1      -1.840  -9.119  12.769  1.00  0.00     0.208 A 
ATOM      3  C   UNL     1      -0.543  -9.382  13.239  1.00  0.00     0.238 A 
ATOM      4  O   UNL     1      -0.372  -9.563  14.472  1.00  0.00    -0.285 OA
ATOM      5  C   UNL     1       0.531  -9.482  12.322  1.00  0.00     0.111 A 
ATOM      6  C   UNL     1       1.892  -9.706  12.691  1.00  0.00     0.134 A 
ATOM      7  C   UNL     1       2.851  -9.918  11.692  1.00  0.00     0.093 A 
ATOM      8  C   UNL     1       2.513  -9.850  10.342  1.00  0.00     0.123 A 
ATOM      9  C   UNL     1       1.196  -9.572   9.970  1.00  0.00     0.094 A 
ATOM     10  C   UNL     1       0.210  -9.392  10.943  1.00  0.00     0.146 A 
ATOM     11  O   UNL     1      -1.032  -9.140  10.548  1.00  0.00    -0.452 OA
ENDROOT
BRANCH   1  12
ATOM     12  C   UNL     1      -3.382  -8.673  10.818  1.00  0.00     0.025 A 
ATOM     13  C   UNL     1      -4.279  -9.697  10.470  1.00  0.00     0.016 A 
ATOM     14  C   UNL     1      -5.542  -9.386   9.958  1.00  0.00     0.051 A 
ATOM     15  C   UNL     1      -5.930  -8.050   9.798  1.00  0.00     0.157 A 
ATOM     16  C   UNL     1      -3.785  -7.334  10.676  1.00  0.00     0.062 A 
ATOM     17  C   UNL     1      -5.047  -7.020  10.161  1.00  0.00     0.158 A 
BRANCH  15  18
ATOM     18  O   UNL     1      -7.190  -7.744   9.284  1.00  0.00    -0.504 OA
ATOM     19  H   UNL     1      -7.299  -7.186   8.445  1.00  0.00     0.293 HD
ENDBRANCH  15  18
BRANCH  17  20
ATOM     20  O   UNL     1      -5.407  -5.680  10.021  1.00  0.00    -0.504 OA
ATOM     21  H   UNL     1      -5.224  -4.995  10.746  1.00  0.00     0.293 HD
ENDBRANCH  17  20
ENDBRANCH   1  12
BRANCH   2  22
ATOM     22  O   UNL     1      -2.918  -9.038  13.655  1.00  0.00    -0.502 OA
ATOM     23  H   UNL     1      -3.675  -9.711  13.654  1.00  0.00     0.293 HD
ENDBRANCH   2  22
BRANCH   6  24
ATOM     24  O   UNL     1       2.355  -9.703  14.010  1.00  0.00    -0.507 OA
ATOM     25  H   UNL     1       2.541 -10.530  14.555  1.00  0.00     0.293 HD
ENDBRANCH   6  24
BRANCH   8  26
ATOM     26  O   UNL     1       3.496 -10.050   9.376  1.00  0.00    -0.508 OA
ATOM     27  H   UNL     1       3.260 -10.191   8.400  1.00  0.00     0.293 HD
ENDBRANCH   8  26
TORSDOF 6
ENDMDL
MODEL 4
REMARK VINA RESULT:    -5.169      2.654      4.123
REMARK INTER + INTRA:          -6.510
REMARK INTER:                  -6.708
REMARK INTRA:                   0.198
REMARK UNBOUND:                -0.284
REMARK SMILES O=c1c(O)c(-c2ccc(O)c(O)c2)oc2cc(O)cc(O)c12
REMARK SMILES IDX 5 1 3 2 2 3 1 4 22 5 20 6 19 7 17 8 16 9 15 10 14 11 6 12
REMARK SMILES IDX 7 13 8 14 9 15 13 16 11 17 10 18 12 20 4 22 21 24 18 26
REMARK H PARENT 10 19 12 21 4 23 21 25 18 27
REMARK Flexibility Score: inf
ROOT
ATOM      1  C   UNL     1      -3.716  -8.054  12.864  1.00  0.00     0.180 A 
ATOM      2  C   UNL     1      -4.732  -8.253  13.813  1.00  0.00     0.208 A 
ATOM      3  C   UNL     1      -6.019  -7.758  13.548  1.00  0.00     0.238 A 
ATOM      4  O   UNL     1      -6.911  -7.891  14.426  1.00  0.00    -0.285 OA
ATOM      5  C   UNL     1      -6.277  -7.086  12.329  1.00  0.00     0.111 A 
ATOM      6  C   UNL     1      -7.553  -6.579  11.938  1.00  0.00     0.134 A 
ATOM      7  C   UNL     1      -7.664  -5.817  10.768  1.00  0.00     0.093 A 
ATOM      8  C   UNL     1      -6.562  -5.597   9.944  1.00  0.00     0.123 A 
ATOM      9  C   UNL     1      -5.322  -6.139  10.286  1.00  0.00     0.094 A 
ATOM     10  C   UNL     1      -5.172  -6.874  11.465  1.00  0.00     0.146 A 
ATOM     11  O   UNL     1      -3.973  -7.363  11.760  1.00  0.00    -0.452 OA
ENDROOT
BRANCH   1  12
ATOM     12  C   UNL     1      -2.341  -8.568  13.061  1.00  0.00     0.025 A 
ATOM     13  C   UNL     1      -1.741  -8.586  14.333  1.00  0.00     0.016 A 
ATOM     14  C   UNL     1      -0.452  -9.098  14.499  1.00  0.00     0.051 A 
ATOM     15  C   UNL     1       0.252  -9.611  13.402  1.00  0.00     0.157 A 
ATOM     16  C   UNL     1      -1.639  -9.103  11.968  1.00  0.00     0.062 A 
ATOM     17  C   UNL     1      -0.347  -9.615  12.131  1.00  0.00     0.158 A 
BRANCH  15  18
ATOM     18  O   UNL     1       1.539 -10.119  13.570  1.00  0.00    -0.504 OA
ATOM     19  H   UNL     1       1.725 -11.115  13.540  1.00  0.00     0.293 HD
ENDBRANCH  15  18
BRANCH  17  20
ATOM     20  O   UNL     1       0.324 -10.125  11.020  1.00  0.00    -0.504 OA
ATOM     21  H   UNL     1       0.255 -11.099  10.750  1.00  0.00     0.293 HD
ENDBRANCH  17  20
ENDBRANCH   1  12
BRANCH   2  22
ATOM     22  O   UNL     1      -4.450  -8.900  15.020  1.00  0.00    -0.502 OA
ATOM     23  H   UNL     1      -3.915  -8.463  15.760  1.00  0.00     0.293 HD
ENDBRANCH   2  22
BRANCH   6  24
ATOM     24  O   UNL     1      -8.737  -6.818  12.642  1.00  0.00    -0.507 OA
ATOM     25  H   UNL     1      -9.488  -6.152  12.745  1.00  0.00     0.293 HD
ENDBRANCH   6  24
BRANCH   8  26
ATOM     26  O   UNL     1      -6.712  -4.848   8.780  1.00  0.00    -0.508 OA
ATOM     27  H   UNL     1      -6.974  -3.869   8.810  1.00  0.00     0.293 HD
ENDBRANCH   8  26
TORSDOF 6
ENDMDL
MODEL 5
REMARK VINA RESULT:    -5.161      1.372      3.024
REMARK INTER + INTRA:          -6.501
REMARK INTER:                  -6.450
REMARK INTRA:                  -0.051
REMARK UNBOUND:                -0.284
REMARK SMILES O=c1c(O)c(-c2ccc(O)c(O)c2)oc2cc(O)cc(O)c12
REMARK SMILES IDX 5 1 3 2 2 3 1 4 22 5 20 6 19 7 17 8 16 9 15 10 14 11 6 12
REMARK SMILES IDX 7 13 8 14 9 15 13 16 11 17 10 18 12 20 4 22 21 24 18 26
REMARK H PARENT 10 19 12 21 4 23 21 25 18 27
REMARK Flexibility Score: inf
ROOT
ATOM      1  C   UNL     1      -4.173  -7.958  11.815  1.00  0.00     0.180 A 
ATOM      2  C   UNL     1      -4.514  -8.239  13.149  1.00  0.00     0.208 A 
ATOM      3  C   UNL     1      -5.761  -7.816  13.637  1.00  0.00     0.238 A 
ATOM      4  O   UNL     1      -6.038  -8.022  14.847  1.00  0.00    -0.285 OA
ATOM      5  C   UNL     1      -6.657  -7.133  12.780  1.00  0.00     0.111 A 
ATOM      6  C   UNL     1      -7.962  -6.694  13.157  1.00  0.00     0.134 A 
ATOM      7  C   UNL     1      -8.711  -5.912  12.269  1.00  0.00     0.093 A 
ATOM      8  C   UNL     1      -8.230  -5.608  10.995  1.00  0.00     0.123 A 
ATOM      9  C   UNL     1      -6.980  -6.083  10.595  1.00  0.00     0.094 A 
ATOM     10  C   UNL     1      -6.195  -6.835  11.472  1.00  0.00     0.146 A 
ATOM     11  O   UNL     1      -5.007  -7.258  11.057  1.00  0.00    -0.452 OA
ENDROOT
BRANCH   1  12
ATOM     12  C   UNL     1      -2.887  -8.394  11.222  1.00  0.00     0.025 A 
ATOM     13  C   UNL     1      -2.465  -9.732  11.292  1.00  0.00     0.016 A 
ATOM     14  C   UNL     1      -1.260 -10.125  10.704  1.00  0.00     0.051 A 
ATOM     15  C   UNL     1      -0.466  -9.190  10.027  1.00  0.00     0.157 A 
ATOM     16  C   UNL     1      -2.098  -7.465  10.524  1.00  0.00     0.062 A 
ATOM     17  C   UNL     1      -0.890  -7.854   9.936  1.00  0.00     0.158 A 
BRANCH  15  18
ATOM     18  O   UNL     1       0.737  -9.584   9.444  1.00  0.00    -0.504 OA
ATOM     19  H   UNL     1       0.760 -10.127   8.588  1.00  0.00     0.293 HD
ENDBRANCH  15  18
BRANCH  17  20
ATOM     20  O   UNL     1      -0.126  -6.900   9.262  1.00  0.00    -0.504 OA
ATOM     21  H   UNL     1       0.640  -7.158   8.651  1.00  0.00     0.293 HD
ENDBRANCH  17  20
ENDBRANCH   1  12
BRANCH   2  22
ATOM     22  O   UNL     1      -3.605  -8.897  13.984  1.00  0.00    -0.502 OA
ATOM     23  H   UNL     1      -2.694  -9.199  13.664  1.00  0.00     0.293 HD
ENDBRANCH   2  22
BRANCH   6  24
ATOM     24  O   UNL     1      -8.575  -7.018  14.371  1.00  0.00    -0.507 OA
ATOM     25  H   UNL     1      -9.039  -7.893  14.564  1.00  0.00     0.293 HD
ENDBRANCH   6  24
BRANCH   8  26
ATOM     26  O   UNL     1      -9.009  -4.842  10.132  1.00  0.00    -0.508 OA
ATOM     27  H   UNL     1      -9.673  -4.160  10.480  1.00  0.00     0.293 HD
ENDBRANCH   8  26
TORSDOF 6
ENDMDL
MODEL 6
REMARK VINA RESULT:    -5.058     15.661     17.680
REMARK INTER + INTRA:          -6.377
REMARK INTER:                  -6.921
REMARK INTRA:                   0.543
REMARK UNBOUND:                -0.284
REMARK SMILES O=c1c(O)c(-c2ccc(O)c(O)c2)oc2cc(O)cc(O)c12
REMARK SMILES IDX 5 1 3 2 2 3 1 4 22 5 20 6 19 7 17 8 16 9 15 10 14 11 6 12
REMARK SMILES IDX 7 13 8 14 9 15 13 16 11 17 10 18 12 20 4 22 21 24 18 26
REMARK H PARENT 10 19 12 21 4 23 21 25 18 27
REMARK Flexibility Score: inf
ROOT
ATOM      1  C   UNL     1       2.437   7.120   9.983  1.00  0.00     0.180 A 
ATOM      2  C   UNL     1       3.495   6.436   9.361  1.00  0.00     0.208 A 
ATOM      3  C   UNL     1       4.769   6.469   9.952  1.00  0.00     0.238 A 
ATOM      4  O   UNL     1       5.724   5.902   9.362  1.00  0.00    -0.285 OA
ATOM      5  C   UNL     1       4.963   7.171  11.166  1.00  0.00     0.111 A 
ATOM      6  C   UNL     1       6.201   7.237  11.874  1.00  0.00     0.134 A 
ATOM      7  C   UNL     1       6.311   8.068  12.996  1.00  0.00     0.093 A 
ATOM      8  C   UNL     1       5.214   8.783  13.473  1.00  0.00     0.123 A 
ATOM      9  C   UNL     1       3.983   8.678  12.823  1.00  0.00     0.094 A 
ATOM     10  C   UNL     1       3.851   7.886  11.680  1.00  0.00     0.146 A 
ATOM     11  O   UNL     1       2.666   7.823  11.085  1.00  0.00    -0.452 OA
ENDROOT
BRANCH   1  12
ATOM     12  C   UNL     1       1.062   7.110   9.433  1.00  0.00     0.025 A 
ATOM     13  C   UNL     1       0.039   7.888  10.004  1.00  0.00     0.016 A 
ATOM     14  C   UNL     1      -1.245   7.881   9.454  1.00  0.00     0.051 A 
ATOM     15  C   UNL     1      -1.524   7.109   8.319  1.00  0.00     0.157 A 
ATOM     16  C   UNL     1       0.782   6.355   8.282  1.00  0.00     0.062 A 
ATOM     17  C   UNL     1      -0.503   6.344   7.729  1.00  0.00     0.158 A 
BRANCH  15  18
ATOM     18  O   UNL     1      -2.807   7.103   7.774  1.00  0.00    -0.504 OA
ATOM     19  H   UNL     1      -3.118   7.830   7.139  1.00  0.00     0.293 HD
ENDBRANCH  15  18
BRANCH  17  20
ATOM     20  O   UNL     1      -0.746   5.571   6.594  1.00  0.00    -0.504 OA
ATOM     21  H   UNL     1      -0.314   5.777   5.701  1.00  0.00     0.293 HD
ENDBRANCH  17  20
ENDBRANCH   1  12
BRANCH   2  22
ATOM     22  O   UNL     1       3.286   5.768   8.151  1.00  0.00    -0.502 OA
ATOM     23  H   UNL     1       2.636   6.102   7.450  1.00  0.00     0.293 HD
ENDBRANCH   2  22
BRANCH   6  24
ATOM     24  O   UNL     1       7.335   6.492  11.535  1.00  0.00    -0.507 OA
ATOM     25  H   UNL     1       7.344   5.726  10.880  1.00  0.00     0.293 HD
ENDBRANCH   6  24
BRANCH   8  26
ATOM     26  O   UNL     1       5.355   9.587  14.601  1.00  0.00    -0.508 OA
ATOM     27  H   UNL     1       6.193  10.134  14.761  1.00  0.00     0.293 HD
ENDBRANCH   8  26
TORSDOF 6
ENDMDL
MODEL 7
REMARK VINA RESULT:    -5.054     15.386     16.552
REMARK INTER + INTRA:          -6.372
REMARK INTER:                  -6.060
REMARK INTRA:                  -0.312
REMARK UNBOUND:                -0.284
REMARK SMILES O=c1c(O)c(-c2ccc(O)c(O)c2)oc2cc(O)cc(O)c12
REMARK SMILES IDX 5 1 3 2 2 3 1 4 22 5 20 6 19 7 17 8 16 9 15 10 14 11 6 12
REMARK SMILES IDX 7 13 8 14 9 15 13 16 11 17 10 18 12 20 4 22 21 24 18 26
REMARK H PARENT 10 19 12 21 4 23 21 25 18 27
REMARK Flexibility Score: inf
ROOT
ATOM      1  C   UNL     1       3.647   6.348   9.215  1.00  0.00     0.180 A 
ATOM      2  C   UNL     1       3.702   7.387  10.159  1.00  0.00     0.208 A 
ATOM      3  C   UNL     1       2.540   8.128  10.426  1.00  0.00     0.238 A 
ATOM      4  O   UNL     1       2.609   9.092  11.232  1.00  0.00    -0.285 OA
ATOM      5  C   UNL     1       1.333   7.809   9.758  1.00  0.00     0.111 A 
ATOM      6  C   UNL     1       0.086   8.467   9.981  1.00  0.00     0.134 A 
ATOM      7  C   UNL     1      -1.013   8.157   9.170  1.00  0.00     0.093 A 
ATOM      8  C   UNL     1      -0.928   7.169   8.189  1.00  0.00     0.123 A 
ATOM      9  C   UNL     1       0.270   6.478   8.004  1.00  0.00     0.094 A 
ATOM     10  C   UNL     1       1.394   6.790   8.773  1.00  0.00     0.146 A 
ATOM     11  O   UNL     1       2.517   6.117   8.558  1.00  0.00    -0.452 OA
ENDROOT
BRANCH   1  12
ATOM     12  C   UNL     1       4.824   5.507   8.898  1.00  0.00     0.025 A 
ATOM     13  C   UNL     1       5.667   5.805   7.813  1.00  0.00     0.016 A 
ATOM     14  C   UNL     1       6.786   5.011   7.549  1.00  0.00     0.051 A 
ATOM     15  C   UNL     1       7.087   3.917   8.371  1.00  0.00     0.157 A 
ATOM     16  C   UNL     1       5.143   4.422   9.732  1.00  0.00     0.062 A 
ATOM     17  C   UNL     1       6.262   3.624   9.469  1.00  0.00     0.158 A 
BRANCH  15  18
ATOM     18  O   UNL     1       8.203   3.126   8.102  1.00  0.00    -0.504 OA
ATOM     19  H   UNL     1       8.609   3.078   7.175  1.00  0.00     0.293 HD
ENDBRANCH  15  18
BRANCH  17  20
ATOM     20  O   UNL     1       6.538   2.547  10.311  1.00  0.00    -0.504 OA
ATOM     21  H   UNL     1       6.949   2.673  11.228  1.00  0.00     0.293 HD
ENDBRANCH  17  20
ENDBRANCH   1  12
BRANCH   2  22
ATOM     22  O   UNL     1       4.910   7.699  10.792  1.00  0.00    -0.502 OA
ATOM     23  H   UNL     1       5.489   8.478  10.504  1.00  0.00     0.293 HD
ENDBRANCH   2  22
BRANCH   6  24
ATOM     24  O   UNL     1      -0.132   9.405  10.995  1.00  0.00    -0.507 OA
ATOM     25  H   UNL     1      -0.787  10.170  10.938  1.00  0.00     0.293 HD
ENDBRANCH   6  24
BRANCH   8  26
ATOM     26  O   UNL     1      -2.046   6.876   7.412  1.00  0.00    -0.508 OA
ATOM     27  H   UNL     1      -2.414   5.934   7.347  1.00  0.00     0.293 HD
ENDBRANCH   8  26
TORSDOF 6
ENDMDL
MODEL 8
REMARK VINA RESULT:    -5.030     15.276     17.635
REMARK INTER + INTRA:          -6.343
REMARK INTER:                  -6.028
REMARK INTRA:                  -0.315
REMARK UNBOUND:                -0.284
REMARK SMILES O=c1c(O)c(-c2ccc(O)c(O)c2)oc2cc(O)cc(O)c12
REMARK SMILES IDX 5 1 3 2 2 3 1 4 22 5 20 6 19 7 17 8 16 9 15 10 14 11 6 12
REMARK SMILES IDX 7 13 8 14 9 15 13 16 11 17 10 18 12 20 4 22 21 24 18 26
REMARK H PARENT 10 19 12 21 4 23 21 25 18 27
REMARK Flexibility Score: inf
ROOT
ATOM      1  C   UNL     1       3.002   6.705   8.818  1.00  0.00     0.180 A 
ATOM      2  C   UNL     1       3.862   7.752   8.447  1.00  0.00     0.208 A 
ATOM      3  C   UNL     1       5.250   7.542   8.490  1.00  0.00     0.238 A 
ATOM      4  O   UNL     1       6.016   8.500   8.210  1.00  0.00    -0.285 OA
ATOM      5  C   UNL     1       5.758   6.282   8.887  1.00  0.00     0.111 A 
ATOM      6  C   UNL     1       7.145   5.945   8.929  1.00  0.00     0.134 A 
ATOM      7  C   UNL     1       7.540   4.711   9.462  1.00  0.00     0.093 A 
ATOM      8  C   UNL     1       6.598   3.779   9.895  1.00  0.00     0.123 A 
ATOM      9  C   UNL     1       5.237   4.075   9.803  1.00  0.00     0.094 A 
ATOM     10  C   UNL     1       4.813   5.311   9.309  1.00  0.00     0.146 A 
ATOM     11  O   UNL     1       3.511   5.557   9.248  1.00  0.00    -0.452 OA
ENDROOT
BRANCH   1  12
ATOM     12  C   UNL     1       1.528   6.844   8.774  1.00  0.00     0.025 A 
ATOM     13  C   UNL     1       0.794   7.230   9.909  1.00  0.00     0.016 A 
ATOM     14  C   UNL     1      -0.593   7.378   9.837  1.00  0.00     0.051 A 
ATOM     15  C   UNL     1      -1.266   7.154   8.629  1.00  0.00     0.157 A 
ATOM     16  C   UNL     1       0.850   6.642   7.559  1.00  0.00     0.062 A 
ATOM     17  C   UNL     1      -0.539   6.787   7.484  1.00  0.00     0.158 A 
BRANCH  15  18
ATOM     18  O   UNL     1      -2.651   7.300   8.561  1.00  0.00    -0.504 OA
ATOM     19  H   UNL     1      -3.278   6.601   8.944  1.00  0.00     0.293 HD
ENDBRANCH  15  18
BRANCH  17  20
ATOM     20  O   UNL     1      -1.178   6.565   6.265  1.00  0.00    -0.504 OA
ATOM     21  H   UNL     1      -0.678   6.239   5.446  1.00  0.00     0.293 HD
ENDBRANCH  17  20
ENDBRANCH   1  12
BRANCH   2  22
ATOM     22  O   UNL     1       3.339   8.996   8.079  1.00  0.00    -0.502 OA
ATOM     23  H   UNL     1       2.859   9.599   8.734  1.00  0.00     0.293 HD
ENDBRANCH   2  22
BRANCH   6  24
ATOM     24  O   UNL     1       8.164   6.767   8.438  1.00  0.00    -0.507 OA
ATOM     25  H   UNL     1       8.853   6.484   7.759  1.00  0.00     0.293 HD
ENDBRANCH   6  24
BRANCH   8  26
ATOM     26  O   UNL     1       7.026   2.556  10.405  1.00  0.00    -0.508 OA
ATOM     27  H   UNL     1       6.737   1.678   9.990  1.00  0.00     0.293 HD
ENDBRANCH   8  26
TORSDOF 6
ENDMDL
MODEL 9
REMARK VINA RESULT:    -3.961      2.485      6.519
REMARK INTER + INTRA:          -5.055
REMARK INTER:                  -4.847
REMARK INTRA:                  -0.208
REMARK UNBOUND:                -0.284
REMARK SMILES O=c1c(O)c(-c2ccc(O)c(O)c2)oc2cc(O)cc(O)c12
REMARK SMILES IDX 5 1 3 2 2 3 1 4 22 5 20 6 19 7 17 8 16 9 15 10 14 11 6 12
REMARK SMILES IDX 7 13 8 14 9 15 13 16 11 17 10 18 12 20 4 22 21 24 18 26
REMARK H PARENT 10 19 12 21 4 23 21 25 18 27
REMARK Flexibility Score: inf
ROOT
ATOM      1  C   UNL     1      -3.650  -8.376  10.829  1.00  0.00     0.180 A 
ATOM      2  C   UNL     1      -2.918  -8.583   9.648  1.00  0.00     0.208 A 
ATOM      3  C   UNL     1      -1.580  -9.002   9.740  1.00  0.00     0.238 A 
ATOM      4  O   UNL     1      -0.914  -9.133   8.680  1.00  0.00    -0.285 OA
ATOM      5  C   UNL     1      -0.998  -9.224  11.011  1.00  0.00     0.111 A 
ATOM      6  C   UNL     1       0.336  -9.688  11.220  1.00  0.00     0.134 A 
ATOM      7  C   UNL     1       0.849  -9.747  12.522  1.00  0.00     0.093 A 
ATOM      8  C   UNL     1       0.059  -9.422  13.624  1.00  0.00     0.123 A 
ATOM      9  C   UNL     1      -1.266  -9.025  13.433  1.00  0.00     0.094 A 
ATOM     10  C   UNL     1      -1.795  -8.921  12.145  1.00  0.00     0.146 A 
ATOM     11  O   UNL     1      -3.056  -8.529  12.006  1.00  0.00    -0.452 OA
ENDROOT
BRANCH   1  12
ATOM     12  C   UNL     1      -5.071  -7.959  10.812  1.00  0.00     0.025 A 
ATOM     13  C   UNL     1      -6.094  -8.825  11.234  1.00  0.00     0.016 A 
ATOM     14  C   UNL     1      -7.425  -8.401  11.233  1.00  0.00     0.051 A 
ATOM     15  C   UNL     1      -7.753  -7.103  10.822  1.00  0.00     0.157 A 
ATOM     16  C   UNL     1      -5.403  -6.650  10.421  1.00  0.00     0.062 A 
ATOM     17  C   UNL     1      -6.735  -6.223  10.416  1.00  0.00     0.158 A 
BRANCH  15  18
ATOM     18  O   UNL     1      -9.082  -6.684  10.819  1.00  0.00    -0.504 OA
ATOM     19  H   UNL     1      -9.502  -6.241  11.629  1.00  0.00     0.293 HD
ENDBRANCH  15  18
BRANCH  17  20
ATOM     20  O   UNL     1      -7.027  -4.922  10.009  1.00  0.00    -0.504 OA
ATOM     21  H   UNL     1      -7.447  -4.721   9.109  1.00  0.00     0.293 HD
ENDBRANCH  17  20
ENDBRANCH   1  12
BRANCH   2  22
ATOM     22  O   UNL     1      -3.506  -8.337   8.403  1.00  0.00    -0.502 OA
ATOM     23  H   UNL     1      -3.856  -7.425   8.138  1.00  0.00     0.293 HD
ENDBRANCH   2  22
BRANCH   6  24
ATOM     24  O   UNL     1       1.181 -10.125  10.196  1.00  0.00    -0.507 OA
ATOM     25  H   UNL     1       2.105  -9.762  10.021  1.00  0.00     0.293 HD
ENDBRANCH   6  24
BRANCH   8  26
ATOM     26  O   UNL     1       0.597  -9.508  14.905  1.00  0.00    -0.508 OA
ATOM     27  H   UNL     1       1.242 -10.246  15.161  1.00  0.00     0.293 HD
ENDBRANCH   8  26
TORSDOF 6
ENDMDL
