MODEL 1
REMARK VINA RESULT:    -5.827      0.000      0.000
REMARK INTER + INTRA:          -7.121
REMARK INTER:                  -6.849
REMARK INTRA:                  -0.272
REMARK UNBOUND:                -0.272
REMARK SMILES O=c1cc(-c2ccc(O)c(O)c2)oc2cc(O)cc(O)c12
REMARK SMILES IDX 4 1 3 2 2 3 1 4 21 5 19 6 18 7 16 8 15 9 14 10 13 11 5 12
REMARK SMILES IDX 6 13 7 14 8 15 12 16 10 17 9 18 11 20 20 22 17 24
REMARK H PARENT 9 19 11 21 20 23 17 25
REMARK Flexibility Score: inf
ROOT
ATOM      1  C   UNL     1       0.034 -22.871 -44.318  1.00  0.00     0.138 A 
ATOM      2  C   UNL     1       1.372 -23.275 -44.434  1.00  0.00     0.100 A 
ATOM      3  C   UNL     1       1.704 -24.319 -45.296  1.00  0.00     0.197 A 
ATOM      4  O   UNL     1       2.902 -24.701 -45.333  1.00  0.00    -0.289 OA
ATOM      5  C   UNL     1       0.695 -24.943 -46.070  1.00  0.00     0.107 A 
ATOM      6  C   UNL     1       0.923 -25.990 -47.011  1.00  0.00     0.134 A 
ATOM      7  C   UNL     1      -0.169 -26.609 -47.632  1.00  0.00     0.093 A 
ATOM      8  C   UNL     1      -1.475 -26.177 -47.391  1.00  0.00     0.123 A 
ATOM      9  C   UNL     1      -1.704 -25.119 -46.514  1.00  0.00     0.094 A 
ATOM     10  C   UNL     1      -0.638 -24.504 -45.853  1.00  0.00     0.146 A 
ATOM     11  O   UNL     1      -0.902 -23.508 -45.014  1.00  0.00    -0.456 OA
ENDROOT
BRANCH   1  12
ATOM     12  C   UNL     1      -0.375 -21.764 -43.416  1.00  0.00     0.021 A 
ATOM     13  C   UNL     1      -0.057 -20.423 -43.701  1.00  0.00     0.016 A 
ATOM     14  C   UNL     1      -0.464 -19.400 -42.840  1.00  0.00     0.051 A 
ATOM     15  C   UNL     1      -1.200 -19.697 -41.685  1.00  0.00     0.157 A 
ATOM     16  C   UNL     1      -1.126 -22.052 -42.263  1.00  0.00     0.062 A 
ATOM     17  C   UNL     1      -1.534 -21.030 -41.397  1.00  0.00     0.158 A 
BRANCH  15  18
ATOM     18  O   UNL     1      -1.603 -18.673 -40.828  1.00  0.00    -0.504 OA
ATOM     19  H   UNL     1      -1.598 -18.791 -39.823  1.00  0.00     0.293 HD
ENDBRANCH  15  18
BRANCH  17  20
ATOM     20  O   UNL     1      -2.268 -21.359 -40.259  1.00  0.00    -0.504 OA
ATOM     21  H   UNL     1      -1.822 -21.597 -39.381  1.00  0.00     0.293 HD
ENDBRANCH  17  20
ENDBRANCH   1  12
BRANCH   6  22
ATOM     22  O   UNL     1       2.192 -26.440 -47.388  1.00  0.00    -0.507 OA
ATOM     23  H   UNL     1       2.474 -27.408 -47.423  1.00  0.00     0.293 HD
ENDBRANCH   6  22
BRANCH   8  24
ATOM     24  O   UNL     1      -2.555 -26.789 -48.026  1.00  0.00    -0.508 OA
ATOM     25  H   UNL     1      -2.451 -27.246 -48.924  1.00  0.00     0.293 HD
ENDBRANCH   8  24
TORSDOF 5
ENDMDL
MODEL 2
REMARK VINA RESULT:    -5.769      3.827      6.002
REMARK INTER + INTRA:          -7.053
REMARK INTER:                  -6.777
REMARK INTRA:                  -0.276
REMARK UNBOUND:                -0.272
REMARK SMILES O=c1cc(-c2ccc(O)c(O)c2)oc2cc(O)cc(O)c12
REMARK SMILES IDX 4 1 3 2 2 3 1 4 21 5 19 6 18 7 16 8 15 9 14 10 13 11 5 12
REMARK SMILES IDX 6 13 7 14 8 15 12 16 10 17 9 18 11 20 20 22 17 24
REMARK H PARENT 9 19 11 21 20 23 17 25
REMARK Flexibility Score: inf
ROOT
ATOM      1  C   UNL     1      -0.568 -25.636 -45.631  1.00  0.00     0.138 A 
ATOM      2  C   UNL     1      -1.002 -26.255 -46.813  1.00  0.00     0.100 A 
ATOM      3  C   UNL     1      -2.360 -26.513 -46.998  1.00  0.00     0.197 A 
ATOM      4  O   UNL     1      -2.712 -27.125 -48.039  1.00  0.00    -0.289 OA
ATOM      5  C   UNL     1      -3.293 -26.120 -46.008  1.00  0.00     0.107 A 
ATOM      6  C   UNL     1      -4.705 -26.294 -46.108  1.00  0.00     0.134 A 
ATOM      7  C   UNL     1      -5.518 -25.972 -45.014  1.00  0.00     0.093 A 
ATOM      8  C   UNL     1      -4.976 -25.425 -43.849  1.00  0.00     0.123 A 
ATOM      9  C   UNL     1      -3.604 -25.201 -43.762  1.00  0.00     0.094 A 
ATOM     10  C   UNL     1      -2.762 -25.544 -44.823  1.00  0.00     0.146 A 
ATOM     11  O   UNL     1      -1.458 -25.327 -44.694  1.00  0.00    -0.456 OA
ENDROOT
BRANCH   1  12
ATOM     12  C   UNL     1       0.866 -25.338 -45.383  1.00  0.00     0.021 A 
ATOM     13  C   UNL     1       1.482 -25.638 -44.154  1.00  0.00     0.016 A 
ATOM     14  C   UNL     1       2.835 -25.356 -43.952  1.00  0.00     0.051 A 
ATOM     15  C   UNL     1       3.598 -24.777 -44.975  1.00  0.00     0.157 A 
ATOM     16  C   UNL     1       1.641 -24.770 -46.409  1.00  0.00     0.062 A 
ATOM     17  C   UNL     1       2.998 -24.485 -46.210  1.00  0.00     0.158 A 
BRANCH  15  18
ATOM     18  O   UNL     1       4.948 -24.496 -44.769  1.00  0.00    -0.504 OA
ATOM     19  H   UNL     1       5.663 -24.837 -45.400  1.00  0.00     0.293 HD
ENDBRANCH  15  18
BRANCH  17  20
ATOM     20  O   UNL     1       3.729 -23.914 -47.250  1.00  0.00    -0.504 OA
ATOM     21  H   UNL     1       3.282 -23.507 -48.063  1.00  0.00     0.293 HD
ENDBRANCH  17  20
ENDBRANCH   1  12
BRANCH   6  22
ATOM     22  O   UNL     1      -5.357 -26.753 -47.256  1.00  0.00    -0.507 OA
ATOM     23  H   UNL     1      -4.927 -26.848 -48.164  1.00  0.00     0.293 HD
ENDBRANCH   6  22
BRANCH   8  24
ATOM     24  O   UNL     1      -5.795 -25.093 -42.771  1.00  0.00    -0.508 OA
ATOM     25  H   UNL     1      -5.518 -25.287 -41.816  1.00  0.00     0.293 HD
ENDBRANCH   8  24
TORSDOF 5
ENDMDL
MODEL 3
REMARK VINA RESULT:    -5.749     12.182     14.285
REMARK INTER + INTRA:          -7.030
REMARK INTER:                  -6.719
REMARK INTRA:                  -0.311
REMARK UNBOUND:                -0.272
REMARK SMILES O=c1cc(-c2ccc(O)c(O)c2)oc2cc(O)cc(O)c12
REMARK SMILES IDX 4 1 3 2 2 3 1 4 21 5 19 6 18 7 16 8 15 9 14 10 13 11 5 12
REMARK SMILES IDX 6 13 7 14 8 15 12 16 10 17 9 18 11 20 20 22 17 24
REMARK H PARENT 9 19 11 21 20 23 17 25
REMARK Flexibility Score: inf
ROOT
ATOM      1  C   UNL     1      -1.920 -10.036 -42.398  1.00  0.00     0.138 A 
ATOM      2  C   UNL     1      -2.342  -8.710 -42.571  1.00  0.00     0.100 A 
ATOM      3  C   UNL     1      -3.692  -8.440 -42.796  1.00  0.00     0.197 A 
ATOM      4  O   UNL     1      -4.032  -7.248 -43.011  1.00  0.00    -0.289 OA
ATOM      5  C   UNL     1      -4.629  -9.502 -42.817  1.00  0.00     0.107 A 
ATOM      6  C   UNL     1      -6.035  -9.342 -42.998  1.00  0.00     0.134 A 
ATOM      7  C   UNL     1      -6.848 -10.475 -43.118  1.00  0.00     0.093 A 
ATOM      8  C   UNL     1      -6.314 -11.761 -43.002  1.00  0.00     0.123 A 
ATOM      9  C   UNL     1      -4.951 -11.927 -42.771  1.00  0.00     0.094 A 
ATOM     10  C   UNL     1      -4.108 -10.816 -42.682  1.00  0.00     0.146 A 
ATOM     11  O   UNL     1      -2.811 -11.019 -42.476  1.00  0.00    -0.456 OA
ENDROOT
BRANCH   1  12
ATOM     12  C   UNL     1      -0.496 -10.379 -42.153  1.00  0.00     0.021 A 
ATOM     13  C   UNL     1       0.548  -9.509 -42.519  1.00  0.00     0.016 A 
ATOM     14  C   UNL     1       1.878  -9.853 -42.267  1.00  0.00     0.051 A 
ATOM     15  C   UNL     1       2.190 -11.067 -41.641  1.00  0.00     0.157 A 
ATOM     16  C   UNL     1      -0.176 -11.590 -41.513  1.00  0.00     0.062 A 
ATOM     17  C   UNL     1       1.156 -11.938 -41.261  1.00  0.00     0.158 A 
BRANCH  15  18
ATOM     18  O   UNL     1       3.519 -11.407 -41.393  1.00  0.00    -0.504 OA
ATOM     19  H   UNL     1       4.245 -11.244 -42.079  1.00  0.00     0.293 HD
ENDBRANCH  15  18
BRANCH  17  20
ATOM     20  O   UNL     1       1.432 -13.151 -40.632  1.00  0.00    -0.504 OA
ATOM     21  H   UNL     1       2.196 -13.749 -40.926  1.00  0.00     0.293 HD
ENDBRANCH  17  20
ENDBRANCH   1  12
BRANCH   6  22
ATOM     22  O   UNL     1      -6.681  -8.103 -43.042  1.00  0.00    -0.507 OA
ATOM     23  H   UNL     1      -7.542  -7.884 -42.562  1.00  0.00     0.293 HD
ENDBRANCH   6  22
BRANCH   8  24
ATOM     24  O   UNL     1      -7.134 -12.883 -43.107  1.00  0.00    -0.508 OA
ATOM     25  H   UNL     1      -7.929 -12.901 -43.736  1.00  0.00     0.293 HD
ENDBRANCH   8  24
TORSDOF 5
ENDMDL
MODEL 4
REMARK VINA RESULT:    -5.691     14.464     15.457
REMARK INTER + INTRA:          -6.962
REMARK INTER:                  -6.689
REMARK INTRA:                  -0.272
REMARK UNBOUND:                -0.272
REMARK SMILES O=c1cc(-c2ccc(O)c(O)c2)oc2cc(O)cc(O)c12
REMARK SMILES IDX 4 1 3 2 2 3 1 4 21 5 19 6 18 7 16 8 15 9 14 10 13 11 5 12
REMARK SMILES IDX 6 13 7 14 8 15 12 16 10 17 9 18 11 20 20 22 17 24
REMARK H PARENT 9 19 11 21 20 23 17 25
REMARK Flexibility Score: inf
ROOT
ATOM      1  C   UNL     1      -3.742  -9.019 -43.498  1.00  0.00     0.138 A 
ATOM      2  C   UNL     1      -4.816  -9.921 -43.474  1.00  0.00     0.100 A 
ATOM      3  C   UNL     1      -5.607 -10.083 -44.611  1.00  0.00     0.197 A 
ATOM      4  O   UNL     1      -6.600 -10.851 -44.540  1.00  0.00    -0.289 OA
ATOM      5  C   UNL     1      -5.300  -9.361 -45.791  1.00  0.00     0.107 A 
ATOM      6  C   UNL     1      -6.012  -9.477 -47.022  1.00  0.00     0.134 A 
ATOM      7  C   UNL     1      -5.690  -8.626 -48.087  1.00  0.00     0.093 A 
ATOM      8  C   UNL     1      -4.643  -7.707 -47.984  1.00  0.00     0.123 A 
ATOM      9  C   UNL     1      -3.907  -7.624 -46.804  1.00  0.00     0.094 A 
ATOM     10  C   UNL     1      -4.226  -8.435 -45.712  1.00  0.00     0.146 A 
ATOM     11  O   UNL     1      -3.509  -8.313 -44.600  1.00  0.00    -0.456 OA
ENDROOT
BRANCH   1  12
ATOM     12  C   UNL     1      -2.868  -8.809 -42.316  1.00  0.00     0.021 A 
ATOM     13  C   UNL     1      -3.363  -8.258 -41.119  1.00  0.00     0.016 A 
ATOM     14  C   UNL     1      -2.520  -8.081 -40.019  1.00  0.00     0.051 A 
ATOM     15  C   UNL     1      -1.172  -8.457 -40.092  1.00  0.00     0.157 A 
ATOM     16  C   UNL     1      -1.518  -9.196 -42.377  1.00  0.00     0.062 A 
ATOM     17  C   UNL     1      -0.670  -9.019 -41.276  1.00  0.00     0.158 A 
BRANCH  15  18
ATOM     18  O   UNL     1      -0.334  -8.278 -38.992  1.00  0.00    -0.504 OA
ATOM     19  H   UNL     1      -0.551  -8.681 -38.089  1.00  0.00     0.293 HD
ENDBRANCH  15  18
BRANCH  17  20
ATOM     20  O   UNL     1       0.665  -9.408 -41.380  1.00  0.00    -0.504 OA
ATOM     21  H   UNL     1       1.410  -8.738 -41.531  1.00  0.00     0.293 HD
ENDBRANCH  17  20
ENDBRANCH   1  12
BRANCH   6  22
ATOM     22  O   UNL     1      -7.017 -10.419 -47.258  1.00  0.00    -0.507 OA
ATOM     23  H   UNL     1      -7.827 -10.556 -46.672  1.00  0.00     0.293 HD
ENDBRANCH   6  22
BRANCH   8  24
ATOM     24  O   UNL     1      -4.320  -6.875 -49.054  1.00  0.00    -0.508 OA
ATOM     25  H   UNL     1      -3.492  -6.290 -49.040  1.00  0.00     0.293 HD
ENDBRANCH   8  24
TORSDOF 5
ENDMDL
MODEL 5
REMARK VINA RESULT:    -5.691     14.265     15.165
REMARK INTER + INTRA:          -6.962
REMARK INTER:                  -6.698
REMARK INTRA:                  -0.264
REMARK UNBOUND:                -0.272
REMARK SMILES O=c1cc(-c2ccc(O)c(O)c2)oc2cc(O)cc(O)c12
REMARK SMILES IDX 4 1 3 2 2 3 1 4 21 5 19 6 18 7 16 8 15 9 14 10 13 11 5 12
REMARK SMILES IDX 6 13 7 14 8 15 12 16 10 17 9 18 11 20 20 22 17 24
REMARK H PARENT 9 19 11 21 20 23 17 25
REMARK Flexibility Score: inf
ROOT
ATOM      1  C   UNL     1      -3.565  -8.797 -43.554  1.00  0.00     0.138 A 
ATOM      2  C   UNL     1      -3.329  -7.989 -44.676  1.00  0.00     0.100 A 
ATOM      3  C   UNL     1      -4.159  -8.098 -45.792  1.00  0.00     0.197 A 
ATOM      4  O   UNL     1      -3.885  -7.407 -46.806  1.00  0.00    -0.289 OA
ATOM      5  C   UNL     1      -5.251  -9.000 -45.772  1.00  0.00     0.107 A 
ATOM      6  C   UNL     1      -6.187  -9.166 -46.836  1.00  0.00     0.134 A 
ATOM      7  C   UNL     1      -7.157 -10.172 -46.749  1.00  0.00     0.093 A 
ATOM      8  C   UNL     1      -7.263 -10.976 -45.612  1.00  0.00     0.123 A 
ATOM      9  C   UNL     1      -6.388 -10.785 -44.545  1.00  0.00     0.094 A 
ATOM     10  C   UNL     1      -5.387  -9.813 -44.615  1.00  0.00     0.146 A 
ATOM     11  O   UNL     1      -4.564  -9.674 -43.582  1.00  0.00    -0.456 OA
ENDROOT
BRANCH   1  12
ATOM     12  C   UNL     1      -2.714  -8.721 -42.340  1.00  0.00     0.021 A 
ATOM     13  C   UNL     1      -3.218  -8.256 -41.111  1.00  0.00     0.016 A 
ATOM     14  C   UNL     1      -2.397  -8.204 -39.982  1.00  0.00     0.051 A 
ATOM     15  C   UNL     1      -1.062  -8.622 -40.057  1.00  0.00     0.157 A 
ATOM     16  C   UNL     1      -1.377  -9.151 -42.404  1.00  0.00     0.062 A 
ATOM     17  C   UNL     1      -0.551  -9.099 -41.275  1.00  0.00     0.158 A 
BRANCH  15  18
ATOM     18  O   UNL     1      -0.245  -8.568 -38.929  1.00  0.00    -0.504 OA
ATOM     19  H   UNL     1      -0.294  -9.274 -38.205  1.00  0.00     0.293 HD
ENDBRANCH  15  18
BRANCH  17  20
ATOM     20  O   UNL     1       0.772  -9.526 -41.383  1.00  0.00    -0.504 OA
ATOM     21  H   UNL     1       1.031 -10.346 -41.920  1.00  0.00     0.293 HD
ENDBRANCH  17  20
ENDBRANCH   1  12
BRANCH   6  22
ATOM     22  O   UNL     1      -6.222  -8.361 -47.978  1.00  0.00    -0.507 OA
ATOM     23  H   UNL     1      -5.554  -7.637 -48.194  1.00  0.00     0.293 HD
ENDBRANCH   6  22
BRANCH   8  24
ATOM     24  O   UNL     1      -8.242 -11.964 -45.528  1.00  0.00    -0.508 OA
ATOM     25  H   UNL     1      -8.321 -12.564 -44.715  1.00  0.00     0.293 HD
ENDBRANCH   8  24
TORSDOF 5
ENDMDL
MODEL 6
REMARK VINA RESULT:    -5.635      2.507      7.256
REMARK INTER + INTRA:          -6.896
REMARK INTER:                  -6.604
REMARK INTRA:                  -0.292
REMARK UNBOUND:                -0.272
REMARK SMILES O=c1cc(-c2ccc(O)c(O)c2)oc2cc(O)cc(O)c12
REMARK SMILES IDX 4 1 3 2 2 3 1 4 21 5 19 6 18 7 16 8 15 9 14 10 13 11 5 12
REMARK SMILES IDX 6 13 7 14 8 15 12 16 10 17 9 18 11 20 20 22 17 24
REMARK H PARENT 9 19 11 21 20 23 17 25
REMARK Flexibility Score: inf
ROOT
ATOM      1  C   UNL     1       0.463 -22.800 -44.306  1.00  0.00     0.138 A 
ATOM      2  C   UNL     1      -0.095 -21.515 -44.370  1.00  0.00     0.100 A 
ATOM      3  C   UNL     1       0.221 -20.576 -43.388  1.00  0.00     0.197 A 
ATOM      4  O   UNL     1      -0.343 -19.453 -43.436  1.00  0.00    -0.289 OA
ATOM      5  C   UNL     1       1.126 -20.917 -42.353  1.00  0.00     0.107 A 
ATOM      6  C   UNL     1       1.553 -20.028 -41.322  1.00  0.00     0.134 A 
ATOM      7  C   UNL     1       2.361 -20.513 -40.285  1.00  0.00     0.093 A 
ATOM      8  C   UNL     1       2.806 -21.837 -40.277  1.00  0.00     0.123 A 
ATOM      9  C   UNL     1       2.438 -22.698 -41.308  1.00  0.00     0.094 A 
ATOM     10  C   UNL     1       1.605 -22.254 -42.338  1.00  0.00     0.146 A 
ATOM     11  O   UNL     1       1.267 -23.112 -43.295  1.00  0.00    -0.456 OA
ENDROOT
BRANCH   1  12
ATOM     12  C   UNL     1       0.161 -23.837 -45.326  1.00  0.00     0.021 A 
ATOM     13  C   UNL     1      -1.149 -24.060 -45.788  1.00  0.00     0.016 A 
ATOM     14  C   UNL     1      -1.402 -25.035 -46.756  1.00  0.00     0.051 A 
ATOM     15  C   UNL     1      -0.353 -25.798 -47.284  1.00  0.00     0.157 A 
ATOM     16  C   UNL     1       1.211 -24.597 -45.871  1.00  0.00     0.062 A 
ATOM     17  C   UNL     1       0.960 -25.576 -46.840  1.00  0.00     0.158 A 
BRANCH  15  18
ATOM     18  O   UNL     1      -0.610 -26.771 -48.249  1.00  0.00    -0.504 OA
ATOM     19  H   UNL     1      -1.235 -26.595 -49.027  1.00  0.00     0.293 HD
ENDBRANCH  15  18
BRANCH  17  20
ATOM     20  O   UNL     1       2.028 -26.315 -47.348  1.00  0.00    -0.504 OA
ATOM     21  H   UNL     1       1.899 -27.035 -48.050  1.00  0.00     0.293 HD
ENDBRANCH  17  20
ENDBRANCH   1  12
BRANCH   6  22
ATOM     22  O   UNL     1       1.236 -18.668 -41.282  1.00  0.00    -0.507 OA
ATOM     23  H   UNL     1       0.342 -18.292 -41.003  1.00  0.00     0.293 HD
ENDBRANCH   6  22
BRANCH   8  24
ATOM     24  O   UNL     1       3.622 -22.306 -39.249  1.00  0.00    -0.508 OA
ATOM     25  H   UNL     1       4.532 -22.711 -39.438  1.00  0.00     0.293 HD
ENDBRANCH   8  24
TORSDOF 5
ENDMDL
MODEL 7
REMARK VINA RESULT:    -5.599      1.986      7.022
REMARK INTER + INTRA:          -6.853
REMARK INTER:                  -6.568
REMARK INTRA:                  -0.285
REMARK UNBOUND:                -0.272
REMARK SMILES O=c1cc(-c2ccc(O)c(O)c2)oc2cc(O)cc(O)c12
REMARK SMILES IDX 4 1 3 2 2 3 1 4 21 5 19 6 18 7 16 8 15 9 14 10 13 11 5 12
REMARK SMILES IDX 6 13 7 14 8 15 12 16 10 17 9 18 11 20 20 22 17 24
REMARK H PARENT 9 19 11 21 20 23 17 25
REMARK Flexibility Score: inf
ROOT
ATOM      1  C   UNL     1       0.731 -23.129 -44.116  1.00  0.00     0.138 A 
ATOM      2  C   UNL     1       1.782 -23.437 -43.239  1.00  0.00     0.100 A 
ATOM      3  C   UNL     1       2.118 -22.543 -42.223  1.00  0.00     0.197 A 
ATOM      4  O   UNL     1       3.104 -22.817 -41.492  1.00  0.00    -0.289 OA
ATOM      5  C   UNL     1       1.377 -21.346 -42.065  1.00  0.00     0.107 A 
ATOM      6  C   UNL     1       1.603 -20.380 -41.040  1.00  0.00     0.134 A 
ATOM      7  C   UNL     1       0.883 -19.179 -41.054  1.00  0.00     0.093 A 
ATOM      8  C   UNL     1      -0.097 -18.937 -42.019  1.00  0.00     0.123 A 
ATOM      9  C   UNL     1      -0.363 -19.897 -42.992  1.00  0.00     0.094 A 
ATOM     10  C   UNL     1       0.363 -21.091 -43.026  1.00  0.00     0.146 A 
ATOM     11  O   UNL     1       0.087 -21.974 -43.979  1.00  0.00    -0.456 OA
ENDROOT
BRANCH   1  12
ATOM     12  C   UNL     1       0.332 -24.046 -45.213  1.00  0.00     0.021 A 
ATOM     13  C   UNL     1      -0.992 -24.097 -45.688  1.00  0.00     0.016 A 
ATOM     14  C   UNL     1      -1.337 -24.963 -46.730  1.00  0.00     0.051 A 
ATOM     15  C   UNL     1      -0.368 -25.785 -47.319  1.00  0.00     0.157 A 
ATOM     16  C   UNL     1       1.302 -24.864 -45.819  1.00  0.00     0.062 A 
ATOM     17  C   UNL     1       0.958 -25.733 -46.861  1.00  0.00     0.158 A 
BRANCH  15  18
ATOM     18  O   UNL     1      -0.718 -26.647 -48.357  1.00  0.00    -0.504 OA
ATOM     19  H   UNL     1      -0.156 -26.722 -49.196  1.00  0.00     0.293 HD
ENDBRANCH  15  18
BRANCH  17  20
ATOM     20  O   UNL     1       1.948 -26.535 -47.428  1.00  0.00    -0.504 OA
ATOM     21  H   UNL     1       1.822 -27.532 -47.561  1.00  0.00     0.293 HD
ENDBRANCH  17  20
ENDBRANCH   1  12
BRANCH   6  22
ATOM     22  O   UNL     1       2.498 -20.559 -39.980  1.00  0.00    -0.507 OA
ATOM     23  H   UNL     1       3.502 -20.498 -40.058  1.00  0.00     0.293 HD
ENDBRANCH   6  22
BRANCH   8  24
ATOM     24  O   UNL     1      -0.819 -17.745 -42.015  1.00  0.00    -0.508 OA
ATOM     25  H   UNL     1      -1.392 -17.471 -42.805  1.00  0.00     0.293 HD
ENDBRANCH   8  24
TORSDOF 5
ENDMDL
MODEL 8
REMARK VINA RESULT:    -5.518     13.430     14.843
REMARK INTER + INTRA:          -6.758
REMARK INTER:                  -6.454
REMARK INTRA:                  -0.304
REMARK UNBOUND:                -0.272
REMARK SMILES O=c1cc(-c2ccc(O)c(O)c2)oc2cc(O)cc(O)c12
REMARK SMILES IDX 4 1 3 2 2 3 1 4 21 5 19 6 18 7 16 8 15 9 14 10 13 11 5 12
REMARK SMILES IDX 6 13 7 14 8 15 12 16 10 17 9 18 11 20 20 22 17 24
REMARK H PARENT 9 19 11 21 20 23 17 25
REMARK Flexibility Score: inf
ROOT
ATOM      1  C   UNL     1      -2.876  -9.150 -41.005  1.00  0.00     0.138 A 
ATOM      2  C   UNL     1      -2.666  -8.395 -42.168  1.00  0.00     0.100 A 
ATOM      3  C   UNL     1      -3.433  -8.652 -43.305  1.00  0.00     0.197 A 
ATOM      4  O   UNL     1      -3.179  -8.002 -44.352  1.00  0.00    -0.289 OA
ATOM      5  C   UNL     1      -4.437  -9.649 -43.266  1.00  0.00     0.107 A 
ATOM      6  C   UNL     1      -5.306  -9.969 -44.351  1.00  0.00     0.134 A 
ATOM      7  C   UNL     1      -6.183 -11.055 -44.235  1.00  0.00     0.093 A 
ATOM      8  C   UNL     1      -6.265 -11.792 -43.051  1.00  0.00     0.123 A 
ATOM      9  C   UNL     1      -5.458 -11.454 -41.967  1.00  0.00     0.094 A 
ATOM     10  C   UNL     1      -4.548 -10.398 -42.064  1.00  0.00     0.146 A 
ATOM     11  O   UNL     1      -3.788 -10.117 -41.012  1.00  0.00    -0.456 OA
ENDROOT
BRANCH   1  12
ATOM     12  C   UNL     1      -2.089  -8.917 -39.767  1.00  0.00     0.021 A 
ATOM     13  C   UNL     1      -1.670  -7.628 -39.388  1.00  0.00     0.016 A 
ATOM     14  C   UNL     1      -0.940  -7.438 -38.213  1.00  0.00     0.051 A 
ATOM     15  C   UNL     1      -0.621  -8.527 -37.392  1.00  0.00     0.157 A 
ATOM     16  C   UNL     1      -1.778 -10.004 -38.931  1.00  0.00     0.062 A 
ATOM     17  C   UNL     1      -1.045  -9.817 -37.753  1.00  0.00     0.158 A 
BRANCH  15  18
ATOM     18  O   UNL     1       0.108  -8.333 -36.220  1.00  0.00    -0.504 OA
ATOM     19  H   UNL     1       0.836  -7.631 -36.158  1.00  0.00     0.293 HD
ENDBRANCH  15  18
BRANCH  17  20
ATOM     20  O   UNL     1      -0.748 -10.922 -36.957  1.00  0.00    -0.504 OA
ATOM     21  H   UNL     1      -1.419 -11.309 -36.302  1.00  0.00     0.293 HD
ENDBRANCH  17  20
ENDBRANCH   1  12
BRANCH   6  22
ATOM     22  O   UNL     1      -5.366  -9.245 -45.545  1.00  0.00    -0.507 OA
ATOM     23  H   UNL     1      -5.793  -9.573 -46.398  1.00  0.00     0.293 HD
ENDBRANCH   6  22
BRANCH   8  24
ATOM     24  O   UNL     1      -7.151 -12.861 -42.940  1.00  0.00    -0.508 OA
ATOM     25  H   UNL     1      -6.930 -13.775 -43.318  1.00  0.00     0.293 HD
ENDBRANCH   8  24
TORSDOF 5
ENDMDL
MODEL 9
REMARK VINA RESULT:    -5.490      1.643      2.178
REMARK INTER + INTRA:          -6.725
REMARK INTER:                  -6.444
REMARK INTRA:                  -0.280
REMARK UNBOUND:                -0.272
REMARK SMILES O=c1cc(-c2ccc(O)c(O)c2)oc2cc(O)cc(O)c12
REMARK SMILES IDX 4 1 3 2 2 3 1 4 21 5 19 6 18 7 16 8 15 9 14 10 13 11 5 12
REMARK SMILES IDX 6 13 7 14 8 15 12 16 10 17 9 18 11 20 20 22 17 24
REMARK H PARENT 9 19 11 21 20 23 17 25
REMARK Flexibility Score: inf
ROOT
ATOM      1  C   UNL     1       0.124 -23.168 -44.444  1.00  0.00     0.138 A 
ATOM      2  C   UNL     1       1.105 -23.738 -45.268  1.00  0.00     0.100 A 
ATOM      3  C   UNL     1       0.752 -24.745 -46.166  1.00  0.00     0.197 A 
ATOM      4  O   UNL     1       1.664 -25.281 -46.847  1.00  0.00    -0.289 OA
ATOM      5  C   UNL     1      -0.598 -25.162 -46.261  1.00  0.00     0.107 A 
ATOM      6  C   UNL     1      -1.081 -26.151 -47.169  1.00  0.00     0.134 A 
ATOM      7  C   UNL     1      -2.417 -26.565 -47.091  1.00  0.00     0.093 A 
ATOM      8  C   UNL     1      -3.300 -25.981 -46.181  1.00  0.00     0.123 A 
ATOM      9  C   UNL     1      -2.851 -24.976 -45.326  1.00  0.00     0.094 A 
ATOM     10  C   UNL     1      -1.516 -24.566 -45.356  1.00  0.00     0.146 A 
ATOM     11  O   UNL     1      -1.126 -23.615 -44.514  1.00  0.00    -0.456 OA
ENDROOT
BRANCH   1  12
ATOM     12  C   UNL     1       0.445 -22.093 -43.472  1.00  0.00     0.021 A 
ATOM     13  C   UNL     1       1.428 -22.262 -42.479  1.00  0.00     0.016 A 
ATOM     14  C   UNL     1       1.717 -21.229 -41.584  1.00  0.00     0.051 A 
ATOM     15  C   UNL     1       1.036 -20.008 -41.668  1.00  0.00     0.157 A 
ATOM     16  C   UNL     1      -0.224 -20.859 -43.559  1.00  0.00     0.062 A 
ATOM     17  C   UNL     1       0.062 -19.822 -42.663  1.00  0.00     0.158 A 
BRANCH  15  18
ATOM     18  O   UNL     1       1.327 -18.979 -40.773  1.00  0.00    -0.504 OA
ATOM     19  H   UNL     1       1.711 -19.168 -39.855  1.00  0.00     0.293 HD
ENDBRANCH  15  18
BRANCH  17  20
ATOM     20  O   UNL     1      -0.630 -18.618 -42.777  1.00  0.00    -0.504 OA
ATOM     21  H   UNL     1      -1.641 -18.582 -42.843  1.00  0.00     0.293 HD
ENDBRANCH  17  20
ENDBRANCH   1  12
BRANCH   6  22
ATOM     22  O   UNL     1      -0.304 -26.736 -48.174  1.00  0.00    -0.507 OA
ATOM     23  H   UNL     1      -0.472 -27.646 -48.576  1.00  0.00     0.293 HD
ENDBRANCH   6  22
BRANCH   8  24
ATOM     24  O   UNL     1      -4.631 -26.388 -46.121  1.00  0.00    -0.508 OA
ATOM     25  H   UNL     1      -5.309 -25.904 -45.543  1.00  0.00     0.293 HD
ENDBRANCH   8  24
TORSDOF 5
ENDMDL
