MODEL 1
REMARK VINA RESULT:    -3.767      0.000      0.000
REMARK INTER + INTRA:         -12.980
REMARK INTER:                  -9.494
REMARK INTRA:                  -3.487
REMARK UNBOUND:                -3.487
REMARK SMILES CCCCCCCCCCCCCCCCCCCCCCCCCCCC(=O)[O-]
REMARK SMILES IDX 15 1 16 2 17 3 18 4 19 5 20 6 21 7 22 8 23 9 24 10 25 11
REMARK SMILES IDX 26 12 27 13 28 14 29 15 30 16 14 17 13 18 12 19 11 20 10 21
REMARK SMILES IDX 9 22 8 23 7 24 6 25 5 26 4 27 3 28 2 29 1 30
REMARK H PARENT
REMARK Flexibility Score: inf
ROOT
ATOM      1  C   UNL     1     -26.855 -13.421  45.018  1.00  0.00     0.000 C 
ENDROOT
BRANCH   1   2
ATOM      2  C   UNL     1     -28.162 -12.950  44.359  1.00  0.00     0.000 C 
BRANCH   2   3
ATOM      3  C   UNL     1     -29.368 -13.818  44.749  1.00  0.00     0.000 C 
BRANCH   3   4
ATOM      4  C   UNL     1     -29.002 -14.776  45.890  1.00  0.00     0.000 C 
BRANCH   4   5
ATOM      5  C   UNL     1     -29.942 -14.591  47.092  1.00  0.00     0.000 C 
BRANCH   5   6
ATOM      6  C   UNL     1     -29.396 -15.245  48.372  1.00  0.00     0.000 C 
BRANCH   6   7
ATOM      7  C   UNL     1     -28.153 -14.528  48.921  1.00  0.00     0.000 C 
BRANCH   7   8
ATOM      8  C   UNL     1     -26.891 -15.366  48.686  1.00  0.00     0.000 C 
BRANCH   8   9
ATOM      9  C   UNL     1     -25.626 -14.566  49.020  1.00  0.00     0.000 C 
BRANCH   9  10
ATOM     10  C   UNL     1     -25.861 -13.060  48.834  1.00  0.00     0.000 C 
BRANCH  10  11
ATOM     11  C   UNL     1     -24.869 -12.418  47.851  1.00  0.00     0.000 C 
BRANCH  11  12
ATOM     12  C   UNL     1     -23.515 -13.142  47.816  1.00  0.00     0.006 C 
BRANCH  12  13
ATOM     13  C   UNL     1     -22.505 -12.461  48.748  1.00  0.00     0.053 C 
BRANCH  13  14
ATOM     14  C   UNL     1     -21.403 -11.823  47.960  1.00  0.00     0.041 C 
ATOM     15  O   UNL     1     -21.403 -10.579  47.756  1.00  0.00    -0.550 OA
ATOM     16  O   UNL     1     -20.379 -12.603  47.439  1.00  0.00    -0.550 OA
ENDBRANCH  13  14
ENDBRANCH  12  13
ENDBRANCH  11  12
ENDBRANCH  10  11
ENDBRANCH   9  10
ENDBRANCH   8   9
ENDBRANCH   7   8
ENDBRANCH   6   7
ENDBRANCH   5   6
ENDBRANCH   4   5
ENDBRANCH   3   4
ENDBRANCH   2   3
ENDBRANCH   1   2
BRANCH   1  17
ATOM     17  C   UNL     1     -25.609 -12.911  44.275  1.00  0.00     0.000 C 
BRANCH  17  18
ATOM     18  C   UNL     1     -24.486 -13.963  44.195  1.00  0.00     0.000 C 
BRANCH  18  19
ATOM     19  C   UNL     1     -23.973 -14.263  42.774  1.00  0.00     0.000 C 
BRANCH  19  20
ATOM     20  C   UNL     1     -22.552 -14.849  42.759  1.00  0.00     0.000 C 
BRANCH  20  21
ATOM     21  C   UNL     1     -21.528 -13.902  42.114  1.00  0.00     0.000 C 
BRANCH  21  22
ATOM     22  C   UNL     1     -20.696 -14.592  41.017  1.00  0.00    -0.000 C 
BRANCH  22  23
ATOM     23  C   UNL     1     -21.549 -15.466  40.085  1.00  0.00    -0.000 C 
BRANCH  23  24
ATOM     24  C   UNL     1     -22.111 -14.681  38.884  1.00  0.00    -0.000 C 
BRANCH  24  25
ATOM     25  C   UNL     1     -23.570 -14.248  39.091  1.00  0.00    -0.000 C 
BRANCH  25  26
ATOM     26  C   UNL     1     -23.902 -12.917  38.400  1.00  0.00    -0.000 C 
BRANCH  26  27
ATOM     27  C   UNL     1     -22.684 -11.980  38.401  1.00  0.00    -0.000 C 
BRANCH  27  28
ATOM     28  C   UNL     1     -22.497 -11.242  39.738  1.00  0.00    -0.000 C 
BRANCH  28  29
ATOM     29  C   UNL     1     -21.037 -10.907  40.088  1.00  0.00    -0.003 C 
ATOM     30  C   UNL     1     -20.032 -11.552  39.136  1.00  0.00     0.004 C 
ENDBRANCH  28  29
ENDBRANCH  27  28
ENDBRANCH  26  27
ENDBRANCH  25  26
ENDBRANCH  24  25
ENDBRANCH  23  24
ENDBRANCH  22  23
ENDBRANCH  21  22
ENDBRANCH  20  21
ENDBRANCH  19  20
ENDBRANCH  18  19
ENDBRANCH  17  18
ENDBRANCH   1  17
TORSDOF 26
ENDMDL
MODEL 2
REMARK VINA RESULT:    -3.758      2.725      8.916
REMARK INTER + INTRA:         -12.956
REMARK INTER:                  -8.993
REMARK INTRA:                  -3.963
REMARK UNBOUND:                -3.487
REMARK SMILES CCCCCCCCCCCCCCCCCCCCCCCCCCCC(=O)[O-]
REMARK SMILES IDX 15 1 16 2 17 3 18 4 19 5 20 6 21 7 22 8 23 9 24 10 25 11
REMARK SMILES IDX 26 12 27 13 28 14 29 15 30 16 14 17 13 18 12 19 11 20 10 21
REMARK SMILES IDX 9 22 8 23 7 24 6 25 5 26 4 27 3 28 2 29 1 30
REMARK H PARENT
REMARK Flexibility Score: inf
ROOT
ATOM      1  C   UNL     1     -28.168 -12.846  44.361  1.00  0.00     0.000 C 
ENDROOT
BRANCH   1   2
ATOM      2  C   UNL     1     -26.774 -13.436  44.629  1.00  0.00     0.000 C 
BRANCH   2   3
ATOM      3  C   UNL     1     -25.883 -12.499  45.460  1.00  0.00     0.000 C 
BRANCH   3   4
ATOM      4  C   UNL     1     -25.606 -13.100  46.844  1.00  0.00     0.000 C 
BRANCH   4   5
ATOM      5  C   UNL     1     -24.503 -12.318  47.577  1.00  0.00     0.000 C 
BRANCH   5   6
ATOM      6  C   UNL     1     -23.180 -13.097  47.651  1.00  0.00     0.000 C 
BRANCH   6   7
ATOM      7  C   UNL     1     -23.390 -14.611  47.806  1.00  0.00     0.000 C 
BRANCH   7   8
ATOM      8  C   UNL     1     -22.600 -15.384  46.743  1.00  0.00     0.000 C 
BRANCH   8   9
ATOM      9  C   UNL     1     -21.737 -14.438  45.899  1.00  0.00     0.000 C 
BRANCH   9  10
ATOM     10  C   UNL     1     -21.600 -14.955  44.460  1.00  0.00     0.000 C 
BRANCH  10  11
ATOM     11  C   UNL     1     -22.946 -15.371  43.845  1.00  0.00     0.000 C 
BRANCH  11  12
ATOM     12  C   UNL     1     -23.563 -14.271  42.968  1.00  0.00     0.006 C 
BRANCH  12  13
ATOM     13  C   UNL     1     -22.960 -14.291  41.558  1.00  0.00     0.053 C 
BRANCH  13  14
ATOM     14  C   UNL     1     -22.312 -12.978  41.240  1.00  0.00     0.041 C 
ATOM     15  O   UNL     1     -22.978 -12.053  40.703  1.00  0.00    -0.550 OA
ATOM     16  O   UNL     1     -20.967 -12.780  41.525  1.00  0.00    -0.550 OA
ENDBRANCH  13  14
ENDBRANCH  12  13
ENDBRANCH  11  12
ENDBRANCH  10  11
ENDBRANCH   9  10
ENDBRANCH   8   9
ENDBRANCH   7   8
ENDBRANCH   6   7
ENDBRANCH   5   6
ENDBRANCH   4   5
ENDBRANCH   3   4
ENDBRANCH   2   3
ENDBRANCH   1   2
BRANCH   1  17
ATOM     17  C   UNL     1     -29.294 -13.849  44.663  1.00  0.00     0.000 C 
BRANCH  17  18
ATOM     18  C   UNL     1     -28.981 -14.761  45.865  1.00  0.00     0.000 C 
BRANCH  18  19
ATOM     19  C   UNL     1     -29.887 -14.558  47.093  1.00  0.00     0.000 C 
BRANCH  19  20
ATOM     20  C   UNL     1     -29.447 -15.391  48.308  1.00  0.00     0.000 C 
BRANCH  20  21
ATOM     21  C   UNL     1     -27.931 -15.643  48.336  1.00  0.00     0.000 C 
BRANCH  21  22
ATOM     22  C   UNL     1     -27.360 -15.646  49.764  1.00  0.00    -0.000 C 
BRANCH  22  23
ATOM     23  C   UNL     1     -27.579 -14.312  50.495  1.00  0.00    -0.000 C 
BRANCH  23  24
ATOM     24  C   UNL     1     -26.320 -13.426  50.505  1.00  0.00    -0.000 C 
BRANCH  24  25
ATOM     25  C   UNL     1     -26.653 -11.927  50.585  1.00  0.00    -0.000 C 
BRANCH  25  26
ATOM     26  C   UNL     1     -27.752 -11.613  51.610  1.00  0.00    -0.000 C 
BRANCH  26  27
ATOM     27  C   UNL     1     -28.917 -10.860  50.951  1.00  0.00    -0.000 C 
BRANCH  27  28
ATOM     28  C   UNL     1     -30.239 -11.003  51.726  1.00  0.00    -0.000 C 
BRANCH  28  29
ATOM     29  C   UNL     1     -30.670 -12.454  51.998  1.00  0.00    -0.003 C 
ATOM     30  C   UNL     1     -31.189 -13.166  50.749  1.00  0.00     0.004 C 
ENDBRANCH  28  29
ENDBRANCH  27  28
ENDBRANCH  26  27
ENDBRANCH  25  26
ENDBRANCH  24  25
ENDBRANCH  23  24
ENDBRANCH  22  23
ENDBRANCH  21  22
ENDBRANCH  20  21
ENDBRANCH  19  20
ENDBRANCH  18  19
ENDBRANCH  17  18
ENDBRANCH   1  17
TORSDOF 26
ENDMDL
MODEL 3
REMARK VINA RESULT:    -3.691      3.031      9.085
REMARK INTER + INTRA:         -12.787
REMARK INTER:                  -8.878
REMARK INTRA:                  -3.910
REMARK UNBOUND:                -3.487
REMARK SMILES CCCCCCCCCCCCCCCCCCCCCCCCCCCC(=O)[O-]
REMARK SMILES IDX 15 1 16 2 17 3 18 4 19 5 20 6 21 7 22 8 23 9 24 10 25 11
REMARK SMILES IDX 26 12 27 13 28 14 29 15 30 16 14 17 13 18 12 19 11 20 10 21
REMARK SMILES IDX 9 22 8 23 7 24 6 25 5 26 4 27 3 28 2 29 1 30
REMARK H PARENT
REMARK Flexibility Score: inf
ROOT
ATOM      1  C   UNL     1     -26.680 -13.331  44.686  1.00  0.00     0.000 C 
ENDROOT
BRANCH   1   2
ATOM      2  C   UNL     1     -25.736 -12.477  45.549  1.00  0.00     0.000 C 
BRANCH   2   3
ATOM      3  C   UNL     1     -25.426 -13.125  46.907  1.00  0.00     0.000 C 
BRANCH   3   4
ATOM      4  C   UNL     1     -24.312 -12.359  47.633  1.00  0.00     0.000 C 
BRANCH   4   5
ATOM      5  C   UNL     1     -23.070 -13.242  47.832  1.00  0.00     0.000 C 
BRANCH   5   6
ATOM      6  C   UNL     1     -23.381 -14.739  47.670  1.00  0.00     0.000 C 
BRANCH   6   7
ATOM      7  C   UNL     1     -22.423 -15.442  46.696  1.00  0.00     0.000 C 
BRANCH   7   8
ATOM      8  C   UNL     1     -22.252 -14.623  45.411  1.00  0.00     0.000 C 
BRANCH   8   9
ATOM      9  C   UNL     1     -22.573 -15.467  44.171  1.00  0.00     0.000 C 
BRANCH   9  10
ATOM     10  C   UNL     1     -23.195 -14.603  43.065  1.00  0.00     0.000 C 
BRANCH  10  11
ATOM     11  C   UNL     1     -22.184 -14.204  41.979  1.00  0.00     0.000 C 
BRANCH  11  12
ATOM     12  C   UNL     1     -22.710 -13.094  41.057  1.00  0.00     0.006 C 
BRANCH  12  13
ATOM     13  C   UNL     1     -23.124 -13.662  39.694  1.00  0.00     0.053 C 
BRANCH  13  14
ATOM     14  C   UNL     1     -23.471 -12.559  38.743  1.00  0.00     0.041 C 
ATOM     15  O   UNL     1     -24.447 -12.682  37.955  1.00  0.00    -0.550 OA
ATOM     16  O   UNL     1     -22.710 -11.398  38.717  1.00  0.00    -0.550 OA
ENDBRANCH  13  14
ENDBRANCH  12  13
ENDBRANCH  11  12
ENDBRANCH  10  11
ENDBRANCH   9  10
ENDBRANCH   8   9
ENDBRANCH   7   8
ENDBRANCH   6   7
ENDBRANCH   5   6
ENDBRANCH   4   5
ENDBRANCH   3   4
ENDBRANCH   2   3
ENDBRANCH   1   2
BRANCH   1  17
ATOM     17  C   UNL     1     -27.996 -12.604  44.364  1.00  0.00     0.000 C 
BRANCH  17  18
ATOM     18  C   UNL     1     -29.241 -13.474  44.619  1.00  0.00     0.000 C 
BRANCH  18  19
ATOM     19  C   UNL     1     -28.986 -14.755  45.436  1.00  0.00     0.000 C 
BRANCH  19  20
ATOM     20  C   UNL     1     -29.640 -14.719  46.827  1.00  0.00     0.000 C 
BRANCH  20  21
ATOM     21  C   UNL     1     -28.610 -14.780  47.967  1.00  0.00     0.000 C 
BRANCH  21  22
ATOM     22  C   UNL     1     -28.634 -16.125  48.714  1.00  0.00    -0.000 C 
BRANCH  22  23
ATOM     23  C   UNL     1     -28.915 -15.966  50.216  1.00  0.00    -0.000 C 
BRANCH  23  24
ATOM     24  C   UNL     1     -29.487 -14.580  50.570  1.00  0.00    -0.000 C 
BRANCH  24  25
ATOM     25  C   UNL     1     -29.077 -14.113  51.975  1.00  0.00    -0.000 C 
BRANCH  25  26
ATOM     26  C   UNL     1     -28.606 -12.651  52.004  1.00  0.00    -0.000 C 
BRANCH  26  27
ATOM     27  C   UNL     1     -28.093 -12.213  50.625  1.00  0.00    -0.000 C 
BRANCH  27  28
ATOM     28  C   UNL     1     -26.564 -12.052  50.577  1.00  0.00    -0.000 C 
BRANCH  28  29
ATOM     29  C   UNL     1     -25.779 -13.144  51.323  1.00  0.00    -0.003 C 
ATOM     30  C   UNL     1     -25.593 -14.416  50.497  1.00  0.00     0.004 C 
ENDBRANCH  28  29
ENDBRANCH  27  28
ENDBRANCH  26  27
ENDBRANCH  25  26
ENDBRANCH  24  25
ENDBRANCH  23  24
ENDBRANCH  22  23
ENDBRANCH  21  22
ENDBRANCH  20  21
ENDBRANCH  19  20
ENDBRANCH  18  19
ENDBRANCH  17  18
ENDBRANCH   1  17
TORSDOF 26
ENDMDL
MODEL 4
REMARK VINA RESULT:    -3.666      2.050      4.697
REMARK INTER + INTRA:         -12.726
REMARK INTER:                  -9.896
REMARK INTRA:                  -2.830
REMARK UNBOUND:                -3.487
REMARK SMILES CCCCCCCCCCCCCCCCCCCCCCCCCCCC(=O)[O-]
REMARK SMILES IDX 15 1 16 2 17 3 18 4 19 5 20 6 21 7 22 8 23 9 24 10 25 11
REMARK SMILES IDX 26 12 27 13 28 14 29 15 30 16 14 17 13 18 12 19 11 20 10 21
REMARK SMILES IDX 9 22 8 23 7 24 6 25 5 26 4 27 3 28 2 29 1 30
REMARK H PARENT
REMARK Flexibility Score: inf
ROOT
ATOM      1  C   UNL     1     -25.964 -12.636  49.328  1.00  0.00     0.000 C 
ENDROOT
BRANCH   1   2
ATOM      2  C   UNL     1     -26.588 -13.506  50.431  1.00  0.00     0.000 C 
BRANCH   2   3
ATOM      3  C   UNL     1     -27.652 -14.474  49.891  1.00  0.00     0.000 C 
BRANCH   3   4
ATOM      4  C   UNL     1     -27.453 -14.717  48.389  1.00  0.00     0.000 C 
BRANCH   4   5
ATOM      5  C   UNL     1     -28.296 -15.907  47.904  1.00  0.00     0.000 C 
BRANCH   5   6
ATOM      6  C   UNL     1     -29.758 -15.518  47.629  1.00  0.00     0.000 C 
BRANCH   6   7
ATOM      7  C   UNL     1     -29.886 -14.331  46.662  1.00  0.00     0.000 C 
BRANCH   7   8
ATOM      8  C   UNL     1     -29.065 -14.572  45.391  1.00  0.00     0.000 C 
BRANCH   8   9
ATOM      9  C   UNL     1     -29.345 -13.492  44.338  1.00  0.00     0.000 C 
BRANCH   9  10
ATOM     10  C   UNL     1     -28.227 -12.440  44.317  1.00  0.00     0.000 C 
BRANCH  10  11
ATOM     11  C   UNL     1     -26.871 -13.001  44.772  1.00  0.00     0.000 C 
BRANCH  11  12
ATOM     12  C   UNL     1     -25.852 -11.900  45.098  1.00  0.00     0.006 C 
BRANCH  12  13
ATOM     13  C   UNL     1     -26.010 -10.707  44.147  1.00  0.00     0.053 C 
BRANCH  13  14
ATOM     14  C   UNL     1     -25.808  -9.415  44.878  1.00  0.00     0.041 C 
ATOM     15  O   UNL     1     -24.828  -9.271  45.657  1.00  0.00    -0.550 OA
ATOM     16  O   UNL     1     -26.710  -8.373  44.709  1.00  0.00    -0.550 OA
ENDBRANCH  13  14
ENDBRANCH  12  13
ENDBRANCH  11  12
ENDBRANCH  10  11
ENDBRANCH   9  10
ENDBRANCH   8   9
ENDBRANCH   7   8
ENDBRANCH   6   7
ENDBRANCH   5   6
ENDBRANCH   4   5
ENDBRANCH   3   4
ENDBRANCH   2   3
ENDBRANCH   1   2
BRANCH   1  17
ATOM     17  C   UNL     1     -24.636 -11.998  49.767  1.00  0.00     0.000 C 
BRANCH  17  18
ATOM     18  C   UNL     1     -23.435 -12.472  48.927  1.00  0.00     0.000 C 
BRANCH  18  19
ATOM     19  C   UNL     1     -23.780 -13.445  47.785  1.00  0.00     0.000 C 
BRANCH  19  20
ATOM     20  C   UNL     1     -23.425 -14.905  48.112  1.00  0.00     0.000 C 
BRANCH  20  21
ATOM     21  C   UNL     1     -22.590 -15.573  47.008  1.00  0.00     0.000 C 
BRANCH  21  22
ATOM     22  C   UNL     1     -21.616 -14.593  46.330  1.00  0.00    -0.000 C 
BRANCH  22  23
ATOM     23  C   UNL     1     -21.374 -14.924  44.849  1.00  0.00    -0.000 C 
BRANCH  23  24
ATOM     24  C   UNL     1     -22.679 -14.986  44.034  1.00  0.00    -0.000 C 
BRANCH  24  25
ATOM     25  C   UNL     1     -22.428 -15.019  42.518  1.00  0.00    -0.000 C 
BRANCH  25  26
ATOM     26  C   UNL     1     -21.724 -13.756  42.001  1.00  0.00    -0.000 C 
BRANCH  26  27
ATOM     27  C   UNL     1     -22.695 -12.875  41.202  1.00  0.00    -0.000 C 
BRANCH  27  28
ATOM     28  C   UNL     1     -22.202 -12.582  39.774  1.00  0.00    -0.000 C 
BRANCH  28  29
ATOM     29  C   UNL     1     -23.122 -11.663  38.952  1.00  0.00    -0.003 C 
ATOM     30  C   UNL     1     -24.191 -12.429  38.175  1.00  0.00     0.004 C 
ENDBRANCH  28  29
ENDBRANCH  27  28
ENDBRANCH  26  27
ENDBRANCH  25  26
ENDBRANCH  24  25
ENDBRANCH  23  24
ENDBRANCH  22  23
ENDBRANCH  21  22
ENDBRANCH  20  21
ENDBRANCH  19  20
ENDBRANCH  18  19
ENDBRANCH  17  18
ENDBRANCH   1  17
TORSDOF 26
ENDMDL
MODEL 5
REMARK VINA RESULT:    -3.646      2.502      4.676
REMARK INTER + INTRA:         -12.676
REMARK INTER:                  -9.835
REMARK INTRA:                  -2.841
REMARK UNBOUND:                -3.487
REMARK SMILES CCCCCCCCCCCCCCCCCCCCCCCCCCCC(=O)[O-]
REMARK SMILES IDX 15 1 16 2 17 3 18 4 19 5 20 6 21 7 22 8 23 9 24 10 25 11
REMARK SMILES IDX 26 12 27 13 28 14 29 15 30 16 14 17 13 18 12 19 11 20 10 21
REMARK SMILES IDX 9 22 8 23 7 24 6 25 5 26 4 27 3 28 2 29 1 30
REMARK H PARENT
REMARK Flexibility Score: inf
ROOT
ATOM      1  C   UNL     1     -25.377 -10.311  42.378  1.00  0.00     0.000 C 
ENDROOT
BRANCH   1   2
ATOM      2  C   UNL     1     -26.004  -9.753  43.667  1.00  0.00     0.000 C 
BRANCH   2   3
ATOM      3  C   UNL     1     -25.995 -10.769  44.819  1.00  0.00     0.000 C 
BRANCH   3   4
ATOM      4  C   UNL     1     -25.742 -12.187  44.290  1.00  0.00     0.000 C 
BRANCH   4   5
ATOM      5  C   UNL     1     -26.869 -13.144  44.708  1.00  0.00     0.000 C 
BRANCH   5   6
ATOM      6  C   UNL     1     -28.262 -12.609  44.341  1.00  0.00     0.000 C 
BRANCH   6   7
ATOM      7  C   UNL     1     -29.379 -13.633  44.599  1.00  0.00     0.000 C 
BRANCH   7   8
ATOM      8  C   UNL     1     -28.961 -14.637  45.678  1.00  0.00     0.000 C 
BRANCH   8   9
ATOM      9  C   UNL     1     -29.904 -14.575  46.887  1.00  0.00     0.000 C 
BRANCH   9  10
ATOM     10  C   UNL     1     -29.656 -15.754  47.838  1.00  0.00     0.000 C 
BRANCH  10  11
ATOM     11  C   UNL     1     -30.037 -15.437  49.293  1.00  0.00     0.000 C 
BRANCH  11  12
ATOM     12  C   UNL     1     -29.337 -14.180  49.830  1.00  0.00     0.006 C 
BRANCH  12  13
ATOM     13  C   UNL     1     -27.858 -14.458  50.120  1.00  0.00     0.053 C 
BRANCH  13  14
ATOM     14  C   UNL     1     -26.982 -13.494  49.380  1.00  0.00     0.041 C 
ATOM     15  O   UNL     1     -26.707 -12.370  49.881  1.00  0.00    -0.550 OA
ATOM     16  O   UNL     1     -26.478 -13.830  48.131  1.00  0.00    -0.550 OA
ENDBRANCH  13  14
ENDBRANCH  12  13
ENDBRANCH  11  12
ENDBRANCH  10  11
ENDBRANCH   9  10
ENDBRANCH   8   9
ENDBRANCH   7   8
ENDBRANCH   6   7
ENDBRANCH   5   6
ENDBRANCH   4   5
ENDBRANCH   3   4
ENDBRANCH   2   3
ENDBRANCH   1   2
BRANCH   1  17
ATOM     17  C   UNL     1     -25.678  -9.431  41.153  1.00  0.00     0.000 C 
BRANCH  17  18
ATOM     18  C   UNL     1     -24.548  -9.452  40.107  1.00  0.00     0.000 C 
BRANCH  18  19
ATOM     19  C   UNL     1     -23.745 -10.764  40.038  1.00  0.00     0.000 C 
BRANCH  19  20
ATOM     20  C   UNL     1     -22.302 -10.561  39.547  1.00  0.00     0.000 C 
BRANCH  20  21
ATOM     21  C   UNL     1     -21.265 -11.228  40.465  1.00  0.00     0.000 C 
BRANCH  21  22
ATOM     22  C   UNL     1     -19.818 -10.913  40.047  1.00  0.00    -0.000 C 
BRANCH  22  23
ATOM     23  C   UNL     1     -19.370 -11.707  38.809  1.00  0.00    -0.000 C 
BRANCH  23  24
ATOM     24  C   UNL     1     -19.868 -13.165  38.827  1.00  0.00    -0.000 C 
BRANCH  24  25
ATOM     25  C   UNL     1     -21.069 -13.391  37.895  1.00  0.00    -0.000 C 
BRANCH  25  26
ATOM     26  C   UNL     1     -21.819 -14.697  38.195  1.00  0.00    -0.000 C 
BRANCH  26  27
ATOM     27  C   UNL     1     -21.931 -14.931  39.708  1.00  0.00    -0.000 C 
BRANCH  27  28
ATOM     28  C   UNL     1     -23.161 -14.248  40.331  1.00  0.00    -0.000 C 
BRANCH  28  29
ATOM     29  C   UNL     1     -23.158 -14.195  41.868  1.00  0.00    -0.003 C 
ATOM     30  C   UNL     1     -21.750 -14.172  42.462  1.00  0.00     0.004 C 
ENDBRANCH  28  29
ENDBRANCH  27  28
ENDBRANCH  26  27
ENDBRANCH  25  26
ENDBRANCH  24  25
ENDBRANCH  23  24
ENDBRANCH  22  23
ENDBRANCH  21  22
ENDBRANCH  20  21
ENDBRANCH  19  20
ENDBRANCH  18  19
ENDBRANCH  17  18
ENDBRANCH   1  17
TORSDOF 26
ENDMDL
MODEL 6
REMARK VINA RESULT:    -3.641      2.610      5.341
REMARK INTER + INTRA:         -12.662
REMARK INTER:                  -8.760
REMARK INTRA:                  -3.902
REMARK UNBOUND:                -3.487
REMARK SMILES CCCCCCCCCCCCCCCCCCCCCCCCCCCC(=O)[O-]
REMARK SMILES IDX 15 1 16 2 17 3 18 4 19 5 20 6 21 7 22 8 23 9 24 10 25 11
REMARK SMILES IDX 26 12 27 13 28 14 29 15 30 16 14 17 13 18 12 19 11 20 10 21
REMARK SMILES IDX 9 22 8 23 7 24 6 25 5 26 4 27 3 28 2 29 1 30
REMARK H PARENT
REMARK Flexibility Score: inf
ROOT
ATOM      1  C   UNL     1     -21.217 -14.523  45.405  1.00  0.00     0.000 C 
ENDROOT
BRANCH   1   2
ATOM      2  C   UNL     1     -21.190 -14.422  46.939  1.00  0.00     0.000 C 
BRANCH   2   3
ATOM      3  C   UNL     1     -21.191 -12.969  47.438  1.00  0.00     0.000 C 
BRANCH   3   4
ATOM      4  C   UNL     1     -20.144 -12.775  48.543  1.00  0.00     0.000 C 
BRANCH   4   5
ATOM      5  C   UNL     1     -19.913 -11.282  48.831  1.00  0.00     0.000 C 
BRANCH   5   6
ATOM      6  C   UNL     1     -20.819 -10.753  49.954  1.00  0.00     0.000 C 
BRANCH   6   7
ATOM      7  C   UNL     1     -22.107 -10.105  49.423  1.00  0.00     0.000 C 
BRANCH   7   8
ATOM      8  C   UNL     1     -23.330 -10.598  50.205  1.00  0.00     0.000 C 
BRANCH   8   9
ATOM      9  C   UNL     1     -23.364 -12.130  50.271  1.00  0.00     0.000 C 
BRANCH   9  10
ATOM     10  C   UNL     1     -24.638 -12.681  49.615  1.00  0.00     0.000 C 
BRANCH  10  11
ATOM     11  C   UNL     1     -24.798 -12.236  48.153  1.00  0.00     0.000 C 
BRANCH  11  12
ATOM     12  C   UNL     1     -25.471 -13.303  47.278  1.00  0.00     0.006 C 
BRANCH  12  13
ATOM     13  C   UNL     1     -25.125 -13.097  45.798  1.00  0.00     0.053 C 
BRANCH  13  14
ATOM     14  C   UNL     1     -26.335 -12.674  45.024  1.00  0.00     0.041 C 
ATOM     15  O   UNL     1     -26.354 -11.563  44.429  1.00  0.00    -0.550 OA
ATOM     16  O   UNL     1     -27.448 -13.502  44.968  1.00  0.00    -0.550 OA
ENDBRANCH  13  14
ENDBRANCH  12  13
ENDBRANCH  11  12
ENDBRANCH  10  11
ENDBRANCH   9  10
ENDBRANCH   8   9
ENDBRANCH   7   8
ENDBRANCH   6   7
ENDBRANCH   5   6
ENDBRANCH   4   5
ENDBRANCH   3   4
ENDBRANCH   2   3
ENDBRANCH   1   2
BRANCH   1  17
ATOM     17  C   UNL     1     -21.640 -15.918  44.918  1.00  0.00     0.000 C 
BRANCH  17  18
ATOM     18  C   UNL     1     -22.662 -15.868  43.767  1.00  0.00     0.000 C 
BRANCH  18  19
ATOM     19  C   UNL     1     -22.238 -15.021  42.553  1.00  0.00     0.000 C 
BRANCH  19  20
ATOM     20  C   UNL     1     -20.885 -15.452  41.963  1.00  0.00     0.000 C 
BRANCH  20  21
ATOM     21  C   UNL     1     -19.899 -14.281  41.825  1.00  0.00     0.000 C 
BRANCH  21  22
ATOM     22  C   UNL     1     -20.611 -12.923  41.691  1.00  0.00    -0.000 C 
BRANCH  22  23
ATOM     23  C   UNL     1     -19.885 -11.963  40.735  1.00  0.00    -0.000 C 
BRANCH  23  24
ATOM     24  C   UNL     1     -20.819 -10.887  40.152  1.00  0.00    -0.000 C 
BRANCH  24  25
ATOM     25  C   UNL     1     -22.276 -11.363  40.045  1.00  0.00    -0.000 C 
BRANCH  25  26
ATOM     26  C   UNL     1     -22.787 -11.398  38.597  1.00  0.00    -0.000 C 
BRANCH  26  27
ATOM     27  C   UNL     1     -23.691 -12.618  38.364  1.00  0.00    -0.000 C 
BRANCH  27  28
ATOM     28  C   UNL     1     -23.343 -13.805  39.278  1.00  0.00    -0.000 C 
BRANCH  28  29
ATOM     29  C   UNL     1     -22.547 -14.931  38.596  1.00  0.00    -0.003 C 
ATOM     30  C   UNL     1     -21.080 -14.571  38.368  1.00  0.00     0.004 C 
ENDBRANCH  28  29
ENDBRANCH  27  28
ENDBRANCH  26  27
ENDBRANCH  25  26
ENDBRANCH  24  25
ENDBRANCH  23  24
ENDBRANCH  22  23
ENDBRANCH  21  22
ENDBRANCH  20  21
ENDBRANCH  19  20
ENDBRANCH  18  19
ENDBRANCH  17  18
ENDBRANCH   1  17
TORSDOF 26
ENDMDL
MODEL 7
REMARK VINA RESULT:    -3.555      1.132      2.233
REMARK INTER + INTRA:         -12.444
REMARK INTER:                  -8.950
REMARK INTRA:                  -3.494
REMARK UNBOUND:                -3.487
REMARK SMILES CCCCCCCCCCCCCCCCCCCCCCCCCCCC(=O)[O-]
REMARK SMILES IDX 15 1 16 2 17 3 18 4 19 5 20 6 21 7 22 8 23 9 24 10 25 11
REMARK SMILES IDX 26 12 27 13 28 14 29 15 30 16 14 17 13 18 12 19 11 20 10 21
REMARK SMILES IDX 9 22 8 23 7 24 6 25 5 26 4 27 3 28 2 29 1 30
REMARK H PARENT
REMARK Flexibility Score: inf
ROOT
ATOM      1  C   UNL     1     -26.887 -12.969  45.089  1.00  0.00     0.000 C 
ENDROOT
BRANCH   1   2
ATOM      2  C   UNL     1     -28.176 -12.763  44.278  1.00  0.00     0.000 C 
BRANCH   2   3
ATOM      3  C   UNL     1     -29.237 -13.836  44.568  1.00  0.00     0.000 C 
BRANCH   3   4
ATOM      4  C   UNL     1     -28.880 -14.624  45.835  1.00  0.00     0.000 C 
BRANCH   4   5
ATOM      5  C   UNL     1     -30.014 -14.553  46.870  1.00  0.00     0.000 C 
BRANCH   5   6
ATOM      6  C   UNL     1     -29.733 -15.416  48.111  1.00  0.00     0.000 C 
BRANCH   6   7
ATOM      7  C   UNL     1     -28.365 -16.114  48.051  1.00  0.00     0.000 C 
BRANCH   7   8
ATOM      8  C   UNL     1     -27.594 -15.917  49.360  1.00  0.00     0.000 C 
BRANCH   8   9
ATOM      9  C   UNL     1     -27.379 -14.428  49.658  1.00  0.00     0.000 C 
BRANCH   9  10
ATOM     10  C   UNL     1     -26.490 -13.776  48.589  1.00  0.00     0.000 C 
BRANCH  10  11
ATOM     11  C   UNL     1     -25.023 -14.226  48.676  1.00  0.00     0.000 C 
BRANCH  11  12
ATOM     12  C   UNL     1     -24.128 -13.536  47.636  1.00  0.00     0.006 C 
BRANCH  12  13
ATOM     13  C   UNL     1     -24.339 -12.017  47.652  1.00  0.00     0.053 C 
BRANCH  13  14
ATOM     14  C   UNL     1     -23.746 -11.412  48.887  1.00  0.00     0.041 C 
ATOM     15  O   UNL     1     -22.511 -11.509  49.114  1.00  0.00    -0.550 OA
ATOM     16  O   UNL     1     -24.561 -10.748  49.795  1.00  0.00    -0.550 OA
ENDBRANCH  13  14
ENDBRANCH  12  13
ENDBRANCH  11  12
ENDBRANCH  10  11
ENDBRANCH   9  10
ENDBRANCH   8   9
ENDBRANCH   7   8
ENDBRANCH   6   7
ENDBRANCH   5   6
ENDBRANCH   4   5
ENDBRANCH   3   4
ENDBRANCH   2   3
ENDBRANCH   1   2
BRANCH   1  17
ATOM     17  C   UNL     1     -25.623 -12.701  44.256  1.00  0.00     0.000 C 
BRANCH  17  18
ATOM     18  C   UNL     1     -24.766 -13.963  44.041  1.00  0.00     0.000 C 
BRANCH  18  19
ATOM     19  C   UNL     1     -23.846 -13.925  42.806  1.00  0.00     0.000 C 
BRANCH  19  20
ATOM     20  C   UNL     1     -22.788 -15.041  42.812  1.00  0.00     0.000 C 
BRANCH  20  21
ATOM     21  C   UNL     1     -21.505 -14.636  43.554  1.00  0.00     0.000 C 
BRANCH  21  22
ATOM     22  C   UNL     1     -20.245 -14.793  42.684  1.00  0.00    -0.000 C 
BRANCH  22  23
ATOM     23  C   UNL     1     -20.441 -14.263  41.255  1.00  0.00    -0.000 C 
BRANCH  23  24
ATOM     24  C   UNL     1     -19.793 -12.883  41.039  1.00  0.00    -0.000 C 
BRANCH  24  25
ATOM     25  C   UNL     1     -20.310 -12.177  39.776  1.00  0.00    -0.000 C 
BRANCH  25  26
ATOM     26  C   UNL     1     -21.256 -11.008  40.089  1.00  0.00    -0.000 C 
BRANCH  26  27
ATOM     27  C   UNL     1     -22.723 -11.427  39.913  1.00  0.00    -0.000 C 
BRANCH  27  28
ATOM     28  C   UNL     1     -23.050 -11.874  38.478  1.00  0.00    -0.000 C 
BRANCH  28  29
ATOM     29  C   UNL     1     -24.051 -13.038  38.380  1.00  0.00    -0.003 C 
ATOM     30  C   UNL     1     -23.561 -14.307  39.078  1.00  0.00     0.004 C 
ENDBRANCH  28  29
ENDBRANCH  27  28
ENDBRANCH  26  27
ENDBRANCH  25  26
ENDBRANCH  24  25
ENDBRANCH  23  24
ENDBRANCH  22  23
ENDBRANCH  21  22
ENDBRANCH  20  21
ENDBRANCH  19  20
ENDBRANCH  18  19
ENDBRANCH  17  18
ENDBRANCH   1  17
TORSDOF 26
ENDMDL
MODEL 8
REMARK VINA RESULT:    -3.546      2.970      4.607
REMARK INTER + INTRA:         -12.422
REMARK INTER:                  -9.231
REMARK INTRA:                  -3.192
REMARK UNBOUND:                -3.487
REMARK SMILES CCCCCCCCCCCCCCCCCCCCCCCCCCCC(=O)[O-]
REMARK SMILES IDX 15 1 16 2 17 3 18 4 19 5 20 6 21 7 22 8 23 9 24 10 25 11
REMARK SMILES IDX 26 12 27 13 28 14 29 15 30 16 14 17 13 18 12 19 11 20 10 21
REMARK SMILES IDX 9 22 8 23 7 24 6 25 5 26 4 27 3 28 2 29 1 30
REMARK H PARENT
REMARK Flexibility Score: inf
ROOT
ATOM      1  C   UNL     1     -25.218 -13.499  44.540  1.00  0.00     0.000 C 
ENDROOT
BRANCH   1   2
ATOM      2  C   UNL     1     -24.541 -13.311  45.908  1.00  0.00     0.000 C 
BRANCH   2   3
ATOM      3  C   UNL     1     -25.550 -13.059  47.039  1.00  0.00     0.000 C 
BRANCH   3   4
ATOM      4  C   UNL     1     -25.014 -13.594  48.373  1.00  0.00     0.000 C 
BRANCH   4   5
ATOM      5  C   UNL     1     -25.690 -14.923  48.749  1.00  0.00     0.000 C 
BRANCH   5   6
ATOM      6  C   UNL     1     -26.719 -14.760  49.879  1.00  0.00     0.000 C 
BRANCH   6   7
ATOM      7  C   UNL     1     -27.661 -13.567  49.658  1.00  0.00     0.000 C 
BRANCH   7   8
ATOM      8  C   UNL     1     -29.121 -14.028  49.595  1.00  0.00     0.000 C 
BRANCH   8   9
ATOM      9  C   UNL     1     -29.253 -15.347  48.824  1.00  0.00     0.000 C 
BRANCH   9  10
ATOM     10  C   UNL     1     -30.148 -15.175  47.589  1.00  0.00     0.000 C 
BRANCH  10  11
ATOM     11  C   UNL     1     -29.384 -15.360  46.268  1.00  0.00     0.000 C 
BRANCH  11  12
ATOM     12  C   UNL     1     -28.656 -14.085  45.819  1.00  0.00     0.006 C 
BRANCH  12  13
ATOM     13  C   UNL     1     -28.884 -13.819  44.327  1.00  0.00     0.053 C 
BRANCH  13  14
ATOM     14  C   UNL     1     -30.140 -13.033  44.113  1.00  0.00     0.041 C 
ATOM     15  O   UNL     1     -30.631 -12.349  45.052  1.00  0.00    -0.550 OA
ATOM     16  O   UNL     1     -30.779 -13.063  42.880  1.00  0.00    -0.550 OA
ENDBRANCH  13  14
ENDBRANCH  12  13
ENDBRANCH  11  12
ENDBRANCH  10  11
ENDBRANCH   9  10
ENDBRANCH   8   9
ENDBRANCH   7   8
ENDBRANCH   6   7
ENDBRANCH   5   6
ENDBRANCH   4   5
ENDBRANCH   3   4
ENDBRANCH   2   3
ENDBRANCH   1   2
BRANCH   1  17
ATOM     17  C   UNL     1     -24.305 -14.212  43.529  1.00  0.00     0.000 C 
BRANCH  17  18
ATOM     18  C   UNL     1     -22.993 -14.719  44.158  1.00  0.00     0.000 C 
BRANCH  18  19
ATOM     19  C   UNL     1     -22.190 -15.704  43.288  1.00  0.00     0.000 C 
BRANCH  19  20
ATOM     20  C   UNL     1     -20.702 -15.334  43.180  1.00  0.00     0.000 C 
BRANCH  20  21
ATOM     21  C   UNL     1     -20.479 -13.823  43.007  1.00  0.00     0.000 C 
BRANCH  21  22
ATOM     22  C   UNL     1     -20.941 -13.311  41.631  1.00  0.00    -0.000 C 
BRANCH  22  23
ATOM     23  C   UNL     1     -20.376 -14.141  40.468  1.00  0.00    -0.000 C 
BRANCH  23  24
ATOM     24  C   UNL     1     -21.478 -14.801  39.619  1.00  0.00    -0.000 C 
BRANCH  24  25
ATOM     25  C   UNL     1     -22.874 -14.231  39.914  1.00  0.00    -0.000 C 
BRANCH  25  26
ATOM     26  C   UNL     1     -23.679 -13.932  38.641  1.00  0.00    -0.000 C 
BRANCH  26  27
ATOM     27  C   UNL     1     -24.073 -12.449  38.575  1.00  0.00    -0.000 C 
BRANCH  27  28
ATOM     28  C   UNL     1     -22.857 -11.506  38.583  1.00  0.00    -0.000 C 
BRANCH  28  29
ATOM     29  C   UNL     1     -22.784 -10.561  39.794  1.00  0.00    -0.003 C 
ATOM     30  C   UNL     1     -24.085  -9.797  40.035  1.00  0.00     0.004 C 
ENDBRANCH  28  29
ENDBRANCH  27  28
ENDBRANCH  26  27
ENDBRANCH  25  26
ENDBRANCH  24  25
ENDBRANCH  23  24
ENDBRANCH  22  23
ENDBRANCH  21  22
ENDBRANCH  20  21
ENDBRANCH  19  20
ENDBRANCH  18  19
ENDBRANCH  17  18
ENDBRANCH   1  17
TORSDOF 26
ENDMDL
MODEL 9
REMARK VINA RESULT:    -3.500      3.004      9.094
REMARK INTER + INTRA:         -12.306
REMARK INTER:                  -8.657
REMARK INTRA:                  -3.649
REMARK UNBOUND:                -3.487
REMARK SMILES CCCCCCCCCCCCCCCCCCCCCCCCCCCC(=O)[O-]
REMARK SMILES IDX 15 1 16 2 17 3 18 4 19 5 20 6 21 7 22 8 23 9 24 10 25 11
REMARK SMILES IDX 26 12 27 13 28 14 29 15 30 16 14 17 13 18 12 19 11 20 10 21
REMARK SMILES IDX 9 22 8 23 7 24 6 25 5 26 4 27 3 28 2 29 1 30
REMARK H PARENT
REMARK Flexibility Score: inf
ROOT
ATOM      1  C   UNL     1     -22.152 -15.497  44.801  1.00  0.00     0.000 C 
ENDROOT
BRANCH   1   2
ATOM      2  C   UNL     1     -23.149 -14.805  43.858  1.00  0.00     0.000 C 
BRANCH   2   3
ATOM      3  C   UNL     1     -22.588 -14.609  42.441  1.00  0.00     0.000 C 
BRANCH   3   4
ATOM      4  C   UNL     1     -21.406 -15.555  42.190  1.00  0.00     0.000 C 
BRANCH   4   5
ATOM      5  C   UNL     1     -20.160 -14.777  41.736  1.00  0.00     0.000 C 
BRANCH   5   6
ATOM      6  C   UNL     1     -19.950 -13.484  42.540  1.00  0.00     0.000 C 
BRANCH   6   7
ATOM      7  C   UNL     1     -19.317 -12.361  41.703  1.00  0.00     0.000 C 
BRANCH   7   8
ATOM      8  C   UNL     1     -19.212 -12.771  40.230  1.00  0.00     0.000 C 
BRANCH   8   9
ATOM      9  C   UNL     1     -19.931 -11.765  39.322  1.00  0.00     0.000 C 
BRANCH   9  10
ATOM     10  C   UNL     1     -20.828 -10.827  40.142  1.00  0.00     0.000 C 
BRANCH  10  11
ATOM     11  C   UNL     1     -22.312 -10.936  39.760  1.00  0.00     0.000 C 
BRANCH  11  12
ATOM     12  C   UNL     1     -22.525 -11.581  38.383  1.00  0.00     0.006 C 
BRANCH  12  13
ATOM     13  C   UNL     1     -23.808 -12.421  38.363  1.00  0.00     0.053 C 
BRANCH  13  14
ATOM     14  C   UNL     1     -23.526 -13.832  38.779  1.00  0.00     0.041 C 
ATOM     15  O   UNL     1     -24.472 -14.608  39.080  1.00  0.00    -0.550 OA
ATOM     16  O   UNL     1     -22.216 -14.287  38.847  1.00  0.00    -0.550 OA
ENDBRANCH  13  14
ENDBRANCH  12  13
ENDBRANCH  11  12
ENDBRANCH  10  11
ENDBRANCH   9  10
ENDBRANCH   8   9
ENDBRANCH   7   8
ENDBRANCH   6   7
ENDBRANCH   5   6
ENDBRANCH   4   5
ENDBRANCH   3   4
ENDBRANCH   2   3
ENDBRANCH   1   2
BRANCH   1  17
ATOM     17  C   UNL     1     -21.840 -14.649  46.046  1.00  0.00     0.000 C 
BRANCH  17  18
ATOM     18  C   UNL     1     -20.384 -14.146  46.081  1.00  0.00     0.000 C 
BRANCH  18  19
ATOM     19  C   UNL     1     -19.732 -14.131  47.476  1.00  0.00     0.000 C 
BRANCH  19  20
ATOM     20  C   UNL     1     -20.400 -13.137  48.440  1.00  0.00     0.000 C 
BRANCH  20  21
ATOM     21  C   UNL     1     -20.121 -11.672  48.067  1.00  0.00     0.000 C 
BRANCH  21  22
ATOM     22  C   UNL     1     -20.800 -10.679  49.027  1.00  0.00    -0.000 C 
BRANCH  22  23
ATOM     23  C   UNL     1     -21.750 -11.368  50.020  1.00  0.00    -0.000 C 
BRANCH  23  24
ATOM     24  C   UNL     1     -23.211 -10.910  49.860  1.00  0.00    -0.000 C 
BRANCH  24  25
ATOM     25  C   UNL     1     -23.607 -10.697  48.390  1.00  0.00    -0.000 C 
BRANCH  25  26
ATOM     26  C   UNL     1     -23.842 -12.015  47.638  1.00  0.00    -0.000 C 
BRANCH  26  27
ATOM     27  C   UNL     1     -25.130 -12.699  48.119  1.00  0.00    -0.000 C 
BRANCH  27  28
ATOM     28  C   UNL     1     -25.862 -13.456  46.997  1.00  0.00    -0.000 C 
BRANCH  28  29
ATOM     29  C   UNL     1     -25.863 -12.743  45.635  1.00  0.00    -0.003 C 
ATOM     30  C   UNL     1     -26.996 -13.205  44.719  1.00  0.00     0.004 C 
ENDBRANCH  28  29
ENDBRANCH  27  28
ENDBRANCH  26  27
ENDBRANCH  25  26
ENDBRANCH  24  25
ENDBRANCH  23  24
ENDBRANCH  22  23
ENDBRANCH  21  22
ENDBRANCH  20  21
ENDBRANCH  19  20
ENDBRANCH  18  19
ENDBRANCH  17  18
ENDBRANCH   1  17
TORSDOF 26
ENDMDL
