MODEL 1
REMARK VINA RESULT:    -5.139      0.000      0.000
REMARK INTER + INTRA:          -6.309
REMARK INTER:                  -6.040
REMARK INTRA:                  -0.268
REMARK UNBOUND:                -0.268
REMARK SMILES O=c1cc(-c2ccc(O)c(O)c2)oc2cc(O)cc(O)c12
REMARK SMILES IDX 4 1 3 2 2 3 1 4 21 5 19 6 18 7 16 8 15 9 14 10 13 11 5 12
REMARK SMILES IDX 6 13 7 14 8 15 12 16 10 17 9 18 11 20 20 22 17 24
REMARK H PARENT 9 19 11 21 20 23 17 25
REMARK Flexibility Score: inf
ROOT
ATOM      1  C   UNL     1       8.442  10.348   7.193  1.00  0.00     0.138 A 
ATOM      2  C   UNL     1       8.689  11.687   7.539  1.00  0.00     0.100 A 
ATOM      3  C   UNL     1       7.622  12.510   7.902  1.00  0.00     0.197 A 
ATOM      4  O   UNL     1       7.853  13.710   8.213  1.00  0.00    -0.289 OA
ATOM      5  C   UNL     1       6.314  11.986   7.920  1.00  0.00     0.107 A 
ATOM      6  C   UNL     1       5.177  12.751   8.273  1.00  0.00     0.134 A 
ATOM      7  C   UNL     1       3.908  12.153   8.271  1.00  0.00     0.093 A 
ATOM      8  C   UNL     1       3.754  10.809   7.923  1.00  0.00     0.123 A 
ATOM      9  C   UNL     1       4.874  10.047   7.572  1.00  0.00     0.094 A 
ATOM     10  C   UNL     1       6.148  10.625   7.567  1.00  0.00     0.146 A 
ATOM     11  O   UNL     1       7.195   9.882   7.228  1.00  0.00    -0.456 OA
ENDROOT
BRANCH   1  12
ATOM     12  C   UNL     1       9.538   9.427   6.800  1.00  0.00     0.021 A 
ATOM     13  C   UNL     1       9.756   8.254   7.545  1.00  0.00     0.016 A 
ATOM     14  C   UNL     1      10.775   7.367   7.190  1.00  0.00     0.051 A 
ATOM     15  C   UNL     1      11.588   7.629   6.082  1.00  0.00     0.157 A 
ATOM     16  C   UNL     1      10.351   9.678   5.677  1.00  0.00     0.062 A 
ATOM     17  C   UNL     1      11.372   8.789   5.320  1.00  0.00     0.158 A 
BRANCH  15  18
ATOM     18  O   UNL     1      12.606   6.742   5.732  1.00  0.00    -0.504 OA
ATOM     19  H   UNL     1      12.427   5.937   5.145  1.00  0.00     0.293 HD
ENDBRANCH  15  18
BRANCH  17  20
ATOM     20  O   UNL     1      12.157   9.073   4.203  1.00  0.00    -0.504 OA
ATOM     21  H   UNL     1      12.674   8.355   3.712  1.00  0.00     0.293 HD
ENDBRANCH  17  20
ENDBRANCH   1  12
BRANCH   6  22
ATOM     22  O   UNL     1       5.300  14.096   8.626  1.00  0.00    -0.507 OA
ATOM     23  H   UNL     1       4.697  14.521   9.322  1.00  0.00     0.293 HD
ENDBRANCH   6  22
BRANCH   8  24
ATOM     24  O   UNL     1       2.483  10.239   7.930  1.00  0.00    -0.508 OA
ATOM     25  H   UNL     1       1.700  10.686   7.465  1.00  0.00     0.293 HD
ENDBRANCH   8  24
TORSDOF 5
ENDMDL
MODEL 2
REMARK VINA RESULT:    -4.969      2.226      2.866
REMARK INTER + INTRA:          -6.109
REMARK INTER:                  -5.845
REMARK INTRA:                  -0.264
REMARK UNBOUND:                -0.268
REMARK SMILES O=c1cc(-c2ccc(O)c(O)c2)oc2cc(O)cc(O)c12
REMARK SMILES IDX 4 1 3 2 2 3 1 4 21 5 19 6 18 7 16 8 15 9 14 10 13 11 5 12
REMARK SMILES IDX 6 13 7 14 8 15 12 16 10 17 9 18 11 20 20 22 17 24
REMARK H PARENT 9 19 11 21 20 23 17 25
REMARK Flexibility Score: inf
ROOT
ATOM      1  C   UNL     1       7.789  11.431   7.950  1.00  0.00     0.138 A 
ATOM      2  C   UNL     1       8.328  11.713   9.216  1.00  0.00     0.100 A 
ATOM      3  C   UNL     1       7.815  12.777   9.959  1.00  0.00     0.197 A 
ATOM      4  O   UNL     1       8.304  13.020  11.096  1.00  0.00    -0.289 OA
ATOM      5  C   UNL     1       6.761  13.549   9.432  1.00  0.00     0.107 A 
ATOM      6  C   UNL     1       6.185  14.644  10.118  1.00  0.00     0.134 A 
ATOM      7  C   UNL     1       5.134  15.361   9.526  1.00  0.00     0.093 A 
ATOM      8  C   UNL     1       4.650  15.005   8.265  1.00  0.00     0.123 A 
ATOM      9  C   UNL     1       5.217  13.924   7.581  1.00  0.00     0.094 A 
ATOM     10  C   UNL     1       6.266  13.197   8.154  1.00  0.00     0.146 A 
ATOM     11  O   UNL     1       6.787  12.175   7.484  1.00  0.00    -0.456 OA
ENDROOT
BRANCH   1  12
ATOM     12  C   UNL     1       8.294  10.312   7.114  1.00  0.00     0.021 A 
ATOM     13  C   UNL     1       7.531   9.137   6.998  1.00  0.00     0.016 A 
ATOM     14  C   UNL     1       7.981   8.073   6.212  1.00  0.00     0.051 A 
ATOM     15  C   UNL     1       9.194   8.167   5.521  1.00  0.00     0.157 A 
ATOM     16  C   UNL     1       9.508  10.406   6.406  1.00  0.00     0.062 A 
ATOM     17  C   UNL     1       9.959   9.341   5.616  1.00  0.00     0.158 A 
BRANCH  15  18
ATOM     18  O   UNL     1       9.641   7.103   4.739  1.00  0.00    -0.504 OA
ATOM     19  H   UNL     1       9.225   6.182   4.811  1.00  0.00     0.293 HD
ENDBRANCH  15  18
BRANCH  17  20
ATOM     20  O   UNL     1      11.167   9.471   4.931  1.00  0.00    -0.504 OA
ATOM     21  H   UNL     1      12.031   9.081   5.285  1.00  0.00     0.293 HD
ENDBRANCH  17  20
ENDBRANCH   1  12
BRANCH   6  22
ATOM     22  O   UNL     1       6.647  15.023  11.380  1.00  0.00    -0.507 OA
ATOM     23  H   UNL     1       6.819  14.342  12.111  1.00  0.00     0.293 HD
ENDBRANCH   6  22
BRANCH   8  24
ATOM     24  O   UNL     1       3.606  15.733   7.700  1.00  0.00    -0.508 OA
ATOM     25  H   UNL     1       3.371  16.664   8.028  1.00  0.00     0.293 HD
ENDBRANCH   8  24
TORSDOF 5
ENDMDL
MODEL 3
REMARK VINA RESULT:    -4.944      1.583      7.235
REMARK INTER + INTRA:          -6.079
REMARK INTER:                  -5.809
REMARK INTRA:                  -0.270
REMARK UNBOUND:                -0.268
REMARK SMILES O=c1cc(-c2ccc(O)c(O)c2)oc2cc(O)cc(O)c12
REMARK SMILES IDX 4 1 3 2 2 3 1 4 21 5 19 6 18 7 16 8 15 9 14 10 13 11 5 12
REMARK SMILES IDX 6 13 7 14 8 15 12 16 10 17 9 18 11 20 20 22 17 24
REMARK H PARENT 9 19 11 21 20 23 17 25
REMARK Flexibility Score: inf
ROOT
ATOM      1  C   UNL     1       7.056  10.621   7.759  1.00  0.00     0.138 A 
ATOM      2  C   UNL     1       7.160   9.657   8.775  1.00  0.00     0.100 A 
ATOM      3  C   UNL     1       8.218   8.747   8.753  1.00  0.00     0.197 A 
ATOM      4  O   UNL     1       8.304   7.887   9.670  1.00  0.00    -0.289 OA
ATOM      5  C   UNL     1       9.168   8.811   7.714  1.00  0.00     0.107 A 
ATOM      6  C   UNL     1      10.268   7.927   7.616  1.00  0.00     0.134 A 
ATOM      7  C   UNL     1      11.175   8.060   6.553  1.00  0.00     0.093 A 
ATOM      8  C   UNL     1      11.002   9.057   5.590  1.00  0.00     0.123 A 
ATOM      9  C   UNL     1       9.915   9.933   5.681  1.00  0.00     0.094 A 
ATOM     10  C   UNL     1       9.000   9.817   6.733  1.00  0.00     0.146 A 
ATOM     11  O   UNL     1       7.976  10.660   6.797  1.00  0.00    -0.456 OA
ENDROOT
BRANCH   1  12
ATOM     12  C   UNL     1       5.953  11.615   7.732  1.00  0.00     0.021 A 
ATOM     13  C   UNL     1       6.259  12.987   7.710  1.00  0.00     0.016 A 
ATOM     14  C   UNL     1       5.239  13.941   7.677  1.00  0.00     0.051 A 
ATOM     15  C   UNL     1       3.897  13.543   7.654  1.00  0.00     0.157 A 
ATOM     16  C   UNL     1       4.601  11.220   7.696  1.00  0.00     0.062 A 
ATOM     17  C   UNL     1       3.578  12.176   7.660  1.00  0.00     0.158 A 
BRANCH  15  18
ATOM     18  O   UNL     1       2.882  14.498   7.622  1.00  0.00    -0.504 OA
ATOM     19  H   UNL     1       2.728  15.134   8.396  1.00  0.00     0.293 HD
ENDBRANCH  15  18
BRANCH  17  20
ATOM     20  O   UNL     1       2.252  11.746   7.627  1.00  0.00    -0.504 OA
ATOM     21  H   UNL     1       1.804  11.317   8.427  1.00  0.00     0.293 HD
ENDBRANCH  17  20
ENDBRANCH   1  12
BRANCH   6  22
ATOM     22  O   UNL     1      10.468   6.922   8.564  1.00  0.00    -0.507 OA
ATOM     23  H   UNL     1       9.701   6.358   8.912  1.00  0.00     0.293 HD
ENDBRANCH   6  22
BRANCH   8  24
ATOM     24  O   UNL     1      11.916   9.167   4.545  1.00  0.00    -0.508 OA
ATOM     25  H   UNL     1      11.652   8.964   3.587  1.00  0.00     0.293 HD
ENDBRANCH   8  24
TORSDOF 5
ENDMDL
MODEL 4
REMARK VINA RESULT:    -4.804      0.779      1.567
REMARK INTER + INTRA:          -5.915
REMARK INTER:                  -5.645
REMARK INTRA:                  -0.270
REMARK UNBOUND:                -0.268
REMARK SMILES O=c1cc(-c2ccc(O)c(O)c2)oc2cc(O)cc(O)c12
REMARK SMILES IDX 4 1 3 2 2 3 1 4 21 5 19 6 18 7 16 8 15 9 14 10 13 11 5 12
REMARK SMILES IDX 6 13 7 14 8 15 12 16 10 17 9 18 11 20 20 22 17 24
REMARK H PARENT 9 19 11 21 20 23 17 25
REMARK Flexibility Score: inf
ROOT
ATOM      1  C   UNL     1       8.308  10.466   7.263  1.00  0.00     0.138 A 
ATOM      2  C   UNL     1       8.614  11.816   7.500  1.00  0.00     0.100 A 
ATOM      3  C   UNL     1       7.583  12.715   7.779  1.00  0.00     0.197 A 
ATOM      4  O   UNL     1       7.867  13.925   7.992  1.00  0.00    -0.289 OA
ATOM      5  C   UNL     1       6.252  12.254   7.823  1.00  0.00     0.107 A 
ATOM      6  C   UNL     1       5.149  13.098   8.096  1.00  0.00     0.134 A 
ATOM      7  C   UNL     1       3.853  12.560   8.127  1.00  0.00     0.093 A 
ATOM      8  C   UNL     1       3.640  11.200   7.890  1.00  0.00     0.123 A 
ATOM      9  C   UNL     1       4.726  10.362   7.618  1.00  0.00     0.094 A 
ATOM     10  C   UNL     1       6.026  10.878   7.582  1.00  0.00     0.146 A 
ATOM     11  O   UNL     1       7.040  10.061   7.320  1.00  0.00    -0.456 OA
ENDROOT
BRANCH   1  12
ATOM     12  C   UNL     1       9.363   9.465   6.962  1.00  0.00     0.021 A 
ATOM     13  C   UNL     1      10.038   9.521   5.731  1.00  0.00     0.016 A 
ATOM     14  C   UNL     1      11.040   8.595   5.427  1.00  0.00     0.051 A 
ATOM     15  C   UNL     1      11.391   7.604   6.351  1.00  0.00     0.157 A 
ATOM     16  C   UNL     1       9.730   8.474   7.893  1.00  0.00     0.062 A 
ATOM     17  C   UNL     1      10.735   7.546   7.592  1.00  0.00     0.158 A 
BRANCH  15  18
ATOM     18  O   UNL     1      12.390   6.681   6.044  1.00  0.00    -0.504 OA
ATOM     19  H   UNL     1      13.329   6.774   6.413  1.00  0.00     0.293 HD
ENDBRANCH  15  18
BRANCH  17  20
ATOM     20  O   UNL     1      11.070   6.579   8.539  1.00  0.00    -0.504 OA
ATOM     21  H   UNL     1      11.929   6.046   8.484  1.00  0.00     0.293 HD
ENDBRANCH  17  20
ENDBRANCH   1  12
BRANCH   6  22
ATOM     22  O   UNL     1       5.331  14.460   8.338  1.00  0.00    -0.507 OA
ATOM     23  H   UNL     1       5.814  15.059   7.678  1.00  0.00     0.293 HD
ENDBRANCH   6  22
BRANCH   8  24
ATOM     24  O   UNL     1       2.344  10.692   7.927  1.00  0.00    -0.508 OA
ATOM     25  H   UNL     1       1.674  10.897   7.194  1.00  0.00     0.293 HD
ENDBRANCH   8  24
TORSDOF 5
ENDMDL
MODEL 5
REMARK VINA RESULT:    -4.768      2.213      7.201
REMARK INTER + INTRA:          -5.873
REMARK INTER:                  -5.591
REMARK INTRA:                  -0.282
REMARK UNBOUND:                -0.268
REMARK SMILES O=c1cc(-c2ccc(O)c(O)c2)oc2cc(O)cc(O)c12
REMARK SMILES IDX 4 1 3 2 2 3 1 4 21 5 19 6 18 7 16 8 15 9 14 10 13 11 5 12
REMARK SMILES IDX 6 13 7 14 8 15 12 16 10 17 9 18 11 20 20 22 17 24
REMARK H PARENT 9 19 11 21 20 23 17 25
REMARK Flexibility Score: inf
ROOT
ATOM      1  C   UNL     1       7.937  11.321   8.456  1.00  0.00     0.138 A 
ATOM      2  C   UNL     1       8.156  10.408   9.500  1.00  0.00     0.100 A 
ATOM      3  C   UNL     1       8.961   9.290   9.276  1.00  0.00     0.197 A 
ATOM      4  O   UNL     1       9.154   8.477  10.221  1.00  0.00    -0.289 OA
ATOM      5  C   UNL     1       9.545   9.096   8.009  1.00  0.00     0.107 A 
ATOM      6  C   UNL     1      10.371   7.990   7.698  1.00  0.00     0.134 A 
ATOM      7  C   UNL     1      10.920   7.871   6.412  1.00  0.00     0.093 A 
ATOM      8  C   UNL     1      10.659   8.834   5.434  1.00  0.00     0.123 A 
ATOM      9  C   UNL     1       9.841   9.929   5.735  1.00  0.00     0.094 A 
ATOM     10  C   UNL     1       9.284  10.065   7.011  1.00  0.00     0.146 A 
ATOM     11  O   UNL     1       8.511  11.113   7.272  1.00  0.00    -0.456 OA
ENDROOT
BRANCH   1  12
ATOM     12  C   UNL     1       7.091  12.528   8.635  1.00  0.00     0.021 A 
ATOM     13  C   UNL     1       6.237  12.936   7.595  1.00  0.00     0.016 A 
ATOM     14  C   UNL     1       5.426  14.064   7.743  1.00  0.00     0.051 A 
ATOM     15  C   UNL     1       5.445  14.798   8.934  1.00  0.00     0.157 A 
ATOM     16  C   UNL     1       7.096  13.264   9.837  1.00  0.00     0.062 A 
ATOM     17  C   UNL     1       6.282  14.394   9.987  1.00  0.00     0.158 A 
BRANCH  15  18
ATOM     18  O   UNL     1       4.636  15.924   9.077  1.00  0.00    -0.504 OA
ATOM     19  H   UNL     1       3.828  15.922   9.689  1.00  0.00     0.293 HD
ENDBRANCH  15  18
BRANCH  17  20
ATOM     20  O   UNL     1       6.316  15.097  11.190  1.00  0.00    -0.504 OA
ATOM     21  H   UNL     1       6.188  16.101  11.231  1.00  0.00     0.293 HD
ENDBRANCH  17  20
ENDBRANCH   1  12
BRANCH   6  22
ATOM     22  O   UNL     1      10.652   7.013   8.654  1.00  0.00    -0.507 OA
ATOM     23  H   UNL     1      11.463   6.409   8.577  1.00  0.00     0.293 HD
ENDBRANCH   6  22
BRANCH   8  24
ATOM     24  O   UNL     1      11.215   8.693   4.166  1.00  0.00    -0.508 OA
ATOM     25  H   UNL     1      11.732   9.447   3.726  1.00  0.00     0.293 HD
ENDBRANCH   8  24
TORSDOF 5
ENDMDL
MODEL 6
REMARK VINA RESULT:    -4.728      2.744      3.799
REMARK INTER + INTRA:          -5.826
REMARK INTER:                  -5.559
REMARK INTRA:                  -0.267
REMARK UNBOUND:                -0.268
REMARK SMILES O=c1cc(-c2ccc(O)c(O)c2)oc2cc(O)cc(O)c12
REMARK SMILES IDX 4 1 3 2 2 3 1 4 21 5 19 6 18 7 16 8 15 9 14 10 13 11 5 12
REMARK SMILES IDX 6 13 7 14 8 15 12 16 10 17 9 18 11 20 20 22 17 24
REMARK H PARENT 9 19 11 21 20 23 17 25
REMARK Flexibility Score: inf
ROOT
ATOM      1  C   UNL     1       7.818  11.438   8.200  1.00  0.00     0.138 A 
ATOM      2  C   UNL     1       6.913  12.432   7.790  1.00  0.00     0.100 A 
ATOM      3  C   UNL     1       6.520  13.417   8.697  1.00  0.00     0.197 A 
ATOM      4  O   UNL     1       5.709  14.306   8.319  1.00  0.00    -0.289 OA
ATOM      5  C   UNL     1       7.039  13.405  10.007  1.00  0.00     0.107 A 
ATOM      6  C   UNL     1       6.691  14.365  10.986  1.00  0.00     0.134 A 
ATOM      7  C   UNL     1       7.256  14.286  12.269  1.00  0.00     0.093 A 
ATOM      8  C   UNL     1       8.159  13.269  12.588  1.00  0.00     0.123 A 
ATOM      9  C   UNL     1       8.505  12.316  11.624  1.00  0.00     0.094 A 
ATOM     10  C   UNL     1       7.952  12.377  10.340  1.00  0.00     0.146 A 
ATOM     11  O   UNL     1       8.297  11.460   9.443  1.00  0.00    -0.456 OA
ENDROOT
BRANCH   1  12
ATOM     12  C   UNL     1       8.273  10.366   7.280  1.00  0.00     0.021 A 
ATOM     13  C   UNL     1       7.463   9.233   7.084  1.00  0.00     0.016 A 
ATOM     14  C   UNL     1       7.866   8.214   6.217  1.00  0.00     0.051 A 
ATOM     15  C   UNL     1       9.078   8.311   5.524  1.00  0.00     0.157 A 
ATOM     16  C   UNL     1       9.486  10.464   6.569  1.00  0.00     0.062 A 
ATOM     17  C   UNL     1       9.889   9.444   5.699  1.00  0.00     0.158 A 
BRANCH  15  18
ATOM     18  O   UNL     1       9.477   7.291   4.662  1.00  0.00    -0.504 OA
ATOM     19  H   UNL     1       9.606   7.455   3.670  1.00  0.00     0.293 HD
ENDBRANCH  15  18
BRANCH  17  20
ATOM     20  O   UNL     1      11.097   9.576   5.015  1.00  0.00    -0.504 OA
ATOM     21  H   UNL     1      11.754   8.810   4.928  1.00  0.00     0.293 HD
ENDBRANCH  17  20
ENDBRANCH   1  12
BRANCH   6  22
ATOM     22  O   UNL     1       5.793  15.393  10.696  1.00  0.00    -0.507 OA
ATOM     23  H   UNL     1       5.006  15.253  10.073  1.00  0.00     0.293 HD
ENDBRANCH   6  22
BRANCH   8  24
ATOM     24  O   UNL     1       8.705  13.213  13.868  1.00  0.00    -0.508 OA
ATOM     25  H   UNL     1       8.119  13.127  14.691  1.00  0.00     0.293 HD
ENDBRANCH   8  24
TORSDOF 5
ENDMDL
MODEL 7
REMARK VINA RESULT:    -4.678      3.674      5.676
REMARK INTER + INTRA:          -5.767
REMARK INTER:                  -5.499
REMARK INTRA:                  -0.269
REMARK UNBOUND:                -0.268
REMARK SMILES O=c1cc(-c2ccc(O)c(O)c2)oc2cc(O)cc(O)c12
REMARK SMILES IDX 4 1 3 2 2 3 1 4 21 5 19 6 18 7 16 8 15 9 14 10 13 11 5 12
REMARK SMILES IDX 6 13 7 14 8 15 12 16 10 17 9 18 11 20 20 22 17 24
REMARK H PARENT 9 19 11 21 20 23 17 25
REMARK Flexibility Score: inf
ROOT
ATOM      1  C   UNL     1       5.062  14.276   7.713  1.00  0.00     0.138 A 
ATOM      2  C   UNL     1       5.096  15.258   8.717  1.00  0.00     0.100 A 
ATOM      3  C   UNL     1       4.263  16.373   8.615  1.00  0.00     0.197 A 
ATOM      4  O   UNL     1       4.298  17.248   9.523  1.00  0.00    -0.289 OA
ATOM      5  C   UNL     1       3.398  16.496   7.509  1.00  0.00     0.107 A 
ATOM      6  C   UNL     1       2.524  17.594   7.328  1.00  0.00     0.134 A 
ATOM      7  C   UNL     1       1.690  17.640   6.200  1.00  0.00     0.093 A 
ATOM      8  C   UNL     1       1.713  16.613   5.254  1.00  0.00     0.123 A 
ATOM      9  C   UNL     1       2.576  15.525   5.427  1.00  0.00     0.094 A 
ATOM     10  C   UNL     1       3.416  15.461   6.544  1.00  0.00     0.146 A 
ATOM     11  O   UNL     1       4.228  14.418   6.685  1.00  0.00    -0.456 OA
ENDROOT
BRANCH   1  12
ATOM     12  C   UNL     1       5.925  13.069   7.769  1.00  0.00     0.021 A 
ATOM     13  C   UNL     1       5.331  11.794   7.774  1.00  0.00     0.016 A 
ATOM     14  C   UNL     1       6.121  10.643   7.819  1.00  0.00     0.051 A 
ATOM     15  C   UNL     1       7.517  10.742   7.850  1.00  0.00     0.157 A 
ATOM     16  C   UNL     1       7.330  13.162   7.787  1.00  0.00     0.062 A 
ATOM     17  C   UNL     1       8.123  12.009   7.830  1.00  0.00     0.158 A 
BRANCH  15  18
ATOM     18  O   UNL     1       8.302   9.591   7.896  1.00  0.00    -0.504 OA
ATOM     19  H   UNL     1       8.887   9.317   7.116  1.00  0.00     0.293 HD
ENDBRANCH  15  18
BRANCH  17  20
ATOM     20  O   UNL     1       9.511  12.142   7.849  1.00  0.00    -0.504 OA
ATOM     21  H   UNL     1      10.120  11.395   8.160  1.00  0.00     0.293 HD
ENDBRANCH  17  20
ENDBRANCH   1  12
BRANCH   6  22
ATOM     22  O   UNL     1       2.478  18.634   8.257  1.00  0.00    -0.507 OA
ATOM     23  H   UNL     1       3.202  19.342   8.301  1.00  0.00     0.293 HD
ENDBRANCH   6  22
BRANCH   8  24
ATOM     24  O   UNL     1       0.875  16.683   4.144  1.00  0.00    -0.508 OA
ATOM     25  H   UNL     1       0.878  15.961   3.431  1.00  0.00     0.293 HD
ENDBRANCH   8  24
TORSDOF 5
ENDMDL
MODEL 8
REMARK VINA RESULT:    -4.648     11.128     12.143
REMARK INTER + INTRA:          -5.731
REMARK INTER:                  -5.436
REMARK INTRA:                  -0.295
REMARK UNBOUND:                -0.268
REMARK SMILES O=c1cc(-c2ccc(O)c(O)c2)oc2cc(O)cc(O)c12
REMARK SMILES IDX 4 1 3 2 2 3 1 4 21 5 19 6 18 7 16 8 15 9 14 10 13 11 5 12
REMARK SMILES IDX 6 13 7 14 8 15 12 16 10 17 9 18 11 20 20 22 17 24
REMARK H PARENT 9 19 11 21 20 23 17 25
REMARK Flexibility Score: inf
ROOT
ATOM      1  C   UNL     1      14.730  13.074  -1.560  1.00  0.00     0.138 A 
ATOM      2  C   UNL     1      13.667  12.209  -1.871  1.00  0.00     0.100 A 
ATOM      3  C   UNL     1      12.535  12.714  -2.512  1.00  0.00     0.197 A 
ATOM      4  O   UNL     1      11.588  11.930  -2.788  1.00  0.00    -0.289 OA
ATOM      5  C   UNL     1      12.476  14.083  -2.842  1.00  0.00     0.107 A 
ATOM      6  C   UNL     1      11.366  14.676  -3.490  1.00  0.00     0.134 A 
ATOM      7  C   UNL     1      11.387  16.047  -3.790  1.00  0.00     0.093 A 
ATOM      8  C   UNL     1      12.492  16.833  -3.454  1.00  0.00     0.123 A 
ATOM      9  C   UNL     1      13.591  16.252  -2.812  1.00  0.00     0.094 A 
ATOM     10  C   UNL     1      13.590  14.888  -2.505  1.00  0.00     0.146 A 
ATOM     11  O   UNL     1      14.646  14.360  -1.894  1.00  0.00    -0.456 OA
ENDROOT
BRANCH   1  12
ATOM     12  C   UNL     1      15.958  12.593  -0.880  1.00  0.00     0.021 A 
ATOM     13  C   UNL     1      17.098  13.414  -0.849  1.00  0.00     0.016 A 
ATOM     14  C   UNL     1      18.264  12.987  -0.208  1.00  0.00     0.051 A 
ATOM     15  C   UNL     1      18.310  11.737   0.420  1.00  0.00     0.157 A 
ATOM     16  C   UNL     1      16.006  11.341  -0.235  1.00  0.00     0.062 A 
ATOM     17  C   UNL     1      17.173  10.912   0.408  1.00  0.00     0.158 A 
BRANCH  15  18
ATOM     18  O   UNL     1      19.476  11.314   1.056  1.00  0.00    -0.504 OA
ATOM     19  H   UNL     1      19.520  10.428   1.546  1.00  0.00     0.293 HD
ENDBRANCH  15  18
BRANCH  17  20
ATOM     20  O   UNL     1      17.182   9.666   1.035  1.00  0.00    -0.504 OA
ATOM     21  H   UNL     1      16.329   9.166   1.251  1.00  0.00     0.293 HD
ENDBRANCH  17  20
ENDBRANCH   1  12
BRANCH   6  22
ATOM     22  O   UNL     1      10.249  13.916  -3.838  1.00  0.00    -0.507 OA
ATOM     23  H   UNL     1       9.359  14.348  -4.062  1.00  0.00     0.293 HD
ENDBRANCH   6  22
BRANCH   8  24
ATOM     24  O   UNL     1      12.487  18.191  -3.763  1.00  0.00    -0.508 OA
ATOM     25  H   UNL     1      13.301  18.774  -3.602  1.00  0.00     0.293 HD
ENDBRANCH   8  24
TORSDOF 5
ENDMDL
MODEL 9
REMARK VINA RESULT:    -4.585      3.341      4.401
REMARK INTER + INTRA:          -5.658
REMARK INTER:                  -5.392
REMARK INTRA:                  -0.266
REMARK UNBOUND:                -0.268
REMARK SMILES O=c1cc(-c2ccc(O)c(O)c2)oc2cc(O)cc(O)c12
REMARK SMILES IDX 4 1 3 2 2 3 1 4 21 5 19 6 18 7 16 8 15 9 14 10 13 11 5 12
REMARK SMILES IDX 6 13 7 14 8 15 12 16 10 17 9 18 11 20 20 22 17 24
REMARK H PARENT 9 19 11 21 20 23 17 25
REMARK Flexibility Score: inf
ROOT
ATOM      1  C   UNL     1       8.482   9.457   7.391  1.00  0.00     0.138 A 
ATOM      2  C   UNL     1       8.259  10.844   7.412  1.00  0.00     0.100 A 
ATOM      3  C   UNL     1       8.449  11.552   8.599  1.00  0.00     0.197 A 
ATOM      4  O   UNL     1       8.249  12.797   8.608  1.00  0.00    -0.289 OA
ATOM      5  C   UNL     1       8.866  10.867   9.759  1.00  0.00     0.107 A 
ATOM      6  C   UNL     1       9.080  11.507  11.002  1.00  0.00     0.134 A 
ATOM      7  C   UNL     1       9.500  10.754  12.109  1.00  0.00     0.093 A 
ATOM      8  C   UNL     1       9.709   9.378  11.996  1.00  0.00     0.123 A 
ATOM      9  C   UNL     1       9.497   8.739  10.770  1.00  0.00     0.094 A 
ATOM     10  C   UNL     1       9.078   9.472   9.655  1.00  0.00     0.146 A 
ATOM     11  O   UNL     1       8.884   8.841   8.501  1.00  0.00    -0.456 OA
ENDROOT
BRANCH   1  12
ATOM     12  C   UNL     1       8.297   8.653   6.157  1.00  0.00     0.021 A 
ATOM     13  C   UNL     1       7.308   7.655   6.124  1.00  0.00     0.016 A 
ATOM     14  C   UNL     1       7.109   6.889   4.972  1.00  0.00     0.051 A 
ATOM     15  C   UNL     1       7.887   7.113   3.830  1.00  0.00     0.157 A 
ATOM     16  C   UNL     1       9.068   8.882   5.000  1.00  0.00     0.062 A 
ATOM     17  C   UNL     1       8.869   8.117   3.845  1.00  0.00     0.158 A 
BRANCH  15  18
ATOM     18  O   UNL     1       7.687   6.346   2.683  1.00  0.00    -0.504 OA
ATOM     19  H   UNL     1       7.479   5.356   2.738  1.00  0.00     0.293 HD
ENDBRANCH  15  18
BRANCH  17  20
ATOM     20  O   UNL     1       9.653   8.373   2.720  1.00  0.00    -0.504 OA
ATOM     21  H   UNL     1       9.334   8.162   1.782  1.00  0.00     0.293 HD
ENDBRANCH  17  20
ENDBRANCH   1  12
BRANCH   6  22
ATOM     22  O   UNL     1       8.880  12.881  11.144  1.00  0.00    -0.507 OA
ATOM     23  H   UNL     1       9.311  13.550  10.516  1.00  0.00     0.293 HD
ENDBRANCH   6  22
BRANCH   8  24
ATOM     24  O   UNL     1      10.126   8.654  13.111  1.00  0.00    -0.508 OA
ATOM     25  H   UNL     1      10.680   7.810  13.017  1.00  0.00     0.293 HD
ENDBRANCH   8  24
TORSDOF 5
ENDMDL
