MODEL 1
REMARK VINA RESULT:    -7.499      0.000      0.000
REMARK INTER + INTRA:         -12.121
REMARK INTER:                 -11.005
REMARK INTRA:                  -1.115
REMARK UNBOUND:                -1.115
REMARK SMILES O=c1c(O[C@H]2O[C@@H](CO)[C@H](O)[C@@H](O)[C@@H]2O)c(-c2ccc(O)c(O)c2)oc2cc(O)cc(O)c12
REMARK SMILES IDX 4 1 3 2 16 3 25 4 2 5 26 6 1 7 33 8 27 9 31 10 28 11 30 12
REMARK SMILES IDX 17 13 18 14 19 15 20 16 24 17 22 18 21 19 23 21 32 23 29 25
REMARK SMILES IDX 5 27 14 28 6 29 12 30 7 31 10 32 15 33 13 35 8 37 9 38 11 40
REMARK H PARENT 21 20 23 22 32 24 29 26 15 34 13 36 9 39 11 41
REMARK Flexibility Score: inf
ROOT
ATOM      1  O   UNL     1      14.038  36.268 123.289  1.00  0.00    -0.454 OA
ENDROOT
BRANCH   1   2
ATOM      2  C   UNL     1      15.049  36.533 124.233  1.00  0.00     0.214 A 
ATOM      3  C   UNL     1      14.894  36.022 125.539  1.00  0.00     0.180 A 
ATOM      4  O   UNL     1      15.801  36.284 126.474  1.00  0.00    -0.452 OA
ATOM      5  C   UNL     1      16.194  37.314 123.954  1.00  0.00     0.239 A 
ATOM      6  C   UNL     1      16.891  37.005 126.249  1.00  0.00     0.146 A 
ATOM      7  O   UNL     1      16.358  37.814 122.810  1.00  0.00    -0.285 OA
ATOM      8  C   UNL     1      17.139  37.557 124.974  1.00  0.00     0.111 A 
ATOM      9  C   UNL     1      17.794  37.214 127.297  1.00  0.00     0.094 A 
ATOM     10  C   UNL     1      18.308  38.333 124.775  1.00  0.00     0.134 A 
ATOM     11  C   UNL     1      18.949  37.968 127.093  1.00  0.00     0.123 A 
ATOM     12  C   UNL     1      19.202  38.529 125.837  1.00  0.00     0.093 A 
BRANCH   3  13
ATOM     13  C   UNL     1      13.730  35.189 125.920  1.00  0.00     0.025 A 
ATOM     14  C   UNL     1      12.581  35.756 126.492  1.00  0.00     0.016 A 
ATOM     15  C   UNL     1      11.487  34.954 126.824  1.00  0.00     0.051 A 
ATOM     16  C   UNL     1      11.511  33.576 126.577  1.00  0.00     0.157 A 
ATOM     17  C   UNL     1      13.750  33.810 125.653  1.00  0.00     0.062 A 
ATOM     18  C   UNL     1      12.655  32.997 125.979  1.00  0.00     0.158 A 
BRANCH  16  19
ATOM     19  O   UNL     1      10.385  32.831 126.935  1.00  0.00    -0.504 OA
ATOM     20  H   UNL     1       9.644  32.584 126.293  1.00  0.00     0.293 HD
ENDBRANCH  16  19
BRANCH  18  21
ATOM     21  O   UNL     1      12.749  31.633 125.696  1.00  0.00    -0.504 OA
ATOM     22  H   UNL     1      13.519  31.050 125.991  1.00  0.00     0.293 HD
ENDBRANCH  18  21
ENDBRANCH   3  13
BRANCH  10  23
ATOM     23  O   UNL     1      18.586  38.913 123.535  1.00  0.00    -0.507 OA
ATOM     24  H   UNL     1      17.866  39.363 122.983  1.00  0.00     0.293 HD
ENDBRANCH  10  23
BRANCH  11  25
ATOM     25  O   UNL     1      19.841  38.156 128.147  1.00  0.00    -0.508 OA
ATOM     26  H   UNL     1      19.759  37.629 129.009  1.00  0.00     0.293 HD
ENDBRANCH  11  25
ENDBRANCH   1   2
BRANCH   1  27
ATOM     27  C   UNL     1      14.093  35.345 122.201  1.00  0.00     0.339 C 
ATOM     28  C   UNL     1      12.956  35.664 121.181  1.00  0.00     0.214 C 
ATOM     29  O   UNL     1      13.983  34.040 122.751  1.00  0.00    -0.332 OA
ATOM     30  C   UNL     1      11.790  34.660 121.324  1.00  0.00     0.180 C 
ATOM     31  C   UNL     1      13.754  33.079 121.740  1.00  0.00     0.179 C 
ATOM     32  C   UNL     1      12.299  33.199 121.215  1.00  0.00     0.177 C 
BRANCH  28  33
ATOM     33  O   UNL     1      13.473  35.608 119.875  1.00  0.00    -0.384 OA
ATOM     34  H   UNL     1      14.424  35.336 119.951  1.00  0.00     0.211 HD
ENDBRANCH  28  33
BRANCH  30  35
ATOM     35  O   UNL     1      11.164  34.836 122.571  1.00  0.00    -0.387 OA
ATOM     36  H   UNL     1      10.250  35.180 122.392  1.00  0.00     0.211 HD
ENDBRANCH  30  35
BRANCH  31  37
ATOM     37  C   UNL     1      14.044  31.680 122.298  1.00  0.00     0.191 C 
BRANCH  37  38
ATOM     38  O   UNL     1      13.662  30.696 121.377  1.00  0.00    -0.394 OA
ATOM     39  H   UNL     1      13.389  31.182 120.556  1.00  0.00     0.210 HD
ENDBRANCH  37  38
ENDBRANCH  31  37
BRANCH  32  40
ATOM     40  O   UNL     1      12.258  32.771 119.875  1.00  0.00    -0.387 OA
ATOM     41  H   UNL     1      12.308  33.585 119.309  1.00  0.00     0.211 HD
ENDBRANCH  32  40
ENDBRANCH   1  27
TORSDOF 12
ENDMDL
MODEL 2
REMARK VINA RESULT:    -7.370      2.769      7.182
REMARK INTER + INTRA:         -11.932
REMARK INTER:                 -10.346
REMARK INTRA:                  -1.585
REMARK UNBOUND:                -1.115
REMARK SMILES O=c1c(O[C@H]2O[C@@H](CO)[C@H](O)[C@@H](O)[C@@H]2O)c(-c2ccc(O)c(O)c2)oc2cc(O)cc(O)c12
REMARK SMILES IDX 4 1 3 2 16 3 25 4 2 5 26 6 1 7 33 8 27 9 31 10 28 11 30 12
REMARK SMILES IDX 17 13 18 14 19 15 20 16 24 17 22 18 21 19 23 21 32 23 29 25
REMARK SMILES IDX 5 27 14 28 6 29 12 30 7 31 10 32 15 33 13 35 8 37 9 38 11 40
REMARK H PARENT 21 20 23 22 32 24 29 26 15 34 13 36 9 39 11 41
REMARK Flexibility Score: inf
ROOT
ATOM      1  O   UNL     1      14.921  36.629 127.006  1.00  0.00    -0.454 OA
ENDROOT
BRANCH   1   2
ATOM      2  C   UNL     1      13.774  35.896 126.641  1.00  0.00     0.214 A 
ATOM      3  C   UNL     1      12.517  36.529 126.743  1.00  0.00     0.180 A 
ATOM      4  O   UNL     1      11.406  35.861 126.453  1.00  0.00    -0.452 OA
ATOM      5  C   UNL     1      13.811  34.550 126.214  1.00  0.00     0.239 A 
ATOM      6  C   UNL     1      11.399  34.601 126.040  1.00  0.00     0.146 A 
ATOM      7  O   UNL     1      14.909  33.938 126.136  1.00  0.00    -0.285 OA
ATOM      8  C   UNL     1      12.607  33.883 125.902  1.00  0.00     0.111 A 
ATOM      9  C   UNL     1      10.176  33.991 125.745  1.00  0.00     0.094 A 
ATOM     10  C   UNL     1      12.559  32.533 125.472  1.00  0.00     0.134 A 
ATOM     11  C   UNL     1      10.135  32.666 125.311  1.00  0.00     0.123 A 
ATOM     12  C   UNL     1      11.323  31.939 125.179  1.00  0.00     0.093 A 
BRANCH   3  13
ATOM     13  C   UNL     1      12.384  37.939 127.177  1.00  0.00     0.025 A 
ATOM     14  C   UNL     1      12.420  38.293 128.535  1.00  0.00     0.016 A 
ATOM     15  C   UNL     1      12.313  39.631 128.919  1.00  0.00     0.051 A 
ATOM     16  C   UNL     1      12.185  40.642 127.960  1.00  0.00     0.157 A 
ATOM     17  C   UNL     1      12.275  38.952 126.211  1.00  0.00     0.062 A 
ATOM     18  C   UNL     1      12.172  40.299 126.586  1.00  0.00     0.158 A 
BRANCH  16  19
ATOM     19  O   UNL     1      12.080  41.959 128.411  1.00  0.00    -0.504 OA
ATOM     20  H   UNL     1      11.254  42.340 128.852  1.00  0.00     0.293 HD
ENDBRANCH  16  19
BRANCH  18  21
ATOM     21  O   UNL     1      12.055  41.251 125.572  1.00  0.00    -0.504 OA
ATOM     22  H   UNL     1      12.817  41.834 125.258  1.00  0.00     0.293 HD
ENDBRANCH  18  21
ENDBRANCH   3  13
BRANCH  10  23
ATOM     23  O   UNL     1      13.726  31.778 125.337  1.00  0.00    -0.507 OA
ATOM     24  H   UNL     1      13.868  31.149 124.555  1.00  0.00     0.293 HD
ENDBRANCH  10  23
BRANCH  11  25
ATOM     25  O   UNL     1       8.907  32.079 125.013  1.00  0.00    -0.508 OA
ATOM     26  H   UNL     1       8.057  32.628 124.962  1.00  0.00     0.293 HD
ENDBRANCH  11  25
ENDBRANCH   1   2
BRANCH   1  27
ATOM     27  C   UNL     1      15.600  37.615 126.226  1.00  0.00     0.339 C 
ATOM     28  C   UNL     1      15.337  37.359 124.710  1.00  0.00     0.214 C 
ATOM     29  O   UNL     1      16.978  37.540 126.563  1.00  0.00    -0.332 OA
ATOM     30  C   UNL     1      16.566  36.701 124.042  1.00  0.00     0.180 C 
ATOM     31  C   UNL     1      17.765  38.281 125.651  1.00  0.00     0.179 C 
ATOM     32  C   UNL     1      17.848  37.535 124.294  1.00  0.00     0.177 C 
BRANCH  28  33
ATOM     33  O   UNL     1      15.049  38.579 124.075  1.00  0.00    -0.384 OA
ATOM     34  H   UNL     1      14.819  38.369 123.133  1.00  0.00     0.211 HD
ENDBRANCH  28  33
BRANCH  30  35
ATOM     35  O   UNL     1      16.750  35.407 124.560  1.00  0.00    -0.387 OA
ATOM     36  H   UNL     1      16.939  35.505 125.529  1.00  0.00     0.211 HD
ENDBRANCH  30  35
BRANCH  31  37
ATOM     37  C   UNL     1      19.154  38.515 126.258  1.00  0.00     0.191 C 
BRANCH  37  38
ATOM     38  O   UNL     1      20.142  37.911 125.469  1.00  0.00    -0.394 OA
ATOM     39  H   UNL     1      20.904  37.730 126.078  1.00  0.00     0.210 HD
ENDBRANCH  37  38
ENDBRANCH  31  37
BRANCH  32  40
ATOM     40  O   UNL     1      18.024  38.476 123.263  1.00  0.00    -0.387 OA
ATOM     41  H   UNL     1      17.460  39.261 123.488  1.00  0.00     0.211 HD
ENDBRANCH  32  40
ENDBRANCH   1  27
TORSDOF 12
ENDMDL
MODEL 3
REMARK VINA RESULT:    -7.202      2.469      6.200
REMARK INTER + INTRA:         -11.685
REMARK INTER:                 -10.394
REMARK INTRA:                  -1.291
REMARK UNBOUND:                -1.115
REMARK SMILES O=c1c(O[C@H]2O[C@@H](CO)[C@H](O)[C@@H](O)[C@@H]2O)c(-c2ccc(O)c(O)c2)oc2cc(O)cc(O)c12
REMARK SMILES IDX 4 1 3 2 16 3 25 4 2 5 26 6 1 7 33 8 27 9 31 10 28 11 30 12
REMARK SMILES IDX 17 13 18 14 19 15 20 16 24 17 22 18 21 19 23 21 32 23 29 25
REMARK SMILES IDX 5 27 14 28 6 29 12 30 7 31 10 32 15 33 13 35 8 37 9 38 11 40
REMARK H PARENT 21 20 23 22 32 24 29 26 15 34 13 36 9 39 11 41
REMARK Flexibility Score: inf
ROOT
ATOM      1  O   UNL     1      14.725  35.254 124.902  1.00  0.00    -0.454 OA
ENDROOT
BRANCH   1   2
ATOM      2  C   UNL     1      14.027  36.090 125.796  1.00  0.00     0.214 A 
ATOM      3  C   UNL     1      14.748  37.097 126.470  1.00  0.00     0.180 A 
ATOM      4  O   UNL     1      14.140  37.879 127.355  1.00  0.00    -0.452 OA
ATOM      5  C   UNL     1      12.650  35.950 126.082  1.00  0.00     0.239 A 
ATOM      6  C   UNL     1      12.849  37.785 127.645  1.00  0.00     0.146 A 
ATOM      7  O   UNL     1      11.973  35.046 125.525  1.00  0.00    -0.285 OA
ATOM      8  C   UNL     1      12.040  36.811 127.020  1.00  0.00     0.111 A 
ATOM      9  C   UNL     1      12.299  38.665 128.582  1.00  0.00     0.094 A 
ATOM     10  C   UNL     1      10.668  36.732 127.364  1.00  0.00     0.134 A 
ATOM     11  C   UNL     1      10.945  38.591 128.909  1.00  0.00     0.123 A 
ATOM     12  C   UNL     1      10.134  37.625 128.305  1.00  0.00     0.093 A 
BRANCH   3  13
ATOM     13  C   UNL     1      16.193  37.320 126.228  1.00  0.00     0.025 A 
ATOM     14  C   UNL     1      17.165  36.844 127.121  1.00  0.00     0.016 A 
ATOM     15  C   UNL     1      18.523  37.047 126.862  1.00  0.00     0.051 A 
ATOM     16  C   UNL     1      18.936  37.713 125.703  1.00  0.00     0.157 A 
ATOM     17  C   UNL     1      16.605  37.971 125.054  1.00  0.00     0.062 A 
ATOM     18  C   UNL     1      17.965  38.177 124.783  1.00  0.00     0.158 A 
BRANCH  16  19
ATOM     19  O   UNL     1      20.308  37.885 125.505  1.00  0.00    -0.504 OA
ATOM     20  H   UNL     1      20.848  37.374 124.820  1.00  0.00     0.293 HD
ENDBRANCH  16  19
BRANCH  18  21
ATOM     21  O   UNL     1      18.301  38.841 123.603  1.00  0.00    -0.504 OA
ATOM     22  H   UNL     1      18.953  38.482 122.921  1.00  0.00     0.293 HD
ENDBRANCH  18  21
ENDBRANCH   3  13
BRANCH  10  23
ATOM     23  O   UNL     1       9.833  35.774 126.785  1.00  0.00    -0.507 OA
ATOM     24  H   UNL     1       9.730  34.847 127.180  1.00  0.00     0.293 HD
ENDBRANCH  10  23
BRANCH  11  25
ATOM     25  O   UNL     1      10.414  39.484 129.838  1.00  0.00    -0.508 OA
ATOM     26  H   UNL     1       9.596  40.044 129.625  1.00  0.00     0.293 HD
ENDBRANCH  11  25
ENDBRANCH   1   2
BRANCH   1  27
ATOM     27  C   UNL     1      14.522  35.137 123.492  1.00  0.00     0.339 C 
ATOM     28  C   UNL     1      15.377  33.957 122.934  1.00  0.00     0.214 C 
ATOM     29  O   UNL     1      14.872  36.387 122.913  1.00  0.00    -0.332 OA
ATOM     30  C   UNL     1      16.635  34.484 122.208  1.00  0.00     0.180 C 
ATOM     31  C   UNL     1      14.967  36.287 121.506  1.00  0.00     0.179 C 
ATOM     32  C   UNL     1      16.256  35.516 121.116  1.00  0.00     0.177 C 
BRANCH  28  33
ATOM     33  O   UNL     1      14.597  33.200 122.042  1.00  0.00    -0.384 OA
ATOM     34  H   UNL     1      14.879  32.254 122.142  1.00  0.00     0.211 HD
ENDBRANCH  28  33
BRANCH  30  35
ATOM     35  O   UNL     1      17.497  35.094 123.137  1.00  0.00    -0.387 OA
ATOM     36  H   UNL     1      18.328  35.333 122.650  1.00  0.00     0.211 HD
ENDBRANCH  30  35
BRANCH  31  37
ATOM     37  C   UNL     1      14.938  37.694 120.897  1.00  0.00     0.191 C 
BRANCH  37  38
ATOM     38  O   UNL     1      15.890  37.805 119.875  1.00  0.00    -0.394 OA
ATOM     39  H   UNL     1      15.921  38.767 119.635  1.00  0.00     0.210 HD
ENDBRANCH  37  38
ENDBRANCH  31  37
BRANCH  32  40
ATOM     40  O   UNL     1      16.046  34.865 119.886  1.00  0.00    -0.387 OA
ATOM     41  H   UNL     1      16.856  34.320 119.706  1.00  0.00     0.211 HD
ENDBRANCH  32  40
ENDBRANCH   1  27
TORSDOF 12
ENDMDL
MODEL 4
REMARK VINA RESULT:    -7.091      2.516      5.856
REMARK INTER + INTRA:         -11.523
REMARK INTER:                 -10.387
REMARK INTRA:                  -1.136
REMARK UNBOUND:                -1.115
REMARK SMILES O=c1c(O[C@H]2O[C@@H](CO)[C@H](O)[C@@H](O)[C@@H]2O)c(-c2ccc(O)c(O)c2)oc2cc(O)cc(O)c12
REMARK SMILES IDX 4 1 3 2 16 3 25 4 2 5 26 6 1 7 33 8 27 9 31 10 28 11 30 12
REMARK SMILES IDX 17 13 18 14 19 15 20 16 24 17 22 18 21 19 23 21 32 23 29 25
REMARK SMILES IDX 5 27 14 28 6 29 12 30 7 31 10 32 15 33 13 35 8 37 9 38 11 40
REMARK H PARENT 21 20 23 22 32 24 29 26 15 34 13 36 9 39 11 41
REMARK Flexibility Score: inf
ROOT
ATOM      1  O   UNL     1      14.622  35.305 124.929  1.00  0.00    -0.454 OA
ENDROOT
BRANCH   1   2
ATOM      2  C   UNL     1      13.950  36.140 125.842  1.00  0.00     0.214 A 
ATOM      3  C   UNL     1      14.698  37.124 126.522  1.00  0.00     0.180 A 
ATOM      4  O   UNL     1      14.115  37.904 127.426  1.00  0.00    -0.452 OA
ATOM      5  C   UNL     1      12.574  36.023 126.141  1.00  0.00     0.239 A 
ATOM      6  C   UNL     1      12.825  37.831 127.728  1.00  0.00     0.146 A 
ATOM      7  O   UNL     1      11.874  35.140 125.578  1.00  0.00    -0.285 OA
ATOM      8  C   UNL     1      11.991  36.882 127.098  1.00  0.00     0.111 A 
ATOM      9  C   UNL     1      12.302  38.708 128.684  1.00  0.00     0.094 A 
ATOM     10  C   UNL     1      10.621  36.824 127.456  1.00  0.00     0.134 A 
ATOM     11  C   UNL     1      10.951  38.655 129.025  1.00  0.00     0.123 A 
ATOM     12  C   UNL     1      10.115  37.713 128.416  1.00  0.00     0.093 A 
BRANCH   3  13
ATOM     13  C   UNL     1      16.144  37.322 126.269  1.00  0.00     0.025 A 
ATOM     14  C   UNL     1      17.116  36.824 127.150  1.00  0.00     0.016 A 
ATOM     15  C   UNL     1      18.474  37.004 126.879  1.00  0.00     0.051 A 
ATOM     16  C   UNL     1      18.889  37.669 125.719  1.00  0.00     0.157 A 
ATOM     17  C   UNL     1      16.557  37.972 125.094  1.00  0.00     0.062 A 
ATOM     18  C   UNL     1      17.918  38.154 124.812  1.00  0.00     0.158 A 
BRANCH  16  19
ATOM     19  O   UNL     1      20.262  37.818 125.510  1.00  0.00    -0.504 OA
ATOM     20  H   UNL     1      20.763  37.401 124.737  1.00  0.00     0.293 HD
ENDBRANCH  16  19
BRANCH  18  21
ATOM     21  O   UNL     1      18.255  38.819 123.631  1.00  0.00    -0.504 OA
ATOM     22  H   UNL     1      19.068  39.409 123.531  1.00  0.00     0.293 HD
ENDBRANCH  18  21
ENDBRANCH   3  13
BRANCH  10  23
ATOM     23  O   UNL     1       9.762  35.891 126.872  1.00  0.00    -0.507 OA
ATOM     24  H   UNL     1       8.981  35.493 127.380  1.00  0.00     0.293 HD
ENDBRANCH  10  23
BRANCH  11  25
ATOM     25  O   UNL     1      10.447  39.544 129.972  1.00  0.00    -0.508 OA
ATOM     26  H   UNL     1      11.062  40.097 130.557  1.00  0.00     0.293 HD
ENDBRANCH  11  25
ENDBRANCH   1   2
BRANCH   1  27
ATOM     27  C   UNL     1      14.792  35.519 123.526  1.00  0.00     0.339 C 
ATOM     28  C   UNL     1      13.563  34.945 122.754  1.00  0.00     0.214 C 
ATOM     29  O   UNL     1      16.012  34.895 123.151  1.00  0.00    -0.332 OA
ATOM     30  C   UNL     1      13.912  33.596 122.086  1.00  0.00     0.180 C 
ATOM     31  C   UNL     1      16.131  34.816 121.744  1.00  0.00     0.179 C 
ATOM     32  C   UNL     1      15.172  33.729 121.192  1.00  0.00     0.177 C 
BRANCH  28  33
ATOM     33  O   UNL     1      13.158  35.868 121.774  1.00  0.00    -0.384 OA
ATOM     34  H   UNL     1      12.166  35.856 121.757  1.00  0.00     0.211 HD
ENDBRANCH  28  33
BRANCH  30  35
ATOM     35  O   UNL     1      14.152  32.626 123.076  1.00  0.00    -0.387 OA
ATOM     36  H   UNL     1      13.493  31.897 122.935  1.00  0.00     0.211 HD
ENDBRANCH  30  35
BRANCH  31  37
ATOM     37  C   UNL     1      17.592  34.526 121.377  1.00  0.00     0.191 C 
BRANCH  37  38
ATOM     38  O   UNL     1      17.658  33.668 120.272  1.00  0.00    -0.394 OA
ATOM     39  H   UNL     1      17.812  32.759 120.640  1.00  0.00     0.210 HD
ENDBRANCH  37  38
ENDBRANCH  31  37
BRANCH  32  40
ATOM     40  O   UNL     1      14.799  34.070 119.879  1.00  0.00    -0.387 OA
ATOM     41  H   UNL     1      14.061  34.729 119.949  1.00  0.00     0.211 HD
ENDBRANCH  32  40
ENDBRANCH   1  27
TORSDOF 12
ENDMDL
MODEL 5
REMARK VINA RESULT:    -7.049      1.649      3.090
REMARK INTER + INTRA:         -11.460
REMARK INTER:                  -9.896
REMARK INTRA:                  -1.565
REMARK UNBOUND:                -1.115
REMARK SMILES O=c1c(O[C@H]2O[C@@H](CO)[C@H](O)[C@@H](O)[C@@H]2O)c(-c2ccc(O)c(O)c2)oc2cc(O)cc(O)c12
REMARK SMILES IDX 4 1 3 2 16 3 25 4 2 5 26 6 1 7 33 8 27 9 31 10 28 11 30 12
REMARK SMILES IDX 17 13 18 14 19 15 20 16 24 17 22 18 21 19 23 21 32 23 29 25
REMARK SMILES IDX 5 27 14 28 6 29 12 30 7 31 10 32 15 33 13 35 8 37 9 38 11 40
REMARK H PARENT 21 20 23 22 32 24 29 26 15 34 13 36 9 39 11 41
REMARK Flexibility Score: inf
ROOT
ATOM      1  O   UNL     1      14.517  34.864 122.588  1.00  0.00    -0.454 OA
ENDROOT
BRANCH   1   2
ATOM      2  C   UNL     1      15.270  35.384 123.659  1.00  0.00     0.214 A 
ATOM      3  C   UNL     1      14.866  35.071 124.974  1.00  0.00     0.180 A 
ATOM      4  O   UNL     1      15.520  35.576 126.014  1.00  0.00    -0.452 OA
ATOM      5  C   UNL     1      16.388  36.232 123.488  1.00  0.00     0.239 A 
ATOM      6  C   UNL     1      16.577  36.368 125.896  1.00  0.00     0.146 A 
ATOM      7  O   UNL     1      16.766  36.560 122.333  1.00  0.00    -0.285 OA
ATOM      8  C   UNL     1      17.062  36.736 124.622  1.00  0.00     0.111 A 
ATOM      9  C   UNL     1      17.206  36.837 127.054  1.00  0.00     0.094 A 
ATOM     10  C   UNL     1      18.187  37.594 124.535  1.00  0.00     0.134 A 
ATOM     11  C   UNL     1      18.319  37.672 126.963  1.00  0.00     0.123 A 
ATOM     12  C   UNL     1      18.804  38.052 125.708  1.00  0.00     0.093 A 
BRANCH   3  13
ATOM     13  C   UNL     1      13.710  34.186 125.247  1.00  0.00     0.025 A 
ATOM     14  C   UNL     1      13.763  32.810 124.979  1.00  0.00     0.016 A 
ATOM     15  C   UNL     1      12.668  31.991 125.264  1.00  0.00     0.051 A 
ATOM     16  C   UNL     1      11.508  32.525 125.837  1.00  0.00     0.157 A 
ATOM     17  C   UNL     1      12.554  34.721 125.840  1.00  0.00     0.062 A 
ATOM     18  C   UNL     1      11.451  33.907 126.134  1.00  0.00     0.158 A 
BRANCH  16  19
ATOM     19  O   UNL     1      10.448  31.652 126.095  1.00  0.00    -0.504 OA
ATOM     20  H   UNL     1       9.499  31.809 125.783  1.00  0.00     0.293 HD
ENDBRANCH  16  19
BRANCH  18  21
ATOM     21  O   UNL     1      10.333  34.509 126.712  1.00  0.00    -0.504 OA
ATOM     22  H   UNL     1      10.233  34.677 127.703  1.00  0.00     0.293 HD
ENDBRANCH  18  21
ENDBRANCH   3  13
BRANCH  10  23
ATOM     23  O   UNL     1      18.691  37.998 123.297  1.00  0.00    -0.507 OA
ATOM     24  H   UNL     1      18.509  37.473 122.450  1.00  0.00     0.293 HD
ENDBRANCH  10  23
BRANCH  11  25
ATOM     25  O   UNL     1      18.937  38.120 128.129  1.00  0.00    -0.508 OA
ATOM     26  H   UNL     1      18.676  38.998 128.562  1.00  0.00     0.293 HD
ENDBRANCH  11  25
ENDBRANCH   1   2
BRANCH   1  27
ATOM     27  C   UNL     1      13.251  35.330 122.118  1.00  0.00     0.339 C 
ATOM     28  C   UNL     1      13.265  35.409 120.559  1.00  0.00     0.214 C 
ATOM     29  O   UNL     1      13.015  36.591 122.727  1.00  0.00    -0.332 OA
ATOM     30  C   UNL     1      13.421  36.871 120.083  1.00  0.00     0.180 C 
ATOM     31  C   UNL     1      11.924  37.254 122.118  1.00  0.00     0.179 C 
ATOM     32  C   UNL     1      12.338  37.780 120.718  1.00  0.00     0.177 C 
BRANCH  28  33
ATOM     33  O   UNL     1      12.067  34.871 120.056  1.00  0.00    -0.384 OA
ATOM     34  H   UNL     1      12.297  34.010 119.620  1.00  0.00     0.211 HD
ENDBRANCH  28  33
BRANCH  30  35
ATOM     35  O   UNL     1      14.692  37.352 120.442  1.00  0.00    -0.387 OA
ATOM     36  H   UNL     1      14.878  38.141 119.868  1.00  0.00     0.211 HD
ENDBRANCH  30  35
BRANCH  31  37
ATOM     37  C   UNL     1      11.447  38.388 123.034  1.00  0.00     0.191 C 
BRANCH  37  38
ATOM     38  O   UNL     1      11.390  39.597 122.329  1.00  0.00    -0.394 OA
ATOM     39  H   UNL     1      10.515  40.005 122.558  1.00  0.00     0.210 HD
ENDBRANCH  37  38
ENDBRANCH  31  37
BRANCH  32  40
ATOM     40  O   UNL     1      11.200  37.828 119.892  1.00  0.00    -0.387 OA
ATOM     41  H   UNL     1      11.428  38.408 119.119  1.00  0.00     0.211 HD
ENDBRANCH  32  40
ENDBRANCH   1  27
TORSDOF 12
ENDMDL
MODEL 6
REMARK VINA RESULT:    -6.877      3.313      7.947
REMARK INTER + INTRA:         -11.208
REMARK INTER:                  -9.891
REMARK INTRA:                  -1.316
REMARK UNBOUND:                -1.115
REMARK SMILES O=c1c(O[C@H]2O[C@@H](CO)[C@H](O)[C@@H](O)[C@@H]2O)c(-c2ccc(O)c(O)c2)oc2cc(O)cc(O)c12
REMARK SMILES IDX 4 1 3 2 16 3 25 4 2 5 26 6 1 7 33 8 27 9 31 10 28 11 30 12
REMARK SMILES IDX 17 13 18 14 19 15 20 16 24 17 22 18 21 19 23 21 32 23 29 25
REMARK SMILES IDX 5 27 14 28 6 29 12 30 7 31 10 32 15 33 13 35 8 37 9 38 11 40
REMARK H PARENT 21 20 23 22 32 24 29 26 15 34 13 36 9 39 11 41
REMARK Flexibility Score: inf
ROOT
ATOM      1  O   UNL     1      13.565  38.117 125.572  1.00  0.00    -0.454 OA
ENDROOT
BRANCH   1   2
ATOM      2  C   UNL     1      13.615  36.710 125.544  1.00  0.00     0.214 A 
ATOM      3  C   UNL     1      14.880  36.087 125.499  1.00  0.00     0.180 A 
ATOM      4  O   UNL     1      14.973  34.763 125.425  1.00  0.00    -0.452 OA
ATOM      5  C   UNL     1      12.465  35.888 125.520  1.00  0.00     0.239 A 
ATOM      6  C   UNL     1      13.919  33.958 125.409  1.00  0.00     0.146 A 
ATOM      7  O   UNL     1      11.316  36.403 125.529  1.00  0.00    -0.285 OA
ATOM      8  C   UNL     1      12.610  34.485 125.454  1.00  0.00     0.111 A 
ATOM      9  C   UNL     1      14.123  32.576 125.344  1.00  0.00     0.094 A 
ATOM     10  C   UNL     1      11.508  33.594 125.422  1.00  0.00     0.134 A 
ATOM     11  C   UNL     1      13.036  31.703 125.324  1.00  0.00     0.123 A 
ATOM     12  C   UNL     1      11.733  32.212 125.359  1.00  0.00     0.093 A 
BRANCH   3  13
ATOM     13  C   UNL     1      16.138  36.868 125.526  1.00  0.00     0.025 A 
ATOM     14  C   UNL     1      16.866  37.041 126.713  1.00  0.00     0.016 A 
ATOM     15  C   UNL     1      18.061  37.764 126.710  1.00  0.00     0.051 A 
ATOM     16  C   UNL     1      18.561  38.313 125.523  1.00  0.00     0.157 A 
ATOM     17  C   UNL     1      16.647  37.400 124.330  1.00  0.00     0.062 A 
ATOM     18  C   UNL     1      17.847  38.124 124.316  1.00  0.00     0.158 A 
BRANCH  16  19
ATOM     19  O   UNL     1      19.760  39.026 125.590  1.00  0.00    -0.504 OA
ATOM     20  H   UNL     1      20.108  39.615 124.845  1.00  0.00     0.293 HD
ENDBRANCH  16  19
BRANCH  18  21
ATOM     21  O   UNL     1      18.286  38.634 123.093  1.00  0.00    -0.504 OA
ATOM     22  H   UNL     1      18.072  39.564 122.762  1.00  0.00     0.293 HD
ENDBRANCH  18  21
ENDBRANCH   3  13
BRANCH  10  23
ATOM     23  O   UNL     1      10.196  34.071 125.448  1.00  0.00    -0.507 OA
ATOM     24  H   UNL     1       9.867  34.765 124.788  1.00  0.00     0.293 HD
ENDBRANCH  10  23
BRANCH  11  25
ATOM     25  O   UNL     1      13.260  30.329 125.270  1.00  0.00    -0.508 OA
ATOM     26  H   UNL     1      13.456  29.792 126.107  1.00  0.00     0.293 HD
ENDBRANCH  11  25
ENDBRANCH   1   2
BRANCH   1  27
ATOM     27  C   UNL     1      13.614  38.959 126.725  1.00  0.00     0.339 C 
ATOM     28  C   UNL     1      12.666  38.396 127.829  1.00  0.00     0.214 C 
ATOM     29  O   UNL     1      13.249  40.266 126.306  1.00  0.00    -0.332 OA
ATOM     30  C   UNL     1      11.357  39.214 127.900  1.00  0.00     0.180 C 
ATOM     31  C   UNL     1      13.003  41.107 127.417  1.00  0.00     0.179 C 
ATOM     32  C   UNL     1      11.655  40.724 128.082  1.00  0.00     0.177 C 
BRANCH  28  33
ATOM     33  O   UNL     1      13.321  38.440 129.072  1.00  0.00    -0.384 OA
ATOM     34  H   UNL     1      12.708  38.034 129.738  1.00  0.00     0.211 HD
ENDBRANCH  28  33
BRANCH  30  35
ATOM     35  O   UNL     1      10.619  39.030 126.717  1.00  0.00    -0.387 OA
ATOM     36  H   UNL     1      10.863  38.138 126.357  1.00  0.00     0.211 HD
ENDBRANCH  30  35
BRANCH  31  37
ATOM     37  C   UNL     1      13.016  42.569 126.955  1.00  0.00     0.191 C 
BRANCH  37  38
ATOM     38  O   UNL     1      14.150  43.228 127.447  1.00  0.00    -0.394 OA
ATOM     39  H   UNL     1      13.921  44.193 127.460  1.00  0.00     0.210 HD
ENDBRANCH  37  38
ENDBRANCH  31  37
BRANCH  32  40
ATOM     40  O   UNL     1      11.711  41.045 129.450  1.00  0.00    -0.387 OA
ATOM     41  H   UNL     1      11.126  41.835 129.587  1.00  0.00     0.211 HD
ENDBRANCH  32  40
ENDBRANCH   1  27
TORSDOF 12
ENDMDL
MODEL 7
REMARK VINA RESULT:    -6.854      2.658      7.603
REMARK INTER + INTRA:         -11.174
REMARK INTER:                  -9.597
REMARK INTRA:                  -1.577
REMARK UNBOUND:                -1.115
REMARK SMILES O=c1c(O[C@H]2O[C@@H](CO)[C@H](O)[C@@H](O)[C@@H]2O)c(-c2ccc(O)c(O)c2)oc2cc(O)cc(O)c12
REMARK SMILES IDX 4 1 3 2 16 3 25 4 2 5 26 6 1 7 33 8 27 9 31 10 28 11 30 12
REMARK SMILES IDX 17 13 18 14 19 15 20 16 24 17 22 18 21 19 23 21 32 23 29 25
REMARK SMILES IDX 5 27 14 28 6 29 12 30 7 31 10 32 15 33 13 35 8 37 9 38 11 40
REMARK H PARENT 21 20 23 22 32 24 29 26 15 34 13 36 9 39 11 41
REMARK Flexibility Score: inf
ROOT
ATOM      1  O   UNL     1      13.670  37.593 124.947  1.00  0.00    -0.454 OA
ENDROOT
BRANCH   1   2
ATOM      2  C   UNL     1      13.722  36.330 124.326  1.00  0.00     0.214 A 
ATOM      3  C   UNL     1      14.964  35.664 124.268  1.00  0.00     0.180 A 
ATOM      4  O   UNL     1      15.068  34.491 123.652  1.00  0.00    -0.452 OA
ATOM      5  C   UNL     1      12.603  35.709 123.724  1.00  0.00     0.239 A 
ATOM      6  C   UNL     1      14.042  33.873 123.083  1.00  0.00     0.146 A 
ATOM      7  O   UNL     1      11.481  36.281 123.727  1.00  0.00    -0.285 OA
ATOM      8  C   UNL     1      12.756  34.456 123.092  1.00  0.00     0.111 A 
ATOM      9  C   UNL     1      14.252  32.633 122.472  1.00  0.00     0.094 A 
ATOM     10  C   UNL     1      11.686  33.772 122.463  1.00  0.00     0.134 A 
ATOM     11  C   UNL     1      13.193  31.958 121.864  1.00  0.00     0.123 A 
ATOM     12  C   UNL     1      11.916  32.529 121.856  1.00  0.00     0.093 A 
BRANCH   3  13
ATOM     13  C   UNL     1      16.187  36.236 124.876  1.00  0.00     0.025 A 
ATOM     14  C   UNL     1      16.711  35.734 126.077  1.00  0.00     0.016 A 
ATOM     15  C   UNL     1      17.878  36.276 126.621  1.00  0.00     0.051 A 
ATOM     16  C   UNL     1      18.553  37.315 125.971  1.00  0.00     0.157 A 
ATOM     17  C   UNL     1      16.873  37.266 124.211  1.00  0.00     0.062 A 
ATOM     18  C   UNL     1      18.047  37.814 124.747  1.00  0.00     0.158 A 
BRANCH  16  19
ATOM     19  O   UNL     1      19.712  37.813 126.570  1.00  0.00    -0.504 OA
ATOM     20  H   UNL     1      20.218  37.336 127.304  1.00  0.00     0.293 HD
ENDBRANCH  16  19
BRANCH  18  21
ATOM     21  O   UNL     1      18.669  38.843 124.038  1.00  0.00    -0.504 OA
ATOM     22  H   UNL     1      19.055  38.734 123.111  1.00  0.00     0.293 HD
ENDBRANCH  18  21
ENDBRANCH   3  13
BRANCH  10  23
ATOM     23  O   UNL     1      10.401  34.318 122.431  1.00  0.00    -0.507 OA
ATOM     24  H   UNL     1       9.845  34.422 123.272  1.00  0.00     0.293 HD
ENDBRANCH  10  23
BRANCH  11  25
ATOM     25  O   UNL     1      13.421  30.719 121.269  1.00  0.00    -0.508 OA
ATOM     26  H   UNL     1      13.169  29.855 121.735  1.00  0.00     0.293 HD
ENDBRANCH  11  25
ENDBRANCH   1   2
BRANCH   1  27
ATOM     27  C   UNL     1      13.571  37.863 126.347  1.00  0.00     0.339 C 
ATOM     28  C   UNL     1      12.715  36.756 127.037  1.00  0.00     0.214 C 
ATOM     29  O   UNL     1      13.004  39.158 126.485  1.00  0.00    -0.332 OA
ATOM     30  C   UNL     1      11.290  37.272 127.342  1.00  0.00     0.180 C 
ATOM     31  C   UNL     1      12.615  39.404 127.822  1.00  0.00     0.179 C 
ATOM     32  C   UNL     1      11.339  38.588 128.160  1.00  0.00     0.177 C 
BRANCH  28  33
ATOM     33  O   UNL     1      13.342  36.361 128.232  1.00  0.00    -0.384 OA
ATOM     34  H   UNL     1      12.679  36.480 128.960  1.00  0.00     0.211 HD
ENDBRANCH  28  33
BRANCH  30  35
ATOM     35  O   UNL     1      10.604  37.506 126.137  1.00  0.00    -0.387 OA
ATOM     36  H   UNL     1      11.286  37.558 125.418  1.00  0.00     0.211 HD
ENDBRANCH  30  35
BRANCH  31  37
ATOM     37  C   UNL     1      12.397  40.909 128.016  1.00  0.00     0.191 C 
BRANCH  37  38
ATOM     38  O   UNL     1      11.984  41.179 129.327  1.00  0.00    -0.394 OA
ATOM     39  H   UNL     1      10.993  41.141 129.315  1.00  0.00     0.210 HD
ENDBRANCH  37  38
ENDBRANCH  31  37
BRANCH  32  40
ATOM     40  O   UNL     1      11.329  38.302 129.537  1.00  0.00    -0.387 OA
ATOM     41  H   UNL     1      11.668  39.110 130.003  1.00  0.00     0.211 HD
ENDBRANCH  32  40
ENDBRANCH   1  27
TORSDOF 12
ENDMDL
MODEL 8
REMARK VINA RESULT:    -6.827      3.548      7.679
REMARK INTER + INTRA:         -11.135
REMARK INTER:                  -9.571
REMARK INTRA:                  -1.564
REMARK UNBOUND:                -1.115
REMARK SMILES O=c1c(O[C@H]2O[C@@H](CO)[C@H](O)[C@@H](O)[C@@H]2O)c(-c2ccc(O)c(O)c2)oc2cc(O)cc(O)c12
REMARK SMILES IDX 4 1 3 2 16 3 25 4 2 5 26 6 1 7 33 8 27 9 31 10 28 11 30 12
REMARK SMILES IDX 17 13 18 14 19 15 20 16 24 17 22 18 21 19 23 21 32 23 29 25
REMARK SMILES IDX 5 27 14 28 6 29 12 30 7 31 10 32 15 33 13 35 8 37 9 38 11 40
REMARK H PARENT 21 20 23 22 32 24 29 26 15 34 13 36 9 39 11 41
REMARK Flexibility Score: inf
ROOT
ATOM      1  O   UNL     1      13.744  38.706 127.053  1.00  0.00    -0.454 OA
ENDROOT
BRANCH   1   2
ATOM      2  C   UNL     1      13.460  37.351 126.792  1.00  0.00     0.214 A 
ATOM      3  C   UNL     1      14.487  36.545 126.257  1.00  0.00     0.180 A 
ATOM      4  O   UNL     1      14.251  35.273 125.954  1.00  0.00    -0.452 OA
ATOM      5  C   UNL     1      12.192  36.764 127.003  1.00  0.00     0.239 A 
ATOM      6  C   UNL     1      13.079  34.684 126.144  1.00  0.00     0.146 A 
ATOM      7  O   UNL     1      11.239  37.454 127.451  1.00  0.00    -0.285 OA
ATOM      8  C   UNL     1      11.989  35.405 126.678  1.00  0.00     0.111 A 
ATOM      9  C   UNL     1      12.935  33.335 125.805  1.00  0.00     0.094 A 
ATOM     10  C   UNL     1      10.747  34.745 126.856  1.00  0.00     0.134 A 
ATOM     11  C   UNL     1      11.715  32.687 125.992  1.00  0.00     0.123 A 
ATOM     12  C   UNL     1      10.624  33.391 126.511  1.00  0.00     0.093 A 
BRANCH   3  13
ATOM     13  C   UNL     1      15.848  37.075 126.009  1.00  0.00     0.025 A 
ATOM     14  C   UNL     1      16.842  37.029 126.999  1.00  0.00     0.016 A 
ATOM     15  C   UNL     1      18.125  37.515 126.735  1.00  0.00     0.051 A 
ATOM     16  C   UNL     1      18.445  38.039 125.478  1.00  0.00     0.157 A 
ATOM     17  C   UNL     1      16.172  37.582 124.740  1.00  0.00     0.062 A 
ATOM     18  C   UNL     1      17.457  38.069 124.465  1.00  0.00     0.158 A 
BRANCH  16  19
ATOM     19  O   UNL     1      19.745  38.511 125.281  1.00  0.00    -0.504 OA
ATOM     20  H   UNL     1      20.005  39.486 125.334  1.00  0.00     0.293 HD
ENDBRANCH  16  19
BRANCH  18  21
ATOM     21  O   UNL     1      17.704  38.569 123.185  1.00  0.00    -0.504 OA
ATOM     22  H   UNL     1      18.493  39.156 122.953  1.00  0.00     0.293 HD
ENDBRANCH  18  21
ENDBRANCH   3  13
BRANCH  10  23
ATOM     23  O   UNL     1       9.637  35.422 127.365  1.00  0.00    -0.507 OA
ATOM     24  H   UNL     1       9.465  35.492 128.361  1.00  0.00     0.293 HD
ENDBRANCH  10  23
BRANCH  11  25
ATOM     25  O   UNL     1      11.595  31.339 125.657  1.00  0.00    -0.508 OA
ATOM     26  H   UNL     1      11.864  30.995 124.743  1.00  0.00     0.293 HD
ENDBRANCH  11  25
ENDBRANCH   1   2
BRANCH   1  27
ATOM     27  C   UNL     1      13.465  39.825 126.208  1.00  0.00     0.339 C 
ATOM     28  C   UNL     1      13.040  41.048 127.078  1.00  0.00     0.214 C 
ATOM     29  O   UNL     1      12.450  39.421 125.299  1.00  0.00    -0.332 OA
ATOM     30  C   UNL     1      11.510  41.258 127.023  1.00  0.00     0.180 C 
ATOM     31  C   UNL     1      11.916  40.533 124.607  1.00  0.00     0.179 C 
ATOM     32  C   UNL     1      11.017  41.366 125.558  1.00  0.00     0.177 C 
BRANCH  28  33
ATOM     33  O   UNL     1      13.694  42.201 126.610  1.00  0.00    -0.384 OA
ATOM     34  H   UNL     1      13.108  42.606 125.919  1.00  0.00     0.211 HD
ENDBRANCH  28  33
BRANCH  30  35
ATOM     35  O   UNL     1      10.861  40.178 127.648  1.00  0.00    -0.387 OA
ATOM     36  H   UNL     1       9.901  40.418 127.722  1.00  0.00     0.211 HD
ENDBRANCH  30  35
BRANCH  31  37
ATOM     37  C   UNL     1      11.143  40.039 123.379  1.00  0.00     0.191 C 
BRANCH  37  38
ATOM     38  O   UNL     1      10.797  41.115 122.552  1.00  0.00    -0.394 OA
ATOM     39  H   UNL     1      10.640  40.728 121.651  1.00  0.00     0.210 HD
ENDBRANCH  37  38
ENDBRANCH  31  37
BRANCH  32  40
ATOM     40  O   UNL     1      11.028  42.710 125.141  1.00  0.00    -0.387 OA
ATOM     41  H   UNL     1      10.094  43.038 125.196  1.00  0.00     0.211 HD
ENDBRANCH  32  40
ENDBRANCH   1  27
TORSDOF 12
ENDMDL
MODEL 9
REMARK VINA RESULT:    -6.826      3.548      5.160
REMARK INTER + INTRA:         -11.133
REMARK INTER:                 -10.337
REMARK INTRA:                  -0.796
REMARK UNBOUND:                -1.115
REMARK SMILES O=c1c(O[C@H]2O[C@@H](CO)[C@H](O)[C@@H](O)[C@@H]2O)c(-c2ccc(O)c(O)c2)oc2cc(O)cc(O)c12
REMARK SMILES IDX 4 1 3 2 16 3 25 4 2 5 26 6 1 7 33 8 27 9 31 10 28 11 30 12
REMARK SMILES IDX 17 13 18 14 19 15 20 16 24 17 22 18 21 19 23 21 32 23 29 25
REMARK SMILES IDX 5 27 14 28 6 29 12 30 7 31 10 32 15 33 13 35 8 37 9 38 11 40
REMARK H PARENT 21 20 23 22 32 24 29 26 15 34 13 36 9 39 11 41
REMARK Flexibility Score: inf
ROOT
ATOM      1  O   UNL     1      13.499  37.279 125.051  1.00  0.00    -0.454 OA
ENDROOT
BRANCH   1   2
ATOM      2  C   UNL     1      12.935  38.030 126.101  1.00  0.00     0.214 A 
ATOM      3  C   UNL     1      12.001  37.398 126.947  1.00  0.00     0.180 A 
ATOM      4  O   UNL     1      11.411  38.081 127.923  1.00  0.00    -0.452 OA
ATOM      5  C   UNL     1      13.228  39.394 126.330  1.00  0.00     0.239 A 
ATOM      6  C   UNL     1      11.664  39.358 128.175  1.00  0.00     0.146 A 
ATOM      7  O   UNL     1      14.034  40.005 125.580  1.00  0.00    -0.285 OA
ATOM      8  C   UNL     1      12.587  40.078 127.386  1.00  0.00     0.111 A 
ATOM      9  C   UNL     1      11.001  39.984 129.235  1.00  0.00     0.094 A 
ATOM     10  C   UNL     1      12.823  41.445 127.677  1.00  0.00     0.134 A 
ATOM     11  C   UNL     1      11.244  41.327 129.524  1.00  0.00     0.123 A 
ATOM     12  C   UNL     1      12.149  42.054 128.745  1.00  0.00     0.093 A 
BRANCH   3  13
ATOM     13  C   UNL     1      11.638  35.971 126.785  1.00  0.00     0.025 A 
ATOM     14  C   UNL     1      10.298  35.556 126.752  1.00  0.00     0.016 A 
ATOM     15  C   UNL     1       9.979  34.208 126.578  1.00  0.00     0.051 A 
ATOM     16  C   UNL     1      10.987  33.251 126.415  1.00  0.00     0.157 A 
ATOM     17  C   UNL     1      12.652  35.016 126.603  1.00  0.00     0.062 A 
ATOM     18  C   UNL     1      12.342  33.661 126.422  1.00  0.00     0.158 A 
BRANCH  16  19
ATOM     19  O   UNL     1      10.601  31.920 126.247  1.00  0.00    -0.504 OA
ATOM     20  H   UNL     1      10.330  31.310 127.007  1.00  0.00     0.293 HD
ENDBRANCH  16  19
BRANCH  18  21
ATOM     21  O   UNL     1      13.402  32.767 126.259  1.00  0.00    -0.504 OA
ATOM     22  H   UNL     1      13.589  32.268 125.401  1.00  0.00     0.293 HD
ENDBRANCH  18  21
ENDBRANCH   3  13
BRANCH  10  23
ATOM     23  O   UNL     1      13.715  42.201 126.914  1.00  0.00    -0.507 OA
ATOM     24  H   UNL     1      13.868  42.013 125.930  1.00  0.00     0.293 HD
ENDBRANCH  10  23
BRANCH  11  25
ATOM     25  O   UNL     1      10.581  41.930 130.591  1.00  0.00    -0.508 OA
ATOM     26  H   UNL     1      10.373  42.922 130.591  1.00  0.00     0.293 HD
ENDBRANCH  11  25
ENDBRANCH   1   2
BRANCH   1  27
ATOM     27  C   UNL     1      14.873  37.230 124.665  1.00  0.00     0.339 C 
ATOM     28  C   UNL     1      14.996  36.645 123.224  1.00  0.00     0.214 C 
ATOM     29  O   UNL     1      15.553  36.443 125.634  1.00  0.00    -0.332 OA
ATOM     30  C   UNL     1      15.468  35.174 123.265  1.00  0.00     0.180 C 
ATOM     31  C   UNL     1      16.855  36.109 125.196  1.00  0.00     0.179 C 
ATOM     32  C   UNL     1      16.780  35.035 124.079  1.00  0.00     0.177 C 
BRANCH  28  33
ATOM     33  O   UNL     1      15.909  37.417 122.485  1.00  0.00    -0.384 OA
ATOM     34  H   UNL     1      15.426  37.752 121.686  1.00  0.00     0.211 HD
ENDBRANCH  28  33
BRANCH  30  35
ATOM     35  O   UNL     1      14.474  34.373 123.854  1.00  0.00    -0.387 OA
ATOM     36  H   UNL     1      14.934  33.599 124.273  1.00  0.00     0.211 HD
ENDBRANCH  30  35
BRANCH  31  37
ATOM     37  C   UNL     1      17.683  35.629 126.394  1.00  0.00     0.191 C 
BRANCH  37  38
ATOM     38  O   UNL     1      17.892  34.245 126.322  1.00  0.00    -0.394 OA
ATOM     39  H   UNL     1      18.866  34.110 126.451  1.00  0.00     0.210 HD
ENDBRANCH  37  38
ENDBRANCH  31  37
BRANCH  32  40
ATOM     40  O   UNL     1      17.894  35.175 123.232  1.00  0.00    -0.387 OA
ATOM     41  H   UNL     1      18.693  35.254 123.815  1.00  0.00     0.211 HD
ENDBRANCH  32  40
ENDBRANCH   1  27
TORSDOF 12
ENDMDL
