MODEL 1
REMARK VINA RESULT:    -5.700      0.000      0.000
REMARK INTER + INTRA:          -5.866
REMARK INTER:                  -5.866
REMARK INTRA:                   0.000
REMARK UNBOUND:                 0.000
REMARK SMILES O=c1ccc2ccc(O)cc2o1
REMARK SMILES IDX 6 1 7 2 8 3 10 4 11 5 5 6 4 7 3 8 2 9 1 10 12 11 9 12
REMARK H PARENT 9 13
REMARK Flexibility Score: inf
ROOT
ATOM      1  C   UNL     1      10.459  28.952   0.441  1.00  0.00     0.016 A 
ATOM      2  C   UNL     1      11.656  28.463  -0.093  1.00  0.00     0.047 A 
ATOM      3  C   UNL     1      11.640  27.621  -1.212  1.00  0.00     0.119 A 
ATOM      4  C   UNL     1      10.417  27.264  -1.802  1.00  0.00     0.094 A 
ATOM      5  C   UNL     1       9.215  27.748  -1.274  1.00  0.00     0.142 A 
ATOM      6  C   UNL     1       9.236  28.597  -0.146  1.00  0.00     0.018 A 
ATOM      7  C   UNL     1       8.018  29.065   0.358  1.00  0.00     0.019 A 
ATOM      8  C   UNL     1       6.829  28.684  -0.262  1.00  0.00     0.094 A 
ATOM      9  C   UNL     1       6.886  27.840  -1.376  1.00  0.00     0.336 A 
ATOM     10  O   UNL     1       5.823  27.484  -1.950  1.00  0.00    -0.246 OA
ATOM     11  O   UNL     1       8.058  27.408  -1.836  1.00  0.00    -0.423 OA
ENDROOT
BRANCH   3  12
ATOM     12  O   UNL     1      12.842  27.144  -1.729  1.00  0.00    -0.508 OA
ATOM     13  H   UNL     1      13.436  26.519  -1.197  1.00  0.00     0.293 HD
ENDBRANCH   3  12
TORSDOF 1
ENDMDL
MODEL 2
REMARK VINA RESULT:    -5.675      1.675      2.309
REMARK INTER + INTRA:          -5.841
REMARK INTER:                  -5.841
REMARK INTRA:                   0.000
REMARK UNBOUND:                 0.000
REMARK SMILES O=c1ccc2ccc(O)cc2o1
REMARK SMILES IDX 6 1 7 2 8 3 10 4 11 5 5 6 4 7 3 8 2 9 1 10 12 11 9 12
REMARK H PARENT 9 13
REMARK Flexibility Score: inf
ROOT
ATOM      1  C   UNL     1      10.063  28.340  -0.101  1.00  0.00     0.016 A 
ATOM      2  C   UNL     1      10.373  27.604  -1.249  1.00  0.00     0.047 A 
ATOM      3  C   UNL     1       9.366  27.258  -2.160  1.00  0.00     0.119 A 
ATOM      4  C   UNL     1       8.040  27.651  -1.921  1.00  0.00     0.094 A 
ATOM      5  C   UNL     1       7.723  28.387  -0.774  1.00  0.00     0.142 A 
ATOM      6  C   UNL     1       8.740  28.734   0.141  1.00  0.00     0.018 A 
ATOM      7  C   UNL     1       8.391  29.470   1.278  1.00  0.00     0.019 A 
ATOM      8  C   UNL     1       7.060  29.838   1.473  1.00  0.00     0.094 A 
ATOM      9  C   UNL     1       6.106  29.459   0.523  1.00  0.00     0.336 A 
ATOM     10  O   UNL     1       4.899  29.781   0.681  1.00  0.00    -0.246 OA
ATOM     11  O   UNL     1       6.464  28.758  -0.550  1.00  0.00    -0.423 OA
ENDROOT
BRANCH   3  12
ATOM     12  O   UNL     1       9.694  26.524  -3.298  1.00  0.00    -0.508 OA
ATOM     13  H   UNL     1       9.535  26.892  -4.228  1.00  0.00     0.293 HD
ENDBRANCH   3  12
TORSDOF 1
ENDMDL
MODEL 3
REMARK VINA RESULT:    -5.646      0.766      4.238
REMARK INTER + INTRA:          -5.811
REMARK INTER:                  -5.811
REMARK INTRA:                   0.000
REMARK UNBOUND:                 0.000
REMARK SMILES O=c1ccc2ccc(O)cc2o1
REMARK SMILES IDX 6 1 7 2 8 3 10 4 11 5 5 6 4 7 3 8 2 9 1 10 12 11 9 12
REMARK H PARENT 9 13
REMARK Flexibility Score: inf
ROOT
ATOM      1  C   UNL     1       8.325  28.842   0.323  1.00  0.00     0.016 A 
ATOM      2  C   UNL     1       7.196  28.357  -0.346  1.00  0.00     0.047 A 
ATOM      3  C   UNL     1       7.338  27.575  -1.499  1.00  0.00     0.119 A 
ATOM      4  C   UNL     1       8.619  27.275  -1.988  1.00  0.00     0.094 A 
ATOM      5  C   UNL     1       9.753  27.756  -1.325  1.00  0.00     0.142 A 
ATOM      6  C   UNL     1       9.606  28.544  -0.163  1.00  0.00     0.018 A 
ATOM      7  C   UNL     1      10.759  29.010   0.477  1.00  0.00     0.019 A 
ATOM      8  C   UNL     1      12.010  28.685  -0.045  1.00  0.00     0.094 A 
ATOM      9  C   UNL     1      12.079  27.900  -1.201  1.00  0.00     0.336 A 
ATOM     10  O   UNL     1      13.200  27.597  -1.688  1.00  0.00    -0.246 OA
ATOM     11  O   UNL     1      10.967  27.470  -1.791  1.00  0.00    -0.423 OA
ENDROOT
BRANCH   3  12
ATOM     12  O   UNL     1       6.202  27.102  -2.152  1.00  0.00    -0.508 OA
ATOM     13  H   UNL     1       5.900  27.490  -3.037  1.00  0.00     0.293 HD
ENDBRANCH   3  12
TORSDOF 1
ENDMDL
MODEL 4
REMARK VINA RESULT:    -5.633      2.035      2.759
REMARK INTER + INTRA:          -5.798
REMARK INTER:                  -5.798
REMARK INTRA:                   0.000
REMARK UNBOUND:                 0.000
REMARK SMILES O=c1ccc2ccc(O)cc2o1
REMARK SMILES IDX 6 1 7 2 8 3 10 4 11 5 5 6 4 7 3 8 2 9 1 10 12 11 9 12
REMARK H PARENT 9 13
REMARK Flexibility Score: inf
ROOT
ATOM      1  C   UNL     1       8.360  27.583  -2.099  1.00  0.00     0.016 A 
ATOM      2  C   UNL     1       9.670  27.148  -2.326  1.00  0.00     0.047 A 
ATOM      3  C   UNL     1      10.684  27.449  -1.407  1.00  0.00     0.119 A 
ATOM      4  C   UNL     1      10.386  28.190  -0.254  1.00  0.00     0.094 A 
ATOM      5  C   UNL     1       9.078  28.630  -0.020  1.00  0.00     0.142 A 
ATOM      6  C   UNL     1       8.059  28.325  -0.948  1.00  0.00     0.018 A 
ATOM      7  C   UNL     1       6.762  28.778  -0.687  1.00  0.00     0.019 A 
ATOM      8  C   UNL     1       6.515  29.511   0.473  1.00  0.00     0.094 A 
ATOM      9  C   UNL     1       7.574  29.776   1.347  1.00  0.00     0.336 A 
ATOM     10  O   UNL     1       7.370  30.437   2.399  1.00  0.00    -0.246 OA
ATOM     11  O   UNL     1       8.799  29.333   1.075  1.00  0.00    -0.423 OA
ENDROOT
BRANCH   3  12
ATOM     12  O   UNL     1      11.982  27.007  -1.650  1.00  0.00    -0.508 OA
ATOM     13  H   UNL     1      12.788  27.564  -1.393  1.00  0.00     0.293 HD
ENDBRANCH   3  12
TORSDOF 1
ENDMDL
MODEL 5
REMARK VINA RESULT:    -5.608     10.869     12.647
REMARK INTER + INTRA:          -5.771
REMARK INTER:                  -5.771
REMARK INTRA:                   0.000
REMARK UNBOUND:                 0.000
REMARK SMILES O=c1ccc2ccc(O)cc2o1
REMARK SMILES IDX 6 1 7 2 8 3 10 4 11 5 5 6 4 7 3 8 2 9 1 10 12 11 9 12
REMARK H PARENT 9 13
REMARK Flexibility Score: inf
ROOT
ATOM      1  C   UNL     1       4.000  38.789   4.661  1.00  0.00     0.016 A 
ATOM      2  C   UNL     1       3.547  39.288   5.888  1.00  0.00     0.047 A 
ATOM      3  C   UNL     1       2.965  38.430   6.829  1.00  0.00     0.119 A 
ATOM      4  C   UNL     1       2.833  37.062   6.542  1.00  0.00     0.094 A 
ATOM      5  C   UNL     1       3.283  36.556   5.318  1.00  0.00     0.142 A 
ATOM      6  C   UNL     1       3.869  37.424   4.372  1.00  0.00     0.018 A 
ATOM      7  C   UNL     1       4.309  36.888   3.157  1.00  0.00     0.019 A 
ATOM      8  C   UNL     1       4.157  35.523   2.918  1.00  0.00     0.094 A 
ATOM      9  C   UNL     1       3.567  34.723   3.901  1.00  0.00     0.336 A 
ATOM     10  O   UNL     1       3.420  33.488   3.703  1.00  0.00    -0.246 OA
ATOM     11  O   UNL     1       3.156  35.258   5.048  1.00  0.00    -0.423 OA
ENDROOT
BRANCH   3  12
ATOM     12  O   UNL     1       2.520  38.945   8.044  1.00  0.00    -0.508 OA
ATOM     13  H   UNL     1       2.119  39.873   8.111  1.00  0.00     0.293 HD
ENDBRANCH   3  12
TORSDOF 1
ENDMDL
MODEL 6
REMARK VINA RESULT:    -5.583      1.527      4.211
REMARK INTER + INTRA:          -5.746
REMARK INTER:                  -5.746
REMARK INTRA:                   0.000
REMARK UNBOUND:                 0.000
REMARK SMILES O=c1ccc2ccc(O)cc2o1
REMARK SMILES IDX 6 1 7 2 8 3 10 4 11 5 5 6 4 7 3 8 2 9 1 10 12 11 9 12
REMARK H PARENT 9 13
REMARK Flexibility Score: inf
ROOT
ATOM      1  C   UNL     1       8.374  29.499   1.246  1.00  0.00     0.016 A 
ATOM      2  C   UNL     1       7.032  29.882   1.352  1.00  0.00     0.047 A 
ATOM      3  C   UNL     1       6.111  29.512   0.364  1.00  0.00     0.119 A 
ATOM      4  C   UNL     1       6.534  28.754  -0.739  1.00  0.00     0.094 A 
ATOM      5  C   UNL     1       7.874  28.368  -0.853  1.00  0.00     0.142 A 
ATOM      6  C   UNL     1       8.800  28.743   0.146  1.00  0.00     0.018 A 
ATOM      7  C   UNL     1      10.132  28.342   0.004  1.00  0.00     0.019 A 
ATOM      8  C   UNL     1      10.505  27.590  -1.110  1.00  0.00     0.094 A 
ATOM      9  C   UNL     1       9.534  27.256  -2.059  1.00  0.00     0.336 A 
ATOM     10  O   UNL     1       9.851  26.578  -3.071  1.00  0.00    -0.246 OA
ATOM     11  O   UNL     1       8.273  27.650  -1.900  1.00  0.00    -0.423 OA
ENDROOT
BRANCH   3  12
ATOM     12  O   UNL     1       4.780  29.902   0.487  1.00  0.00    -0.508 OA
ATOM     13  H   UNL     1       4.495  30.865   0.350  1.00  0.00     0.293 HD
ENDBRANCH   3  12
TORSDOF 1
ENDMDL
MODEL 7
REMARK VINA RESULT:    -5.578      1.776      4.870
REMARK INTER + INTRA:          -5.741
REMARK INTER:                  -5.741
REMARK INTRA:                   0.000
REMARK UNBOUND:                 0.000
REMARK SMILES O=c1ccc2ccc(O)cc2o1
REMARK SMILES IDX 6 1 7 2 8 3 10 4 11 5 5 6 4 7 3 8 2 9 1 10 12 11 9 12
REMARK H PARENT 9 13
REMARK Flexibility Score: inf
ROOT
ATOM      1  C   UNL     1       6.990  27.622  -1.573  1.00  0.00     0.016 A 
ATOM      2  C   UNL     1       5.895  28.320  -1.051  1.00  0.00     0.047 A 
ATOM      3  C   UNL     1       6.070  29.216   0.012  1.00  0.00     0.119 A 
ATOM      4  C   UNL     1       7.347  29.415   0.558  1.00  0.00     0.094 A 
ATOM      5  C   UNL     1       8.447  28.721   0.041  1.00  0.00     0.142 A 
ATOM      6  C   UNL     1       8.267  27.819  -1.030  1.00  0.00     0.018 A 
ATOM      7  C   UNL     1       9.386  27.140  -1.524  1.00  0.00     0.019 A 
ATOM      8  C   UNL     1      10.635  27.371  -0.950  1.00  0.00     0.094 A 
ATOM      9  C   UNL     1      10.737  28.279   0.109  1.00  0.00     0.336 A 
ATOM     10  O   UNL     1      11.857  28.500   0.641  1.00  0.00    -0.246 OA
ATOM     11  O   UNL     1       9.657  28.912   0.561  1.00  0.00    -0.423 OA
ENDROOT
BRANCH   3  12
ATOM     12  O   UNL     1       4.968  29.901   0.518  1.00  0.00    -0.508 OA
ATOM     13  H   UNL     1       5.023  30.882   0.767  1.00  0.00     0.293 HD
ENDBRANCH   3  12
TORSDOF 1
ENDMDL
MODEL 8
REMARK VINA RESULT:    -5.457      8.624     11.007
REMARK INTER + INTRA:          -5.616
REMARK INTER:                  -5.616
REMARK INTRA:                   0.000
REMARK UNBOUND:                 0.000
REMARK SMILES O=c1ccc2ccc(O)cc2o1
REMARK SMILES IDX 6 1 7 2 8 3 10 4 11 5 5 6 4 7 3 8 2 9 1 10 12 11 9 12
REMARK H PARENT 9 13
REMARK Flexibility Score: inf
ROOT
ATOM      1  C   UNL     1      -0.917  30.999   1.717  1.00  0.00     0.016 A 
ATOM      2  C   UNL     1      -1.462  32.104   2.382  1.00  0.00     0.047 A 
ATOM      3  C   UNL     1      -1.004  32.459   3.656  1.00  0.00     0.119 A 
ATOM      4  C   UNL     1       0.007  31.705   4.273  1.00  0.00     0.094 A 
ATOM      5  C   UNL     1       0.557  30.598   3.616  1.00  0.00     0.142 A 
ATOM      6  C   UNL     1       0.092  30.243   2.331  1.00  0.00     0.018 A 
ATOM      7  C   UNL     1       0.662  29.133   1.700  1.00  0.00     0.019 A 
ATOM      8  C   UNL     1       1.663  28.414   2.351  1.00  0.00     0.094 A 
ATOM      9  C   UNL     1       2.073  28.825   3.624  1.00  0.00     0.336 A 
ATOM     10  O   UNL     1       2.975  28.188   4.229  1.00  0.00    -0.246 OA
ATOM     11  O   UNL     1       1.514  29.885   4.203  1.00  0.00    -0.423 OA
ENDROOT
BRANCH   3  12
ATOM     12  O   UNL     1      -1.559  33.561   4.302  1.00  0.00    -0.508 OA
ATOM     13  H   UNL     1      -1.928  33.494   5.242  1.00  0.00     0.293 HD
ENDBRANCH   3  12
TORSDOF 1
ENDMDL
MODEL 9
REMARK VINA RESULT:    -5.450     10.227     11.887
REMARK INTER + INTRA:          -5.609
REMARK INTER:                  -5.609
REMARK INTRA:                   0.000
REMARK UNBOUND:                 0.000
REMARK SMILES O=c1ccc2ccc(O)cc2o1
REMARK SMILES IDX 6 1 7 2 8 3 10 4 11 5 5 6 4 7 3 8 2 9 1 10 12 11 9 12
REMARK H PARENT 9 13
REMARK Flexibility Score: inf
ROOT
ATOM      1  C   UNL     1       4.321  36.143   2.755  1.00  0.00     0.016 A 
ATOM      2  C   UNL     1       4.225  34.753   2.625  1.00  0.00     0.047 A 
ATOM      3  C   UNL     1       3.643  33.986   3.642  1.00  0.00     0.119 A 
ATOM      4  C   UNL     1       3.153  34.612   4.799  1.00  0.00     0.094 A 
ATOM      5  C   UNL     1       3.246  36.002   4.937  1.00  0.00     0.142 A 
ATOM      6  C   UNL     1       3.833  36.771   3.909  1.00  0.00     0.018 A 
ATOM      7  C   UNL     1       3.910  38.158   4.076  1.00  0.00     0.019 A 
ATOM      8  C   UNL     1       3.410  38.735   5.243  1.00  0.00     0.094 A 
ATOM      9  C   UNL     1       2.841  37.910   6.218  1.00  0.00     0.336 A 
ATOM     10  O   UNL     1       2.384  38.412   7.278  1.00  0.00    -0.246 OA
ATOM     11  O   UNL     1       2.780  36.593   6.034  1.00  0.00    -0.423 OA
ENDROOT
BRANCH   3  12
ATOM     12  O   UNL     1       3.557  32.603   3.494  1.00  0.00    -0.508 OA
ATOM     13  H   UNL     1       2.995  32.183   2.764  1.00  0.00     0.293 HD
ENDBRANCH   3  12
TORSDOF 1
ENDMDL
