MODEL 1
REMARK VINA RESULT:    -8.381      0.000      0.000
REMARK INTER + INTRA:         -10.233
REMARK INTER:                 -10.096
REMARK INTRA:                  -0.137
REMARK UNBOUND:                -0.137
REMARK SMILES O=c1c(O)c(-c2ccc(O)cc2O)oc2cc(O)cc(O)c12
REMARK SMILES IDX 5 1 3 2 2 3 1 4 22 5 20 6 19 7 17 8 16 9 15 10 14 11 6 12
REMARK SMILES IDX 8 13 7 14 9 15 11 16 12 17 10 18 13 20 4 22 21 24 18 26
REMARK H PARENT 10 19 13 21 4 23 21 25 18 27
REMARK Flexibility Score: inf
ROOT
ATOM      1  C   UNL     1      17.105  22.427  40.301  1.00  0.00     0.184 A 
ATOM      2  C   UNL     1      16.774  23.448  39.397  1.00  0.00     0.208 A 
ATOM      3  C   UNL     1      15.688  24.288  39.687  1.00  0.00     0.238 A 
ATOM      4  O   UNL     1      15.359  25.163  38.843  1.00  0.00    -0.285 OA
ATOM      5  C   UNL     1      14.965  24.114  40.893  1.00  0.00     0.111 A 
ATOM      6  C   UNL     1      13.871  24.932  41.308  1.00  0.00     0.134 A 
ATOM      7  C   UNL     1      13.154  24.591  42.461  1.00  0.00     0.093 A 
ATOM      8  C   UNL     1      13.528  23.503  43.248  1.00  0.00     0.123 A 
ATOM      9  C   UNL     1      14.631  22.730  42.882  1.00  0.00     0.094 A 
ATOM     10  C   UNL     1      15.345  23.023  41.718  1.00  0.00     0.146 A 
ATOM     11  O   UNL     1      16.379  22.254  41.398  1.00  0.00    -0.451 OA
ENDROOT
BRANCH   1  12
ATOM     12  C   UNL     1      18.253  21.527  40.059  1.00  0.00     0.063 A 
ATOM     13  C   UNL     1      20.601  21.253  39.479  1.00  0.00     0.047 A 
ATOM     14  C   UNL     1      19.486  22.073  39.660  1.00  0.00     0.020 A 
ATOM     15  C   UNL     1      20.503  19.875  39.700  1.00  0.00     0.119 A 
ATOM     16  C   UNL     1      19.282  19.321  40.099  1.00  0.00     0.093 A 
ATOM     17  C   UNL     1      18.154  20.132  40.274  1.00  0.00     0.130 A 
BRANCH  15  18
ATOM     18  O   UNL     1      21.609  19.047  39.528  1.00  0.00    -0.508 OA
ATOM     19  H   UNL     1      21.567  18.057  39.738  1.00  0.00     0.293 HD
ENDBRANCH  15  18
BRANCH  17  20
ATOM     20  O   UNL     1      16.952  19.521  40.637  1.00  0.00    -0.507 OA
ATOM     21  H   UNL     1      16.127  20.040  40.906  1.00  0.00     0.293 HD
ENDBRANCH  17  20
ENDBRANCH   1  12
BRANCH   2  22
ATOM     22  O   UNL     1      17.508  23.599  38.217  1.00  0.00    -0.502 OA
ATOM     23  H   UNL     1      18.414  23.167  38.082  1.00  0.00     0.293 HD
ENDBRANCH   2  22
BRANCH   6  24
ATOM     24  O   UNL     1      13.470  26.096  40.645  1.00  0.00    -0.507 OA
ATOM     25  H   UNL     1      12.689  26.157  40.010  1.00  0.00     0.293 HD
ENDBRANCH   6  24
BRANCH   8  26
ATOM     26  O   UNL     1      12.799  23.203  44.396  1.00  0.00    -0.508 OA
ATOM     27  H   UNL     1      13.237  23.184  45.311  1.00  0.00     0.293 HD
ENDBRANCH   8  26
TORSDOF 6
ENDMDL
MODEL 2
REMARK VINA RESULT:    -7.673      0.823      1.512
REMARK INTER + INTRA:          -9.380
REMARK INTER:                  -9.219
REMARK INTRA:                  -0.161
REMARK UNBOUND:                -0.137
REMARK SMILES O=c1c(O)c(-c2ccc(O)cc2O)oc2cc(O)cc(O)c12
REMARK SMILES IDX 5 1 3 2 2 3 1 4 22 5 20 6 19 7 17 8 16 9 15 10 14 11 6 12
REMARK SMILES IDX 8 13 7 14 9 15 11 16 12 17 10 18 13 20 4 22 21 24 18 26
REMARK H PARENT 10 19 13 21 4 23 21 25 18 27
REMARK Flexibility Score: inf
ROOT
ATOM      1  C   UNL     1      16.765  22.478  40.623  1.00  0.00     0.184 A 
ATOM      2  C   UNL     1      16.411  23.497  39.725  1.00  0.00     0.208 A 
ATOM      3  C   UNL     1      15.325  24.331  40.035  1.00  0.00     0.238 A 
ATOM      4  O   UNL     1      14.975  25.203  39.197  1.00  0.00    -0.285 OA
ATOM      5  C   UNL     1      14.626  24.152  41.254  1.00  0.00     0.111 A 
ATOM      6  C   UNL     1      13.535  24.964  41.690  1.00  0.00     0.134 A 
ATOM      7  C   UNL     1      12.842  24.619  42.855  1.00  0.00     0.093 A 
ATOM      8  C   UNL     1      13.236  23.533  43.636  1.00  0.00     0.123 A 
ATOM      9  C   UNL     1      14.337  22.767  43.250  1.00  0.00     0.094 A 
ATOM     10  C   UNL     1      15.028  23.064  42.072  1.00  0.00     0.146 A 
ATOM     11  O   UNL     1      16.061  22.301  41.733  1.00  0.00    -0.451 OA
ENDROOT
BRANCH   1  12
ATOM     12  C   UNL     1      17.914  21.585  40.360  1.00  0.00     0.063 A 
ATOM     13  C   UNL     1      18.756  19.338  39.954  1.00  0.00     0.047 A 
ATOM     14  C   UNL     1      17.700  20.199  40.257  1.00  0.00     0.020 A 
ATOM     15  C   UNL     1      20.042  19.849  39.744  1.00  0.00     0.119 A 
ATOM     16  C   UNL     1      20.265  21.226  39.843  1.00  0.00     0.093 A 
ATOM     17  C   UNL     1      19.216  22.099  40.156  1.00  0.00     0.130 A 
BRANCH  15  18
ATOM     18  O   UNL     1      21.102  19.001  39.437  1.00  0.00    -0.508 OA
ATOM     19  H   UNL     1      21.598  19.071  38.556  1.00  0.00     0.293 HD
ENDBRANCH  15  18
BRANCH  17  20
ATOM     20  O   UNL     1      19.505  23.460  40.279  1.00  0.00    -0.507 OA
ATOM     21  H   UNL     1      19.883  23.871  41.122  1.00  0.00     0.293 HD
ENDBRANCH  17  20
ENDBRANCH   1  12
BRANCH   2  22
ATOM     22  O   UNL     1      17.122  23.652  38.531  1.00  0.00    -0.502 OA
ATOM     23  H   UNL     1      18.134  23.639  38.498  1.00  0.00     0.293 HD
ENDBRANCH   2  22
BRANCH   6  24
ATOM     24  O   UNL     1      13.115  26.125  41.034  1.00  0.00    -0.507 OA
ATOM     25  H   UNL     1      12.525  26.143  40.216  1.00  0.00     0.293 HD
ENDBRANCH   6  24
BRANCH   8  26
ATOM     26  O   UNL     1      12.532  23.229  44.797  1.00  0.00    -0.508 OA
ATOM     27  H   UNL     1      12.995  23.168  45.697  1.00  0.00     0.293 HD
ENDBRANCH   8  26
TORSDOF 6
ENDMDL
MODEL 3
REMARK VINA RESULT:    -7.320      1.264      6.377
REMARK INTER + INTRA:          -8.954
REMARK INTER:                  -9.166
REMARK INTRA:                   0.211
REMARK UNBOUND:                -0.137
REMARK SMILES O=c1c(O)c(-c2ccc(O)cc2O)oc2cc(O)cc(O)c12
REMARK SMILES IDX 5 1 3 2 2 3 1 4 22 5 20 6 19 7 17 8 16 9 15 10 14 11 6 12
REMARK SMILES IDX 8 13 7 14 9 15 11 16 12 17 10 18 13 20 4 22 21 24 18 26
REMARK H PARENT 10 19 13 21 4 23 21 25 18 27
REMARK Flexibility Score: inf
ROOT
ATOM      1  C   UNL     1      16.359  23.156  40.551  1.00  0.00     0.184 A 
ATOM      2  C   UNL     1      16.857  23.989  39.538  1.00  0.00     0.208 A 
ATOM      3  C   UNL     1      17.993  23.585  38.820  1.00  0.00     0.238 A 
ATOM      4  O   UNL     1      18.470  24.365  37.955  1.00  0.00    -0.285 OA
ATOM      5  C   UNL     1      18.599  22.337  39.107  1.00  0.00     0.111 A 
ATOM      6  C   UNL     1      19.732  21.808  38.416  1.00  0.00     0.134 A 
ATOM      7  C   UNL     1      20.321  20.621  38.866  1.00  0.00     0.093 A 
ATOM      8  C   UNL     1      19.784  19.909  39.938  1.00  0.00     0.123 A 
ATOM      9  C   UNL     1      18.643  20.387  40.584  1.00  0.00     0.094 A 
ATOM     10  C   UNL     1      18.053  21.588  40.182  1.00  0.00     0.146 A 
ATOM     11  O   UNL     1      16.977  22.016  40.833  1.00  0.00    -0.451 OA
ENDROOT
BRANCH   1  12
ATOM     12  C   UNL     1      15.152  23.518  41.324  1.00  0.00     0.063 A 
ATOM     13  C   UNL     1      13.008  24.665  41.423  1.00  0.00     0.047 A 
ATOM     14  C   UNL     1      14.183  24.352  40.738  1.00  0.00     0.020 A 
ATOM     15  C   UNL     1      12.780  24.146  42.702  1.00  0.00     0.119 A 
ATOM     16  C   UNL     1      13.736  23.315  43.294  1.00  0.00     0.093 A 
ATOM     17  C   UNL     1      14.924  23.001  42.621  1.00  0.00     0.130 A 
BRANCH  15  18
ATOM     18  O   UNL     1      11.610  24.447  43.394  1.00  0.00    -0.508 OA
ATOM     19  H   UNL     1      10.726  24.567  42.912  1.00  0.00     0.293 HD
ENDBRANCH  15  18
BRANCH  17  20
ATOM     20  O   UNL     1      15.860  22.197  43.275  1.00  0.00    -0.507 OA
ATOM     21  H   UNL     1      16.662  22.570  43.766  1.00  0.00     0.293 HD
ENDBRANCH  17  20
ENDBRANCH   1  12
BRANCH   2  22
ATOM     22  O   UNL     1      16.235  25.213  39.274  1.00  0.00    -0.502 OA
ATOM     23  H   UNL     1      16.577  26.088  39.654  1.00  0.00     0.293 HD
ENDBRANCH   2  22
BRANCH   6  24
ATOM     24  O   UNL     1      20.294  22.391  37.276  1.00  0.00    -0.507 OA
ATOM     25  H   UNL     1      21.245  22.257  36.971  1.00  0.00     0.293 HD
ENDBRANCH   6  24
BRANCH   8  26
ATOM     26  O   UNL     1      20.388  18.724  40.347  1.00  0.00    -0.508 OA
ATOM     27  H   UNL     1      21.095  18.713  41.074  1.00  0.00     0.293 HD
ENDBRANCH   8  26
TORSDOF 6
ENDMDL
MODEL 4
REMARK VINA RESULT:    -7.120     14.547     16.460
REMARK INTER + INTRA:          -8.714
REMARK INTER:                  -8.298
REMARK INTRA:                  -0.416
REMARK UNBOUND:                -0.137
REMARK SMILES O=c1c(O)c(-c2ccc(O)cc2O)oc2cc(O)cc(O)c12
REMARK SMILES IDX 5 1 3 2 2 3 1 4 22 5 20 6 19 7 17 8 16 9 15 10 14 11 6 12
REMARK SMILES IDX 8 13 7 14 9 15 11 16 12 17 10 18 13 20 4 22 21 24 18 26
REMARK H PARENT 10 19 13 21 4 23 21 25 18 27
REMARK Flexibility Score: inf
ROOT
ATOM      1  C   UNL     1      29.071  12.419  38.299  1.00  0.00     0.184 A 
ATOM      2  C   UNL     1      29.802  13.277  37.464  1.00  0.00     0.208 A 
ATOM      3  C   UNL     1      29.193  13.780  36.304  1.00  0.00     0.238 A 
ATOM      4  O   UNL     1      29.875  14.500  35.528  1.00  0.00    -0.285 OA
ATOM      5  C   UNL     1      27.849  13.440  36.010  1.00  0.00     0.111 A 
ATOM      6  C   UNL     1      27.119  13.923  34.883  1.00  0.00     0.134 A 
ATOM      7  C   UNL     1      25.837  13.424  34.626  1.00  0.00     0.093 A 
ATOM      8  C   UNL     1      25.232  12.510  35.489  1.00  0.00     0.123 A 
ATOM      9  C   UNL     1      25.915  12.074  36.625  1.00  0.00     0.094 A 
ATOM     10  C   UNL     1      27.210  12.526  36.889  1.00  0.00     0.146 A 
ATOM     11  O   UNL     1      27.831  12.076  37.973  1.00  0.00    -0.451 OA
ENDROOT
BRANCH   1  12
ATOM     12  C   UNL     1      29.652  11.877  39.546  1.00  0.00     0.063 A 
ATOM     13  C   UNL     1      29.981  12.074  41.950  1.00  0.00     0.047 A 
ATOM     14  C   UNL     1      29.491  12.589  40.748  1.00  0.00     0.020 A 
ATOM     15  C   UNL     1      30.634  10.837  41.970  1.00  0.00     0.119 A 
ATOM     16  C   UNL     1      30.799  10.120  40.781  1.00  0.00     0.093 A 
ATOM     17  C   UNL     1      30.321  10.630  39.567  1.00  0.00     0.130 A 
BRANCH  15  18
ATOM     18  O   UNL     1      31.123  10.310  43.162  1.00  0.00    -0.508 OA
ATOM     19  H   UNL     1      31.240  10.887  43.987  1.00  0.00     0.293 HD
ENDBRANCH  15  18
BRANCH  17  20
ATOM     20  O   UNL     1      30.545   9.889  38.405  1.00  0.00    -0.507 OA
ATOM     21  H   UNL     1      31.310   9.233  38.307  1.00  0.00     0.293 HD
ENDBRANCH  17  20
ENDBRANCH   1  12
BRANCH   2  22
ATOM     22  O   UNL     1      31.125  13.599  37.782  1.00  0.00    -0.502 OA
ATOM     23  H   UNL     1      31.883  12.935  37.681  1.00  0.00     0.293 HD
ENDBRANCH   2  22
BRANCH   6  24
ATOM     24  O   UNL     1      27.592  14.906  34.007  1.00  0.00    -0.507 OA
ATOM     25  H   UNL     1      27.157  15.803  33.859  1.00  0.00     0.293 HD
ENDBRANCH   6  24
BRANCH   8  26
ATOM     26  O   UNL     1      23.949  12.046  35.210  1.00  0.00    -0.508 OA
ATOM     27  H   UNL     1      23.175  12.685  35.067  1.00  0.00     0.293 HD
ENDBRANCH   8  26
TORSDOF 6
ENDMDL
MODEL 5
REMARK VINA RESULT:    -7.078     15.577     18.586
REMARK INTER + INTRA:          -8.663
REMARK INTER:                  -8.379
REMARK INTRA:                  -0.284
REMARK UNBOUND:                -0.137
REMARK SMILES O=c1c(O)c(-c2ccc(O)cc2O)oc2cc(O)cc(O)c12
REMARK SMILES IDX 5 1 3 2 2 3 1 4 22 5 20 6 19 7 17 8 16 9 15 10 14 11 6 12
REMARK SMILES IDX 8 13 7 14 9 15 11 16 12 17 10 18 13 20 4 22 21 24 18 26
REMARK H PARENT 10 19 13 21 4 23 21 25 18 27
REMARK Flexibility Score: inf
ROOT
ATOM      1  C   UNL     1      30.189  11.430  37.899  1.00  0.00     0.184 A 
ATOM      2  C   UNL     1      30.427  10.086  37.575  1.00  0.00     0.208 A 
ATOM      3  C   UNL     1      30.724   9.180  38.605  1.00  0.00     0.238 A 
ATOM      4  O   UNL     1      30.996   7.989  38.300  1.00  0.00    -0.285 OA
ATOM      5  C   UNL     1      30.750   9.625  39.949  1.00  0.00     0.111 A 
ATOM      6  C   UNL     1      31.002   8.786  41.076  1.00  0.00     0.134 A 
ATOM      7  C   UNL     1      31.125   9.359  42.348  1.00  0.00     0.093 A 
ATOM      8  C   UNL     1      30.943  10.727  42.545  1.00  0.00     0.123 A 
ATOM      9  C   UNL     1      30.640  11.548  41.458  1.00  0.00     0.094 A 
ATOM     10  C   UNL     1      30.546  11.013  40.171  1.00  0.00     0.146 A 
ATOM     11  O   UNL     1      30.271  11.831  39.161  1.00  0.00    -0.451 OA
ENDROOT
BRANCH   1  12
ATOM     12  C   UNL     1      29.849  12.425  36.859  1.00  0.00     0.063 A 
ATOM     13  C   UNL     1      30.434  13.555  34.784  1.00  0.00     0.047 A 
ATOM     14  C   UNL     1      30.754  12.662  35.810  1.00  0.00     0.020 A 
ATOM     15  C   UNL     1      29.203  14.218  34.789  1.00  0.00     0.119 A 
ATOM     16  C   UNL     1      28.295  13.988  35.827  1.00  0.00     0.093 A 
ATOM     17  C   UNL     1      28.607  13.104  36.866  1.00  0.00     0.130 A 
BRANCH  15  18
ATOM     18  O   UNL     1      28.871  15.107  33.770  1.00  0.00    -0.508 OA
ATOM     19  H   UNL     1      29.502  15.287  32.998  1.00  0.00     0.293 HD
ENDBRANCH  15  18
BRANCH  17  20
ATOM     20  O   UNL     1      27.678  12.941  37.896  1.00  0.00    -0.507 OA
ATOM     21  H   UNL     1      27.871  13.186  38.859  1.00  0.00     0.293 HD
ENDBRANCH  17  20
ENDBRANCH   1  12
BRANCH   2  22
ATOM     22  O   UNL     1      30.389   9.674  36.240  1.00  0.00    -0.502 OA
ATOM     23  H   UNL     1      30.091  10.287  35.491  1.00  0.00     0.293 HD
ENDBRANCH   2  22
BRANCH   6  24
ATOM     24  O   UNL     1      31.110   7.394  41.006  1.00  0.00    -0.507 OA
ATOM     25  H   UNL     1      30.713   6.751  41.674  1.00  0.00     0.293 HD
ENDBRANCH   6  24
BRANCH   8  26
ATOM     26  O   UNL     1      31.058  11.258  43.826  1.00  0.00    -0.508 OA
ATOM     27  H   UNL     1      31.064  12.260  43.986  1.00  0.00     0.293 HD
ENDBRANCH   8  26
TORSDOF 6
ENDMDL
MODEL 6
REMARK VINA RESULT:    -6.992      1.542      6.946
REMARK INTER + INTRA:          -8.560
REMARK INTER:                  -8.197
REMARK INTRA:                  -0.363
REMARK UNBOUND:                -0.137
REMARK SMILES O=c1c(O)c(-c2ccc(O)cc2O)oc2cc(O)cc(O)c12
REMARK SMILES IDX 5 1 3 2 2 3 1 4 22 5 20 6 19 7 17 8 16 9 15 10 14 11 6 12
REMARK SMILES IDX 8 13 7 14 9 15 11 16 12 17 10 18 13 20 4 22 21 24 18 26
REMARK H PARENT 10 19 13 21 4 23 21 25 18 27
REMARK Flexibility Score: inf
ROOT
ATOM      1  C   UNL     1      17.006  22.086  40.805  1.00  0.00     0.184 A 
ATOM      2  C   UNL     1      17.145  20.700  40.634  1.00  0.00     0.208 A 
ATOM      3  C   UNL     1      18.361  20.191  40.151  1.00  0.00     0.238 A 
ATOM      4  O   UNL     1      18.456  18.953  39.942  1.00  0.00    -0.285 OA
ATOM      5  C   UNL     1      19.433  21.075  39.875  1.00  0.00     0.111 A 
ATOM      6  C   UNL     1      20.723  20.666  39.419  1.00  0.00     0.134 A 
ATOM      7  C   UNL     1      21.667  21.636  39.061  1.00  0.00     0.093 A 
ATOM      8  C   UNL     1      21.393  22.996  39.202  1.00  0.00     0.123 A 
ATOM      9  C   UNL     1      20.156  23.405  39.700  1.00  0.00     0.094 A 
ATOM     10  C   UNL     1      19.180  22.462  40.032  1.00  0.00     0.146 A 
ATOM     11  O   UNL     1      18.010  22.895  40.489  1.00  0.00    -0.451 OA
ENDROOT
BRANCH   1  12
ATOM     12  C   UNL     1      15.758  22.676  41.332  1.00  0.00     0.063 A 
ATOM     13  C   UNL     1      14.215  22.974  43.190  1.00  0.00     0.047 A 
ATOM     14  C   UNL     1      15.360  22.386  42.649  1.00  0.00     0.020 A 
ATOM     15  C   UNL     1      13.454  23.866  42.427  1.00  0.00     0.119 A 
ATOM     16  C   UNL     1      13.842  24.162  41.116  1.00  0.00     0.093 A 
ATOM     17  C   UNL     1      14.982  23.572  40.558  1.00  0.00     0.130 A 
BRANCH  15  18
ATOM     18  O   UNL     1      12.313  24.462  42.957  1.00  0.00    -0.508 OA
ATOM     19  H   UNL     1      11.631  24.920  42.365  1.00  0.00     0.293 HD
ENDBRANCH  15  18
BRANCH  17  20
ATOM     20  O   UNL     1      15.301  23.876  39.233  1.00  0.00    -0.507 OA
ATOM     21  H   UNL     1      14.752  23.557  38.445  1.00  0.00     0.293 HD
ENDBRANCH  17  20
ENDBRANCH   1  12
BRANCH   2  22
ATOM     22  O   UNL     1      16.071  19.852  40.920  1.00  0.00    -0.502 OA
ATOM     23  H   UNL     1      15.718  19.721  41.860  1.00  0.00     0.293 HD
ENDBRANCH   2  22
BRANCH   6  24
ATOM     24  O   UNL     1      21.133  19.332  39.328  1.00  0.00    -0.507 OA
ATOM     25  H   UNL     1      20.738  18.571  39.858  1.00  0.00     0.293 HD
ENDBRANCH   6  24
BRANCH   8  26
ATOM     26  O   UNL     1      22.363  23.931  38.850  1.00  0.00    -0.508 OA
ATOM     27  H   UNL     1      23.096  24.203  39.496  1.00  0.00     0.293 HD
ENDBRANCH   8  26
TORSDOF 6
ENDMDL
MODEL 7
REMARK VINA RESULT:    -6.707     14.214     15.382
REMARK INTER + INTRA:          -8.217
REMARK INTER:                  -8.107
REMARK INTRA:                  -0.110
REMARK UNBOUND:                -0.137
REMARK SMILES O=c1c(O)c(-c2ccc(O)cc2O)oc2cc(O)cc(O)c12
REMARK SMILES IDX 5 1 3 2 2 3 1 4 22 5 20 6 19 7 17 8 16 9 15 10 14 11 6 12
REMARK SMILES IDX 8 13 7 14 9 15 11 16 12 17 10 18 13 20 4 22 21 24 18 26
REMARK H PARENT 10 19 13 21 4 23 21 25 18 27
REMARK Flexibility Score: inf
ROOT
ATOM      1  C   UNL     1      24.798  12.149  34.848  1.00  0.00     0.184 A 
ATOM      2  C   UNL     1      25.359  13.225  34.144  1.00  0.00     0.208 A 
ATOM      3  C   UNL     1      26.508  13.848  34.654  1.00  0.00     0.238 A 
ATOM      4  O   UNL     1      26.970  14.851  34.049  1.00  0.00    -0.285 OA
ATOM      5  C   UNL     1      27.099  13.366  35.848  1.00  0.00     0.111 A 
ATOM      6  C   UNL     1      28.287  13.896  36.436  1.00  0.00     0.134 A 
ATOM      7  C   UNL     1      28.710  13.422  37.683  1.00  0.00     0.093 A 
ATOM      8  C   UNL     1      28.029  12.394  38.333  1.00  0.00     0.123 A 
ATOM      9  C   UNL     1      26.899  11.829  37.741  1.00  0.00     0.094 A 
ATOM     10  C   UNL     1      26.430  12.306  36.514  1.00  0.00     0.146 A 
ATOM     11  O   UNL     1      25.342  11.751  35.992  1.00  0.00    -0.451 OA
ENDROOT
BRANCH   1  12
ATOM     12  C   UNL     1      23.602  11.439  34.347  1.00  0.00     0.063 A 
ATOM     13  C   UNL     1      22.437  10.367  32.499  1.00  0.00     0.047 A 
ATOM     14  C   UNL     1      23.529  11.086  32.988  1.00  0.00     0.020 A 
ATOM     15  C   UNL     1      21.404   9.983  33.361  1.00  0.00     0.119 A 
ATOM     16  C   UNL     1      21.468  10.328  34.715  1.00  0.00     0.093 A 
ATOM     17  C   UNL     1      22.553  11.058  35.216  1.00  0.00     0.130 A 
BRANCH  15  18
ATOM     18  O   UNL     1      20.313   9.262  32.886  1.00  0.00    -0.508 OA
ATOM     19  H   UNL     1      19.725   9.619  32.143  1.00  0.00     0.293 HD
ENDBRANCH  15  18
BRANCH  17  20
ATOM     20  O   UNL     1      22.545  11.406  36.568  1.00  0.00    -0.507 OA
ATOM     21  H   UNL     1      21.802  11.943  36.997  1.00  0.00     0.293 HD
ENDBRANCH  17  20
ENDBRANCH   1  12
BRANCH   2  22
ATOM     22  O   UNL     1      24.757  13.675  32.965  1.00  0.00    -0.502 OA
ATOM     23  H   UNL     1      25.035  14.536  32.509  1.00  0.00     0.293 HD
ENDBRANCH   2  22
BRANCH   6  24
ATOM     24  O   UNL     1      29.096  14.862  35.829  1.00  0.00    -0.507 OA
ATOM     25  H   UNL     1      28.838  15.400  35.016  1.00  0.00     0.293 HD
ENDBRANCH   6  24
BRANCH   8  26
ATOM     26  O   UNL     1      28.489  11.936  39.565  1.00  0.00    -0.508 OA
ATOM     27  H   UNL     1      29.303  12.344  40.011  1.00  0.00     0.293 HD
ENDBRANCH   8  26
TORSDOF 6
ENDMDL
MODEL 8
REMARK VINA RESULT:    -6.690      1.380      6.405
REMARK INTER + INTRA:          -8.195
REMARK INTER:                  -8.335
REMARK INTRA:                   0.140
REMARK UNBOUND:                -0.137
REMARK SMILES O=c1c(O)c(-c2ccc(O)cc2O)oc2cc(O)cc(O)c12
REMARK SMILES IDX 5 1 3 2 2 3 1 4 22 5 20 6 19 7 17 8 16 9 15 10 14 11 6 12
REMARK SMILES IDX 8 13 7 14 9 15 11 16 12 17 10 18 13 20 4 22 21 24 18 26
REMARK H PARENT 10 19 13 21 4 23 21 25 18 27
REMARK Flexibility Score: inf
ROOT
ATOM      1  C   UNL     1      14.944  23.400  41.721  1.00  0.00     0.184 A 
ATOM      2  C   UNL     1      14.941  24.369  40.706  1.00  0.00     0.208 A 
ATOM      3  C   UNL     1      15.932  24.318  39.713  1.00  0.00     0.238 A 
ATOM      4  O   UNL     1      15.960  25.226  38.841  1.00  0.00    -0.285 OA
ATOM      5  C   UNL     1      16.896  23.280  39.734  1.00  0.00     0.111 A 
ATOM      6  C   UNL     1      17.922  23.108  38.756  1.00  0.00     0.134 A 
ATOM      7  C   UNL     1      18.895  22.119  38.944  1.00  0.00     0.093 A 
ATOM      8  C   UNL     1      18.843  21.255  40.037  1.00  0.00     0.123 A 
ATOM      9  C   UNL     1      17.812  21.377  40.969  1.00  0.00     0.094 A 
ATOM     10  C   UNL     1      16.847  22.378  40.828  1.00  0.00     0.146 A 
ATOM     11  O   UNL     1      15.890  22.470  41.745  1.00  0.00    -0.451 OA
ENDROOT
BRANCH   1  12
ATOM     12  C   UNL     1      13.912  23.390  42.779  1.00  0.00     0.063 A 
ATOM     13  C   UNL     1      11.613  23.820  43.453  1.00  0.00     0.047 A 
ATOM     14  C   UNL     1      12.622  23.869  42.489  1.00  0.00     0.020 A 
ATOM     15  C   UNL     1      11.875  23.285  44.718  1.00  0.00     0.119 A 
ATOM     16  C   UNL     1      13.153  22.805  45.017  1.00  0.00     0.093 A 
ATOM     17  C   UNL     1      14.177  22.858  44.063  1.00  0.00     0.130 A 
BRANCH  15  18
ATOM     18  O   UNL     1      10.875  23.226  45.686  1.00  0.00    -0.508 OA
ATOM     19  H   UNL     1      10.494  22.341  46.000  1.00  0.00     0.293 HD
ENDBRANCH  15  18
BRANCH  17  20
ATOM     20  O   UNL     1      15.444  22.398  44.429  1.00  0.00    -0.507 OA
ATOM     21  H   UNL     1      16.291  22.667  43.945  1.00  0.00     0.293 HD
ENDBRANCH  17  20
ENDBRANCH   1  12
BRANCH   2  22
ATOM     22  O   UNL     1      13.974  25.379  40.709  1.00  0.00    -0.502 OA
ATOM     23  H   UNL     1      13.054  25.250  40.306  1.00  0.00     0.293 HD
ENDBRANCH   2  22
BRANCH   6  24
ATOM     24  O   UNL     1      18.014  23.857  37.579  1.00  0.00    -0.507 OA
ATOM     25  H   UNL     1      17.282  23.941  36.891  1.00  0.00     0.293 HD
ENDBRANCH   6  24
BRANCH   8  26
ATOM     26  O   UNL     1      19.819  20.272  40.183  1.00  0.00    -0.508 OA
ATOM     27  H   UNL     1      20.751  20.391  39.801  1.00  0.00     0.293 HD
ENDBRANCH   8  26
TORSDOF 6
ENDMDL
MODEL 9
REMARK VINA RESULT:    -6.410     13.771     17.392
REMARK INTER + INTRA:          -7.859
REMARK INTER:                  -7.575
REMARK INTRA:                  -0.283
REMARK UNBOUND:                -0.137
REMARK SMILES O=c1c(O)c(-c2ccc(O)cc2O)oc2cc(O)cc(O)c12
REMARK SMILES IDX 5 1 3 2 2 3 1 4 22 5 20 6 19 7 17 8 16 9 15 10 14 11 6 12
REMARK SMILES IDX 8 13 7 14 9 15 11 16 12 17 10 18 13 20 4 22 21 24 18 26
REMARK H PARENT 10 19 13 21 4 23 21 25 18 27
REMARK Flexibility Score: inf
ROOT
ATOM      1  C   UNL     1      28.940  10.478  37.193  1.00  0.00     0.184 A 
ATOM      2  C   UNL     1      29.764  11.225  36.338  1.00  0.00     0.208 A 
ATOM      3  C   UNL     1      29.201  12.272  35.591  1.00  0.00     0.238 A 
ATOM      4  O   UNL     1      29.934  12.897  34.780  1.00  0.00    -0.285 OA
ATOM      5  C   UNL     1      27.825  12.577  35.734  1.00  0.00     0.111 A 
ATOM      6  C   UNL     1      27.156  13.641  35.056  1.00  0.00     0.134 A 
ATOM      7  C   UNL     1      25.768  13.772  35.180  1.00  0.00     0.093 A 
ATOM      8  C   UNL     1      25.033  12.921  36.004  1.00  0.00     0.123 A 
ATOM      9  C   UNL     1      25.685  11.913  36.716  1.00  0.00     0.094 A 
ATOM     10  C   UNL     1      27.064  11.733  36.585  1.00  0.00     0.146 A 
ATOM     11  O   UNL     1      27.644  10.753  37.268  1.00  0.00    -0.451 OA
ENDROOT
BRANCH   1  12
ATOM     12  C   UNL     1      29.482   9.380  38.021  1.00  0.00     0.063 A 
ATOM     13  C   UNL     1      29.656   6.992  38.461  1.00  0.00     0.047 A 
ATOM     14  C   UNL     1      29.116   8.053  37.731  1.00  0.00     0.020 A 
ATOM     15  C   UNL     1      30.575   7.240  39.486  1.00  0.00     0.119 A 
ATOM     16  C   UNL     1      30.947   8.555  39.781  1.00  0.00     0.093 A 
ATOM     17  C   UNL     1      30.405   9.629  39.064  1.00  0.00     0.130 A 
BRANCH  15  18
ATOM     18  O   UNL     1      31.125   6.190  40.217  1.00  0.00    -0.508 OA
ATOM     19  H   UNL     1      30.966   6.099  41.214  1.00  0.00     0.293 HD
ENDBRANCH  15  18
BRANCH  17  20
ATOM     20  O   UNL     1      30.784  10.923  39.426  1.00  0.00    -0.507 OA
ATOM     21  H   UNL     1      30.317  11.752  39.083  1.00  0.00     0.293 HD
ENDBRANCH  17  20
ENDBRANCH   1  12
BRANCH   2  22
ATOM     22  O   UNL     1      31.120  10.904  36.221  1.00  0.00    -0.502 OA
ATOM     23  H   UNL     1      31.841  11.407  36.724  1.00  0.00     0.293 HD
ENDBRANCH   2  22
BRANCH   6  24
ATOM     24  O   UNL     1      27.808  14.604  34.280  1.00  0.00    -0.507 OA
ATOM     25  H   UNL     1      28.784  14.577  34.028  1.00  0.00     0.293 HD
ENDBRANCH   6  24
BRANCH   8  26
ATOM     26  O   UNL     1      23.656  13.092  36.115  1.00  0.00    -0.508 OA
ATOM     27  H   UNL     1      23.201  13.943  35.803  1.00  0.00     0.293 HD
ENDBRANCH   8  26
TORSDOF 6
ENDMDL
