MODEL 1
REMARK VINA RESULT:    -4.343      0.000      0.000
REMARK INTER + INTRA:         -13.114
REMARK INTER:                  -9.422
REMARK INTRA:                  -3.693
REMARK UNBOUND:                -3.693
REMARK SMILES CCCCCCCCCCCCCCCCCCCCCC(=O)[O-]
REMARK SMILES IDX 12 1 11 2 10 3 9 4 8 5 7 6 6 7 5 8 4 9 3 10 2 11 1 12 13 13
REMARK SMILES IDX 14 14 15 15 16 16 17 17 18 18 19 19 20 20 21 21 22 22 23 23
REMARK SMILES IDX 24 24
REMARK H PARENT
REMARK Flexibility Score: inf
ROOT
ATOM      1  C   UNL     1      40.311  27.467 226.547  1.00  0.00     0.000 C 
ENDROOT
BRANCH   1   2
ATOM      2  C   UNL     1      39.304  26.522 227.235  1.00  0.00     0.000 C 
BRANCH   2   3
ATOM      3  C   UNL     1      38.298  25.864 226.272  1.00  0.00     0.000 C 
BRANCH   3   4
ATOM      4  C   UNL     1      38.493  26.207 224.783  1.00  0.00    -0.000 C 
BRANCH   4   5
ATOM      5  C   UNL     1      37.543  25.475 223.816  1.00  0.00    -0.000 C 
BRANCH   5   6
ATOM      6  C   UNL     1      36.537  24.524 224.491  1.00  0.00    -0.000 C 
BRANCH   6   7
ATOM      7  C   UNL     1      36.401  23.160 223.780  1.00  0.00    -0.000 C 
BRANCH   7   8
ATOM      8  C   UNL     1      37.160  22.040 224.512  1.00  0.00    -0.000 C 
BRANCH   8   9
ATOM      9  C   UNL     1      37.549  22.428 225.948  1.00  0.00    -0.000 C 
BRANCH   9  10
ATOM     10  C   UNL     1      38.887  21.806 226.386  1.00  0.00    -0.000 C 
BRANCH  10  11
ATOM     11  C   UNL     1      39.578  22.616 227.494  1.00  0.00    -0.003 C 
ATOM     12  C   UNL     1      39.198  22.145 228.898  1.00  0.00     0.004 C 
ENDBRANCH  10  11
ENDBRANCH   9  10
ENDBRANCH   8   9
ENDBRANCH   7   8
ENDBRANCH   6   7
ENDBRANCH   5   6
ENDBRANCH   4   5
ENDBRANCH   3   4
ENDBRANCH   2   3
ENDBRANCH   1   2
BRANCH   1  13
ATOM     13  C   UNL     1      41.771  27.021 226.729  1.00  0.00     0.000 C 
BRANCH  13  14
ATOM     14  C   UNL     1      41.918  25.483 226.678  1.00  0.00     0.000 C 
BRANCH  14  15
ATOM     15  C   UNL     1      42.442  24.969 225.326  1.00  0.00     0.000 C 
BRANCH  15  16
ATOM     16  C   UNL     1      41.814  23.640 224.859  1.00  0.00     0.000 C 
BRANCH  16  17
ATOM     17  C   UNL     1      40.988  23.755 223.558  1.00  0.00     0.000 C 
BRANCH  17  18
ATOM     18  C   UNL     1      40.526  22.392 223.013  1.00  0.00     0.000 C 
BRANCH  18  19
ATOM     19  C   UNL     1      41.702  21.481 222.628  1.00  0.00     0.000 C 
BRANCH  19  20
ATOM     20  C   UNL     1      41.318  19.992 222.601  1.00  0.00     0.006 C 
BRANCH  20  21
ATOM     21  C   UNL     1      40.959  19.462 223.995  1.00  0.00     0.053 C 
BRANCH  21  22
ATOM     22  C   UNL     1      42.158  19.409 224.891  1.00  0.00     0.041 C 
ATOM     23  O   UNL     1      42.096  19.869 226.060  1.00  0.00    -0.550 OA
ATOM     24  O   UNL     1      43.336  18.821 224.444  1.00  0.00    -0.550 OA
ENDBRANCH  21  22
ENDBRANCH  20  21
ENDBRANCH  19  20
ENDBRANCH  18  19
ENDBRANCH  17  18
ENDBRANCH  16  17
ENDBRANCH  15  16
ENDBRANCH  14  15
ENDBRANCH  13  14
ENDBRANCH   1  13
TORSDOF 20
ENDMDL
MODEL 2
REMARK VINA RESULT:    -4.341      2.488      5.226
REMARK INTER + INTRA:         -13.108
REMARK INTER:                  -9.355
REMARK INTRA:                  -3.753
REMARK UNBOUND:                -3.693
REMARK SMILES CCCCCCCCCCCCCCCCCCCCCC(=O)[O-]
REMARK SMILES IDX 12 1 11 2 10 3 9 4 8 5 7 6 6 7 5 8 4 9 3 10 2 11 1 12 13 13
REMARK SMILES IDX 14 14 15 15 16 16 17 17 18 18 19 19 20 20 21 21 22 22 23 23
REMARK SMILES IDX 24 24
REMARK H PARENT
REMARK Flexibility Score: inf
ROOT
ATOM      1  C   UNL     1      37.912  25.712 224.102  1.00  0.00     0.000 C 
ENDROOT
BRANCH   1   2
ATOM      2  C   UNL     1      37.455  25.641 225.574  1.00  0.00     0.000 C 
BRANCH   2   3
ATOM      3  C   UNL     1      38.609  25.676 226.593  1.00  0.00     0.000 C 
BRANCH   3   4
ATOM      4  C   UNL     1      39.983  26.069 226.018  1.00  0.00    -0.000 C 
BRANCH   4   5
ATOM      5  C   UNL     1      41.151  25.158 226.440  1.00  0.00    -0.000 C 
BRANCH   5   6
ATOM      6  C   UNL     1      42.141  24.810 225.313  1.00  0.00    -0.000 C 
BRANCH   6   7
ATOM      7  C   UNL     1      41.938  23.397 224.724  1.00  0.00    -0.000 C 
BRANCH   7   8
ATOM      8  C   UNL     1      41.176  23.423 223.388  1.00  0.00    -0.000 C 
BRANCH   8   9
ATOM      9  C   UNL     1      41.252  22.083 222.636  1.00  0.00    -0.000 C 
BRANCH   9  10
ATOM     10  C   UNL     1      42.246  21.100 223.280  1.00  0.00    -0.000 C 
BRANCH  10  11
ATOM     11  C   UNL     1      41.589  19.763 223.657  1.00  0.00    -0.003 C 
ATOM     12  C   UNL     1      42.276  19.075 224.836  1.00  0.00     0.004 C 
ENDBRANCH  10  11
ENDBRANCH   9  10
ENDBRANCH   8   9
ENDBRANCH   7   8
ENDBRANCH   6   7
ENDBRANCH   5   6
ENDBRANCH   4   5
ENDBRANCH   3   4
ENDBRANCH   2   3
ENDBRANCH   1   2
BRANCH   1  13
ATOM     13  C   UNL     1      37.803  24.361 223.376  1.00  0.00     0.000 C 
BRANCH  13  14
ATOM     14  C   UNL     1      36.540  23.576 223.798  1.00  0.00     0.000 C 
BRANCH  14  15
ATOM     15  C   UNL     1      36.860  22.250 224.509  1.00  0.00     0.000 C 
BRANCH  15  16
ATOM     16  C   UNL     1      38.349  22.054 224.861  1.00  0.00     0.000 C 
BRANCH  16  17
ATOM     17  C   UNL     1      38.653  22.111 226.375  1.00  0.00     0.000 C 
BRANCH  17  18
ATOM     18  C   UNL     1      39.784  21.158 226.799  1.00  0.00     0.000 C 
BRANCH  18  19
ATOM     19  C   UNL     1      39.321  19.694 226.884  1.00  0.00     0.000 C 
BRANCH  19  20
ATOM     20  C   UNL     1      38.024  19.527 227.694  1.00  0.00     0.006 C 
BRANCH  20  21
ATOM     21  C   UNL     1      36.998  18.647 226.968  1.00  0.00     0.053 C 
BRANCH  21  22
ATOM     22  C   UNL     1      35.765  19.419 226.610  1.00  0.00     0.041 C 
ATOM     23  O   UNL     1      34.898  18.911 225.852  1.00  0.00    -0.550 OA
ATOM     24  O   UNL     1      35.558  20.687 227.142  1.00  0.00    -0.550 OA
ENDBRANCH  21  22
ENDBRANCH  20  21
ENDBRANCH  19  20
ENDBRANCH  18  19
ENDBRANCH  17  18
ENDBRANCH  16  17
ENDBRANCH  15  16
ENDBRANCH  14  15
ENDBRANCH  13  14
ENDBRANCH   1  13
TORSDOF 20
ENDMDL
MODEL 3
REMARK VINA RESULT:    -4.227      2.615      5.176
REMARK INTER + INTRA:         -12.862
REMARK INTER:                  -9.656
REMARK INTRA:                  -3.206
REMARK UNBOUND:                -3.693
REMARK SMILES CCCCCCCCCCCCCCCCCCCCCC(=O)[O-]
REMARK SMILES IDX 12 1 11 2 10 3 9 4 8 5 7 6 6 7 5 8 4 9 3 10 2 11 1 12 13 13
REMARK SMILES IDX 14 14 15 15 16 16 17 17 18 18 19 19 20 20 21 21 22 22 23 23
REMARK SMILES IDX 24 24
REMARK H PARENT
REMARK Flexibility Score: inf
ROOT
ATOM      1  C   UNL     1      40.654  23.543 223.611  1.00  0.00     0.000 C 
ENDROOT
BRANCH   1   2
ATOM      2  C   UNL     1      41.849  23.463 224.585  1.00  0.00     0.000 C 
BRANCH   2   3
ATOM      3  C   UNL     1      41.446  23.288 226.062  1.00  0.00     0.000 C 
BRANCH   3   4
ATOM      4  C   UNL     1      40.284  22.309 226.315  1.00  0.00    -0.000 C 
BRANCH   4   5
ATOM      5  C   UNL     1      39.152  22.858 227.204  1.00  0.00    -0.000 C 
BRANCH   5   6
ATOM      6  C   UNL     1      37.815  23.097 226.478  1.00  0.00    -0.000 C 
BRANCH   6   7
ATOM      7  C   UNL     1      37.375  24.577 226.462  1.00  0.00    -0.000 C 
BRANCH   7   8
ATOM      8  C   UNL     1      38.143  25.406 225.418  1.00  0.00    -0.000 C 
BRANCH   8   9
ATOM      9  C   UNL     1      37.451  25.418 224.045  1.00  0.00    -0.000 C 
BRANCH   9  10
ATOM     10  C   UNL     1      36.069  24.742 224.074  1.00  0.00    -0.000 C 
BRANCH  10  11
ATOM     11  C   UNL     1      35.976  23.552 223.106  1.00  0.00    -0.003 C 
ATOM     12  C   UNL     1      36.805  23.751 221.837  1.00  0.00     0.004 C 
ENDBRANCH  10  11
ENDBRANCH   9  10
ENDBRANCH   8   9
ENDBRANCH   7   8
ENDBRANCH   6   7
ENDBRANCH   5   6
ENDBRANCH   4   5
ENDBRANCH   3   4
ENDBRANCH   2   3
ENDBRANCH   1   2
BRANCH   1  13
ATOM     13  C   UNL     1      40.623  22.379 222.607  1.00  0.00     0.000 C 
BRANCH  13  14
ATOM     14  C   UNL     1      41.901  21.512 222.683  1.00  0.00     0.000 C 
BRANCH  14  15
ATOM     15  C   UNL     1      41.607  20.013 222.860  1.00  0.00     0.000 C 
BRANCH  15  16
ATOM     16  C   UNL     1      42.444  19.321 223.955  1.00  0.00     0.000 C 
BRANCH  16  17
ATOM     17  C   UNL     1      41.691  19.112 225.288  1.00  0.00     0.000 C 
BRANCH  17  18
ATOM     18  C   UNL     1      40.182  18.878 225.099  1.00  0.00     0.000 C 
BRANCH  18  19
ATOM     19  C   UNL     1      39.594  17.931 226.157  1.00  0.00     0.000 C 
BRANCH  19  20
ATOM     20  C   UNL     1      38.211  18.383 226.657  1.00  0.00     0.006 C 
BRANCH  20  21
ATOM     21  C   UNL     1      37.641  19.533 225.818  1.00  0.00     0.053 C 
BRANCH  21  22
ATOM     22  C   UNL     1      36.144  19.567 225.873  1.00  0.00     0.041 C 
ATOM     23  O   UNL     1      35.558  20.310 226.702  1.00  0.00    -0.550 OA
ATOM     24  O   UNL     1      35.397  18.801 224.985  1.00  0.00    -0.550 OA
ENDBRANCH  21  22
ENDBRANCH  20  21
ENDBRANCH  19  20
ENDBRANCH  18  19
ENDBRANCH  17  18
ENDBRANCH  16  17
ENDBRANCH  15  16
ENDBRANCH  14  15
ENDBRANCH  13  14
ENDBRANCH   1  13
TORSDOF 20
ENDMDL
MODEL 4
REMARK VINA RESULT:    -4.187      2.199      5.107
REMARK INTER + INTRA:         -12.775
REMARK INTER:                  -8.738
REMARK INTRA:                  -4.037
REMARK UNBOUND:                -3.693
REMARK SMILES CCCCCCCCCCCCCCCCCCCCCC(=O)[O-]
REMARK SMILES IDX 12 1 11 2 10 3 9 4 8 5 7 6 6 7 5 8 4 9 3 10 2 11 1 12 13 13
REMARK SMILES IDX 14 14 15 15 16 16 17 17 18 18 19 19 20 20 21 21 22 22 23 23
REMARK SMILES IDX 24 24
REMARK H PARENT
REMARK Flexibility Score: inf
ROOT
ATOM      1  C   UNL     1      40.382  25.821 225.974  1.00  0.00     0.000 C 
ENDROOT
BRANCH   1   2
ATOM      2  C   UNL     1      41.223  24.781 226.744  1.00  0.00     0.000 C 
BRANCH   2   3
ATOM      3  C   UNL     1      40.538  23.411 226.904  1.00  0.00     0.000 C 
BRANCH   3   4
ATOM      4  C   UNL     1      41.491  22.221 227.123  1.00  0.00    -0.000 C 
BRANCH   4   5
ATOM      5  C   UNL     1      40.821  20.834 227.092  1.00  0.00    -0.000 C 
BRANCH   5   6
ATOM      6  C   UNL     1      41.381  19.867 226.033  1.00  0.00    -0.000 C 
BRANCH   6   7
ATOM      7  C   UNL     1      40.307  19.304 225.077  1.00  0.00    -0.000 C 
BRANCH   7   8
ATOM      8  C   UNL     1      40.762  19.324 223.608  1.00  0.00    -0.000 C 
BRANCH   8   9
ATOM      9  C   UNL     1      42.010  20.194 223.385  1.00  0.00    -0.000 C 
BRANCH   9  10
ATOM     10  C   UNL     1      41.709  21.457 222.560  1.00  0.00    -0.000 C 
BRANCH  10  11
ATOM     11  C   UNL     1      41.696  22.732 223.418  1.00  0.00    -0.003 C 
ATOM     12  C   UNL     1      40.574  23.696 223.033  1.00  0.00     0.004 C 
ENDBRANCH  10  11
ENDBRANCH   9  10
ENDBRANCH   8   9
ENDBRANCH   7   8
ENDBRANCH   6   7
ENDBRANCH   5   6
ENDBRANCH   4   5
ENDBRANCH   3   4
ENDBRANCH   2   3
ENDBRANCH   1   2
BRANCH   1  13
ATOM     13  C   UNL     1      39.092  26.212 226.713  1.00  0.00     0.000 C 
BRANCH  13  14
ATOM     14  C   UNL     1      37.826  25.741 225.961  1.00  0.00     0.000 C 
BRANCH  14  15
ATOM     15  C   UNL     1      37.916  25.941 224.439  1.00  0.00     0.000 C 
BRANCH  15  16
ATOM     16  C   UNL     1      36.795  25.250 223.634  1.00  0.00     0.000 C 
BRANCH  16  17
ATOM     17  C   UNL     1      36.316  23.912 224.240  1.00  0.00     0.000 C 
BRANCH  17  18
ATOM     18  C   UNL     1      37.109  22.698 223.724  1.00  0.00     0.000 C 
BRANCH  18  19
ATOM     19  C   UNL     1      37.866  21.967 224.846  1.00  0.00     0.000 C 
BRANCH  19  20
ATOM     20  C   UNL     1      37.138  22.040 226.199  1.00  0.00     0.006 C 
BRANCH  20  21
ATOM     21  C   UNL     1      37.188  20.707 226.955  1.00  0.00     0.053 C 
BRANCH  21  22
ATOM     22  C   UNL     1      36.361  19.657 226.278  1.00  0.00     0.041 C 
ATOM     23  O   UNL     1      35.109  19.772 226.227  1.00  0.00    -0.550 OA
ATOM     24  O   UNL     1      36.978  18.567 225.674  1.00  0.00    -0.550 OA
ENDBRANCH  21  22
ENDBRANCH  20  21
ENDBRANCH  19  20
ENDBRANCH  18  19
ENDBRANCH  17  18
ENDBRANCH  16  17
ENDBRANCH  15  16
ENDBRANCH  14  15
ENDBRANCH  13  14
ENDBRANCH   1  13
TORSDOF 20
ENDMDL
MODEL 5
REMARK VINA RESULT:    -4.139      2.555      4.508
REMARK INTER + INTRA:         -12.671
REMARK INTER:                  -9.032
REMARK INTRA:                  -3.639
REMARK UNBOUND:                -3.693
REMARK SMILES CCCCCCCCCCCCCCCCCCCCCC(=O)[O-]
REMARK SMILES IDX 12 1 11 2 10 3 9 4 8 5 7 6 6 7 5 8 4 9 3 10 2 11 1 12 13 13
REMARK SMILES IDX 14 14 15 15 16 16 17 17 18 18 19 19 20 20 21 21 22 22 23 23
REMARK SMILES IDX 24 24
REMARK H PARENT
REMARK Flexibility Score: inf
ROOT
ATOM      1  C   UNL     1      40.117  23.337 222.614  1.00  0.00     0.000 C 
ENDROOT
BRANCH   1   2
ATOM      2  C   UNL     1      38.644  23.554 223.021  1.00  0.00     0.000 C 
BRANCH   2   3
ATOM      3  C   UNL     1      38.129  22.554 224.073  1.00  0.00     0.000 C 
BRANCH   3   4
ATOM      4  C   UNL     1      36.947  23.049 224.927  1.00  0.00    -0.000 C 
BRANCH   4   5
ATOM      5  C   UNL     1      36.500  24.496 224.645  1.00  0.00    -0.000 C 
BRANCH   5   6
ATOM      6  C   UNL     1      37.036  25.545 225.637  1.00  0.00    -0.000 C 
BRANCH   6   7
ATOM      7  C   UNL     1      38.454  26.052 225.297  1.00  0.00    -0.000 C 
BRANCH   7   8
ATOM      8  C   UNL     1      39.407  25.979 226.503  1.00  0.00    -0.000 C 
BRANCH   8   9
ATOM      9  C   UNL     1      38.752  25.338 227.738  1.00  0.00    -0.000 C 
BRANCH   9  10
ATOM     10  C   UNL     1      39.565  24.152 228.288  1.00  0.00    -0.000 C 
BRANCH  10  11
ATOM     11  C   UNL     1      39.104  22.805 227.711  1.00  0.00    -0.003 C 
ATOM     12  C   UNL     1      40.253  21.983 227.128  1.00  0.00     0.004 C 
ENDBRANCH  10  11
ENDBRANCH   9  10
ENDBRANCH   8   9
ENDBRANCH   7   8
ENDBRANCH   6   7
ENDBRANCH   5   6
ENDBRANCH   4   5
ENDBRANCH   3   4
ENDBRANCH   2   3
ENDBRANCH   1   2
BRANCH   1  13
ATOM     13  C   UNL     1      41.085  23.425 223.805  1.00  0.00     0.000 C 
BRANCH  13  14
ATOM     14  C   UNL     1      42.024  22.198 223.881  1.00  0.00     0.000 C 
BRANCH  14  15
ATOM     15  C   UNL     1      41.932  21.287 222.645  1.00  0.00     0.000 C 
BRANCH  15  16
ATOM     16  C   UNL     1      41.516  19.833 222.951  1.00  0.00     0.000 C 
BRANCH  16  17
ATOM     17  C   UNL     1      40.494  19.698 224.103  1.00  0.00     0.000 C 
BRANCH  17  18
ATOM     18  C   UNL     1      40.990  18.796 225.247  1.00  0.00     0.000 C 
BRANCH  18  19
ATOM     19  C   UNL     1      39.837  18.139 226.022  1.00  0.00     0.000 C 
BRANCH  19  20
ATOM     20  C   UNL     1      38.465  18.736 225.666  1.00  0.00     0.006 C 
BRANCH  20  21
ATOM     21  C   UNL     1      37.681  19.167 226.912  1.00  0.00     0.053 C 
BRANCH  21  22
ATOM     22  C   UNL     1      36.408  18.391 227.060  1.00  0.00     0.041 C 
ATOM     23  O   UNL     1      36.273  17.571 228.005  1.00  0.00    -0.550 OA
ATOM     24  O   UNL     1      35.359  18.598 226.172  1.00  0.00    -0.550 OA
ENDBRANCH  21  22
ENDBRANCH  20  21
ENDBRANCH  19  20
ENDBRANCH  18  19
ENDBRANCH  17  18
ENDBRANCH  16  17
ENDBRANCH  15  16
ENDBRANCH  14  15
ENDBRANCH  13  14
ENDBRANCH   1  13
TORSDOF 20
ENDMDL
MODEL 6
REMARK VINA RESULT:    -4.043      2.449      5.245
REMARK INTER + INTRA:         -12.462
REMARK INTER:                  -8.108
REMARK INTRA:                  -4.354
REMARK UNBOUND:                -3.693
REMARK SMILES CCCCCCCCCCCCCCCCCCCCCC(=O)[O-]
REMARK SMILES IDX 12 1 11 2 10 3 9 4 8 5 7 6 6 7 5 8 4 9 3 10 2 11 1 12 13 13
REMARK SMILES IDX 14 14 15 15 16 16 17 17 18 18 19 19 20 20 21 21 22 22 23 23
REMARK SMILES IDX 24 24
REMARK H PARENT
REMARK Flexibility Score: inf
ROOT
ATOM      1  C   UNL     1      41.579  22.235 225.355  1.00  0.00     0.000 C 
ENDROOT
BRANCH   1   2
ATOM      2  C   UNL     1      41.394  21.232 226.513  1.00  0.00     0.000 C 
BRANCH   2   3
ATOM      3  C   UNL     1      40.509  21.753 227.661  1.00  0.00     0.000 C 
BRANCH   3   4
ATOM      4  C   UNL     1      40.247  23.270 227.653  1.00  0.00    -0.000 C 
BRANCH   4   5
ATOM      5  C   UNL     1      39.531  23.815 228.904  1.00  0.00    -0.000 C 
BRANCH   5   6
ATOM      6  C   UNL     1      38.807  25.159 228.703  1.00  0.00    -0.000 C 
BRANCH   6   7
ATOM      7  C   UNL     1      38.750  25.619 227.230  1.00  0.00    -0.000 C 
BRANCH   7   8
ATOM      8  C   UNL     1      39.401  26.997 227.021  1.00  0.00    -0.000 C 
BRANCH   8   9
ATOM      9  C   UNL     1      40.656  26.931 226.133  1.00  0.00    -0.000 C 
BRANCH   9  10
ATOM     10  C   UNL     1      41.936  26.654 226.940  1.00  0.00    -0.000 C 
BRANCH  10  11
ATOM     11  C   UNL     1      42.818  25.574 226.292  1.00  0.00    -0.003 C 
ATOM     12  C   UNL     1      43.604  24.756 227.316  1.00  0.00     0.004 C 
ENDBRANCH  10  11
ENDBRANCH   9  10
ENDBRANCH   8   9
ENDBRANCH   7   8
ENDBRANCH   6   7
ENDBRANCH   5   6
ENDBRANCH   4   5
ENDBRANCH   3   4
ENDBRANCH   2   3
ENDBRANCH   1   2
BRANCH   1  13
ATOM     13  C   UNL     1      41.268  21.623 223.979  1.00  0.00     0.000 C 
BRANCH  13  14
ATOM     14  C   UNL     1      40.685  22.666 222.998  1.00  0.00     0.000 C 
BRANCH  14  15
ATOM     15  C   UNL     1      40.567  24.073 223.608  1.00  0.00     0.000 C 
BRANCH  15  16
ATOM     16  C   UNL     1      39.122  24.595 223.740  1.00  0.00     0.000 C 
BRANCH  16  17
ATOM     17  C   UNL     1      38.039  23.505 223.574  1.00  0.00     0.000 C 
BRANCH  17  18
ATOM     18  C   UNL     1      36.980  23.533 224.690  1.00  0.00     0.000 C 
BRANCH  18  19
ATOM     19  C   UNL     1      37.236  22.472 225.773  1.00  0.00     0.000 C 
BRANCH  19  20
ATOM     20  C   UNL     1      37.783  21.155 225.197  1.00  0.00     0.006 C 
BRANCH  20  21
ATOM     21  C   UNL     1      37.485  19.957 226.108  1.00  0.00     0.053 C 
BRANCH  21  22
ATOM     22  C   UNL     1      36.075  19.477 225.947  1.00  0.00     0.041 C 
ATOM     23  O   UNL     1      35.811  18.548 225.141  1.00  0.00    -0.550 OA
ATOM     24  O   UNL     1      35.057  20.036 226.711  1.00  0.00    -0.550 OA
ENDBRANCH  21  22
ENDBRANCH  20  21
ENDBRANCH  19  20
ENDBRANCH  18  19
ENDBRANCH  17  18
ENDBRANCH  16  17
ENDBRANCH  15  16
ENDBRANCH  14  15
ENDBRANCH  13  14
ENDBRANCH   1  13
TORSDOF 20
ENDMDL
MODEL 7
REMARK VINA RESULT:    -4.025      2.595      4.979
REMARK INTER + INTRA:         -12.424
REMARK INTER:                  -9.378
REMARK INTRA:                  -3.046
REMARK UNBOUND:                -3.693
REMARK SMILES CCCCCCCCCCCCCCCCCCCCCC(=O)[O-]
REMARK SMILES IDX 12 1 11 2 10 3 9 4 8 5 7 6 6 7 5 8 4 9 3 10 2 11 1 12 13 13
REMARK SMILES IDX 14 14 15 15 16 16 17 17 18 18 19 19 20 20 21 21 22 22 23 23
REMARK SMILES IDX 24 24
REMARK H PARENT
REMARK Flexibility Score: inf
ROOT
ATOM      1  C   UNL     1      39.231  23.169 222.687  1.00  0.00     0.000 C 
ENDROOT
BRANCH   1   2
ATOM      2  C   UNL     1      37.821  23.749 222.920  1.00  0.00     0.000 C 
BRANCH   2   3
ATOM      3  C   UNL     1      36.953  22.921 223.887  1.00  0.00     0.000 C 
BRANCH   3   4
ATOM      4  C   UNL     1      36.873  23.463 225.327  1.00  0.00    -0.000 C 
BRANCH   4   5
ATOM      5  C   UNL     1      36.821  24.998 225.444  1.00  0.00    -0.000 C 
BRANCH   5   6
ATOM      6  C   UNL     1      38.167  25.669 225.774  1.00  0.00    -0.000 C 
BRANCH   6   7
ATOM      7  C   UNL     1      38.936  24.984 226.925  1.00  0.00    -0.000 C 
BRANCH   7   8
ATOM      8  C   UNL     1      39.846  25.963 227.686  1.00  0.00    -0.000 C 
BRANCH   8   9
ATOM      9  C   UNL     1      41.312  25.888 227.227  1.00  0.00    -0.000 C 
BRANCH   9  10
ATOM     10  C   UNL     1      41.863  27.255 226.787  1.00  0.00    -0.000 C 
BRANCH  10  11
ATOM     11  C   UNL     1      40.753  28.229 226.361  1.00  0.00    -0.003 C 
ATOM     12  C   UNL     1      41.169  29.694 226.481  1.00  0.00     0.004 C 
ENDBRANCH  10  11
ENDBRANCH   9  10
ENDBRANCH   8   9
ENDBRANCH   7   8
ENDBRANCH   6   7
ENDBRANCH   5   6
ENDBRANCH   4   5
ENDBRANCH   3   4
ENDBRANCH   2   3
ENDBRANCH   1   2
BRANCH   1  13
ATOM     13  C   UNL     1      40.352  24.136 223.103  1.00  0.00     0.000 C 
BRANCH  13  14
ATOM     14  C   UNL     1      41.221  23.560 224.244  1.00  0.00     0.000 C 
BRANCH  14  15
ATOM     15  C   UNL     1      40.577  22.353 224.947  1.00  0.00     0.000 C 
BRANCH  15  16
ATOM     16  C   UNL     1      41.582  21.315 225.486  1.00  0.00     0.000 C 
BRANCH  16  17
ATOM     17  C   UNL     1      41.728  20.057 224.600  1.00  0.00     0.000 C 
BRANCH  17  18
ATOM     18  C   UNL     1      40.405  19.292 224.417  1.00  0.00     0.000 C 
BRANCH  18  19
ATOM     19  C   UNL     1      39.895  18.673 225.728  1.00  0.00     0.000 C 
BRANCH  19  20
ATOM     20  C   UNL     1      38.365  18.510 225.753  1.00  0.00     0.006 C 
BRANCH  20  21
ATOM     21  C   UNL     1      37.643  19.853 225.920  1.00  0.00     0.053 C 
BRANCH  21  22
ATOM     22  C   UNL     1      36.157  19.676 225.980  1.00  0.00     0.041 C 
ATOM     23  O   UNL     1      35.463  20.405 226.735  1.00  0.00    -0.550 OA
ATOM     24  O   UNL     1      35.535  18.728 225.176  1.00  0.00    -0.550 OA
ENDBRANCH  21  22
ENDBRANCH  20  21
ENDBRANCH  19  20
ENDBRANCH  18  19
ENDBRANCH  17  18
ENDBRANCH  16  17
ENDBRANCH  15  16
ENDBRANCH  14  15
ENDBRANCH  13  14
ENDBRANCH   1  13
TORSDOF 20
ENDMDL
MODEL 8
REMARK VINA RESULT:    -4.022      2.575      5.478
REMARK INTER + INTRA:         -12.418
REMARK INTER:                  -8.882
REMARK INTRA:                  -3.536
REMARK UNBOUND:                -3.693
REMARK SMILES CCCCCCCCCCCCCCCCCCCCCC(=O)[O-]
REMARK SMILES IDX 12 1 11 2 10 3 9 4 8 5 7 6 6 7 5 8 4 9 3 10 2 11 1 12 13 13
REMARK SMILES IDX 14 14 15 15 16 16 17 17 18 18 19 19 20 20 21 21 22 22 23 23
REMARK SMILES IDX 24 24
REMARK H PARENT
REMARK Flexibility Score: inf
ROOT
ATOM      1  C   UNL     1      40.047  22.594 225.561  1.00  0.00     0.000 C 
ENDROOT
BRANCH   1   2
ATOM      2  C   UNL     1      39.218  22.109 226.768  1.00  0.00     0.000 C 
BRANCH   2   3
ATOM      3  C   UNL     1      40.025  21.977 228.074  1.00  0.00     0.000 C 
BRANCH   3   4
ATOM      4  C   UNL     1      39.967  20.593 228.746  1.00  0.00    -0.000 C 
BRANCH   4   5
ATOM      5  C   UNL     1      38.554  20.113 229.131  1.00  0.00    -0.000 C 
BRANCH   5   6
ATOM      6  C   UNL     1      38.089  18.830 228.418  1.00  0.00    -0.000 C 
BRANCH   6   7
ATOM      7  C   UNL     1      37.147  19.091 227.223  1.00  0.00    -0.000 C 
BRANCH   7   8
ATOM      8  C   UNL     1      37.716  18.553 225.899  1.00  0.00    -0.000 C 
BRANCH   8   9
ATOM      9  C   UNL     1      39.212  18.209 225.994  1.00  0.00    -0.000 C 
BRANCH   9  10
ATOM     10  C   UNL     1      40.059  18.964 224.954  1.00  0.00    -0.000 C 
BRANCH  10  11
ATOM     11  C   UNL     1      41.538  19.061 225.357  1.00  0.00    -0.003 C 
ATOM     12  C   UNL     1      42.414  19.671 224.263  1.00  0.00     0.004 C 
ENDBRANCH  10  11
ENDBRANCH   9  10
ENDBRANCH   8   9
ENDBRANCH   7   8
ENDBRANCH   6   7
ENDBRANCH   5   6
ENDBRANCH   4   5
ENDBRANCH   3   4
ENDBRANCH   2   3
ENDBRANCH   1   2
BRANCH   1  13
ATOM     13  C   UNL     1      41.509  22.898 225.924  1.00  0.00     0.000 C 
BRANCH  13  14
ATOM     14  C   UNL     1      42.148  23.918 224.952  1.00  0.00     0.000 C 
BRANCH  14  15
ATOM     15  C   UNL     1      42.603  25.213 225.645  1.00  0.00     0.000 C 
BRANCH  15  16
ATOM     16  C   UNL     1      41.686  25.681 226.794  1.00  0.00     0.000 C 
BRANCH  16  17
ATOM     17  C   UNL     1      40.803  26.899 226.441  1.00  0.00     0.000 C 
BRANCH  17  18
ATOM     18  C   UNL     1      39.325  26.530 226.225  1.00  0.00     0.000 C 
BRANCH  18  19
ATOM     19  C   UNL     1      39.068  25.908 224.842  1.00  0.00     0.000 C 
BRANCH  19  20
ATOM     20  C   UNL     1      37.573  25.852 224.484  1.00  0.00     0.006 C 
BRANCH  20  21
ATOM     21  C   UNL     1      37.242  24.667 223.567  1.00  0.00     0.053 C 
BRANCH  21  22
ATOM     22  C   UNL     1      36.603  23.544 224.325  1.00  0.00     0.041 C 
ATOM     23  O   UNL     1      36.404  23.648 225.563  1.00  0.00    -0.550 OA
ATOM     24  O   UNL     1      36.199  22.394 223.656  1.00  0.00    -0.550 OA
ENDBRANCH  21  22
ENDBRANCH  20  21
ENDBRANCH  19  20
ENDBRANCH  18  19
ENDBRANCH  17  18
ENDBRANCH  16  17
ENDBRANCH  15  16
ENDBRANCH  14  15
ENDBRANCH  13  14
ENDBRANCH   1  13
TORSDOF 20
ENDMDL
MODEL 9
REMARK VINA RESULT:    -3.988      2.711      4.944
REMARK INTER + INTRA:         -12.344
REMARK INTER:                  -8.714
REMARK INTRA:                  -3.630
REMARK UNBOUND:                -3.693
REMARK SMILES CCCCCCCCCCCCCCCCCCCCCC(=O)[O-]
REMARK SMILES IDX 12 1 11 2 10 3 9 4 8 5 7 6 6 7 5 8 4 9 3 10 2 11 1 12 13 13
REMARK SMILES IDX 14 14 15 15 16 16 17 17 18 18 19 19 20 20 21 21 22 22 23 23
REMARK SMILES IDX 24 24
REMARK H PARENT
REMARK Flexibility Score: inf
ROOT
ATOM      1  C   UNL     1      41.728  23.929 226.303  1.00  0.00     0.000 C 
ENDROOT
BRANCH   1   2
ATOM      2  C   UNL     1      42.103  23.961 224.807  1.00  0.00     0.000 C 
BRANCH   2   3
ATOM      3  C   UNL     1      41.812  22.647 224.057  1.00  0.00     0.000 C 
BRANCH   3   4
ATOM      4  C   UNL     1      40.536  22.650 223.194  1.00  0.00    -0.000 C 
BRANCH   4   5
ATOM      5  C   UNL     1      39.890  24.034 222.991  1.00  0.00    -0.000 C 
BRANCH   5   6
ATOM      6  C   UNL     1      38.473  24.180 223.575  1.00  0.00    -0.000 C 
BRANCH   6   7
ATOM      7  C   UNL     1      37.970  22.916 224.305  1.00  0.00    -0.000 C 
BRANCH   7   8
ATOM      8  C   UNL     1      37.268  23.246 225.633  1.00  0.00    -0.000 C 
BRANCH   8   9
ATOM      9  C   UNL     1      37.340  24.741 225.986  1.00  0.00    -0.000 C 
BRANCH   9  10
ATOM     10  C   UNL     1      38.301  25.027 227.154  1.00  0.00    -0.000 C 
BRANCH  10  11
ATOM     11  C   UNL     1      38.795  26.482 227.167  1.00  0.00    -0.003 C 
ATOM     12  C   UNL     1      39.573  26.857 225.906  1.00  0.00     0.004 C 
ENDBRANCH  10  11
ENDBRANCH   9  10
ENDBRANCH   8   9
ENDBRANCH   7   8
ENDBRANCH   6   7
ENDBRANCH   5   6
ENDBRANCH   4   5
ENDBRANCH   3   4
ENDBRANCH   2   3
ENDBRANCH   1   2
BRANCH   1  13
ATOM     13  C   UNL     1      41.741  22.510 226.893  1.00  0.00     0.000 C 
BRANCH  13  14
ATOM     14  C   UNL     1      40.316  21.923 227.026  1.00  0.00     0.000 C 
BRANCH  14  15
ATOM     15  C   UNL     1      39.790  21.931 228.471  1.00  0.00     0.000 C 
BRANCH  15  16
ATOM     16  C   UNL     1      38.505  21.107 228.689  1.00  0.00     0.000 C 
BRANCH  16  17
ATOM     17  C   UNL     1      38.671  19.925 229.670  1.00  0.00     0.000 C 
BRANCH  17  18
ATOM     18  C   UNL     1      38.433  18.555 229.011  1.00  0.00     0.000 C 
BRANCH  18  19
ATOM     19  C   UNL     1      39.359  18.311 227.808  1.00  0.00     0.000 C 
BRANCH  19  20
ATOM     20  C   UNL     1      38.599  17.820 226.564  1.00  0.00     0.006 C 
BRANCH  20  21
ATOM     21  C   UNL     1      38.017  18.980 225.746  1.00  0.00     0.053 C 
BRANCH  21  22
ATOM     22  C   UNL     1      36.523  18.901 225.662  1.00  0.00     0.041 C 
ATOM     23  O   UNL     1      35.932  17.815 225.898  1.00  0.00    -0.550 OA
ATOM     24  O   UNL     1      35.782  20.035 225.353  1.00  0.00    -0.550 OA
ENDBRANCH  21  22
ENDBRANCH  20  21
ENDBRANCH  19  20
ENDBRANCH  18  19
ENDBRANCH  17  18
ENDBRANCH  16  17
ENDBRANCH  15  16
ENDBRANCH  14  15
ENDBRANCH  13  14
ENDBRANCH   1  13
TORSDOF 20
ENDMDL
