MODEL 1
REMARK VINA RESULT:    -3.888      0.000      0.000
REMARK INTER + INTRA:         -10.119
REMARK INTER:                  -7.297
REMARK INTRA:                  -2.822
REMARK UNBOUND:                -2.822
REMARK SMILES CCCCCCCCC=CCCCCCCCC(=O)[O-]
REMARK SMILES IDX 10 1 9 2 11 3 12 4 13 5 14 6 15 7 16 8 17 9 18 10 19 11
REMARK SMILES IDX 20 12 8 13 7 14 6 15 5 16 4 17 3 18 2 19 1 20
REMARK H PARENT
REMARK Flexibility Score: inf
ROOT
ATOM      1  C   UNL     1      37.190  32.786  31.888  1.00  0.00    -0.031 C 
ATOM      2  C   UNL     1      37.667  32.356  33.070  1.00  0.00    -0.031 C 
ENDROOT
BRANCH   1   3
ATOM      3  C   UNL     1      37.822  33.866  31.045  1.00  0.00     0.027 C 
BRANCH   3   4
ATOM      4  C   UNL     1      36.924  35.107  30.932  1.00  0.00     0.004 C 
BRANCH   4   5
ATOM      5  C   UNL     1      37.727  36.415  31.036  1.00  0.00     0.000 C 
BRANCH   5   6
ATOM      6  C   UNL     1      38.986  36.273  31.907  1.00  0.00     0.000 C 
BRANCH   6   7
ATOM      7  C   UNL     1      38.912  37.113  33.194  1.00  0.00     0.000 C 
BRANCH   7   8
ATOM      8  C   UNL     1      40.211  37.889  33.468  1.00  0.00     0.006 C 
BRANCH   8   9
ATOM      9  C   UNL     1      40.138  39.346  32.991  1.00  0.00     0.053 C 
BRANCH   9  10
ATOM     10  C   UNL     1      39.702  40.241  34.108  1.00  0.00     0.041 C 
ATOM     11  O   UNL     1      40.539  40.642  34.960  1.00  0.00    -0.550 OA
ATOM     12  O   UNL     1      38.363  40.594  34.238  1.00  0.00    -0.550 OA
ENDBRANCH   9  10
ENDBRANCH   8   9
ENDBRANCH   7   8
ENDBRANCH   6   7
ENDBRANCH   5   6
ENDBRANCH   4   5
ENDBRANCH   3   4
ENDBRANCH   1   3
BRANCH   2  13
ATOM     13  C   UNL     1      38.853  32.955  33.789  1.00  0.00     0.027 C 
BRANCH  13  14
ATOM     14  C   UNL     1      38.424  33.992  34.838  1.00  0.00     0.004 C 
BRANCH  14  15
ATOM     15  C   UNL     1      37.350  33.440  35.793  1.00  0.00     0.000 C 
BRANCH  15  16
ATOM     16  C   UNL     1      36.110  34.345  35.866  1.00  0.00     0.000 C 
BRANCH  16  17
ATOM     17  C   UNL     1      36.250  35.606  34.994  1.00  0.00    -0.000 C 
BRANCH  17  18
ATOM     18  C   UNL     1      35.076  35.782  34.018  1.00  0.00    -0.000 C 
BRANCH  18  19
ATOM     19  C   UNL     1      35.019  37.189  33.404  1.00  0.00    -0.003 C 
ATOM     20  C   UNL     1      35.639  38.221  34.343  1.00  0.00     0.004 C 
ENDBRANCH  18  19
ENDBRANCH  17  18
ENDBRANCH  16  17
ENDBRANCH  15  16
ENDBRANCH  14  15
ENDBRANCH  13  14
ENDBRANCH   2  13
TORSDOF 15
ENDMDL
MODEL 2
REMARK VINA RESULT:    -3.758      1.238      3.475
REMARK INTER + INTRA:          -9.875
REMARK INTER:                  -6.979
REMARK INTRA:                  -2.896
REMARK UNBOUND:                -2.822
REMARK SMILES CCCCCCCCC=CCCCCCCCC(=O)[O-]
REMARK SMILES IDX 10 1 9 2 11 3 12 4 13 5 14 6 15 7 16 8 17 9 18 10 19 11
REMARK SMILES IDX 20 12 8 13 7 14 6 15 5 16 4 17 3 18 2 19 1 20
REMARK H PARENT
REMARK Flexibility Score: inf
ROOT
ATOM      1  C   UNL     1      35.091  35.608  34.660  1.00  0.00    -0.031 C 
ATOM      2  C   UNL     1      35.378  34.553  35.444  1.00  0.00    -0.031 C 
ENDROOT
BRANCH   1   3
ATOM      3  C   UNL     1      36.081  36.668  34.244  1.00  0.00     0.027 C 
BRANCH   3   4
ATOM      4  C   UNL     1      35.514  37.587  33.152  1.00  0.00     0.004 C 
BRANCH   4   5
ATOM      5  C   UNL     1      35.896  37.112  31.739  1.00  0.00     0.000 C 
BRANCH   5   6
ATOM      6  C   UNL     1      37.316  37.536  31.332  1.00  0.00     0.000 C 
BRANCH   6   7
ATOM      7  C   UNL     1      38.299  36.353  31.298  1.00  0.00     0.000 C 
BRANCH   7   8
ATOM      8  C   UNL     1      39.698  36.733  31.811  1.00  0.00     0.006 C 
BRANCH   8   9
ATOM      9  C   UNL     1      39.703  37.075  33.307  1.00  0.00     0.053 C 
BRANCH   9  10
ATOM     10  C   UNL     1      40.293  38.432  33.531  1.00  0.00     0.041 C 
ATOM     11  O   UNL     1      39.791  39.440  32.969  1.00  0.00    -0.550 OA
ATOM     12  O   UNL     1      41.427  38.577  34.323  1.00  0.00    -0.550 OA
ENDBRANCH   9  10
ENDBRANCH   8   9
ENDBRANCH   7   8
ENDBRANCH   6   7
ENDBRANCH   5   6
ENDBRANCH   4   5
ENDBRANCH   3   4
ENDBRANCH   1   3
BRANCH   2  13
ATOM     13  C   UNL     1      36.711  34.318  36.116  1.00  0.00     0.027 C 
BRANCH  13  14
ATOM     14  C   UNL     1      37.524  33.223  35.410  1.00  0.00     0.004 C 
BRANCH  14  15
ATOM     15  C   UNL     1      38.707  33.801  34.613  1.00  0.00     0.000 C 
BRANCH  15  16
ATOM     16  C   UNL     1      38.754  33.274  33.170  1.00  0.00     0.000 C 
BRANCH  16  17
ATOM     17  C   UNL     1      37.979  31.956  33.000  1.00  0.00    -0.000 C 
BRANCH  17  18
ATOM     18  C   UNL     1      36.942  32.023  31.868  1.00  0.00    -0.000 C 
BRANCH  18  19
ATOM     19  C   UNL     1      36.285  33.405  31.744  1.00  0.00    -0.003 C 
ATOM     20  C   UNL     1      34.765  33.300  31.831  1.00  0.00     0.004 C 
ENDBRANCH  18  19
ENDBRANCH  17  18
ENDBRANCH  16  17
ENDBRANCH  15  16
ENDBRANCH  14  15
ENDBRANCH  13  14
ENDBRANCH   2  13
TORSDOF 15
ENDMDL
MODEL 3
REMARK VINA RESULT:    -3.734      3.091      6.032
REMARK INTER + INTRA:          -9.830
REMARK INTER:                  -7.390
REMARK INTRA:                  -2.440
REMARK UNBOUND:                -2.822
REMARK SMILES CCCCCCCCC=CCCCCCCCC(=O)[O-]
REMARK SMILES IDX 10 1 9 2 11 3 12 4 13 5 14 6 15 7 16 8 17 9 18 10 19 11
REMARK SMILES IDX 20 12 8 13 7 14 6 15 5 16 4 17 3 18 2 19 1 20
REMARK H PARENT
REMARK Flexibility Score: inf
ROOT
ATOM      1  C   UNL     1      35.106  35.886  34.454  1.00  0.00    -0.031 C 
ATOM      2  C   UNL     1      35.033  36.866  33.536  1.00  0.00    -0.031 C 
ENDROOT
BRANCH   1   3
ATOM      3  C   UNL     1      36.331  35.561  35.273  1.00  0.00     0.027 C 
BRANCH   3   4
ATOM      4  C   UNL     1      36.313  34.114  35.788  1.00  0.00     0.004 C 
BRANCH   4   5
ATOM      5  C   UNL     1      37.692  33.440  35.673  1.00  0.00     0.000 C 
BRANCH   5   6
ATOM      6  C   UNL     1      38.304  33.574  34.270  1.00  0.00     0.000 C 
BRANCH   6   7
ATOM      7  C   UNL     1      38.191  32.277  33.449  1.00  0.00     0.000 C 
BRANCH   7   8
ATOM      8  C   UNL     1      37.663  32.524  32.026  1.00  0.00     0.006 C 
BRANCH   8   9
ATOM      9  C   UNL     1      36.527  33.556  31.991  1.00  0.00     0.053 C 
BRANCH   9  10
ATOM     10  C   UNL     1      35.224  32.888  31.686  1.00  0.00     0.041 C 
ATOM     11  O   UNL     1      35.206  31.755  31.137  1.00  0.00    -0.550 OA
ATOM     12  O   UNL     1      34.025  33.537  31.964  1.00  0.00    -0.550 OA
ENDBRANCH   9  10
ENDBRANCH   8   9
ENDBRANCH   7   8
ENDBRANCH   6   7
ENDBRANCH   5   6
ENDBRANCH   4   5
ENDBRANCH   3   4
ENDBRANCH   1   3
BRANCH   2  13
ATOM     13  C   UNL     1      36.194  37.731  33.107  1.00  0.00     0.027 C 
BRANCH  13  14
ATOM     14  C   UNL     1      36.826  37.236  31.798  1.00  0.00     0.004 C 
BRANCH  14  15
ATOM     15  C   UNL     1      38.318  36.894  31.968  1.00  0.00     0.000 C 
BRANCH  15  16
ATOM     16  C   UNL     1      38.824  37.172  33.393  1.00  0.00     0.000 C 
BRANCH  16  17
ATOM     17  C   UNL     1      40.275  37.684  33.412  1.00  0.00    -0.000 C 
BRANCH  17  18
ATOM     18  C   UNL     1      40.369  39.179  33.756  1.00  0.00    -0.000 C 
BRANCH  18  19
ATOM     19  C   UNL     1      39.176  39.987  33.227  1.00  0.00    -0.003 C 
ATOM     20  C   UNL     1      38.446  40.696  34.366  1.00  0.00     0.004 C 
ENDBRANCH  18  19
ENDBRANCH  17  18
ENDBRANCH  16  17
ENDBRANCH  15  16
ENDBRANCH  14  15
ENDBRANCH  13  14
ENDBRANCH   2  13
TORSDOF 15
ENDMDL
MODEL 4
REMARK VINA RESULT:    -3.694     11.003     13.434
REMARK INTER + INTRA:          -9.756
REMARK INTER:                  -6.640
REMARK INTRA:                  -3.116
REMARK UNBOUND:                -2.822
REMARK SMILES CCCCCCCCC=CCCCCCCCC(=O)[O-]
REMARK SMILES IDX 10 1 9 2 11 3 12 4 13 5 14 6 15 7 16 8 17 9 18 10 19 11
REMARK SMILES IDX 20 12 8 13 7 14 6 15 5 16 4 17 3 18 2 19 1 20
REMARK H PARENT
REMARK Flexibility Score: inf
ROOT
ATOM      1  C   UNL     1      29.331  27.021  38.173  1.00  0.00    -0.031 C 
ATOM      2  C   UNL     1      27.995  27.127  38.054  1.00  0.00    -0.031 C 
ENDROOT
BRANCH   1   3
ATOM      3  C   UNL     1      30.222  26.256  37.226  1.00  0.00     0.027 C 
BRANCH   3   4
ATOM      4  C   UNL     1      30.875  27.175  36.183  1.00  0.00     0.004 C 
BRANCH   4   5
ATOM      5  C   UNL     1      30.143  27.128  34.830  1.00  0.00     0.000 C 
BRANCH   5   6
ATOM      6  C   UNL     1      29.533  28.483  34.436  1.00  0.00     0.000 C 
BRANCH   6   7
ATOM      7  C   UNL     1      29.530  29.491  35.599  1.00  0.00     0.000 C 
BRANCH   7   8
ATOM      8  C   UNL     1      28.352  30.476  35.524  1.00  0.00     0.006 C 
BRANCH   8   9
ATOM      9  C   UNL     1      28.116  31.003  34.102  1.00  0.00     0.053 C 
BRANCH   9  10
ATOM     10  C   UNL     1      27.796  32.464  34.133  1.00  0.00     0.041 C 
ATOM     11  O   UNL     1      28.689  33.301  34.431  1.00  0.00    -0.550 OA
ATOM     12  O   UNL     1      26.500  32.901  33.879  1.00  0.00    -0.550 OA
ENDBRANCH   9  10
ENDBRANCH   8   9
ENDBRANCH   7   8
ENDBRANCH   6   7
ENDBRANCH   5   6
ENDBRANCH   4   5
ENDBRANCH   3   4
ENDBRANCH   1   3
BRANCH   2  13
ATOM     13  C   UNL     1      27.164  26.415  37.013  1.00  0.00     0.027 C 
BRANCH  13  14
ATOM     14  C   UNL     1      26.447  27.400  36.078  1.00  0.00     0.004 C 
BRANCH  14  15
ATOM     15  C   UNL     1      26.270  26.829  34.660  1.00  0.00     0.000 C 
BRANCH  15  16
ATOM     16  C   UNL     1      26.676  25.349  34.569  1.00  0.00     0.000 C 
BRANCH  16  17
ATOM     17  C   UNL     1      27.548  25.053  33.336  1.00  0.00    -0.000 C 
BRANCH  17  18
ATOM     18  C   UNL     1      28.457  23.829  33.535  1.00  0.00    -0.000 C 
BRANCH  18  19
ATOM     19  C   UNL     1      28.861  23.622  35.002  1.00  0.00    -0.003 C 
ATOM     20  C   UNL     1      30.353  23.319  35.121  1.00  0.00     0.004 C 
ENDBRANCH  18  19
ENDBRANCH  17  18
ENDBRANCH  16  17
ENDBRANCH  15  16
ENDBRANCH  14  15
ENDBRANCH  13  14
ENDBRANCH   2  13
TORSDOF 15
ENDMDL
MODEL 5
REMARK VINA RESULT:    -3.649      2.110      3.603
REMARK INTER + INTRA:          -9.672
REMARK INTER:                  -6.989
REMARK INTRA:                  -2.682
REMARK UNBOUND:                -2.822
REMARK SMILES CCCCCCCCC=CCCCCCCCC(=O)[O-]
REMARK SMILES IDX 10 1 9 2 11 3 12 4 13 5 14 6 15 7 16 8 17 9 18 10 19 11
REMARK SMILES IDX 20 12 8 13 7 14 6 15 5 16 4 17 3 18 2 19 1 20
REMARK H PARENT
REMARK Flexibility Score: inf
ROOT
ATOM      1  C   UNL     1      35.198  34.868  32.295  1.00  0.00    -0.031 C 
ATOM      2  C   UNL     1      35.333  33.532  32.202  1.00  0.00    -0.031 C 
ENDROOT
BRANCH   1   3
ATOM      3  C   UNL     1      35.671  35.856  31.258  1.00  0.00     0.027 C 
BRANCH   3   4
ATOM      4  C   UNL     1      35.352  37.305  31.655  1.00  0.00     0.004 C 
BRANCH   4   5
ATOM      5  C   UNL     1      35.044  37.439  33.157  1.00  0.00     0.000 C 
BRANCH   5   6
ATOM      6  C   UNL     1      36.161  38.158  33.932  1.00  0.00     0.000 C 
BRANCH   6   7
ATOM      7  C   UNL     1      37.497  38.168  33.168  1.00  0.00     0.000 C 
BRANCH   7   8
ATOM      8  C   UNL     1      38.363  36.936  33.479  1.00  0.00     0.006 C 
BRANCH   8   9
ATOM      9  C   UNL     1      39.863  37.211  33.299  1.00  0.00     0.053 C 
BRANCH   9  10
ATOM     10  C   UNL     1      40.333  36.698  31.975  1.00  0.00     0.041 C 
ATOM     11  O   UNL     1      39.648  35.849  31.346  1.00  0.00    -0.550 OA
ATOM     12  O   UNL     1      41.552  37.122  31.455  1.00  0.00    -0.550 OA
ENDBRANCH   9  10
ENDBRANCH   8   9
ENDBRANCH   7   8
ENDBRANCH   6   7
ENDBRANCH   5   6
ENDBRANCH   4   5
ENDBRANCH   3   4
ENDBRANCH   1   3
BRANCH   2  13
ATOM     13  C   UNL     1      36.070  32.817  31.095  1.00  0.00     0.027 C 
BRANCH  13  14
ATOM     14  C   UNL     1      37.490  32.413  31.516  1.00  0.00     0.004 C 
BRANCH  14  15
ATOM     15  C   UNL     1      37.640  32.332  33.046  1.00  0.00     0.000 C 
BRANCH  15  16
ATOM     16  C   UNL     1      38.854  33.123  33.559  1.00  0.00     0.000 C 
BRANCH  16  17
ATOM     17  C   UNL     1      38.642  33.668  34.982  1.00  0.00    -0.000 C 
BRANCH  17  18
ATOM     18  C   UNL     1      37.186  33.533  35.456  1.00  0.00    -0.000 C 
BRANCH  18  19
ATOM     19  C   UNL     1      36.528  34.889  35.750  1.00  0.00    -0.003 C 
ATOM     20  C   UNL     1      35.046  34.720  36.074  1.00  0.00     0.004 C 
ENDBRANCH  18  19
ENDBRANCH  17  18
ENDBRANCH  16  17
ENDBRANCH  15  16
ENDBRANCH  14  15
ENDBRANCH  13  14
ENDBRANCH   2  13
TORSDOF 15
ENDMDL
MODEL 6
REMARK VINA RESULT:    -3.639     11.214     13.484
REMARK INTER + INTRA:          -9.653
REMARK INTER:                  -6.460
REMARK INTRA:                  -3.193
REMARK UNBOUND:                -2.822
REMARK SMILES CCCCCCCCC=CCCCCCCCC(=O)[O-]
REMARK SMILES IDX 10 1 9 2 11 3 12 4 13 5 14 6 15 7 16 8 17 9 18 10 19 11
REMARK SMILES IDX 20 12 8 13 7 14 6 15 5 16 4 17 3 18 2 19 1 20
REMARK H PARENT
REMARK Flexibility Score: inf
ROOT
ATOM      1  C   UNL     1      29.993  24.866  35.712  1.00  0.00    -0.031 C 
ATOM      2  C   UNL     1      29.306  25.181  34.599  1.00  0.00    -0.031 C 
ENDROOT
BRANCH   1   3
ATOM      3  C   UNL     1      30.468  25.861  36.742  1.00  0.00     0.027 C 
BRANCH   3   4
ATOM      4  C   UNL     1      29.457  26.033  37.886  1.00  0.00     0.004 C 
BRANCH   4   5
ATOM      5  C   UNL     1      28.885  27.460  37.944  1.00  0.00     0.000 C 
BRANCH   5   6
ATOM      6  C   UNL     1      29.756  28.482  37.196  1.00  0.00     0.000 C 
BRANCH   6   7
ATOM      7  C   UNL     1      28.995  29.779  36.868  1.00  0.00     0.000 C 
BRANCH   7   8
ATOM      8  C   UNL     1      29.048  30.132  35.372  1.00  0.00     0.006 C 
BRANCH   8   9
ATOM      9  C   UNL     1      27.955  31.130  34.964  1.00  0.00     0.053 C 
BRANCH   9  10
ATOM     10  C   UNL     1      28.536  32.231  34.134  1.00  0.00     0.041 C 
ATOM     11  O   UNL     1      29.377  31.968  33.234  1.00  0.00    -0.550 OA
ATOM     12  O   UNL     1      28.187  33.553  34.385  1.00  0.00    -0.550 OA
ENDBRANCH   9  10
ENDBRANCH   8   9
ENDBRANCH   7   8
ENDBRANCH   6   7
ENDBRANCH   5   6
ENDBRANCH   4   5
ENDBRANCH   3   4
ENDBRANCH   1   3
BRANCH   2  13
ATOM     13  C   UNL     1      28.991  26.588  34.151  1.00  0.00     0.027 C 
BRANCH  13  14
ATOM     14  C   UNL     1      27.787  26.633  33.199  1.00  0.00     0.004 C 
BRANCH  14  15
ATOM     15  C   UNL     1      26.719  27.640  33.662  1.00  0.00     0.000 C 
BRANCH  15  16
ATOM     16  C   UNL     1      26.509  27.614  35.184  1.00  0.00     0.000 C 
BRANCH  16  17
ATOM     17  C   UNL     1      25.424  26.608  35.611  1.00  0.00    -0.000 C 
BRANCH  17  18
ATOM     18  C   UNL     1      25.934  25.595  36.648  1.00  0.00    -0.000 C 
BRANCH  18  19
ATOM     19  C   UNL     1      26.148  24.194  36.055  1.00  0.00    -0.003 C 
ATOM     20  C   UNL     1      25.492  24.075  34.682  1.00  0.00     0.004 C 
ENDBRANCH  18  19
ENDBRANCH  17  18
ENDBRANCH  16  17
ENDBRANCH  15  16
ENDBRANCH  14  15
ENDBRANCH  13  14
ENDBRANCH   2  13
TORSDOF 15
ENDMDL
MODEL 7
REMARK VINA RESULT:    -3.624     10.439     12.630
REMARK INTER + INTRA:          -9.624
REMARK INTER:                  -6.719
REMARK INTRA:                  -2.905
REMARK UNBOUND:                -2.822
REMARK SMILES CCCCCCCCC=CCCCCCCCC(=O)[O-]
REMARK SMILES IDX 10 1 9 2 11 3 12 4 13 5 14 6 15 7 16 8 17 9 18 10 19 11
REMARK SMILES IDX 20 12 8 13 7 14 6 15 5 16 4 17 3 18 2 19 1 20
REMARK H PARENT
REMARK Flexibility Score: inf
ROOT
ATOM      1  C   UNL     1      30.475  26.107  36.218  1.00  0.00    -0.031 C 
ATOM      2  C   UNL     1      29.738  25.702  37.268  1.00  0.00    -0.031 C 
ENDROOT
BRANCH   1   3
ATOM      3  C   UNL     1      31.037  27.497  36.044  1.00  0.00     0.027 C 
BRANCH   3   4
ATOM      4  C   UNL     1      30.071  28.417  35.285  1.00  0.00     0.004 C 
BRANCH   4   5
ATOM      5  C   UNL     1      29.560  29.573  36.164  1.00  0.00     0.000 C 
BRANCH   5   6
ATOM      6  C   UNL     1      28.461  30.401  35.478  1.00  0.00     0.000 C 
BRANCH   6   7
ATOM      7  C   UNL     1      28.550  30.345  33.943  1.00  0.00     0.000 C 
BRANCH   7   8
ATOM      8  C   UNL     1      28.742  31.735  33.312  1.00  0.00     0.006 C 
BRANCH   8   9
ATOM      9  C   UNL     1      28.505  32.873  34.314  1.00  0.00     0.053 C 
BRANCH   9  10
ATOM     10  C   UNL     1      27.238  33.600  33.989  1.00  0.00     0.041 C 
ATOM     11  O   UNL     1      26.193  32.956  33.708  1.00  0.00    -0.550 OA
ATOM     12  O   UNL     1      27.222  34.991  33.949  1.00  0.00    -0.550 OA
ENDBRANCH   9  10
ENDBRANCH   8   9
ENDBRANCH   7   8
ENDBRANCH   6   7
ENDBRANCH   5   6
ENDBRANCH   4   5
ENDBRANCH   3   4
ENDBRANCH   1   3
BRANCH   2  13
ATOM     13  C   UNL     1      29.271  26.599  38.389  1.00  0.00     0.027 C 
BRANCH  13  14
ATOM     14  C   UNL     1      27.902  27.227  38.090  1.00  0.00     0.004 C 
BRANCH  14  15
ATOM     15  C   UNL     1      27.132  26.450  37.007  1.00  0.00     0.000 C 
BRANCH  15  16
ATOM     16  C   UNL     1      26.377  27.380  36.044  1.00  0.00     0.000 C 
BRANCH  16  17
ATOM     17  C   UNL     1      26.766  27.145  34.574  1.00  0.00    -0.000 C 
BRANCH  17  18
ATOM     18  C   UNL     1      27.080  25.670  34.274  1.00  0.00    -0.000 C 
BRANCH  18  19
ATOM     19  C   UNL     1      28.325  25.495  33.392  1.00  0.00    -0.003 C 
ATOM     20  C   UNL     1      28.556  26.726  32.520  1.00  0.00     0.004 C 
ENDBRANCH  18  19
ENDBRANCH  17  18
ENDBRANCH  16  17
ENDBRANCH  15  16
ENDBRANCH  14  15
ENDBRANCH  13  14
ENDBRANCH   2  13
TORSDOF 15
ENDMDL
MODEL 8
REMARK VINA RESULT:    -3.610      0.905      3.353
REMARK INTER + INTRA:          -9.598
REMARK INTER:                  -7.031
REMARK INTRA:                  -2.567
REMARK UNBOUND:                -2.822
REMARK SMILES CCCCCCCCC=CCCCCCCCC(=O)[O-]
REMARK SMILES IDX 10 1 9 2 11 3 12 4 13 5 14 6 15 7 16 8 17 9 18 10 19 11
REMARK SMILES IDX 20 12 8 13 7 14 6 15 5 16 4 17 3 18 2 19 1 20
REMARK H PARENT
REMARK Flexibility Score: inf
ROOT
ATOM      1  C   UNL     1      34.968  36.460  33.681  1.00  0.00    -0.031 C 
ATOM      2  C   UNL     1      34.988  35.231  34.228  1.00  0.00    -0.031 C 
ENDROOT
BRANCH   1   3
ATOM      3  C   UNL     1      35.683  37.665  34.242  1.00  0.00     0.027 C 
BRANCH   3   4
ATOM      4  C   UNL     1      36.870  38.089  33.366  1.00  0.00     0.004 C 
BRANCH   4   5
ATOM      5  C   UNL     1      37.374  36.938  32.477  1.00  0.00     0.000 C 
BRANCH   5   6
ATOM      6  C   UNL     1      38.848  37.101  32.071  1.00  0.00     0.000 C 
BRANCH   6   7
ATOM      7  C   UNL     1      39.818  36.687  33.192  1.00  0.00     0.000 C 
BRANCH   7   8
ATOM      8  C   UNL     1      40.587  37.882  33.779  1.00  0.00     0.006 C 
BRANCH   8   9
ATOM      9  C   UNL     1      40.425  39.156  32.937  1.00  0.00     0.053 C 
BRANCH   9  10
ATOM     10  C   UNL     1      39.873  40.268  33.772  1.00  0.00     0.041 C 
ATOM     11  O   UNL     1      38.892  40.941  33.359  1.00  0.00    -0.550 OA
ATOM     12  O   UNL     1      40.470  40.593  34.985  1.00  0.00    -0.550 OA
ENDBRANCH   9  10
ENDBRANCH   8   9
ENDBRANCH   7   8
ENDBRANCH   6   7
ENDBRANCH   5   6
ENDBRANCH   4   5
ENDBRANCH   3   4
ENDBRANCH   1   3
BRANCH   2  13
ATOM     13  C   UNL     1      35.645  34.885  35.543  1.00  0.00     0.027 C 
BRANCH  13  14
ATOM     14  C   UNL     1      36.417  33.559  35.468  1.00  0.00     0.004 C 
BRANCH  14  15
ATOM     15  C   UNL     1      37.925  33.753  35.710  1.00  0.00     0.000 C 
BRANCH  15  16
ATOM     16  C   UNL     1      38.763  33.454  34.457  1.00  0.00     0.000 C 
BRANCH  16  17
ATOM     17  C   UNL     1      37.965  32.694  33.383  1.00  0.00    -0.000 C 
BRANCH  17  18
ATOM     18  C   UNL     1      38.309  33.151  31.957  1.00  0.00    -0.000 C 
BRANCH  18  19
ATOM     19  C   UNL     1      37.068  33.555  31.146  1.00  0.00    -0.003 C 
ATOM     20  C   UNL     1      35.839  32.772  31.601  1.00  0.00     0.004 C 
ENDBRANCH  18  19
ENDBRANCH  17  18
ENDBRANCH  16  17
ENDBRANCH  15  16
ENDBRANCH  14  15
ENDBRANCH  13  14
ENDBRANCH   2  13
TORSDOF 15
ENDMDL
MODEL 9
REMARK VINA RESULT:    -3.604      3.248      6.081
REMARK INTER + INTRA:          -9.586
REMARK INTER:                  -6.981
REMARK INTRA:                  -2.605
REMARK UNBOUND:                -2.822
REMARK SMILES CCCCCCCCC=CCCCCCCCC(=O)[O-]
REMARK SMILES IDX 10 1 9 2 11 3 12 4 13 5 14 6 15 7 16 8 17 9 18 10 19 11
REMARK SMILES IDX 20 12 8 13 7 14 6 15 5 16 4 17 3 18 2 19 1 20
REMARK H PARENT
REMARK Flexibility Score: inf
ROOT
ATOM      1  C   UNL     1      34.916  35.374  33.936  1.00  0.00    -0.031 C 
ATOM      2  C   UNL     1      35.045  36.622  33.449  1.00  0.00    -0.031 C 
ENDROOT
BRANCH   1   3
ATOM      3  C   UNL     1      35.028  35.003  35.395  1.00  0.00     0.027 C 
BRANCH   3   4
ATOM      4  C   UNL     1      36.488  34.976  35.871  1.00  0.00     0.004 C 
BRANCH   4   5
ATOM      5  C   UNL     1      37.045  33.544  35.952  1.00  0.00     0.000 C 
BRANCH   5   6
ATOM      6  C   UNL     1      38.343  33.363  35.149  1.00  0.00     0.000 C 
BRANCH   6   7
ATOM      7  C   UNL     1      38.534  34.456  34.082  1.00  0.00     0.000 C 
BRANCH   7   8
ATOM      8  C   UNL     1      38.735  33.876  32.672  1.00  0.00     0.006 C 
BRANCH   8   9
ATOM      9  C   UNL     1      37.464  33.961  31.815  1.00  0.00     0.053 C 
BRANCH   9  10
ATOM     10  C   UNL     1      36.707  32.672  31.874  1.00  0.00     0.041 C 
ATOM     11  O   UNL     1      37.320  31.586  32.054  1.00  0.00    -0.550 OA
ATOM     12  O   UNL     1      35.329  32.662  31.683  1.00  0.00    -0.550 OA
ENDBRANCH   9  10
ENDBRANCH   8   9
ENDBRANCH   7   8
ENDBRANCH   6   7
ENDBRANCH   5   6
ENDBRANCH   4   5
ENDBRANCH   3   4
ENDBRANCH   1   3
BRANCH   2  13
ATOM     13  C   UNL     1      35.424  37.832  34.270  1.00  0.00     0.027 C 
BRANCH  13  14
ATOM     14  C   UNL     1      36.616  38.586  33.665  1.00  0.00     0.004 C 
BRANCH  14  15
ATOM     15  C   UNL     1      37.398  37.723  32.658  1.00  0.00     0.000 C 
BRANCH  15  16
ATOM     16  C   UNL     1      38.919  37.882  32.807  1.00  0.00     0.000 C 
BRANCH  16  17
ATOM     17  C   UNL     1      39.690  37.320  31.599  1.00  0.00    -0.000 C 
BRANCH  17  18
ATOM     18  C   UNL     1      41.167  37.041  31.918  1.00  0.00    -0.000 C 
BRANCH  18  19
ATOM     19  C   UNL     1      41.635  37.725  33.211  1.00  0.00    -0.003 C 
ATOM     20  C   UNL     1      42.187  36.703  34.203  1.00  0.00     0.004 C 
ENDBRANCH  18  19
ENDBRANCH  17  18
ENDBRANCH  16  17
ENDBRANCH  15  16
ENDBRANCH  14  15
ENDBRANCH  13  14
ENDBRANCH   2  13
TORSDOF 15
ENDMDL
