MODEL 1
REMARK VINA RESULT:    -3.867      0.000      0.000
REMARK INTER + INTRA:          -8.999
REMARK INTER:                  -7.031
REMARK INTRA:                  -1.967
REMARK UNBOUND:                -1.967
REMARK SMILES CCCCCCCCCCCCCCCC(=O)[O-]
REMARK SMILES IDX 9 1 10 2 11 3 12 4 13 5 14 6 15 7 16 8 17 9 18 10 8 11 7 12
REMARK SMILES IDX 6 13 5 14 4 15 3 16 2 17 1 18
REMARK H PARENT
REMARK Flexibility Score: inf
ROOT
ATOM      1  C   UNL     1     -35.631 -44.518  27.068  1.00  0.00     0.000 C 
ENDROOT
BRANCH   1   2
ATOM      2  C   UNL     1     -35.920 -44.800  28.551  1.00  0.00     0.000 C 
BRANCH   2   3
ATOM      3  C   UNL     1     -34.982 -44.034  29.499  1.00  0.00     0.000 C 
BRANCH   3   4
ATOM      4  C   UNL     1     -35.368 -44.160  30.989  1.00  0.00     0.000 C 
BRANCH   4   5
ATOM      5  C   UNL     1     -34.577 -45.273  31.698  1.00  0.00     0.000 C 
BRANCH   5   6
ATOM      6  C   UNL     1     -35.484 -46.260  32.449  1.00  0.00     0.006 C 
BRANCH   6   7
ATOM      7  C   UNL     1     -34.952 -46.608  33.845  1.00  0.00     0.053 C 
BRANCH   7   8
ATOM      8  C   UNL     1     -35.914 -47.499  34.565  1.00  0.00     0.041 C 
ATOM      9  O   UNL     1     -37.137 -47.205  34.611  1.00  0.00    -0.550 OA
ATOM     10  O   UNL     1     -35.452 -48.629  35.227  1.00  0.00    -0.550 OA
ENDBRANCH   7   8
ENDBRANCH   6   7
ENDBRANCH   5   6
ENDBRANCH   4   5
ENDBRANCH   3   4
ENDBRANCH   2   3
ENDBRANCH   1   2
BRANCH   1  11
ATOM     11  C   UNL     1     -35.458 -45.800  26.234  1.00  0.00     0.000 C 
BRANCH  11  12
ATOM     12  C   UNL     1     -34.331 -45.757  25.186  1.00  0.00    -0.000 C 
BRANCH  12  13
ATOM     13  C   UNL     1     -33.548 -44.433  25.199  1.00  0.00    -0.000 C 
BRANCH  13  14
ATOM     14  C   UNL     1     -32.121 -44.596  25.748  1.00  0.00    -0.000 C 
BRANCH  14  15
ATOM     15  C   UNL     1     -31.926 -43.886  27.100  1.00  0.00    -0.000 C 
BRANCH  15  16
ATOM     16  C   UNL     1     -31.765 -44.873  28.267  1.00  0.00    -0.000 C 
BRANCH  16  17
ATOM     17  C   UNL     1     -31.844 -46.339  27.817  1.00  0.00    -0.003 C 
ATOM     18  C   UNL     1     -32.936 -47.087  28.576  1.00  0.00     0.004 C 
ENDBRANCH  16  17
ENDBRANCH  15  16
ENDBRANCH  14  15
ENDBRANCH  13  14
ENDBRANCH  12  13
ENDBRANCH  11  12
ENDBRANCH   1  11
TORSDOF 14
ENDMDL
MODEL 2
REMARK VINA RESULT:    -3.837      1.557      2.012
REMARK INTER + INTRA:          -8.944
REMARK INTER:                  -6.878
REMARK INTRA:                  -2.066
REMARK UNBOUND:                -1.967
REMARK SMILES CCCCCCCCCCCCCCCC(=O)[O-]
REMARK SMILES IDX 9 1 10 2 11 3 12 4 13 5 14 6 15 7 16 8 17 9 18 10 8 11 7 12
REMARK SMILES IDX 6 13 5 14 4 15 3 16 2 17 1 18
REMARK H PARENT
REMARK Flexibility Score: inf
ROOT
ATOM      1  C   UNL     1     -35.120 -46.125  26.762  1.00  0.00     0.000 C 
ENDROOT
BRANCH   1   2
ATOM      2  C   UNL     1     -35.973 -44.880  27.053  1.00  0.00     0.000 C 
BRANCH   2   3
ATOM      3  C   UNL     1     -36.240 -44.677  28.554  1.00  0.00     0.000 C 
BRANCH   3   4
ATOM      4  C   UNL     1     -35.182 -43.800  29.259  1.00  0.00     0.000 C 
BRANCH   4   5
ATOM      5  C   UNL     1     -34.665 -44.449  30.554  1.00  0.00     0.000 C 
BRANCH   5   6
ATOM      6  C   UNL     1     -35.743 -45.270  31.279  1.00  0.00     0.006 C 
BRANCH   6   7
ATOM      7  C   UNL     1     -35.161 -46.184  32.364  1.00  0.00     0.053 C 
BRANCH   7   8
ATOM      8  C   UNL     1     -35.279 -47.619  31.958  1.00  0.00     0.041 C 
ATOM      9  O   UNL     1     -34.460 -48.470  32.394  1.00  0.00    -0.550 OA
ATOM     10  O   UNL     1     -36.263 -48.008  31.059  1.00  0.00    -0.550 OA
ENDBRANCH   7   8
ENDBRANCH   6   7
ENDBRANCH   5   6
ENDBRANCH   4   5
ENDBRANCH   3   4
ENDBRANCH   2   3
ENDBRANCH   1   2
BRANCH   1  11
ATOM     11  C   UNL     1     -35.221 -46.594  25.299  1.00  0.00     0.000 C 
BRANCH  11  12
ATOM     12  C   UNL     1     -33.926 -46.470  24.476  1.00  0.00    -0.000 C 
BRANCH  12  13
ATOM     13  C   UNL     1     -33.606 -45.020  24.074  1.00  0.00    -0.000 C 
BRANCH  13  14
ATOM     14  C   UNL     1     -32.370 -44.465  24.801  1.00  0.00    -0.000 C 
BRANCH  14  15
ATOM     15  C   UNL     1     -32.728 -43.361  25.812  1.00  0.00    -0.000 C 
BRANCH  15  16
ATOM     16  C   UNL     1     -32.189 -43.653  27.221  1.00  0.00    -0.000 C 
BRANCH  16  17
ATOM     17  C   UNL     1     -31.391 -44.965  27.289  1.00  0.00    -0.003 C 
ATOM     18  C   UNL     1     -31.939 -45.882  28.379  1.00  0.00     0.004 C 
ENDBRANCH  16  17
ENDBRANCH  15  16
ENDBRANCH  14  15
ENDBRANCH  13  14
ENDBRANCH  12  13
ENDBRANCH  11  12
ENDBRANCH   1  11
TORSDOF 14
ENDMDL
MODEL 3
REMARK VINA RESULT:    -3.803      4.128      7.555
REMARK INTER + INTRA:          -8.883
REMARK INTER:                  -7.136
REMARK INTRA:                  -1.747
REMARK UNBOUND:                -1.967
REMARK SMILES CCCCCCCCCCCCCCCC(=O)[O-]
REMARK SMILES IDX 9 1 10 2 11 3 12 4 13 5 14 6 15 7 16 8 17 9 18 10 8 11 7 12
REMARK SMILES IDX 6 13 5 14 4 15 3 16 2 17 1 18
REMARK H PARENT
REMARK Flexibility Score: inf
ROOT
ATOM      1  C   UNL     1     -33.362 -49.974  35.003  1.00  0.00     0.000 C 
ENDROOT
BRANCH   1   2
ATOM      2  C   UNL     1     -34.581 -49.380  35.725  1.00  0.00     0.000 C 
BRANCH   2   3
ATOM      3  C   UNL     1     -35.591 -48.736  34.759  1.00  0.00     0.000 C 
BRANCH   3   4
ATOM      4  C   UNL     1     -35.416 -47.209  34.609  1.00  0.00     0.000 C 
BRANCH   4   5
ATOM      5  C   UNL     1     -34.635 -46.840  33.336  1.00  0.00     0.000 C 
BRANCH   5   6
ATOM      6  C   UNL     1     -33.971 -45.457  33.428  1.00  0.00     0.006 C 
BRANCH   6   7
ATOM      7  C   UNL     1     -33.399 -44.985  32.084  1.00  0.00     0.053 C 
BRANCH   7   8
ATOM      8  C   UNL     1     -34.505 -44.646  31.136  1.00  0.00     0.041 C 
ATOM      9  O   UNL     1     -35.339 -43.749  31.430  1.00  0.00    -0.550 OA
ATOM     10  O   UNL     1     -34.645 -45.354  29.950  1.00  0.00    -0.550 OA
ENDBRANCH   7   8
ENDBRANCH   6   7
ENDBRANCH   5   6
ENDBRANCH   4   5
ENDBRANCH   3   4
ENDBRANCH   2   3
ENDBRANCH   1   2
BRANCH   1  11
ATOM     11  C   UNL     1     -32.022 -49.478  35.577  1.00  0.00     0.000 C 
BRANCH  11  12
ATOM     12  C   UNL     1     -32.134 -48.435  36.705  1.00  0.00    -0.000 C 
BRANCH  12  13
ATOM     13  C   UNL     1     -31.996 -46.988  36.202  1.00  0.00    -0.000 C 
BRANCH  13  14
ATOM     14  C   UNL     1     -30.737 -46.779  35.345  1.00  0.00    -0.000 C 
BRANCH  14  15
ATOM     15  C   UNL     1     -30.581 -45.321  34.873  1.00  0.00    -0.000 C 
BRANCH  15  16
ATOM     16  C   UNL     1     -29.942 -45.217  33.479  1.00  0.00    -0.000 C 
BRANCH  16  17
ATOM     17  C   UNL     1     -28.550 -44.568  33.512  1.00  0.00    -0.003 C 
ATOM     18  C   UNL     1     -27.482 -45.538  33.014  1.00  0.00     0.004 C 
ENDBRANCH  16  17
ENDBRANCH  15  16
ENDBRANCH  14  15
ENDBRANCH  13  14
ENDBRANCH  12  13
ENDBRANCH  11  12
ENDBRANCH   1  11
TORSDOF 14
ENDMDL
MODEL 4
REMARK VINA RESULT:    -3.794      8.118     10.573
REMARK INTER + INTRA:          -8.867
REMARK INTER:                  -7.807
REMARK INTRA:                  -1.060
REMARK UNBOUND:                -1.967
REMARK SMILES CCCCCCCCCCCCCCCC(=O)[O-]
REMARK SMILES IDX 9 1 10 2 11 3 12 4 13 5 14 6 15 7 16 8 17 9 18 10 8 11 7 12
REMARK SMILES IDX 6 13 5 14 4 15 3 16 2 17 1 18
REMARK H PARENT
REMARK Flexibility Score: inf
ROOT
ATOM      1  C   UNL     1     -33.301 -49.463  23.086  1.00  0.00     0.000 C 
ENDROOT
BRANCH   1   2
ATOM      2  C   UNL     1     -31.954 -48.814  23.440  1.00  0.00     0.000 C 
BRANCH   2   3
ATOM      3  C   UNL     1     -30.761 -49.760  23.225  1.00  0.00     0.000 C 
BRANCH   3   4
ATOM      4  C   UNL     1     -31.148 -51.111  22.587  1.00  0.00     0.000 C 
BRANCH   4   5
ATOM      5  C   UNL     1     -30.946 -52.287  23.558  1.00  0.00     0.000 C 
BRANCH   5   6
ATOM      6  C   UNL     1     -29.519 -52.351  24.123  1.00  0.00     0.006 C 
BRANCH   6   7
ATOM      7  C   UNL     1     -28.571 -53.176  23.243  1.00  0.00     0.053 C 
BRANCH   7   8
ATOM      8  C   UNL     1     -28.003 -54.323  24.017  1.00  0.00     0.041 C 
ATOM      9  O   UNL     1     -27.659 -54.168  25.218  1.00  0.00    -0.550 OA
ATOM     10  O   UNL     1     -27.808 -55.551  23.399  1.00  0.00    -0.550 OA
ENDBRANCH   7   8
ENDBRANCH   6   7
ENDBRANCH   5   6
ENDBRANCH   4   5
ENDBRANCH   3   4
ENDBRANCH   2   3
ENDBRANCH   1   2
BRANCH   1  11
ATOM     11  C   UNL     1     -34.144 -49.815  24.326  1.00  0.00     0.000 C 
BRANCH  11  12
ATOM     12  C   UNL     1     -34.925 -51.139  24.237  1.00  0.00    -0.000 C 
BRANCH  12  13
ATOM     13  C   UNL     1     -34.260 -52.283  25.022  1.00  0.00    -0.000 C 
BRANCH  13  14
ATOM     14  C   UNL     1     -34.345 -52.082  26.544  1.00  0.00    -0.000 C 
BRANCH  14  15
ATOM     15  C   UNL     1     -34.645 -53.392  27.295  1.00  0.00    -0.000 C 
BRANCH  15  16
ATOM     16  C   UNL     1     -35.503 -53.170  28.551  1.00  0.00    -0.000 C 
BRANCH  16  17
ATOM     17  C   UNL     1     -36.328 -54.409  28.931  1.00  0.00    -0.003 C 
ATOM     18  C   UNL     1     -35.421 -55.599  29.232  1.00  0.00     0.004 C 
ENDBRANCH  16  17
ENDBRANCH  15  16
ENDBRANCH  14  15
ENDBRANCH  13  14
ENDBRANCH  12  13
ENDBRANCH  11  12
ENDBRANCH   1  11
TORSDOF 14
ENDMDL
MODEL 5
REMARK VINA RESULT:    -3.779      2.847      4.915
REMARK INTER + INTRA:          -8.839
REMARK INTER:                  -7.055
REMARK INTRA:                  -1.784
REMARK UNBOUND:                -1.967
REMARK SMILES CCCCCCCCCCCCCCCC(=O)[O-]
REMARK SMILES IDX 9 1 10 2 11 3 12 4 13 5 14 6 15 7 16 8 17 9 18 10 8 11 7 12
REMARK SMILES IDX 6 13 5 14 4 15 3 16 2 17 1 18
REMARK H PARENT
REMARK Flexibility Score: inf
ROOT
ATOM      1  C   UNL     1     -34.038 -46.424  29.443  1.00  0.00     0.000 C 
ENDROOT
BRANCH   1   2
ATOM      2  C   UNL     1     -35.450 -45.818  29.484  1.00  0.00     0.000 C 
BRANCH   2   3
ATOM      3  C   UNL     1     -36.354 -46.481  30.537  1.00  0.00     0.000 C 
BRANCH   3   4
ATOM      4  C   UNL     1     -35.966 -47.941  30.856  1.00  0.00     0.000 C 
BRANCH   4   5
ATOM      5  C   UNL     1     -35.344 -48.081  32.255  1.00  0.00     0.000 C 
BRANCH   5   6
ATOM      6  C   UNL     1     -36.156 -47.356  33.341  1.00  0.00     0.006 C 
BRANCH   6   7
ATOM      7  C   UNL     1     -35.370 -47.177  34.646  1.00  0.00     0.053 C 
BRANCH   7   8
ATOM      8  C   UNL     1     -34.762 -48.475  35.073  1.00  0.00     0.041 C 
ATOM      9  O   UNL     1     -33.511 -48.595  35.147  1.00  0.00    -0.550 OA
ATOM     10  O   UNL     1     -35.575 -49.568  35.342  1.00  0.00    -0.550 OA
ENDBRANCH   7   8
ENDBRANCH   6   7
ENDBRANCH   5   6
ENDBRANCH   4   5
ENDBRANCH   3   4
ENDBRANCH   2   3
ENDBRANCH   1   2
BRANCH   1  11
ATOM     11  C   UNL     1     -32.977 -45.523  30.101  1.00  0.00     0.000 C 
BRANCH  11  12
ATOM     12  C   UNL     1     -32.841 -45.672  31.627  1.00  0.00    -0.000 C 
BRANCH  12  13
ATOM     13  C   UNL     1     -33.677 -44.644  32.409  1.00  0.00    -0.000 C 
BRANCH  13  14
ATOM     14  C   UNL     1     -32.984 -44.177  33.699  1.00  0.00    -0.000 C 
BRANCH  14  15
ATOM     15  C   UNL     1     -32.030 -45.241  34.273  1.00  0.00    -0.000 C 
BRANCH  15  16
ATOM     16  C   UNL     1     -30.610 -44.699  34.499  1.00  0.00    -0.000 C 
BRANCH  16  17
ATOM     17  C   UNL     1     -29.550 -45.459  33.687  1.00  0.00    -0.003 C 
ATOM     18  C   UNL     1     -28.328 -44.583  33.426  1.00  0.00     0.004 C 
ENDBRANCH  16  17
ENDBRANCH  15  16
ENDBRANCH  14  15
ENDBRANCH  13  14
ENDBRANCH  12  13
ENDBRANCH  11  12
ENDBRANCH   1  11
TORSDOF 14
ENDMDL
MODEL 6
REMARK VINA RESULT:    -3.770      7.750      9.520
REMARK INTER + INTRA:          -8.822
REMARK INTER:                  -7.508
REMARK INTRA:                  -1.314
REMARK UNBOUND:                -1.967
REMARK SMILES CCCCCCCCCCCCCCCC(=O)[O-]
REMARK SMILES IDX 9 1 10 2 11 3 12 4 13 5 14 6 15 7 16 8 17 9 18 10 8 11 7 12
REMARK SMILES IDX 6 13 5 14 4 15 3 16 2 17 1 18
REMARK H PARENT
REMARK Flexibility Score: inf
ROOT
ATOM      1  C   UNL     1     -33.019 -53.381  31.571  1.00  0.00     0.000 C 
ENDROOT
BRANCH   1   2
ATOM      2  C   UNL     1     -33.107 -53.209  33.096  1.00  0.00     0.000 C 
BRANCH   2   3
ATOM      3  C   UNL     1     -31.746 -53.371  33.795  1.00  0.00     0.000 C 
BRANCH   3   4
ATOM      4  C   UNL     1     -30.958 -52.050  33.928  1.00  0.00     0.000 C 
BRANCH   4   5
ATOM      5  C   UNL     1     -30.182 -51.973  35.255  1.00  0.00     0.000 C 
BRANCH   5   6
ATOM      6  C   UNL     1     -28.674 -52.208  35.074  1.00  0.00     0.006 C 
BRANCH   6   7
ATOM      7  C   UNL     1     -28.257 -52.270  33.599  1.00  0.00     0.053 C 
BRANCH   7   8
ATOM      8  C   UNL     1     -27.739 -53.631  33.259  1.00  0.00     0.041 C 
ATOM      9  O   UNL     1     -26.879 -53.773  32.350  1.00  0.00    -0.550 OA
ATOM     10  O   UNL     1     -28.241 -54.750  33.911  1.00  0.00    -0.550 OA
ENDBRANCH   7   8
ENDBRANCH   6   7
ENDBRANCH   5   6
ENDBRANCH   4   5
ENDBRANCH   3   4
ENDBRANCH   2   3
ENDBRANCH   1   2
BRANCH   1  11
ATOM     11  C   UNL     1     -32.884 -52.043  30.821  1.00  0.00     0.000 C 
BRANCH  11  12
ATOM     12  C   UNL     1     -32.000 -52.080  29.561  1.00  0.00    -0.000 C 
BRANCH  12  13
ATOM     13  C   UNL     1     -32.581 -52.964  28.445  1.00  0.00    -0.000 C 
BRANCH  13  14
ATOM     14  C   UNL     1     -33.572 -52.205  27.547  1.00  0.00    -0.000 C 
BRANCH  14  15
ATOM     15  C   UNL     1     -34.862 -53.004  27.287  1.00  0.00    -0.000 C 
BRANCH  15  16
ATOM     16  C   UNL     1     -35.619 -53.339  28.582  1.00  0.00    -0.000 C 
BRANCH  16  17
ATOM     17  C   UNL     1     -36.086 -54.802  28.634  1.00  0.00    -0.003 C 
ATOM     18  C   UNL     1     -35.327 -55.582  29.705  1.00  0.00     0.004 C 
ENDBRANCH  16  17
ENDBRANCH  15  16
ENDBRANCH  14  15
ENDBRANCH  13  14
ENDBRANCH  12  13
ENDBRANCH  11  12
ENDBRANCH   1  11
TORSDOF 14
ENDMDL
MODEL 7
REMARK VINA RESULT:    -3.724      1.553      3.244
REMARK INTER + INTRA:          -8.739
REMARK INTER:                  -6.474
REMARK INTRA:                  -2.264
REMARK UNBOUND:                -1.967
REMARK SMILES CCCCCCCCCCCCCCCC(=O)[O-]
REMARK SMILES IDX 9 1 10 2 11 3 12 4 13 5 14 6 15 7 16 8 17 9 18 10 8 11 7 12
REMARK SMILES IDX 6 13 5 14 4 15 3 16 2 17 1 18
REMARK H PARENT
REMARK Flexibility Score: inf
ROOT
ATOM      1  C   UNL     1     -32.707 -46.388  28.812  1.00  0.00     0.000 C 
ENDROOT
BRANCH   1   2
ATOM      2  C   UNL     1     -34.153 -46.876  28.633  1.00  0.00     0.000 C 
BRANCH   2   3
ATOM      3  C   UNL     1     -35.047 -45.846  27.922  1.00  0.00     0.000 C 
BRANCH   3   4
ATOM      4  C   UNL     1     -35.950 -45.042  28.882  1.00  0.00     0.000 C 
BRANCH   4   5
ATOM      5  C   UNL     1     -35.206 -43.855  29.518  1.00  0.00     0.000 C 
BRANCH   5   6
ATOM      6  C   UNL     1     -35.268 -43.870  31.054  1.00  0.00     0.006 C 
BRANCH   6   7
ATOM      7  C   UNL     1     -34.172 -44.741  31.681  1.00  0.00     0.053 C 
BRANCH   7   8
ATOM      8  C   UNL     1     -34.778 -45.816  32.527  1.00  0.00     0.041 C 
ATOM      9  O   UNL     1     -34.446 -45.934  33.735  1.00  0.00    -0.550 OA
ATOM     10  O   UNL     1     -35.672 -46.719  31.967  1.00  0.00    -0.550 OA
ENDBRANCH   7   8
ENDBRANCH   6   7
ENDBRANCH   5   6
ENDBRANCH   4   5
ENDBRANCH   3   4
ENDBRANCH   2   3
ENDBRANCH   1   2
BRANCH   1  11
ATOM     11  C   UNL     1     -32.083 -45.862  27.506  1.00  0.00     0.000 C 
BRANCH  11  12
ATOM     12  C   UNL     1     -31.596 -44.402  27.550  1.00  0.00    -0.000 C 
BRANCH  12  13
ATOM     13  C   UNL     1     -32.518 -43.437  26.784  1.00  0.00    -0.000 C 
BRANCH  13  14
ATOM     14  C   UNL     1     -32.557 -43.730  25.275  1.00  0.00    -0.000 C 
BRANCH  14  15
ATOM     15  C   UNL     1     -33.864 -44.419  24.843  1.00  0.00    -0.000 C 
BRANCH  15  16
ATOM     16  C   UNL     1     -33.615 -45.707  24.041  1.00  0.00    -0.000 C 
BRANCH  16  17
ATOM     17  C   UNL     1     -34.658 -46.797  24.333  1.00  0.00    -0.003 C 
ATOM     18  C   UNL     1     -34.015 -47.998  25.021  1.00  0.00     0.004 C 
ENDBRANCH  16  17
ENDBRANCH  15  16
ENDBRANCH  14  15
ENDBRANCH  13  14
ENDBRANCH  12  13
ENDBRANCH  11  12
ENDBRANCH   1  11
TORSDOF 14
ENDMDL
MODEL 8
REMARK VINA RESULT:    -3.699      9.190     10.766
REMARK INTER + INTRA:          -8.694
REMARK INTER:                  -6.370
REMARK INTRA:                  -2.324
REMARK UNBOUND:                -1.967
REMARK SMILES CCCCCCCCCCCCCCCC(=O)[O-]
REMARK SMILES IDX 9 1 10 2 11 3 12 4 13 5 14 6 15 7 16 8 17 9 18 10 8 11 7 12
REMARK SMILES IDX 6 13 5 14 4 15 3 16 2 17 1 18
REMARK H PARENT
REMARK Flexibility Score: inf
ROOT
ATOM      1  C   UNL     1     -26.541 -50.506  29.755  1.00  0.00     0.000 C 
ENDROOT
BRANCH   1   2
ATOM      2  C   UNL     1     -25.964 -49.610  30.861  1.00  0.00     0.000 C 
BRANCH   2   3
ATOM      3  C   UNL     1     -24.628 -50.132  31.417  1.00  0.00     0.000 C 
BRANCH   3   4
ATOM      4  C   UNL     1     -24.785 -51.323  32.388  1.00  0.00     0.000 C 
BRANCH   4   5
ATOM      5  C   UNL     1     -24.874 -50.865  33.854  1.00  0.00     0.000 C 
BRANCH   5   6
ATOM      6  C   UNL     1     -26.250 -51.143  34.479  1.00  0.00     0.006 C 
BRANCH   6   7
ATOM      7  C   UNL     1     -26.924 -52.391  33.894  1.00  0.00     0.053 C 
BRANCH   7   8
ATOM      8  C   UNL     1     -28.404 -52.192  33.802  1.00  0.00     0.041 C 
ATOM      9  O   UNL     1     -29.183 -53.174  33.919  1.00  0.00    -0.550 OA
ATOM     10  O   UNL     1     -28.921 -50.931  33.538  1.00  0.00    -0.550 OA
ENDBRANCH   7   8
ENDBRANCH   6   7
ENDBRANCH   5   6
ENDBRANCH   4   5
ENDBRANCH   3   4
ENDBRANCH   2   3
ENDBRANCH   1   2
BRANCH   1  11
ATOM     11  C   UNL     1     -27.802 -51.272  30.197  1.00  0.00     0.000 C 
BRANCH  11  12
ATOM     12  C   UNL     1     -27.809 -52.775  29.865  1.00  0.00    -0.000 C 
BRANCH  12  13
ATOM     13  C   UNL     1     -26.597 -53.525  30.443  1.00  0.00    -0.000 C 
BRANCH  13  14
ATOM     14  C   UNL     1     -25.787 -54.260  29.362  1.00  0.00    -0.000 C 
BRANCH  14  15
ATOM     15  C   UNL     1     -24.571 -53.447  28.882  1.00  0.00    -0.000 C 
BRANCH  15  16
ATOM     16  C   UNL     1     -24.619 -53.148  27.375  1.00  0.00    -0.000 C 
BRANCH  16  17
ATOM     17  C   UNL     1     -25.978 -53.494  26.746  1.00  0.00    -0.003 C 
ATOM     18  C   UNL     1     -26.700 -52.233  26.277  1.00  0.00     0.004 C 
ENDBRANCH  16  17
ENDBRANCH  15  16
ENDBRANCH  14  15
ENDBRANCH  13  14
ENDBRANCH  12  13
ENDBRANCH  11  12
ENDBRANCH   1  11
TORSDOF 14
ENDMDL
MODEL 9
REMARK VINA RESULT:    -3.672      5.066      6.575
REMARK INTER + INTRA:          -8.645
REMARK INTER:                  -6.745
REMARK INTRA:                  -1.900
REMARK UNBOUND:                -1.967
REMARK SMILES CCCCCCCCCCCCCCCC(=O)[O-]
REMARK SMILES IDX 9 1 10 2 11 3 12 4 13 5 14 6 15 7 16 8 17 9 18 10 8 11 7 12
REMARK SMILES IDX 6 13 5 14 4 15 3 16 2 17 1 18
REMARK H PARENT
REMARK Flexibility Score: inf
ROOT
ATOM      1  C   UNL     1     -35.765 -46.837  32.637  1.00  0.00     0.000 C 
ENDROOT
BRANCH   1   2
ATOM      2  C   UNL     1     -36.406 -47.488  33.873  1.00  0.00     0.000 C 
BRANCH   2   3
ATOM      3  C   UNL     1     -35.394 -47.753  35.001  1.00  0.00     0.000 C 
BRANCH   3   4
ATOM      4  C   UNL     1     -35.259 -49.246  35.373  1.00  0.00     0.000 C 
BRANCH   4   5
ATOM      5  C   UNL     1     -33.867 -49.803  35.029  1.00  0.00     0.000 C 
BRANCH   5   6
ATOM      6  C   UNL     1     -32.739 -49.094  35.795  1.00  0.00     0.006 C 
BRANCH   6   7
ATOM      7  C   UNL     1     -31.475 -48.907  34.945  1.00  0.00     0.053 C 
BRANCH   7   8
ATOM      8  C   UNL     1     -30.317 -49.621  35.567  1.00  0.00     0.041 C 
ATOM      9  O   UNL     1     -29.277 -48.986  35.882  1.00  0.00    -0.550 OA
ATOM     10  O   UNL     1     -30.367 -50.997  35.752  1.00  0.00    -0.550 OA
ENDBRANCH   7   8
ENDBRANCH   6   7
ENDBRANCH   5   6
ENDBRANCH   4   5
ENDBRANCH   3   4
ENDBRANCH   2   3
ENDBRANCH   1   2
BRANCH   1  11
ATOM     11  C   UNL     1     -34.400 -47.450  32.274  1.00  0.00     0.000 C 
BRANCH  11  12
ATOM     12  C   UNL     1     -33.201 -46.486  32.358  1.00  0.00    -0.000 C 
BRANCH  12  13
ATOM     13  C   UNL     1     -33.621 -45.023  32.583  1.00  0.00    -0.000 C 
BRANCH  13  14
ATOM     14  C   UNL     1     -33.217 -44.500  33.971  1.00  0.00    -0.000 C 
BRANCH  14  15
ATOM     15  C   UNL     1     -31.998 -45.243  34.549  1.00  0.00    -0.000 C 
BRANCH  15  16
ATOM     16  C   UNL     1     -30.673 -44.524  34.251  1.00  0.00    -0.000 C 
BRANCH  16  17
ATOM     17  C   UNL     1     -29.581 -45.479  33.745  1.00  0.00    -0.003 C 
ATOM     18  C   UNL     1     -28.279 -44.730  33.477  1.00  0.00     0.004 C 
ENDBRANCH  16  17
ENDBRANCH  15  16
ENDBRANCH  14  15
ENDBRANCH  13  14
ENDBRANCH  12  13
ENDBRANCH  11  12
ENDBRANCH   1  11
TORSDOF 14
ENDMDL
