MODEL 1
REMARK VINA RESULT:    -4.636      0.000      0.000
REMARK INTER + INTRA:          -9.607
REMARK INTER:                  -8.431
REMARK INTRA:                  -1.176
REMARK UNBOUND:                -1.176
REMARK SMILES CCCCCCCCCCCCCCCC(=O)[O-]
REMARK SMILES IDX 9 1 10 2 11 3 12 4 13 5 14 6 15 7 16 8 17 9 18 10 8 11 7 12
REMARK SMILES IDX 6 13 5 14 4 15 3 16 2 17 1 18
REMARK H PARENT
REMARK Flexibility Score: inf
ROOT
ATOM      1  C   UNL     1       3.120   9.459  83.557  1.00  0.00     0.000 C 
ENDROOT
BRANCH   1   2
ATOM      2  C   UNL     1       3.932  10.680  83.107  1.00  0.00     0.000 C 
BRANCH   2   3
ATOM      3  C   UNL     1       4.877  10.318  81.952  1.00  0.00     0.000 C 
BRANCH   3   4
ATOM      4  C   UNL     1       5.262   8.828  81.939  1.00  0.00     0.000 C 
BRANCH   4   5
ATOM      5  C   UNL     1       6.726   8.535  81.555  1.00  0.00     0.000 C 
BRANCH   5   6
ATOM      6  C   UNL     1       6.911   7.674  80.288  1.00  0.00     0.006 C 
BRANCH   6   7
ATOM      7  C   UNL     1       8.216   7.944  79.524  1.00  0.00     0.053 C 
BRANCH   7   8
ATOM      8  C   UNL     1       9.044   6.705  79.377  1.00  0.00     0.041 C 
ATOM      9  O   UNL     1       8.531   5.572  79.573  1.00  0.00    -0.550 OA
ATOM     10  O   UNL     1      10.375   6.800  78.991  1.00  0.00    -0.550 OA
ENDBRANCH   7   8
ENDBRANCH   6   7
ENDBRANCH   5   6
ENDBRANCH   4   5
ENDBRANCH   3   4
ENDBRANCH   2   3
ENDBRANCH   1   2
BRANCH   1  11
ATOM     11  C   UNL     1       2.190   9.814  84.723  1.00  0.00     0.000 C 
BRANCH  11  12
ATOM     12  C   UNL     1       2.990  10.049  86.012  1.00  0.00    -0.000 C 
BRANCH  12  13
ATOM     13  C   UNL     1       2.097  10.115  87.262  1.00  0.00    -0.000 C 
BRANCH  13  14
ATOM     14  C   UNL     1       1.975   8.756  87.973  1.00  0.00    -0.000 C 
BRANCH  14  15
ATOM     15  C   UNL     1       0.765   7.941  87.487  1.00  0.00    -0.000 C 
BRANCH  15  16
ATOM     16  C   UNL     1       1.135   6.502  87.096  1.00  0.00    -0.000 C 
BRANCH  16  17
ATOM     17  C   UNL     1       1.442   6.403  85.598  1.00  0.00    -0.003 C 
ATOM     18  C   UNL     1       2.913   6.080  85.356  1.00  0.00     0.004 C 
ENDBRANCH  16  17
ENDBRANCH  15  16
ENDBRANCH  14  15
ENDBRANCH  13  14
ENDBRANCH  12  13
ENDBRANCH  11  12
ENDBRANCH   1  11
TORSDOF 14
ENDMDL
MODEL 2
REMARK VINA RESULT:    -4.583      1.531      2.330
REMARK INTER + INTRA:          -9.511
REMARK INTER:                  -8.466
REMARK INTRA:                  -1.045
REMARK UNBOUND:                -1.176
REMARK SMILES CCCCCCCCCCCCCCCC(=O)[O-]
REMARK SMILES IDX 9 1 10 2 11 3 12 4 13 5 14 6 15 7 16 8 17 9 18 10 8 11 7 12
REMARK SMILES IDX 6 13 5 14 4 15 3 16 2 17 1 18
REMARK H PARENT
REMARK Flexibility Score: inf
ROOT
ATOM      1  C   UNL     1       4.172   8.916  82.568  1.00  0.00     0.000 C 
ENDROOT
BRANCH   1   2
ATOM      2  C   UNL     1       5.506   9.554  82.162  1.00  0.00     0.000 C 
BRANCH   2   3
ATOM      3  C   UNL     1       6.385   8.554  81.398  1.00  0.00     0.000 C 
BRANCH   3   4
ATOM      4  C   UNL     1       7.176   9.207  80.251  1.00  0.00     0.000 C 
BRANCH   4   5
ATOM      5  C   UNL     1       8.600   8.655  80.042  1.00  0.00     0.000 C 
BRANCH   5   6
ATOM      6  C   UNL     1       8.724   7.547  78.976  1.00  0.00     0.006 C 
BRANCH   6   7
ATOM      7  C   UNL     1       9.781   6.478  79.292  1.00  0.00     0.053 C 
BRANCH   7   8
ATOM      8  C   UNL     1       9.157   5.179  79.701  1.00  0.00     0.041 C 
ATOM      9  O   UNL     1       9.869   4.149  79.836  1.00  0.00    -0.550 OA
ATOM     10  O   UNL     1       7.796   5.115  79.964  1.00  0.00    -0.550 OA
ENDBRANCH   7   8
ENDBRANCH   6   7
ENDBRANCH   5   6
ENDBRANCH   4   5
ENDBRANCH   3   4
ENDBRANCH   2   3
ENDBRANCH   1   2
BRANCH   1  11
ATOM     11  C   UNL     1       3.256   9.938  83.252  1.00  0.00     0.000 C 
BRANCH  11  12
ATOM     12  C   UNL     1       1.791   9.722  82.846  1.00  0.00    -0.000 C 
BRANCH  12  13
ATOM     13  C   UNL     1       0.799  10.296  83.870  1.00  0.00    -0.000 C 
BRANCH  13  14
ATOM     14  C   UNL     1       1.039   9.756  85.291  1.00  0.00    -0.000 C 
BRANCH  14  15
ATOM     15  C   UNL     1       0.100   8.590  85.645  1.00  0.00    -0.000 C 
BRANCH  15  16
ATOM     16  C   UNL     1       0.798   7.223  85.574  1.00  0.00    -0.000 C 
BRANCH  16  17
ATOM     17  C   UNL     1       2.315   7.374  85.728  1.00  0.00    -0.003 C 
ATOM     18  C   UNL     1       3.042   6.097  85.315  1.00  0.00     0.004 C 
ENDBRANCH  16  17
ENDBRANCH  15  16
ENDBRANCH  14  15
ENDBRANCH  13  14
ENDBRANCH  12  13
ENDBRANCH  11  12
ENDBRANCH   1  11
TORSDOF 14
ENDMDL
MODEL 3
REMARK VINA RESULT:    -4.538      1.674      2.509
REMARK INTER + INTRA:          -9.429
REMARK INTER:                  -8.473
REMARK INTRA:                  -0.956
REMARK UNBOUND:                -1.176
REMARK SMILES CCCCCCCCCCCCCCCC(=O)[O-]
REMARK SMILES IDX 9 1 10 2 11 3 12 4 13 5 14 6 15 7 16 8 17 9 18 10 8 11 7 12
REMARK SMILES IDX 6 13 5 14 4 15 3 16 2 17 1 18
REMARK H PARENT
REMARK Flexibility Score: inf
ROOT
ATOM      1  C   UNL     1       2.780   9.048  83.923  1.00  0.00     0.000 C 
ENDROOT
BRANCH   1   2
ATOM      2  C   UNL     1       2.224  10.005  82.862  1.00  0.00     0.000 C 
BRANCH   2   3
ATOM      3  C   UNL     1       3.337  10.889  82.280  1.00  0.00     0.000 C 
BRANCH   3   4
ATOM      4  C   UNL     1       4.747  10.383  82.631  1.00  0.00     0.000 C 
BRANCH   4   5
ATOM      5  C   UNL     1       5.607   9.958  81.424  1.00  0.00     0.000 C 
BRANCH   5   6
ATOM      6  C   UNL     1       6.513   8.732  81.663  1.00  0.00     0.006 C 
BRANCH   6   7
ATOM      7  C   UNL     1       7.527   8.464  80.541  1.00  0.00     0.053 C 
BRANCH   7   8
ATOM      8  C   UNL     1       7.429   7.062  80.023  1.00  0.00     0.041 C 
ATOM      9  O   UNL     1       8.461   6.347  79.930  1.00  0.00    -0.550 OA
ATOM     10  O   UNL     1       6.193   6.536  79.673  1.00  0.00    -0.550 OA
ENDBRANCH   7   8
ENDBRANCH   6   7
ENDBRANCH   5   6
ENDBRANCH   4   5
ENDBRANCH   3   4
ENDBRANCH   2   3
ENDBRANCH   1   2
BRANCH   1  11
ATOM     11  C   UNL     1       2.355   9.479  85.332  1.00  0.00     0.000 C 
BRANCH  11  12
ATOM     12  C   UNL     1       2.521   8.326  86.333  1.00  0.00    -0.000 C 
BRANCH  12  13
ATOM     13  C   UNL     1       1.208   7.571  86.594  1.00  0.00    -0.000 C 
BRANCH  13  14
ATOM     14  C   UNL     1       1.344   6.055  86.365  1.00  0.00    -0.000 C 
BRANCH  14  15
ATOM     15  C   UNL     1       2.641   5.682  85.628  1.00  0.00    -0.000 C 
BRANCH  15  16
ATOM     16  C   UNL     1       3.007   4.198  85.782  1.00  0.00    -0.000 C 
BRANCH  16  17
ATOM     17  C   UNL     1       2.388   3.611  87.056  1.00  0.00    -0.003 C 
ATOM     18  C   UNL     1       3.270   2.514  87.643  1.00  0.00     0.004 C 
ENDBRANCH  16  17
ENDBRANCH  15  16
ENDBRANCH  14  15
ENDBRANCH  13  14
ENDBRANCH  12  13
ENDBRANCH  11  12
ENDBRANCH   1  11
TORSDOF 14
ENDMDL
MODEL 4
REMARK VINA RESULT:    -4.461      1.177      1.657
REMARK INTER + INTRA:          -9.288
REMARK INTER:                  -8.094
REMARK INTRA:                  -1.194
REMARK UNBOUND:                -1.176
REMARK SMILES CCCCCCCCCCCCCCCC(=O)[O-]
REMARK SMILES IDX 9 1 10 2 11 3 12 4 13 5 14 6 15 7 16 8 17 9 18 10 8 11 7 12
REMARK SMILES IDX 6 13 5 14 4 15 3 16 2 17 1 18
REMARK H PARENT
REMARK Flexibility Score: inf
ROOT
ATOM      1  C   UNL     1       2.861   9.810  82.641  1.00  0.00     0.000 C 
ENDROOT
BRANCH   1   2
ATOM      2  C   UNL     1       3.793  10.492  83.650  1.00  0.00     0.000 C 
BRANCH   2   3
ATOM      3  C   UNL     1       5.201  10.675  83.063  1.00  0.00     0.000 C 
BRANCH   3   4
ATOM      4  C   UNL     1       5.394   9.930  81.731  1.00  0.00     0.000 C 
BRANCH   4   5
ATOM      5  C   UNL     1       6.333   8.708  81.796  1.00  0.00     0.000 C 
BRANCH   5   6
ATOM      6  C   UNL     1       7.130   8.425  80.507  1.00  0.00     0.006 C 
BRANCH   6   7
ATOM      7  C   UNL     1       7.139   6.950  80.078  1.00  0.00     0.053 C 
BRANCH   7   8
ATOM      8  C   UNL     1       8.490   6.516  79.598  1.00  0.00     0.041 C 
ATOM      9  O   UNL     1       9.350   7.372  79.263  1.00  0.00    -0.550 OA
ATOM     10  O   UNL     1       8.810   5.165  79.552  1.00  0.00    -0.550 OA
ENDBRANCH   7   8
ENDBRANCH   6   7
ENDBRANCH   5   6
ENDBRANCH   4   5
ENDBRANCH   3   4
ENDBRANCH   2   3
ENDBRANCH   1   2
BRANCH   1  11
ATOM     11  C   UNL     1       1.399   9.896  83.095  1.00  0.00     0.000 C 
BRANCH  11  12
ATOM     12  C   UNL     1       1.307  10.197  84.598  1.00  0.00    -0.000 C 
BRANCH  12  13
ATOM     13  C   UNL     1       0.455   9.169  85.360  1.00  0.00    -0.000 C 
BRANCH  13  14
ATOM     14  C   UNL     1       1.185   8.589  86.585  1.00  0.00    -0.000 C 
BRANCH  14  15
ATOM     15  C   UNL     1       2.608   8.112  86.253  1.00  0.00    -0.000 C 
BRANCH  15  16
ATOM     16  C   UNL     1       2.628   6.967  85.230  1.00  0.00    -0.000 C 
BRANCH  16  17
ATOM     17  C   UNL     1       1.830   5.762  85.741  1.00  0.00    -0.003 C 
ATOM     18  C   UNL     1       2.739   4.561  85.983  1.00  0.00     0.004 C 
ENDBRANCH  16  17
ENDBRANCH  15  16
ENDBRANCH  14  15
ENDBRANCH  13  14
ENDBRANCH  12  13
ENDBRANCH  11  12
ENDBRANCH   1  11
TORSDOF 14
ENDMDL
MODEL 5
REMARK VINA RESULT:    -4.324      3.230      5.720
REMARK INTER + INTRA:          -9.039
REMARK INTER:                  -7.652
REMARK INTRA:                  -1.388
REMARK UNBOUND:                -1.176
REMARK SMILES CCCCCCCCCCCCCCCC(=O)[O-]
REMARK SMILES IDX 9 1 10 2 11 3 12 4 13 5 14 6 15 7 16 8 17 9 18 10 8 11 7 12
REMARK SMILES IDX 6 13 5 14 4 15 3 16 2 17 1 18
REMARK H PARENT
REMARK Flexibility Score: inf
ROOT
ATOM      1  C   UNL     1       3.332  10.357  82.956  1.00  0.00     0.000 C 
ENDROOT
BRANCH   1   2
ATOM      2  C   UNL     1       4.189   9.126  82.638  1.00  0.00     0.000 C 
BRANCH   2   3
ATOM      3  C   UNL     1       5.539   9.536  82.032  1.00  0.00     0.000 C 
BRANCH   3   4
ATOM      4  C   UNL     1       6.286   8.357  81.384  1.00  0.00     0.000 C 
BRANCH   4   5
ATOM      5  C   UNL     1       7.557   8.742  80.600  1.00  0.00     0.000 C 
BRANCH   5   6
ATOM      6  C   UNL     1       7.791   7.946  79.300  1.00  0.00     0.006 C 
BRANCH   6   7
ATOM      7  C   UNL     1       9.017   7.022  79.334  1.00  0.00     0.053 C 
BRANCH   7   8
ATOM      8  C   UNL     1       8.645   5.610  79.671  1.00  0.00     0.041 C 
ATOM      9  O   UNL     1       7.438   5.298  79.849  1.00  0.00    -0.550 OA
ATOM     10  O   UNL     1       9.628   4.634  79.758  1.00  0.00    -0.550 OA
ENDBRANCH   7   8
ENDBRANCH   6   7
ENDBRANCH   5   6
ENDBRANCH   4   5
ENDBRANCH   3   4
ENDBRANCH   2   3
ENDBRANCH   1   2
BRANCH   1  11
ATOM     11  C   UNL     1       1.939  10.238  82.327  1.00  0.00     0.000 C 
BRANCH  11  12
ATOM     12  C   UNL     1       1.677  11.394  81.350  1.00  0.00    -0.000 C 
BRANCH  12  13
ATOM     13  C   UNL     1       2.855  12.377  81.263  1.00  0.00    -0.000 C 
BRANCH  13  14
ATOM     14  C   UNL     1       3.128  12.846  79.823  1.00  0.00    -0.000 C 
BRANCH  14  15
ATOM     15  C   UNL     1       4.342  13.784  79.727  1.00  0.00    -0.000 C 
BRANCH  15  16
ATOM     16  C   UNL     1       5.633  13.142  80.257  1.00  0.00    -0.000 C 
BRANCH  16  17
ATOM     17  C   UNL     1       6.026  11.925  79.413  1.00  0.00    -0.003 C 
ATOM     18  C   UNL     1       7.209  12.241  78.504  1.00  0.00     0.004 C 
ENDBRANCH  16  17
ENDBRANCH  15  16
ENDBRANCH  14  15
ENDBRANCH  13  14
ENDBRANCH  12  13
ENDBRANCH  11  12
ENDBRANCH   1  11
TORSDOF 14
ENDMDL
MODEL 6
REMARK VINA RESULT:    -4.314      3.484      6.990
REMARK INTER + INTRA:          -9.021
REMARK INTER:                  -7.159
REMARK INTRA:                  -1.863
REMARK UNBOUND:                -1.176
REMARK SMILES CCCCCCCCCCCCCCCC(=O)[O-]
REMARK SMILES IDX 9 1 10 2 11 3 12 4 13 5 14 6 15 7 16 8 17 9 18 10 8 11 7 12
REMARK SMILES IDX 6 13 5 14 4 15 3 16 2 17 1 18
REMARK H PARENT
REMARK Flexibility Score: inf
ROOT
ATOM      1  C   UNL     1       0.389   9.536  83.829  1.00  0.00     0.000 C 
ENDROOT
BRANCH   1   2
ATOM      2  C   UNL     1       0.376  10.815  84.675  1.00  0.00     0.000 C 
BRANCH   2   3
ATOM      3  C   UNL     1       0.522  10.488  86.168  1.00  0.00     0.000 C 
BRANCH   3   4
ATOM      4  C   UNL     1       1.929  10.793  86.713  1.00  0.00     0.000 C 
BRANCH   4   5
ATOM      5  C   UNL     1       2.819   9.557  86.949  1.00  0.00     0.000 C 
BRANCH   5   6
ATOM      6  C   UNL     1       2.082   8.202  86.915  1.00  0.00     0.006 C 
BRANCH   6   7
ATOM      7  C   UNL     1       2.625   7.211  85.875  1.00  0.00     0.053 C 
BRANCH   7   8
ATOM      8  C   UNL     1       1.798   5.964  85.806  1.00  0.00     0.041 C 
ATOM      9  O   UNL     1       2.354   4.834  85.784  1.00  0.00    -0.550 OA
ATOM     10  O   UNL     1       0.412   6.049  85.799  1.00  0.00    -0.550 OA
ENDBRANCH   7   8
ENDBRANCH   6   7
ENDBRANCH   5   6
ENDBRANCH   4   5
ENDBRANCH   3   4
ENDBRANCH   2   3
ENDBRANCH   1   2
BRANCH   1  11
ATOM     11  C   UNL     1       1.448   9.616  82.722  1.00  0.00     0.000 C 
BRANCH  11  12
ATOM     12  C   UNL     1       2.466  10.727  83.016  1.00  0.00    -0.000 C 
BRANCH  12  13
ATOM     13  C   UNL     1       3.915  10.214  83.043  1.00  0.00    -0.000 C 
BRANCH  13  14
ATOM     14  C   UNL     1       4.001   8.683  82.913  1.00  0.00    -0.000 C 
BRANCH  14  15
ATOM     15  C   UNL     1       4.996   8.237  81.830  1.00  0.00    -0.000 C 
BRANCH  15  16
ATOM     16  C   UNL     1       6.365   8.922  81.962  1.00  0.00    -0.000 C 
BRANCH  16  17
ATOM     17  C   UNL     1       7.293   8.519  80.811  1.00  0.00    -0.003 C 
ATOM     18  C   UNL     1       6.929   7.143  80.263  1.00  0.00     0.004 C 
ENDBRANCH  16  17
ENDBRANCH  15  16
ENDBRANCH  14  15
ENDBRANCH  13  14
ENDBRANCH  12  13
ENDBRANCH  11  12
ENDBRANCH   1  11
TORSDOF 14
ENDMDL
MODEL 7
REMARK VINA RESULT:    -4.288      3.548      7.503
REMARK INTER + INTRA:          -8.973
REMARK INTER:                  -8.241
REMARK INTRA:                  -0.732
REMARK UNBOUND:                -1.176
REMARK SMILES CCCCCCCCCCCCCCCC(=O)[O-]
REMARK SMILES IDX 9 1 10 2 11 3 12 4 13 5 14 6 15 7 16 8 17 9 18 10 8 11 7 12
REMARK SMILES IDX 6 13 5 14 4 15 3 16 2 17 1 18
REMARK H PARENT
REMARK Flexibility Score: inf
ROOT
ATOM      1  C   UNL     1       1.851  10.997  82.232  1.00  0.00     0.000 C 
ENDROOT
BRANCH   1   2
ATOM      2  C   UNL     1       1.682   9.768  83.134  1.00  0.00     0.000 C 
BRANCH   2   3
ATOM      3  C   UNL     1       0.991  10.144  84.453  1.00  0.00     0.000 C 
BRANCH   3   4
ATOM      4  C   UNL     1       1.027   9.010  85.492  1.00  0.00     0.000 C 
BRANCH   4   5
ATOM      5  C   UNL     1       2.075   7.911  85.222  1.00  0.00     0.000 C 
BRANCH   5   6
ATOM      6  C   UNL     1       1.901   6.622  86.051  1.00  0.00     0.006 C 
BRANCH   6   7
ATOM      7  C   UNL     1       2.694   5.417  85.524  1.00  0.00     0.053 C 
BRANCH   7   8
ATOM      8  C   UNL     1       2.532   4.214  86.402  1.00  0.00     0.041 C 
ATOM      9  O   UNL     1       1.566   4.141  87.206  1.00  0.00    -0.550 OA
ATOM     10  O   UNL     1       3.431   3.160  86.307  1.00  0.00    -0.550 OA
ENDBRANCH   7   8
ENDBRANCH   6   7
ENDBRANCH   5   6
ENDBRANCH   4   5
ENDBRANCH   3   4
ENDBRANCH   2   3
ENDBRANCH   1   2
BRANCH   1  11
ATOM     11  C   UNL     1       3.277  11.081  81.675  1.00  0.00     0.000 C 
BRANCH  11  12
ATOM     12  C   UNL     1       4.252  10.265  82.536  1.00  0.00    -0.000 C 
BRANCH  12  13
ATOM     13  C   UNL     1       5.603  10.028  81.842  1.00  0.00    -0.000 C 
BRANCH  13  14
ATOM     14  C   UNL     1       5.939   8.533  81.698  1.00  0.00    -0.000 C 
BRANCH  14  15
ATOM     15  C   UNL     1       7.145   8.285  80.778  1.00  0.00    -0.000 C 
BRANCH  15  16
ATOM     16  C   UNL     1       7.074   6.929  80.058  1.00  0.00    -0.000 C 
BRANCH  16  17
ATOM     17  C   UNL     1       8.452   6.516  79.530  1.00  0.00    -0.003 C 
ATOM     18  C   UNL     1       9.337   7.735  79.283  1.00  0.00     0.004 C 
ENDBRANCH  16  17
ENDBRANCH  15  16
ENDBRANCH  14  15
ENDBRANCH  13  14
ENDBRANCH  12  13
ENDBRANCH  11  12
ENDBRANCH   1  11
TORSDOF 14
ENDMDL
MODEL 8
REMARK VINA RESULT:    -4.256      1.401      2.514
REMARK INTER + INTRA:          -8.915
REMARK INTER:                  -7.644
REMARK INTRA:                  -1.271
REMARK UNBOUND:                -1.176
REMARK SMILES CCCCCCCCCCCCCCCC(=O)[O-]
REMARK SMILES IDX 9 1 10 2 11 3 12 4 13 5 14 6 15 7 16 8 17 9 18 10 8 11 7 12
REMARK SMILES IDX 6 13 5 14 4 15 3 16 2 17 1 18
REMARK H PARENT
REMARK Flexibility Score: inf
ROOT
ATOM      1  C   UNL     1       3.453  12.078  81.173  1.00  0.00     0.000 C 
ENDROOT
BRANCH   1   2
ATOM      2  C   UNL     1       4.963  12.233  80.958  1.00  0.00     0.000 C 
BRANCH   2   3
ATOM      3  C   UNL     1       5.630  10.868  80.735  1.00  0.00     0.000 C 
BRANCH   3   4
ATOM      4  C   UNL     1       5.380   9.884  81.892  1.00  0.00     0.000 C 
BRANCH   4   5
ATOM      5  C   UNL     1       6.195   8.577  81.825  1.00  0.00     0.000 C 
BRANCH   5   6
ATOM      6  C   UNL     1       7.174   8.475  80.637  1.00  0.00     0.006 C 
BRANCH   6   7
ATOM      7  C   UNL     1       7.143   7.125  79.904  1.00  0.00     0.053 C 
BRANCH   7   8
ATOM      8  C   UNL     1       8.509   6.698  79.462  1.00  0.00     0.041 C 
ATOM      9  O   UNL     1       8.800   5.475  79.395  1.00  0.00    -0.550 OA
ATOM     10  O   UNL     1       9.450   7.650  79.095  1.00  0.00    -0.550 OA
ENDBRANCH   7   8
ENDBRANCH   6   7
ENDBRANCH   5   6
ENDBRANCH   4   5
ENDBRANCH   3   4
ENDBRANCH   2   3
ENDBRANCH   1   2
BRANCH   1  11
ATOM     11  C   UNL     1       3.014  12.724  82.493  1.00  0.00     0.000 C 
BRANCH  11  12
ATOM     12  C   UNL     1       2.376  11.686  83.428  1.00  0.00    -0.000 C 
BRANCH  12  13
ATOM     13  C   UNL     1       1.947  10.407  82.690  1.00  0.00    -0.000 C 
BRANCH  13  14
ATOM     14  C   UNL     1       2.103   9.146  83.558  1.00  0.00    -0.000 C 
BRANCH  14  15
ATOM     15  C   UNL     1       2.280   9.473  85.050  1.00  0.00    -0.000 C 
BRANCH  15  16
ATOM     16  C   UNL     1       2.429   8.216  85.921  1.00  0.00    -0.000 C 
BRANCH  16  17
ATOM     17  C   UNL     1       2.920   7.027  85.087  1.00  0.00    -0.003 C 
ATOM     18  C   UNL     1       2.379   5.710  85.633  1.00  0.00     0.004 C 
ENDBRANCH  16  17
ENDBRANCH  15  16
ENDBRANCH  14  15
ENDBRANCH  13  14
ENDBRANCH  12  13
ENDBRANCH  11  12
ENDBRANCH   1  11
TORSDOF 14
ENDMDL
MODEL 9
REMARK VINA RESULT:    -4.206      3.666      7.586
REMARK INTER + INTRA:          -8.824
REMARK INTER:                  -7.731
REMARK INTRA:                  -1.093
REMARK UNBOUND:                -1.176
REMARK SMILES CCCCCCCCCCCCCCCC(=O)[O-]
REMARK SMILES IDX 9 1 10 2 11 3 12 4 13 5 14 6 15 7 16 8 17 9 18 10 8 11 7 12
REMARK SMILES IDX 6 13 5 14 4 15 3 16 2 17 1 18
REMARK H PARENT
REMARK Flexibility Score: inf
ROOT
ATOM      1  C   UNL     1       4.101  12.207  80.474  1.00  0.00     0.000 C 
ENDROOT
BRANCH   1   2
ATOM      2  C   UNL     1       2.984  12.074  81.515  1.00  0.00     0.000 C 
BRANCH   2   3
ATOM      3  C   UNL     1       1.613  11.933  80.838  1.00  0.00     0.000 C 
BRANCH   3   4
ATOM      4  C   UNL     1       0.720  10.875  81.509  1.00  0.00     0.000 C 
BRANCH   4   5
ATOM      5  C   UNL     1       0.811  10.825  83.048  1.00  0.00     0.000 C 
BRANCH   5   6
ATOM      6  C   UNL     1       1.407   9.526  83.627  1.00  0.00     0.006 C 
BRANCH   6   7
ATOM      7  C   UNL     1       1.133   9.314  85.123  1.00  0.00     0.053 C 
BRANCH   7   8
ATOM      8  C   UNL     1       1.858   8.119  85.661  1.00  0.00     0.041 C 
ATOM      9  O   UNL     1       2.827   8.268  86.452  1.00  0.00    -0.550 OA
ATOM     10  O   UNL     1       1.443   6.840  85.314  1.00  0.00    -0.550 OA
ENDBRANCH   7   8
ENDBRANCH   6   7
ENDBRANCH   5   6
ENDBRANCH   4   5
ENDBRANCH   3   4
ENDBRANCH   2   3
ENDBRANCH   1   2
BRANCH   1  11
ATOM     11  C   UNL     1       5.268  11.264  80.792  1.00  0.00     0.000 C 
BRANCH  11  12
ATOM     12  C   UNL     1       5.019  10.505  82.104  1.00  0.00    -0.000 C 
BRANCH  12  13
ATOM     13  C   UNL     1       5.260   8.993  81.970  1.00  0.00    -0.000 C 
BRANCH  13  14
ATOM     14  C   UNL     1       6.711   8.659  81.580  1.00  0.00    -0.000 C 
BRANCH  14  15
ATOM     15  C   UNL     1       6.797   7.550  80.519  1.00  0.00    -0.000 C 
BRANCH  15  16
ATOM     16  C   UNL     1       7.680   7.938  79.323  1.00  0.00    -0.000 C 
BRANCH  16  17
ATOM     17  C   UNL     1       8.919   7.040  79.243  1.00  0.00    -0.003 C 
ATOM     18  C   UNL     1       8.569   5.586  79.547  1.00  0.00     0.004 C 
ENDBRANCH  16  17
ENDBRANCH  15  16
ENDBRANCH  14  15
ENDBRANCH  13  14
ENDBRANCH  12  13
ENDBRANCH  11  12
ENDBRANCH   1  11
TORSDOF 14
ENDMDL
