MODEL 1
REMARK VINA RESULT:    -4.546      0.000      0.000
REMARK INTER + INTRA:          -4.546
REMARK INTER:                  -4.546
REMARK INTRA:                   0.000
REMARK UNBOUND:                 0.000
REMARK SMILES C=C1CC[C@H]2C[C@@H]1C2(C)C
REMARK SMILES IDX 9 1 8 2 5 3 4 4 3 5 2 6 1 7 7 8 6 9 10 10
REMARK H PARENT
REMARK Flexibility Score: inf
ROOT
ATOM      1  C   UNL     1      31.024  10.592  30.865  1.00  0.00     0.012 C 
ATOM      2  C   UNL     1      32.171  11.107  31.778  1.00  0.00    -0.026 C 
ATOM      3  C   UNL     1      31.803  11.798  33.116  1.00  0.00    -0.004 C 
ATOM      4  C   UNL     1      30.555  11.125  33.771  1.00  0.00     0.008 C 
ATOM      5  C   UNL     1      30.703   9.560  33.888  1.00  0.00     0.031 C 
ATOM      6  C   UNL     1      31.963   9.038  33.179  1.00  0.00    -0.074 C 
ATOM      7  C   UNL     1      32.193   7.729  33.045  1.00  0.00     0.008 C 
ATOM      8  C   UNL     1      32.939  10.080  32.642  1.00  0.00     0.021 C 
ATOM      9  C   UNL     1      33.039  11.139  33.751  1.00  0.00     0.012 C 
ATOM     10  C   UNL     1      33.125  11.975  30.921  1.00  0.00     0.012 C 
ENDROOT
TORSDOF 0
ENDMDL
MODEL 2
REMARK VINA RESULT:    -4.183      1.183      3.067
REMARK INTER + INTRA:          -4.183
REMARK INTER:                  -4.183
REMARK INTRA:                   0.000
REMARK UNBOUND:                 0.000
REMARK SMILES C=C1CC[C@H]2C[C@@H]1C2(C)C
REMARK SMILES IDX 9 1 8 2 5 3 4 4 3 5 2 6 1 7 7 8 6 9 10 10
REMARK H PARENT
REMARK Flexibility Score: inf
ROOT
ATOM      1  C   UNL     1      31.529   9.186  30.873  1.00  0.00     0.012 C 
ATOM      2  C   UNL     1      31.892   9.384  32.371  1.00  0.00    -0.026 C 
ATOM      3  C   UNL     1      33.038  10.362  32.734  1.00  0.00    -0.004 C 
ATOM      4  C   UNL     1      33.046  11.599  31.781  1.00  0.00     0.008 C 
ATOM      5  C   UNL     1      31.633  12.292  31.679  1.00  0.00     0.031 C 
ATOM      6  C   UNL     1      30.537  11.494  32.403  1.00  0.00    -0.074 C 
ATOM      7  C   UNL     1      29.250  11.841  32.314  1.00  0.00     0.008 C 
ATOM      8  C   UNL     1      30.985  10.295  33.232  1.00  0.00     0.021 C 
ATOM      9  C   UNL     1      32.238  10.775  33.981  1.00  0.00     0.012 C 
ATOM     10  C   UNL     1      32.094   7.990  33.013  1.00  0.00     0.012 C 
ENDROOT
TORSDOF 0
ENDMDL
MODEL 3
REMARK VINA RESULT:    -4.084      1.315      2.777
REMARK INTER + INTRA:          -4.084
REMARK INTER:                  -4.084
REMARK INTRA:                   0.000
REMARK UNBOUND:                 0.000
REMARK SMILES C=C1CC[C@H]2C[C@@H]1C2(C)C
REMARK SMILES IDX 9 1 8 2 5 3 4 4 3 5 2 6 1 7 7 8 6 9 10 10
REMARK H PARENT
REMARK Flexibility Score: inf
ROOT
ATOM      1  C   UNL     1      30.180  11.481  32.194  1.00  0.00     0.012 C 
ATOM      2  C   UNL     1      30.781  10.049  32.155  1.00  0.00    -0.026 C 
ATOM      3  C   UNL     1      32.291   9.884  31.852  1.00  0.00    -0.004 C 
ATOM      4  C   UNL     1      33.123  11.039  32.496  1.00  0.00     0.008 C 
ATOM      5  C   UNL     1      32.803  11.232  34.028  1.00  0.00     0.031 C 
ATOM      6  C   UNL     1      31.628  10.358  34.494  1.00  0.00    -0.074 C 
ATOM      7  C   UNL     1      31.114  10.481  35.722  1.00  0.00     0.008 C 
ATOM      8  C   UNL     1      31.081   9.342  33.498  1.00  0.00     0.021 C 
ATOM      9  C   UNL     1      32.324   8.713  32.848  1.00  0.00     0.012 C 
ATOM     10  C   UNL     1      29.904   9.177  31.222  1.00  0.00     0.012 C 
ENDROOT
TORSDOF 0
ENDMDL
MODEL 4
REMARK VINA RESULT:    -4.063      0.973      3.287
REMARK INTER + INTRA:          -4.063
REMARK INTER:                  -4.063
REMARK INTRA:                   0.000
REMARK UNBOUND:                 0.000
REMARK SMILES C=C1CC[C@H]2C[C@@H]1C2(C)C
REMARK SMILES IDX 9 1 8 2 5 3 4 4 3 5 2 6 1 7 7 8 6 9 10 10
REMARK H PARENT
REMARK Flexibility Score: inf
ROOT
ATOM      1  C   UNL     1      30.154  10.957  33.386  1.00  0.00     0.012 C 
ATOM      2  C   UNL     1      31.257   9.880  33.577  1.00  0.00    -0.026 C 
ATOM      3  C   UNL     1      31.204   8.599  32.706  1.00  0.00    -0.004 C 
ATOM      4  C   UNL     1      30.698   8.920  31.263  1.00  0.00     0.008 C 
ATOM      5  C   UNL     1      31.493  10.107  30.595  1.00  0.00     0.031 C 
ATOM      6  C   UNL     1      32.464  10.785  31.574  1.00  0.00    -0.074 C 
ATOM      7  C   UNL     1      33.125  11.897  31.240  1.00  0.00     0.008 C 
ATOM      8  C   UNL     1      32.645  10.128  32.939  1.00  0.00     0.021 C 
ATOM      9  C   UNL     1      32.741   8.623  32.647  1.00  0.00     0.012 C 
ATOM     10  C   UNL     1      31.362   9.551  35.086  1.00  0.00     0.012 C 
ENDROOT
TORSDOF 0
ENDMDL
MODEL 5
REMARK VINA RESULT:    -4.015      1.577      3.247
REMARK INTER + INTRA:          -4.015
REMARK INTER:                  -4.015
REMARK INTRA:                   0.000
REMARK UNBOUND:                 0.000
REMARK SMILES C=C1CC[C@H]2C[C@@H]1C2(C)C
REMARK SMILES IDX 9 1 8 2 5 3 4 4 3 5 2 6 1 7 7 8 6 9 10 10
REMARK H PARENT
REMARK Flexibility Score: inf
ROOT
ATOM      1  C   UNL     1      30.055  12.321  31.470  1.00  0.00     0.012 C 
ATOM      2  C   UNL     1      30.630  11.682  30.176  1.00  0.00    -0.026 C 
ATOM      3  C   UNL     1      31.971  12.218  29.614  1.00  0.00    -0.004 C 
ATOM      4  C   UNL     1      32.949  12.607  30.769  1.00  0.00     0.008 C 
ATOM      5  C   UNL     1      33.125  11.452  31.827  1.00  0.00     0.031 C 
ATOM      6  C   UNL     1      32.167  10.278  31.574  1.00  0.00    -0.074 C 
ATOM      7  C   UNL     1      32.064   9.265  32.440  1.00  0.00     0.008 C 
ATOM      8  C   UNL     1      31.347  10.315  30.289  1.00  0.00     0.021 C 
ATOM      9  C   UNL     1      32.330  10.780  29.203  1.00  0.00     0.012 C 
ATOM     10  C   UNL     1      29.516  11.667  29.101  1.00  0.00     0.012 C 
ENDROOT
TORSDOF 0
ENDMDL
MODEL 6
REMARK VINA RESULT:    -4.011      1.315      2.393
REMARK INTER + INTRA:          -4.011
REMARK INTER:                  -4.011
REMARK INTRA:                   0.000
REMARK UNBOUND:                 0.000
REMARK SMILES C=C1CC[C@H]2C[C@@H]1C2(C)C
REMARK SMILES IDX 9 1 8 2 5 3 4 4 3 5 2 6 1 7 7 8 6 9 10 10
REMARK H PARENT
REMARK Flexibility Score: inf
ROOT
ATOM      1  C   UNL     1      30.094  11.161  33.169  1.00  0.00     0.012 C 
ATOM      2  C   UNL     1      30.799  11.543  31.838  1.00  0.00    -0.026 C 
ATOM      3  C   UNL     1      32.312  11.874  31.865  1.00  0.00    -0.004 C 
ATOM      4  C   UNL     1      33.067  10.970  32.892  1.00  0.00     0.008 C 
ATOM      5  C   UNL     1      32.760   9.437  32.688  1.00  0.00     0.031 C 
ATOM      6  C   UNL     1      31.661   9.196  31.641  1.00  0.00    -0.074 C 
ATOM      7  C   UNL     1      31.160   7.976  31.426  1.00  0.00     0.008 C 
ATOM      8  C   UNL     1      31.174  10.409  30.854  1.00  0.00     0.021 C 
ATOM      9  C   UNL     1      32.448  11.189  30.495  1.00  0.00     0.012 C 
ATOM     10  C   UNL     1      29.973  12.658  31.151  1.00  0.00     0.012 C 
ENDROOT
TORSDOF 0
ENDMDL
MODEL 7
REMARK VINA RESULT:    -3.994      1.914      4.260
REMARK INTER + INTRA:          -3.994
REMARK INTER:                  -3.994
REMARK INTRA:                   0.000
REMARK UNBOUND:                 0.000
REMARK SMILES C=C1CC[C@H]2C[C@@H]1C2(C)C
REMARK SMILES IDX 9 1 8 2 5 3 4 4 3 5 2 6 1 7 7 8 6 9 10 10
REMARK H PARENT
REMARK Flexibility Score: inf
ROOT
ATOM      1  C   UNL     1      31.322   9.223  36.145  1.00  0.00     0.012 C 
ATOM      2  C   UNL     1      31.075   7.897  35.375  1.00  0.00    -0.026 C 
ATOM      3  C   UNL     1      29.718   7.697  34.653  1.00  0.00    -0.004 C 
ATOM      4  C   UNL     1      29.205   9.039  34.039  1.00  0.00     0.008 C 
ATOM      5  C   UNL     1      30.295   9.752  33.150  1.00  0.00     0.031 C 
ATOM      6  C   UNL     1      31.661   9.053  33.229  1.00  0.00    -0.074 C 
ATOM      7  C   UNL     1      32.747   9.584  32.659  1.00  0.00     0.008 C 
ATOM      8  C   UNL     1      31.721   7.727  33.979  1.00  0.00     0.021 C 
ATOM      9  C   UNL     1      30.467   6.960  33.530  1.00  0.00     0.012 C 
ATOM     10  C   UNL     1      31.409   6.715  36.317  1.00  0.00     0.012 C 
ENDROOT
TORSDOF 0
ENDMDL
MODEL 8
REMARK VINA RESULT:    -3.904      0.927      3.281
REMARK INTER + INTRA:          -3.904
REMARK INTER:                  -3.904
REMARK INTRA:                   0.000
REMARK UNBOUND:                 0.000
REMARK SMILES C=C1CC[C@H]2C[C@@H]1C2(C)C
REMARK SMILES IDX 9 1 8 2 5 3 4 4 3 5 2 6 1 7 7 8 6 9 10 10
REMARK H PARENT
REMARK Flexibility Score: inf
ROOT
ATOM      1  C   UNL     1      32.241   7.922  32.980  1.00  0.00     0.012 C 
ATOM      2  C   UNL     1      31.477   9.075  33.688  1.00  0.00    -0.026 C 
ATOM      3  C   UNL     1      32.200  10.430  33.894  1.00  0.00    -0.004 C 
ATOM      4  C   UNL     1      33.125  10.765  32.680  1.00  0.00     0.008 C 
ATOM      5  C   UNL     1      32.372  10.654  31.299  1.00  0.00     0.031 C 
ATOM      6  C   UNL     1      30.955  10.080  31.450  1.00  0.00    -0.074 C 
ATOM      7  C   UNL     1      30.209   9.778  30.383  1.00  0.00     0.008 C 
ATOM      8  C   UNL     1      30.436   9.877  32.870  1.00  0.00     0.021 C 
ATOM      9  C   UNL     1      30.861  11.141  33.633  1.00  0.00     0.012 C 
ATOM     10  C   UNL     1      30.882   8.529  35.009  1.00  0.00     0.012 C 
ENDROOT
TORSDOF 0
ENDMDL
MODEL 9
REMARK VINA RESULT:    -3.822      1.589      3.648
REMARK INTER + INTRA:          -3.822
REMARK INTER:                  -3.822
REMARK INTRA:                   0.000
REMARK UNBOUND:                 0.000
REMARK SMILES C=C1CC[C@H]2C[C@@H]1C2(C)C
REMARK SMILES IDX 9 1 8 2 5 3 4 4 3 5 2 6 1 7 7 8 6 9 10 10
REMARK H PARENT
REMARK Flexibility Score: inf
ROOT
ATOM      1  C   UNL     1      33.125  11.860  31.139  1.00  0.00     0.012 C 
ATOM      2  C   UNL     1      32.131  10.713  31.474  1.00  0.00    -0.026 C 
ATOM      3  C   UNL     1      30.637  11.063  31.684  1.00  0.00    -0.004 C 
ATOM      4  C   UNL     1      30.183  12.202  30.716  1.00  0.00     0.008 C 
ATOM      5  C   UNL     1      30.556  11.902  29.214  1.00  0.00     0.031 C 
ATOM      6  C   UNL     1      31.427  10.644  29.068  1.00  0.00    -0.074 C 
ATOM      7  C   UNL     1      31.962  10.301  27.893  1.00  0.00     0.008 C 
ATOM      8  C   UNL     1      31.646   9.802  30.321  1.00  0.00     0.021 C 
ATOM      9  C   UNL     1      30.269   9.735  31.001  1.00  0.00     0.012 C 
ATOM     10  C   UNL     1      32.708   9.897  32.656  1.00  0.00     0.012 C 
ENDROOT
TORSDOF 0
ENDMDL
