MODEL 1
REMARK VINA RESULT:    -4.127      0.000      0.000
REMARK INTER + INTRA:         -15.181
REMARK INTER:                 -10.399
REMARK INTRA:                  -4.782
REMARK UNBOUND:                -4.782
REMARK SMILES CCCCCCCCCCCCCCCCCCCCCCCCCCCC(=O)[O-]
REMARK SMILES IDX 15 1 16 2 17 3 18 4 19 5 20 6 21 7 22 8 23 9 24 10 25 11
REMARK SMILES IDX 26 12 27 13 28 14 29 15 30 16 14 17 13 18 12 19 11 20 10 21
REMARK SMILES IDX 9 22 8 23 7 24 6 25 5 26 4 27 3 28 2 29 1 30
REMARK H PARENT
REMARK Flexibility Score: inf
ROOT
ATOM      1  C   UNL     1      10.919  -4.128  34.680  1.00  0.00     0.000 C 
ENDROOT
BRANCH   1   2
ATOM      2  C   UNL     1      12.429  -4.131  34.962  1.00  0.00     0.000 C 
BRANCH   2   3
ATOM      3  C   UNL     1      12.712  -4.074  36.468  1.00  0.00     0.000 C 
BRANCH   3   4
ATOM      4  C   UNL     1      14.188  -3.753  36.735  1.00  0.00     0.000 C 
BRANCH   4   5
ATOM      5  C   UNL     1      14.837  -4.827  37.620  1.00  0.00     0.000 C 
BRANCH   5   6
ATOM      6  C   UNL     1      13.811  -5.594  38.474  1.00  0.00     0.000 C 
BRANCH   6   7
ATOM      7  C   UNL     1      14.221  -7.033  38.848  1.00  0.00     0.000 C 
BRANCH   7   8
ATOM      8  C   UNL     1      13.146  -8.110  38.591  1.00  0.00     0.000 C 
BRANCH   8   9
ATOM      9  C   UNL     1      11.821  -7.581  38.013  1.00  0.00     0.000 C 
BRANCH   9  10
ATOM     10  C   UNL     1      10.593  -8.084  38.793  1.00  0.00     0.000 C 
BRANCH  10  11
ATOM     11  C   UNL     1       9.516  -7.002  38.969  1.00  0.00     0.000 C 
BRANCH  11  12
ATOM     12  C   UNL     1       9.700  -5.813  38.013  1.00  0.00     0.006 C 
BRANCH  12  13
ATOM     13  C   UNL     1       8.346  -5.200  37.632  1.00  0.00     0.053 C 
BRANCH  13  14
ATOM     14  C   UNL     1       8.474  -3.759  37.240  1.00  0.00     0.041 C 
ATOM     15  O   UNL     1       9.434  -3.062  37.665  1.00  0.00    -0.550 OA
ATOM     16  O   UNL     1       7.584  -3.213  36.322  1.00  0.00    -0.550 OA
ENDBRANCH  13  14
ENDBRANCH  12  13
ENDBRANCH  11  12
ENDBRANCH  10  11
ENDBRANCH   9  10
ENDBRANCH   8   9
ENDBRANCH   7   8
ENDBRANCH   6   7
ENDBRANCH   5   6
ENDBRANCH   4   5
ENDBRANCH   3   4
ENDBRANCH   2   3
ENDBRANCH   1   2
BRANCH   1  17
ATOM     17  C   UNL     1      10.343  -5.545  34.506  1.00  0.00     0.000 C 
BRANCH  17  18
ATOM     18  C   UNL     1       9.018  -5.619  33.719  1.00  0.00     0.000 C 
BRANCH  18  19
ATOM     19  C   UNL     1       8.389  -7.022  33.638  1.00  0.00     0.000 C 
BRANCH  19  20
ATOM     20  C   UNL     1       9.411  -8.143  33.895  1.00  0.00     0.000 C 
BRANCH  20  21
ATOM     21  C   UNL     1       9.104  -8.935  35.177  1.00  0.00     0.000 C 
BRANCH  21  22
ATOM     22  C   UNL     1       7.858  -8.406  35.908  1.00  0.00    -0.000 C 
BRANCH  22  23
ATOM     23  C   UNL     1       7.081  -9.521  36.626  1.00  0.00    -0.000 C 
BRANCH  23  24
ATOM     24  C   UNL     1       6.330  -9.011  37.870  1.00  0.00    -0.000 C 
BRANCH  24  25
ATOM     25  C   UNL     1       5.154  -9.934  38.256  1.00  0.00    -0.000 C 
BRANCH  25  26
ATOM     26  C   UNL     1       3.770  -9.292  38.054  1.00  0.00    -0.000 C 
BRANCH  26  27
ATOM     27  C   UNL     1       3.415  -9.091  36.571  1.00  0.00    -0.000 C 
BRANCH  27  28
ATOM     28  C   UNL     1       3.235  -7.611  36.190  1.00  0.00    -0.000 C 
BRANCH  28  29
ATOM     29  C   UNL     1       4.266  -7.062  35.189  1.00  0.00    -0.003 C 
ATOM     30  C   UNL     1       5.146  -5.957  35.774  1.00  0.00     0.004 C 
ENDBRANCH  28  29
ENDBRANCH  27  28
ENDBRANCH  26  27
ENDBRANCH  25  26
ENDBRANCH  24  25
ENDBRANCH  23  24
ENDBRANCH  22  23
ENDBRANCH  21  22
ENDBRANCH  20  21
ENDBRANCH  19  20
ENDBRANCH  18  19
ENDBRANCH  17  18
ENDBRANCH   1  17
TORSDOF 26
ENDMDL
MODEL 2
REMARK VINA RESULT:    -4.098      1.937      3.932
REMARK INTER + INTRA:         -15.109
REMARK INTER:                  -9.133
REMARK INTRA:                  -5.975
REMARK UNBOUND:                -4.782
REMARK SMILES CCCCCCCCCCCCCCCCCCCCCCCCCCCC(=O)[O-]
REMARK SMILES IDX 15 1 16 2 17 3 18 4 19 5 20 6 21 7 22 8 23 9 24 10 25 11
REMARK SMILES IDX 26 12 27 13 28 14 29 15 30 16 14 17 13 18 12 19 11 20 10 21
REMARK SMILES IDX 9 22 8 23 7 24 6 25 5 26 4 27 3 28 2 29 1 30
REMARK H PARENT
REMARK Flexibility Score: inf
ROOT
ATOM      1  C   UNL     1       8.887  -6.656  33.184  1.00  0.00     0.000 C 
ENDROOT
BRANCH   1   2
ATOM      2  C   UNL     1       9.030  -8.151  33.500  1.00  0.00     0.000 C 
BRANCH   2   3
ATOM      3  C   UNL     1      10.502  -8.583  33.487  1.00  0.00     0.000 C 
BRANCH   3   4
ATOM      4  C   UNL     1      10.796  -9.556  34.636  1.00  0.00     0.000 C 
BRANCH   4   5
ATOM      5  C   UNL     1       9.507  -9.947  35.374  1.00  0.00     0.000 C 
BRANCH   5   6
ATOM      6  C   UNL     1       9.736 -11.041  36.432  1.00  0.00     0.000 C 
BRANCH   6   7
ATOM      7  C   UNL     1      11.079 -10.948  37.186  1.00  0.00     0.000 C 
BRANCH   7   8
ATOM      8  C   UNL     1      11.095  -9.972  38.381  1.00  0.00     0.000 C 
BRANCH   8   9
ATOM      9  C   UNL     1      12.426  -9.228  38.595  1.00  0.00     0.000 C 
BRANCH   9  10
ATOM     10  C   UNL     1      12.323  -7.727  38.275  1.00  0.00     0.000 C 
BRANCH  10  11
ATOM     11  C   UNL     1      10.940  -7.326  37.737  1.00  0.00     0.000 C 
BRANCH  11  12
ATOM     12  C   UNL     1      11.021  -6.411  36.504  1.00  0.00     0.006 C 
BRANCH  12  13
ATOM     13  C   UNL     1      11.094  -4.936  36.918  1.00  0.00     0.053 C 
BRANCH  13  14
ATOM     14  C   UNL     1      12.235  -4.225  36.256  1.00  0.00     0.041 C 
ATOM     15  O   UNL     1      13.342  -4.101  36.845  1.00  0.00    -0.550 OA
ATOM     16  O   UNL     1      12.105  -3.785  34.943  1.00  0.00    -0.550 OA
ENDBRANCH  13  14
ENDBRANCH  12  13
ENDBRANCH  11  12
ENDBRANCH  10  11
ENDBRANCH   9  10
ENDBRANCH   8   9
ENDBRANCH   7   8
ENDBRANCH   6   7
ENDBRANCH   5   6
ENDBRANCH   4   5
ENDBRANCH   3   4
ENDBRANCH   2   3
ENDBRANCH   1   2
BRANCH   1  17
ATOM     17  C   UNL     1       8.130  -5.885  34.280  1.00  0.00     0.000 C 
BRANCH  17  18
ATOM     18  C   UNL     1       7.664  -6.740  35.477  1.00  0.00     0.000 C 
BRANCH  18  19
ATOM     19  C   UNL     1       7.323  -5.944  36.750  1.00  0.00     0.000 C 
BRANCH  19  20
ATOM     20  C   UNL     1       7.194  -6.842  37.992  1.00  0.00     0.000 C 
BRANCH  20  21
ATOM     21  C   UNL     1       7.366  -8.333  37.659  1.00  0.00     0.000 C 
BRANCH  21  22
ATOM     22  C   UNL     1       6.565  -9.242  38.607  1.00  0.00    -0.000 C 
BRANCH  22  23
ATOM     23  C   UNL     1       5.592 -10.165  37.855  1.00  0.00    -0.000 C 
BRANCH  23  24
ATOM     24  C   UNL     1       6.031 -10.429  36.403  1.00  0.00    -0.000 C 
BRANCH  24  25
ATOM     25  C   UNL     1       4.900 -11.059  35.562  1.00  0.00    -0.000 C 
BRANCH  25  26
ATOM     26  C   UNL     1       4.185 -10.057  34.637  1.00  0.00    -0.000 C 
BRANCH  26  27
ATOM     27  C   UNL     1       4.946  -8.728  34.494  1.00  0.00    -0.000 C 
BRANCH  27  28
ATOM     28  C   UNL     1       4.138  -7.515  34.990  1.00  0.00    -0.000 C 
BRANCH  28  29
ATOM     29  C   UNL     1       3.145  -7.811  36.128  1.00  0.00    -0.003 C 
ATOM     30  C   UNL     1       3.488  -7.088  37.430  1.00  0.00     0.004 C 
ENDBRANCH  28  29
ENDBRANCH  27  28
ENDBRANCH  26  27
ENDBRANCH  25  26
ENDBRANCH  24  25
ENDBRANCH  23  24
ENDBRANCH  22  23
ENDBRANCH  21  22
ENDBRANCH  20  21
ENDBRANCH  19  20
ENDBRANCH  18  19
ENDBRANCH  17  18
ENDBRANCH   1  17
TORSDOF 26
ENDMDL
MODEL 3
REMARK VINA RESULT:    -4.093      2.040      4.892
REMARK INTER + INTRA:         -15.097
REMARK INTER:                 -10.058
REMARK INTRA:                  -5.039
REMARK UNBOUND:                -4.782
REMARK SMILES CCCCCCCCCCCCCCCCCCCCCCCCCCCC(=O)[O-]
REMARK SMILES IDX 15 1 16 2 17 3 18 4 19 5 20 6 21 7 22 8 23 9 24 10 25 11
REMARK SMILES IDX 26 12 27 13 28 14 29 15 30 16 14 17 13 18 12 19 11 20 10 21
REMARK SMILES IDX 9 22 8 23 7 24 6 25 5 26 4 27 3 28 2 29 1 30
REMARK H PARENT
REMARK Flexibility Score: inf
ROOT
ATOM      1  C   UNL     1      10.497  -8.770  35.207  1.00  0.00     0.000 C 
ENDROOT
BRANCH   1   2
ATOM      2  C   UNL     1      10.526  -8.499  33.696  1.00  0.00     0.000 C 
BRANCH   2   3
ATOM      3  C   UNL     1       9.120  -8.206  33.158  1.00  0.00     0.000 C 
BRANCH   3   4
ATOM      4  C   UNL     1       8.530  -6.956  33.823  1.00  0.00     0.000 C 
BRANCH   4   5
ATOM      5  C   UNL     1       8.980  -5.679  33.098  1.00  0.00     0.000 C 
BRANCH   5   6
ATOM      6  C   UNL     1       8.625  -4.398  33.874  1.00  0.00     0.000 C 
BRANCH   6   7
ATOM      7  C   UNL     1       7.700  -4.608  35.089  1.00  0.00     0.000 C 
BRANCH   7   8
ATOM      8  C   UNL     1       7.580  -3.399  36.041  1.00  0.00     0.000 C 
BRANCH   8   9
ATOM      9  C   UNL     1       8.311  -3.557  37.387  1.00  0.00     0.000 C 
BRANCH   9  10
ATOM     10  C   UNL     1       9.077  -4.887  37.492  1.00  0.00     0.000 C 
BRANCH  10  11
ATOM     11  C   UNL     1      10.598  -4.693  37.593  1.00  0.00     0.000 C 
BRANCH  11  12
ATOM     12  C   UNL     1      11.366  -5.394  36.461  1.00  0.00     0.006 C 
BRANCH  12  13
ATOM     13  C   UNL     1      11.797  -4.389  35.385  1.00  0.00     0.053 C 
BRANCH  13  14
ATOM     14  C   UNL     1      12.834  -3.434  35.895  1.00  0.00     0.041 C 
ATOM     15  O   UNL     1      12.510  -2.274  36.264  1.00  0.00    -0.550 OA
ATOM     16  O   UNL     1      14.147  -3.863  36.056  1.00  0.00    -0.550 OA
ENDBRANCH  13  14
ENDBRANCH  12  13
ENDBRANCH  11  12
ENDBRANCH  10  11
ENDBRANCH   9  10
ENDBRANCH   8   9
ENDBRANCH   7   8
ENDBRANCH   6   7
ENDBRANCH   5   6
ENDBRANCH   4   5
ENDBRANCH   3   4
ENDBRANCH   2   3
ENDBRANCH   1   2
BRANCH   1  17
ATOM     17  C   UNL     1      10.194 -10.241  35.543  1.00  0.00     0.000 C 
BRANCH  17  18
ATOM     18  C   UNL     1      10.973 -10.812  36.747  1.00  0.00     0.000 C 
BRANCH  18  19
ATOM     19  C   UNL     1      11.543  -9.755  37.711  1.00  0.00     0.000 C 
BRANCH  19  20
ATOM     20  C   UNL     1      10.670  -9.567  38.963  1.00  0.00     0.000 C 
BRANCH  20  21
ATOM     21  C   UNL     1       9.916  -8.227  38.959  1.00  0.00     0.000 C 
BRANCH  21  22
ATOM     22  C   UNL     1       8.397  -8.408  39.124  1.00  0.00    -0.000 C 
BRANCH  22  23
ATOM     23  C   UNL     1       7.798  -9.345  38.064  1.00  0.00    -0.000 C 
BRANCH  23  24
ATOM     24  C   UNL     1       7.293  -8.588  36.823  1.00  0.00    -0.000 C 
BRANCH  24  25
ATOM     25  C   UNL     1       6.637  -7.240  37.193  1.00  0.00    -0.000 C 
BRANCH  25  26
ATOM     26  C   UNL     1       5.107  -7.318  37.350  1.00  0.00    -0.000 C 
BRANCH  26  27
ATOM     27  C   UNL     1       4.354  -6.548  36.252  1.00  0.00    -0.000 C 
BRANCH  27  28
ATOM     28  C   UNL     1       3.623  -7.472  35.262  1.00  0.00    -0.000 C 
BRANCH  28  29
ATOM     29  C   UNL     1       4.535  -8.396  34.434  1.00  0.00    -0.003 C 
ATOM     30  C   UNL     1       4.407  -9.870  34.817  1.00  0.00     0.004 C 
ENDBRANCH  28  29
ENDBRANCH  27  28
ENDBRANCH  26  27
ENDBRANCH  25  26
ENDBRANCH  24  25
ENDBRANCH  23  24
ENDBRANCH  22  23
ENDBRANCH  21  22
ENDBRANCH  20  21
ENDBRANCH  19  20
ENDBRANCH  18  19
ENDBRANCH  17  18
ENDBRANCH   1  17
TORSDOF 26
ENDMDL
MODEL 4
REMARK VINA RESULT:    -4.008      1.998      4.438
REMARK INTER + INTRA:         -14.882
REMARK INTER:                  -9.639
REMARK INTRA:                  -5.243
REMARK UNBOUND:                -4.782
REMARK SMILES CCCCCCCCCCCCCCCCCCCCCCCCCCCC(=O)[O-]
REMARK SMILES IDX 15 1 16 2 17 3 18 4 19 5 20 6 21 7 22 8 23 9 24 10 25 11
REMARK SMILES IDX 26 12 27 13 28 14 29 15 30 16 14 17 13 18 12 19 11 20 10 21
REMARK SMILES IDX 9 22 8 23 7 24 6 25 5 26 4 27 3 28 2 29 1 30
REMARK H PARENT
REMARK Flexibility Score: inf
ROOT
ATOM      1  C   UNL     1       8.822  -5.886  32.838  1.00  0.00     0.000 C 
ENDROOT
BRANCH   1   2
ATOM      2  C   UNL     1       8.497  -7.244  33.479  1.00  0.00     0.000 C 
BRANCH   2   3
ATOM      3  C   UNL     1       9.617  -8.260  33.221  1.00  0.00     0.000 C 
BRANCH   3   4
ATOM      4  C   UNL     1       9.860  -9.131  34.461  1.00  0.00     0.000 C 
BRANCH   4   5
ATOM      5  C   UNL     1       8.664  -9.069  35.423  1.00  0.00     0.000 C 
BRANCH   5   6
ATOM      6  C   UNL     1       8.660 -10.224  36.441  1.00  0.00     0.000 C 
BRANCH   6   7
ATOM      7  C   UNL     1       9.493  -9.974  37.714  1.00  0.00     0.000 C 
BRANCH   7   8
ATOM      8  C   UNL     1       9.232  -8.624  38.415  1.00  0.00     0.000 C 
BRANCH   8   9
ATOM      9  C   UNL     1      10.497  -7.812  38.752  1.00  0.00     0.000 C 
BRANCH   9  10
ATOM     10  C   UNL     1      11.390  -7.572  37.523  1.00  0.00     0.000 C 
BRANCH  10  11
ATOM     11  C   UNL     1      11.008  -6.302  36.747  1.00  0.00     0.000 C 
BRANCH  11  12
ATOM     12  C   UNL     1      11.551  -5.018  37.397  1.00  0.00     0.006 C 
BRANCH  12  13
ATOM     13  C   UNL     1      11.392  -3.818  36.456  1.00  0.00     0.053 C 
BRANCH  13  14
ATOM     14  C   UNL     1      12.708  -3.170  36.149  1.00  0.00     0.041 C 
ATOM     15  O   UNL     1      13.634  -3.827  35.603  1.00  0.00    -0.550 OA
ATOM     16  O   UNL     1      12.876  -1.808  36.376  1.00  0.00    -0.550 OA
ENDBRANCH  13  14
ENDBRANCH  12  13
ENDBRANCH  11  12
ENDBRANCH  10  11
ENDBRANCH   9  10
ENDBRANCH   8   9
ENDBRANCH   7   8
ENDBRANCH   6   7
ENDBRANCH   5   6
ENDBRANCH   4   5
ENDBRANCH   3   4
ENDBRANCH   2   3
ENDBRANCH   1   2
BRANCH   1  17
ATOM     17  C   UNL     1       9.203  -4.815  33.875  1.00  0.00     0.000 C 
BRANCH  17  18
ATOM     18  C   UNL     1       8.134  -3.727  34.114  1.00  0.00     0.000 C 
BRANCH  18  19
ATOM     19  C   UNL     1       7.522  -3.717  35.527  1.00  0.00     0.000 C 
BRANCH  19  20
ATOM     20  C   UNL     1       6.480  -4.831  35.726  1.00  0.00     0.000 C 
BRANCH  20  21
ATOM     21  C   UNL     1       6.995  -5.963  36.631  1.00  0.00     0.000 C 
BRANCH  21  22
ATOM     22  C   UNL     1       5.943  -7.064  36.848  1.00  0.00    -0.000 C 
BRANCH  22  23
ATOM     23  C   UNL     1       4.534  -6.624  36.420  1.00  0.00    -0.000 C 
BRANCH  23  24
ATOM     24  C   UNL     1       3.950  -7.512  35.307  1.00  0.00    -0.000 C 
BRANCH  24  25
ATOM     25  C   UNL     1       5.050  -8.101  34.397  1.00  0.00    -0.000 C 
BRANCH  25  26
ATOM     26  C   UNL     1       4.785  -9.555  33.967  1.00  0.00    -0.000 C 
BRANCH  26  27
ATOM     27  C   UNL     1       4.133 -10.397  35.077  1.00  0.00    -0.000 C 
BRANCH  27  28
ATOM     28  C   UNL     1       5.129 -11.330  35.788  1.00  0.00    -0.000 C 
BRANCH  28  29
ATOM     29  C   UNL     1       5.114 -11.254  37.325  1.00  0.00    -0.003 C 
ATOM     30  C   UNL     1       4.207 -10.148  37.866  1.00  0.00     0.004 C 
ENDBRANCH  28  29
ENDBRANCH  27  28
ENDBRANCH  26  27
ENDBRANCH  25  26
ENDBRANCH  24  25
ENDBRANCH  23  24
ENDBRANCH  22  23
ENDBRANCH  21  22
ENDBRANCH  20  21
ENDBRANCH  19  20
ENDBRANCH  18  19
ENDBRANCH  17  18
ENDBRANCH   1  17
TORSDOF 26
ENDMDL
MODEL 5
REMARK VINA RESULT:    -3.996      2.253      6.274
REMARK INTER + INTRA:         -14.852
REMARK INTER:                  -9.675
REMARK INTRA:                  -5.177
REMARK UNBOUND:                -4.782
REMARK SMILES CCCCCCCCCCCCCCCCCCCCCCCCCCCC(=O)[O-]
REMARK SMILES IDX 15 1 16 2 17 3 18 4 19 5 20 6 21 7 22 8 23 9 24 10 25 11
REMARK SMILES IDX 26 12 27 13 28 14 29 15 30 16 14 17 13 18 12 19 11 20 10 21
REMARK SMILES IDX 9 22 8 23 7 24 6 25 5 26 4 27 3 28 2 29 1 30
REMARK H PARENT
REMARK Flexibility Score: inf
ROOT
ATOM      1  C   UNL     1       8.750  -7.936  33.182  1.00  0.00     0.000 C 
ENDROOT
BRANCH   1   2
ATOM      2  C   UNL     1       8.489  -6.672  34.014  1.00  0.00     0.000 C 
BRANCH   2   3
ATOM      3  C   UNL     1       8.693  -5.404  33.176  1.00  0.00     0.000 C 
BRANCH   3   4
ATOM      4  C   UNL     1       8.421  -4.146  34.012  1.00  0.00     0.000 C 
BRANCH   4   5
ATOM      5  C   UNL     1       7.526  -4.467  35.218  1.00  0.00     0.000 C 
BRANCH   5   6
ATOM      6  C   UNL     1       8.002  -3.780  36.511  1.00  0.00     0.000 C 
BRANCH   6   7
ATOM      7  C   UNL     1       8.356  -4.740  37.665  1.00  0.00     0.000 C 
BRANCH   7   8
ATOM      8  C   UNL     1       9.083  -6.034  37.245  1.00  0.00     0.000 C 
BRANCH   8   9
ATOM      9  C   UNL     1       8.678  -7.293  38.035  1.00  0.00     0.000 C 
BRANCH   9  10
ATOM     10  C   UNL     1       7.189  -7.642  37.867  1.00  0.00     0.000 C 
BRANCH  10  11
ATOM     11  C   UNL     1       6.944  -9.153  37.724  1.00  0.00     0.000 C 
BRANCH  11  12
ATOM     12  C   UNL     1       6.353  -9.536  36.358  1.00  0.00     0.006 C 
BRANCH  12  13
ATOM     13  C   UNL     1       5.877  -8.291  35.598  1.00  0.00     0.053 C 
BRANCH  13  14
ATOM     14  C   UNL     1       4.448  -8.414  35.162  1.00  0.00     0.041 C 
ATOM     15  O   UNL     1       3.928  -9.547  34.984  1.00  0.00    -0.550 OA
ATOM     16  O   UNL     1       3.661  -7.273  35.048  1.00  0.00    -0.550 OA
ENDBRANCH  13  14
ENDBRANCH  12  13
ENDBRANCH  11  12
ENDBRANCH  10  11
ENDBRANCH   9  10
ENDBRANCH   8   9
ENDBRANCH   7   8
ENDBRANCH   6   7
ENDBRANCH   5   6
ENDBRANCH   4   5
ENDBRANCH   3   4
ENDBRANCH   2   3
ENDBRANCH   1   2
BRANCH   1  17
ATOM     17  C   UNL     1      10.112  -8.582  33.492  1.00  0.00     0.000 C 
BRANCH  17  18
ATOM     18  C   UNL     1      10.397  -8.819  34.991  1.00  0.00     0.000 C 
BRANCH  18  19
ATOM     19  C   UNL     1      10.354 -10.293  35.434  1.00  0.00     0.000 C 
BRANCH  19  20
ATOM     20  C   UNL     1      10.268 -10.448  36.962  1.00  0.00     0.000 C 
BRANCH  20  21
ATOM     21  C   UNL     1      11.627 -10.788  37.596  1.00  0.00     0.000 C 
BRANCH  21  22
ATOM     22  C   UNL     1      11.982  -9.847  38.760  1.00  0.00    -0.000 C 
BRANCH  22  23
ATOM     23  C   UNL     1      13.464  -9.440  38.756  1.00  0.00    -0.000 C 
BRANCH  23  24
ATOM     24  C   UNL     1      13.658  -7.913  38.779  1.00  0.00    -0.000 C 
BRANCH  24  25
ATOM     25  C   UNL     1      12.401  -7.162  38.290  1.00  0.00    -0.000 C 
BRANCH  25  26
ATOM     26  C   UNL     1      12.363  -5.681  38.711  1.00  0.00    -0.000 C 
BRANCH  26  27
ATOM     27  C   UNL     1      12.963  -4.743  37.649  1.00  0.00    -0.000 C 
BRANCH  27  28
ATOM     28  C   UNL     1      11.911  -3.835  36.986  1.00  0.00    -0.000 C 
BRANCH  28  29
ATOM     29  C   UNL     1      11.935  -3.822  35.447  1.00  0.00    -0.003 C 
ATOM     30  C   UNL     1      11.779  -5.212  34.829  1.00  0.00     0.004 C 
ENDBRANCH  28  29
ENDBRANCH  27  28
ENDBRANCH  26  27
ENDBRANCH  25  26
ENDBRANCH  24  25
ENDBRANCH  23  24
ENDBRANCH  22  23
ENDBRANCH  21  22
ENDBRANCH  20  21
ENDBRANCH  19  20
ENDBRANCH  18  19
ENDBRANCH  17  18
ENDBRANCH   1  17
TORSDOF 26
ENDMDL
MODEL 6
REMARK VINA RESULT:    -3.953      2.526      5.434
REMARK INTER + INTRA:         -14.745
REMARK INTER:                 -10.756
REMARK INTRA:                  -3.988
REMARK UNBOUND:                -4.782
REMARK SMILES CCCCCCCCCCCCCCCCCCCCCCCCCCCC(=O)[O-]
REMARK SMILES IDX 15 1 16 2 17 3 18 4 19 5 20 6 21 7 22 8 23 9 24 10 25 11
REMARK SMILES IDX 26 12 27 13 28 14 29 15 30 16 14 17 13 18 12 19 11 20 10 21
REMARK SMILES IDX 9 22 8 23 7 24 6 25 5 26 4 27 3 28 2 29 1 30
REMARK H PARENT
REMARK Flexibility Score: inf
ROOT
ATOM      1  C   UNL     1      11.603 -10.983  37.850  1.00  0.00     0.000 C 
ENDROOT
BRANCH   1   2
ATOM      2  C   UNL     1      12.173 -12.093  36.956  1.00  0.00     0.000 C 
BRANCH   2   3
ATOM      3  C   UNL     1      13.167 -12.971  37.727  1.00  0.00     0.000 C 
BRANCH   3   4
ATOM      4  C   UNL     1      13.685 -12.243  38.974  1.00  0.00     0.000 C 
BRANCH   4   5
ATOM      5  C   UNL     1      15.219 -12.159  38.968  1.00  0.00     0.000 C 
BRANCH   5   6
ATOM      6  C   UNL     1      15.735 -10.752  38.616  1.00  0.00     0.000 C 
BRANCH   6   7
ATOM      7  C   UNL     1      14.720  -9.612  38.835  1.00  0.00     0.000 C 
BRANCH   7   8
ATOM      8  C   UNL     1      15.214  -8.206  38.434  1.00  0.00     0.000 C 
BRANCH   8   9
ATOM      9  C   UNL     1      14.305  -7.046  38.881  1.00  0.00     0.000 C 
BRANCH   9  10
ATOM     10  C   UNL     1      12.830  -7.273  38.508  1.00  0.00     0.000 C 
BRANCH  10  11
ATOM     11  C   UNL     1      12.007  -5.975  38.511  1.00  0.00     0.000 C 
BRANCH  11  12
ATOM     12  C   UNL     1      11.525  -5.570  37.108  1.00  0.00     0.006 C 
BRANCH  12  13
ATOM     13  C   UNL     1      11.419  -4.045  36.984  1.00  0.00     0.053 C 
BRANCH  13  14
ATOM     14  C   UNL     1      12.354  -3.501  35.947  1.00  0.00     0.041 C 
ATOM     15  O   UNL     1      12.664  -4.191  34.939  1.00  0.00    -0.550 OA
ATOM     16  O   UNL     1      12.805  -2.189  36.045  1.00  0.00    -0.550 OA
ENDBRANCH  13  14
ENDBRANCH  12  13
ENDBRANCH  11  12
ENDBRANCH  10  11
ENDBRANCH   9  10
ENDBRANCH   8   9
ENDBRANCH   7   8
ENDBRANCH   6   7
ENDBRANCH   5   6
ENDBRANCH   4   5
ENDBRANCH   3   4
ENDBRANCH   2   3
ENDBRANCH   1   2
BRANCH   1  17
ATOM     17  C   UNL     1      10.803  -9.933  37.059  1.00  0.00     0.000 C 
BRANCH  17  18
ATOM     18  C   UNL     1       9.390  -9.639  37.606  1.00  0.00     0.000 C 
BRANCH  18  19
ATOM     19  C   UNL     1       9.179  -8.203  38.121  1.00  0.00     0.000 C 
BRANCH  19  20
ATOM     20  C   UNL     1       7.702  -7.895  38.420  1.00  0.00     0.000 C 
BRANCH  20  21
ATOM     21  C   UNL     1       6.770  -8.310  37.269  1.00  0.00     0.000 C 
BRANCH  21  22
ATOM     22  C   UNL     1       5.608  -7.321  37.070  1.00  0.00    -0.000 C 
BRANCH  22  23
ATOM     23  C   UNL     1       5.619  -6.674  35.676  1.00  0.00    -0.000 C 
BRANCH  23  24
ATOM     24  C   UNL     1       6.024  -5.190  35.716  1.00  0.00    -0.000 C 
BRANCH  24  25
ATOM     25  C   UNL     1       7.551  -5.010  35.856  1.00  0.00    -0.000 C 
BRANCH  25  26
ATOM     26  C   UNL     1       8.210  -4.339  34.637  1.00  0.00    -0.000 C 
BRANCH  26  27
ATOM     27  C   UNL     1       9.318  -5.200  34.007  1.00  0.00    -0.000 C 
BRANCH  27  28
ATOM     28  C   UNL     1       8.812  -6.569  33.518  1.00  0.00    -0.000 C 
BRANCH  28  29
ATOM     29  C   UNL     1       9.331  -7.781  34.311  1.00  0.00    -0.003 C 
ATOM     30  C   UNL     1      10.415  -8.565  33.573  1.00  0.00     0.004 C 
ENDBRANCH  28  29
ENDBRANCH  27  28
ENDBRANCH  26  27
ENDBRANCH  25  26
ENDBRANCH  24  25
ENDBRANCH  23  24
ENDBRANCH  22  23
ENDBRANCH  21  22
ENDBRANCH  20  21
ENDBRANCH  19  20
ENDBRANCH  18  19
ENDBRANCH  17  18
ENDBRANCH   1  17
TORSDOF 26
ENDMDL
MODEL 7
REMARK VINA RESULT:    -3.935      2.777      6.631
REMARK INTER + INTRA:         -14.699
REMARK INTER:                 -10.122
REMARK INTRA:                  -4.577
REMARK UNBOUND:                -4.782
REMARK SMILES CCCCCCCCCCCCCCCCCCCCCCCCCCCC(=O)[O-]
REMARK SMILES IDX 15 1 16 2 17 3 18 4 19 5 20 6 21 7 22 8 23 9 24 10 25 11
REMARK SMILES IDX 26 12 27 13 28 14 29 15 30 16 14 17 13 18 12 19 11 20 10 21
REMARK SMILES IDX 9 22 8 23 7 24 6 25 5 26 4 27 3 28 2 29 1 30
REMARK H PARENT
REMARK Flexibility Score: inf
ROOT
ATOM      1  C   UNL     1       8.313  -8.053  33.800  1.00  0.00     0.000 C 
ENDROOT
BRANCH   1   2
ATOM      2  C   UNL     1       8.125  -6.609  34.290  1.00  0.00     0.000 C 
BRANCH   2   3
ATOM      3  C   UNL     1       9.004  -5.636  33.494  1.00  0.00     0.000 C 
BRANCH   3   4
ATOM      4  C   UNL     1       9.139  -4.296  34.229  1.00  0.00     0.000 C 
BRANCH   4   5
ATOM      5  C   UNL     1       9.134  -4.498  35.752  1.00  0.00     0.000 C 
BRANCH   5   6
ATOM      6  C   UNL     1      10.448  -4.048  36.416  1.00  0.00     0.000 C 
BRANCH   6   7
ATOM      7  C   UNL     1      11.206  -5.156  37.176  1.00  0.00     0.000 C 
BRANCH   7   8
ATOM      8  C   UNL     1      10.793  -6.599  36.818  1.00  0.00     0.000 C 
BRANCH   8   9
ATOM      9  C   UNL     1      10.449  -7.494  38.023  1.00  0.00     0.000 C 
BRANCH   9  10
ATOM     10  C   UNL     1       9.316  -6.913  38.887  1.00  0.00     0.000 C 
BRANCH  10  11
ATOM     11  C   UNL     1       7.983  -6.806  38.129  1.00  0.00     0.000 C 
BRANCH  11  12
ATOM     12  C   UNL     1       7.054  -8.005  38.382  1.00  0.00     0.006 C 
BRANCH  12  13
ATOM     13  C   UNL     1       7.131  -9.011  37.227  1.00  0.00     0.053 C 
BRANCH  13  14
ATOM     14  C   UNL     1       5.854  -9.063  36.444  1.00  0.00     0.041 C 
ATOM     15  O   UNL     1       5.259 -10.158  36.260  1.00  0.00    -0.550 OA
ATOM     16  O   UNL     1       5.269  -7.882  36.000  1.00  0.00    -0.550 OA
ENDBRANCH  13  14
ENDBRANCH  12  13
ENDBRANCH  11  12
ENDBRANCH  10  11
ENDBRANCH   9  10
ENDBRANCH   8   9
ENDBRANCH   7   8
ENDBRANCH   6   7
ENDBRANCH   5   6
ENDBRANCH   4   5
ENDBRANCH   3   4
ENDBRANCH   2   3
ENDBRANCH   1   2
BRANCH   1  17
ATOM     17  C   UNL     1       9.679  -8.281  33.130  1.00  0.00     0.000 C 
BRANCH  17  18
ATOM     18  C   UNL     1      10.720  -9.016  34.001  1.00  0.00     0.000 C 
BRANCH  18  19
ATOM     19  C   UNL     1      10.132  -9.833  35.165  1.00  0.00     0.000 C 
BRANCH  19  20
ATOM     20  C   UNL     1      10.680 -11.269  35.215  1.00  0.00     0.000 C 
BRANCH  20  21
ATOM     21  C   UNL     1      10.820 -11.796  36.653  1.00  0.00     0.000 C 
BRANCH  21  22
ATOM     22  C   UNL     1      11.650 -10.854  37.543  1.00  0.00    -0.000 C 
BRANCH  22  23
ATOM     23  C   UNL     1      12.642 -11.614  38.438  1.00  0.00    -0.000 C 
BRANCH  23  24
ATOM     24  C   UNL     1      13.507 -12.613  37.647  1.00  0.00    -0.000 C 
BRANCH  24  25
ATOM     25  C   UNL     1      15.008 -12.259  37.713  1.00  0.00    -0.000 C 
BRANCH  25  26
ATOM     26  C   UNL     1      15.321 -11.054  38.620  1.00  0.00    -0.000 C 
BRANCH  26  27
ATOM     27  C   UNL     1      16.198  -9.997  37.928  1.00  0.00    -0.000 C 
BRANCH  27  28
ATOM     28  C   UNL     1      15.824  -8.556  38.318  1.00  0.00    -0.000 C 
BRANCH  28  29
ATOM     29  C   UNL     1      14.342  -8.338  38.673  1.00  0.00    -0.003 C 
ATOM     30  C   UNL     1      14.004  -6.879  38.982  1.00  0.00     0.004 C 
ENDBRANCH  28  29
ENDBRANCH  27  28
ENDBRANCH  26  27
ENDBRANCH  25  26
ENDBRANCH  24  25
ENDBRANCH  23  24
ENDBRANCH  22  23
ENDBRANCH  21  22
ENDBRANCH  20  21
ENDBRANCH  19  20
ENDBRANCH  18  19
ENDBRANCH  17  18
ENDBRANCH   1  17
TORSDOF 26
ENDMDL
MODEL 8
REMARK VINA RESULT:    -3.924      2.005      6.230
REMARK INTER + INTRA:         -14.672
REMARK INTER:                  -9.222
REMARK INTRA:                  -5.449
REMARK UNBOUND:                -4.782
REMARK SMILES CCCCCCCCCCCCCCCCCCCCCCCCCCCC(=O)[O-]
REMARK SMILES IDX 15 1 16 2 17 3 18 4 19 5 20 6 21 7 22 8 23 9 24 10 25 11
REMARK SMILES IDX 26 12 27 13 28 14 29 15 30 16 14 17 13 18 12 19 11 20 10 21
REMARK SMILES IDX 9 22 8 23 7 24 6 25 5 26 4 27 3 28 2 29 1 30
REMARK H PARENT
REMARK Flexibility Score: inf
ROOT
ATOM      1  C   UNL     1       9.542  -8.250  32.842  1.00  0.00     0.000 C 
ENDROOT
BRANCH   1   2
ATOM      2  C   UNL     1       8.287  -7.644  33.486  1.00  0.00     0.000 C 
BRANCH   2   3
ATOM      3  C   UNL     1       8.408  -6.120  33.611  1.00  0.00     0.000 C 
BRANCH   3   4
ATOM      4  C   UNL     1       7.940  -5.646  34.993  1.00  0.00     0.000 C 
BRANCH   4   5
ATOM      5  C   UNL     1       7.870  -6.817  35.984  1.00  0.00     0.000 C 
BRANCH   5   6
ATOM      6  C   UNL     1       7.636  -6.355  37.434  1.00  0.00     0.000 C 
BRANCH   6   7
ATOM      7  C   UNL     1       7.182  -7.463  38.406  1.00  0.00     0.000 C 
BRANCH   7   8
ATOM      8  C   UNL     1       7.914  -8.813  38.251  1.00  0.00     0.000 C 
BRANCH   8   9
ATOM      9  C   UNL     1       6.997 -10.024  38.002  1.00  0.00     0.000 C 
BRANCH   9  10
ATOM     10  C   UNL     1       6.610 -10.179  36.521  1.00  0.00     0.000 C 
BRANCH  10  11
ATOM     11  C   UNL     1       5.160  -9.755  36.237  1.00  0.00     0.000 C 
BRANCH  11  12
ATOM     12  C   UNL     1       5.061  -8.623  35.201  1.00  0.00     0.006 C 
BRANCH  12  13
ATOM     13  C   UNL     1       3.790  -7.792  35.418  1.00  0.00     0.053 C 
BRANCH  13  14
ATOM     14  C   UNL     1       4.000  -6.701  36.424  1.00  0.00     0.041 C 
ATOM     15  O   UNL     1       3.696  -6.877  37.634  1.00  0.00    -0.550 OA
ATOM     16  O   UNL     1       4.625  -5.519  36.040  1.00  0.00    -0.550 OA
ENDBRANCH  13  14
ENDBRANCH  12  13
ENDBRANCH  11  12
ENDBRANCH  10  11
ENDBRANCH   9  10
ENDBRANCH   8   9
ENDBRANCH   7   8
ENDBRANCH   6   7
ENDBRANCH   5   6
ENDBRANCH   4   5
ENDBRANCH   3   4
ENDBRANCH   2   3
ENDBRANCH   1   2
BRANCH   1  17
ATOM     17  C   UNL     1      10.540  -8.795  33.881  1.00  0.00     0.000 C 
BRANCH  17  18
ATOM     18  C   UNL     1       9.910  -9.627  35.018  1.00  0.00     0.000 C 
BRANCH  18  19
ATOM     19  C   UNL     1      10.761 -10.816  35.501  1.00  0.00     0.000 C 
BRANCH  19  20
ATOM     20  C   UNL     1      10.504 -11.165  36.976  1.00  0.00     0.000 C 
BRANCH  20  21
ATOM     21  C   UNL     1      11.801 -11.484  37.739  1.00  0.00     0.000 C 
BRANCH  21  22
ATOM     22  C   UNL     1      12.441 -10.230  38.358  1.00  0.00    -0.000 C 
BRANCH  22  23
ATOM     23  C   UNL     1      11.409  -9.324  39.050  1.00  0.00    -0.000 C 
BRANCH  23  24
ATOM     24  C   UNL     1      11.656  -7.830  38.776  1.00  0.00    -0.000 C 
BRANCH  24  25
ATOM     25  C   UNL     1      11.461  -7.473  37.286  1.00  0.00    -0.000 C 
BRANCH  25  26
ATOM     26  C   UNL     1      11.216  -5.974  37.036  1.00  0.00    -0.000 C 
BRANCH  26  27
ATOM     27  C   UNL     1      11.430  -5.571  35.567  1.00  0.00    -0.000 C 
BRANCH  27  28
ATOM     28  C   UNL     1      11.413  -4.046  35.353  1.00  0.00    -0.000 C 
BRANCH  28  29
ATOM     29  C   UNL     1      12.311  -3.241  36.308  1.00  0.00    -0.003 C 
ATOM     30  C   UNL     1      13.788  -3.626  36.216  1.00  0.00     0.004 C 
ENDBRANCH  28  29
ENDBRANCH  27  28
ENDBRANCH  26  27
ENDBRANCH  25  26
ENDBRANCH  24  25
ENDBRANCH  23  24
ENDBRANCH  22  23
ENDBRANCH  21  22
ENDBRANCH  20  21
ENDBRANCH  19  20
ENDBRANCH  18  19
ENDBRANCH  17  18
ENDBRANCH   1  17
TORSDOF 26
ENDMDL
MODEL 9
REMARK VINA RESULT:    -3.904      2.007      4.356
REMARK INTER + INTRA:         -14.620
REMARK INTER:                  -9.045
REMARK INTRA:                  -5.575
REMARK UNBOUND:                -4.782
REMARK SMILES CCCCCCCCCCCCCCCCCCCCCCCCCCCC(=O)[O-]
REMARK SMILES IDX 15 1 16 2 17 3 18 4 19 5 20 6 21 7 22 8 23 9 24 10 25 11
REMARK SMILES IDX 26 12 27 13 28 14 29 15 30 16 14 17 13 18 12 19 11 20 10 21
REMARK SMILES IDX 9 22 8 23 7 24 6 25 5 26 4 27 3 28 2 29 1 30
REMARK H PARENT
REMARK Flexibility Score: inf
ROOT
ATOM      1  C   UNL     1       9.566  -8.259  33.448  1.00  0.00     0.000 C 
ENDROOT
BRANCH   1   2
ATOM      2  C   UNL     1      10.247  -8.405  34.816  1.00  0.00     0.000 C 
BRANCH   2   3
ATOM      3  C   UNL     1      10.420  -9.881  35.195  1.00  0.00     0.000 C 
BRANCH   3   4
ATOM      4  C   UNL     1       9.577 -10.231  36.429  1.00  0.00     0.000 C 
BRANCH   4   5
ATOM      5  C   UNL     1      10.183 -11.415  37.196  1.00  0.00     0.000 C 
BRANCH   5   6
ATOM      6  C   UNL     1      11.722 -11.435  37.139  1.00  0.00     0.000 C 
BRANCH   6   7
ATOM      7  C   UNL     1      12.427 -11.141  38.479  1.00  0.00     0.000 C 
BRANCH   7   8
ATOM      8  C   UNL     1      13.054  -9.735  38.597  1.00  0.00     0.000 C 
BRANCH   8   9
ATOM      9  C   UNL     1      12.084  -8.627  39.047  1.00  0.00     0.000 C 
BRANCH   9  10
ATOM     10  C   UNL     1      11.863  -7.559  37.962  1.00  0.00     0.000 C 
BRANCH  10  11
ATOM     11  C   UNL     1      11.277  -6.253  38.522  1.00  0.00     0.000 C 
BRANCH  11  12
ATOM     12  C   UNL     1      11.721  -5.011  37.732  1.00  0.00     0.006 C 
BRANCH  12  13
ATOM     13  C   UNL     1      11.602  -5.250  36.222  1.00  0.00     0.053 C 
BRANCH  13  14
ATOM     14  C   UNL     1      11.844  -3.997  35.436  1.00  0.00     0.041 C 
ATOM     15  O   UNL     1      11.383  -3.872  34.270  1.00  0.00    -0.550 OA
ATOM     16  O   UNL     1      12.498  -2.924  36.032  1.00  0.00    -0.550 OA
ENDBRANCH  13  14
ENDBRANCH  12  13
ENDBRANCH  11  12
ENDBRANCH  10  11
ENDBRANCH   9  10
ENDBRANCH   8   9
ENDBRANCH   7   8
ENDBRANCH   6   7
ENDBRANCH   5   6
ENDBRANCH   4   5
ENDBRANCH   3   4
ENDBRANCH   2   3
ENDBRANCH   1   2
BRANCH   1  17
ATOM     17  C   UNL     1       8.287  -7.404  33.507  1.00  0.00     0.000 C 
BRANCH  17  18
ATOM     18  C   UNL     1       6.969  -8.203  33.576  1.00  0.00     0.000 C 
BRANCH  18  19
ATOM     19  C   UNL     1       6.561  -8.664  34.987  1.00  0.00     0.000 C 
BRANCH  19  20
ATOM     20  C   UNL     1       5.040  -8.611  35.210  1.00  0.00     0.000 C 
BRANCH  20  21
ATOM     21  C   UNL     1       4.498  -7.172  35.214  1.00  0.00     0.000 C 
BRANCH  21  22
ATOM     22  C   UNL     1       4.185  -6.668  36.634  1.00  0.00    -0.000 C 
BRANCH  22  23
ATOM     23  C   UNL     1       4.267  -7.785  37.686  1.00  0.00    -0.000 C 
BRANCH  23  24
ATOM     24  C   UNL     1       5.317  -7.497  38.774  1.00  0.00    -0.000 C 
BRANCH  24  25
ATOM     25  C   UNL     1       6.531  -8.446  38.674  1.00  0.00    -0.000 C 
BRANCH  25  26
ATOM     26  C   UNL     1       7.837  -7.739  38.265  1.00  0.00    -0.000 C 
BRANCH  26  27
ATOM     27  C   UNL     1       7.658  -6.225  38.062  1.00  0.00    -0.000 C 
BRANCH  27  28
ATOM     28  C   UNL     1       8.109  -5.747  36.670  1.00  0.00    -0.000 C 
BRANCH  28  29
ATOM     29  C   UNL     1       7.205  -4.686  36.018  1.00  0.00    -0.003 C 
ATOM     30  C   UNL     1       7.874  -3.960  34.851  1.00  0.00     0.004 C 
ENDBRANCH  28  29
ENDBRANCH  27  28
ENDBRANCH  26  27
ENDBRANCH  25  26
ENDBRANCH  24  25
ENDBRANCH  23  24
ENDBRANCH  22  23
ENDBRANCH  21  22
ENDBRANCH  20  21
ENDBRANCH  19  20
ENDBRANCH  18  19
ENDBRANCH  17  18
ENDBRANCH   1  17
TORSDOF 26
ENDMDL
