MODEL 1
REMARK VINA RESULT:     6.682      0.000      0.000
REMARK INTER + INTRA:          20.351
REMARK INTER:                  16.839
REMARK INTRA:                   3.513
REMARK UNBOUND:                 3.513
REMARK SMILES CCCCCCCCCCCCCCCCCCCCCCCCCCCC(=O)[O-]
REMARK SMILES IDX 15 1 16 2 17 3 18 4 19 5 20 6 21 7 22 8 23 9 24 10 25 11
REMARK SMILES IDX 26 12 27 13 28 14 29 15 30 16 14 17 13 18 12 19 11 20 10 21
REMARK SMILES IDX 9 22 8 23 7 24 6 25 5 26 4 27 3 28 2 29 1 30
REMARK H PARENT
REMARK Flexibility Score: inf
ROOT
ATOM      1  C   UNL     1      -5.243  37.413  23.227  1.00  0.00     0.000 C 
ENDROOT
BRANCH   1   2
ATOM      2  C   UNL     1      -6.125  36.256  22.723  1.00  0.00     0.000 C 
BRANCH   2   3
ATOM      3  C   UNL     1      -5.300  35.047  22.245  1.00  0.00     0.000 C 
BRANCH   3   4
ATOM      4  C   UNL     1      -5.278  33.864  23.230  1.00  0.00     0.000 C 
BRANCH   4   5
ATOM      5  C   UNL     1      -6.014  34.180  24.545  1.00  0.00     0.000 C 
BRANCH   5   6
ATOM      6  C   UNL     1      -6.122  35.692  24.823  1.00  0.00     0.000 C 
BRANCH   6   7
ATOM      7  C   UNL     1      -5.668  36.131  26.229  1.00  0.00     0.000 C 
BRANCH   7   8
ATOM      8  C   UNL     1      -5.678  37.652  26.477  1.00  0.00     0.000 C 
BRANCH   8   9
ATOM      9  C   UNL     1      -4.287  38.312  26.378  1.00  0.00     0.000 C 
BRANCH   9  10
ATOM     10  C   UNL     1      -3.147  37.279  26.390  1.00  0.00     0.000 C 
BRANCH  10  11
ATOM     11  C   UNL     1      -1.935  37.732  27.224  1.00  0.00     0.000 C 
BRANCH  11  12
ATOM     12  C   UNL     1      -1.494  36.747  28.323  1.00  0.00     0.006 C 
BRANCH  12  13
ATOM     13  C   UNL     1      -1.719  35.278  27.940  1.00  0.00     0.053 C 
BRANCH  13  14
ATOM     14  C   UNL     1      -1.466  34.384  29.113  1.00  0.00     0.041 C 
ATOM     15  O   UNL     1      -0.285  34.072  29.428  1.00  0.00    -0.550 OA
ATOM     16  O   UNL     1      -2.527  33.942  29.894  1.00  0.00    -0.550 OA
ENDBRANCH  13  14
ENDBRANCH  12  13
ENDBRANCH  11  12
ENDBRANCH  10  11
ENDBRANCH   9  10
ENDBRANCH   8   9
ENDBRANCH   7   8
ENDBRANCH   6   7
ENDBRANCH   5   6
ENDBRANCH   4   5
ENDBRANCH   3   4
ENDBRANCH   2   3
ENDBRANCH   1   2
BRANCH   1  17
ATOM     17  C   UNL     1      -5.937  38.783  23.120  1.00  0.00     0.000 C 
BRANCH  17  18
ATOM     18  C   UNL     1      -5.278  39.779  22.143  1.00  0.00     0.000 C 
BRANCH  18  19
ATOM     19  C   UNL     1      -6.124  40.135  20.909  1.00  0.00     0.000 C 
BRANCH  19  20
ATOM     20  C   UNL     1      -5.819  39.237  19.700  1.00  0.00     0.000 C 
BRANCH  20  21
ATOM     21  C   UNL     1      -5.055  37.976  20.135  1.00  0.00     0.000 C 
BRANCH  21  22
ATOM     22  C   UNL     1      -5.571  36.697  19.451  1.00  0.00    -0.000 C 
BRANCH  22  23
ATOM     23  C   UNL     1      -4.694  35.449  19.660  1.00  0.00    -0.000 C 
BRANCH  23  24
ATOM     24  C   UNL     1      -3.715  35.202  18.502  1.00  0.00    -0.000 C 
BRANCH  24  25
ATOM     25  C   UNL     1      -4.450  34.674  17.264  1.00  0.00    -0.000 C 
BRANCH  25  26
ATOM     26  C   UNL     1      -3.531  34.666  16.035  1.00  0.00    -0.000 C 
BRANCH  26  27
ATOM     27  C   UNL     1      -2.956  36.066  15.730  1.00  0.00    -0.000 C 
BRANCH  27  28
ATOM     28  C   UNL     1      -3.300  36.575  14.318  1.00  0.00    -0.000 C 
BRANCH  28  29
ATOM     29  C   UNL     1      -4.682  37.241  14.199  1.00  0.00    -0.003 C 
ATOM     30  C   UNL     1      -4.595  38.733  13.875  1.00  0.00     0.004 C 
ENDBRANCH  28  29
ENDBRANCH  27  28
ENDBRANCH  26  27
ENDBRANCH  25  26
ENDBRANCH  24  25
ENDBRANCH  23  24
ENDBRANCH  22  23
ENDBRANCH  21  22
ENDBRANCH  20  21
ENDBRANCH  19  20
ENDBRANCH  18  19
ENDBRANCH  17  18
ENDBRANCH   1  17
TORSDOF 26
ENDMDL
MODEL 2
REMARK VINA RESULT:     9.617      4.215      9.596
REMARK INTER + INTRA:          27.748
REMARK INTER:                  27.341
REMARK INTRA:                   0.406
REMARK UNBOUND:                 3.513
REMARK SMILES CCCCCCCCCCCCCCCCCCCCCCCCCCCC(=O)[O-]
REMARK SMILES IDX 15 1 16 2 17 3 18 4 19 5 20 6 21 7 22 8 23 9 24 10 25 11
REMARK SMILES IDX 26 12 27 13 28 14 29 15 30 16 14 17 13 18 12 19 11 20 10 21
REMARK SMILES IDX 9 22 8 23 7 24 6 25 5 26 4 27 3 28 2 29 1 30
REMARK H PARENT
REMARK Flexibility Score: inf
ROOT
ATOM      1  C   UNL     1      -4.673  36.622  20.811  1.00  0.00     0.000 C 
ENDROOT
BRANCH   1   2
ATOM      2  C   UNL     1      -6.021  35.998  21.214  1.00  0.00     0.000 C 
BRANCH   2   3
ATOM      3  C   UNL     1      -6.112  35.709  22.724  1.00  0.00     0.000 C 
BRANCH   3   4
ATOM      4  C   UNL     1      -4.878  34.998  23.310  1.00  0.00     0.000 C 
BRANCH   4   5
ATOM      5  C   UNL     1      -4.539  33.695  22.563  1.00  0.00     0.000 C 
BRANCH   5   6
ATOM      6  C   UNL     1      -3.198  33.769  21.808  1.00  0.00     0.000 C 
BRANCH   6   7
ATOM      7  C   UNL     1      -3.299  34.244  20.344  1.00  0.00     0.000 C 
BRANCH   7   8
ATOM      8  C   UNL     1      -4.198  33.383  19.435  1.00  0.00     0.000 C 
BRANCH   8   9
ATOM      9  C   UNL     1      -4.916  34.182  18.328  1.00  0.00     0.000 C 
BRANCH   9  10
ATOM     10  C   UNL     1      -4.225  35.525  18.034  1.00  0.00     0.000 C 
BRANCH  10  11
ATOM     11  C   UNL     1      -3.375  35.494  16.751  1.00  0.00     0.000 C 
BRANCH  11  12
ATOM     12  C   UNL     1      -4.095  34.954  15.501  1.00  0.00     0.006 C 
BRANCH  12  13
ATOM     13  C   UNL     1      -3.426  35.385  14.189  1.00  0.00     0.053 C 
BRANCH  13  14
ATOM     14  C   UNL     1      -2.598  36.612  14.400  1.00  0.00     0.041 C 
ATOM     15  O   UNL     1      -1.339  36.539  14.374  1.00  0.00    -0.550 OA
ATOM     16  O   UNL     1      -3.213  37.847  14.567  1.00  0.00    -0.550 OA
ENDBRANCH  13  14
ENDBRANCH  12  13
ENDBRANCH  11  12
ENDBRANCH  10  11
ENDBRANCH   9  10
ENDBRANCH   8   9
ENDBRANCH   7   8
ENDBRANCH   6   7
ENDBRANCH   5   6
ENDBRANCH   4   5
ENDBRANCH   3   4
ENDBRANCH   2   3
ENDBRANCH   1   2
BRANCH   1  17
ATOM     17  C   UNL     1      -4.783  37.532  19.574  1.00  0.00     0.000 C 
BRANCH  17  18
ATOM     18  C   UNL     1      -5.284  38.964  19.854  1.00  0.00     0.000 C 
BRANCH  18  19
ATOM     19  C   UNL     1      -6.123  39.121  21.134  1.00  0.00     0.000 C 
BRANCH  19  20
ATOM     20  C   UNL     1      -5.841  40.440  21.869  1.00  0.00     0.000 C 
BRANCH  20  21
ATOM     21  C   UNL     1      -4.719  40.262  22.903  1.00  0.00     0.000 C 
BRANCH  21  22
ATOM     22  C   UNL     1      -5.233  39.778  24.270  1.00  0.00    -0.000 C 
BRANCH  22  23
ATOM     23  C   UNL     1      -4.289  38.822  25.021  1.00  0.00    -0.000 C 
BRANCH  23  24
ATOM     24  C   UNL     1      -5.015  37.608  25.620  1.00  0.00    -0.000 C 
BRANCH  24  25
ATOM     25  C   UNL     1      -4.034  36.693  26.362  1.00  0.00    -0.000 C 
BRANCH  25  26
ATOM     26  C   UNL     1      -2.745  37.443  26.728  1.00  0.00    -0.000 C 
BRANCH  26  27
ATOM     27  C   UNL     1      -2.127  36.928  28.045  1.00  0.00    -0.000 C 
BRANCH  27  28
ATOM     28  C   UNL     1      -1.776  35.429  28.013  1.00  0.00    -0.000 C 
BRANCH  28  29
ATOM     29  C   UNL     1      -1.182  34.884  29.323  1.00  0.00    -0.003 C 
ATOM     30  C   UNL     1      -2.020  33.761  29.934  1.00  0.00     0.004 C 
ENDBRANCH  28  29
ENDBRANCH  27  28
ENDBRANCH  26  27
ENDBRANCH  25  26
ENDBRANCH  24  25
ENDBRANCH  23  24
ENDBRANCH  22  23
ENDBRANCH  21  22
ENDBRANCH  20  21
ENDBRANCH  19  20
ENDBRANCH  18  19
ENDBRANCH  17  18
ENDBRANCH   1  17
TORSDOF 26
ENDMDL
