MODEL 1
REMARK VINA RESULT:    -3.755      0.000      0.000
REMARK INTER + INTRA:         -15.112
REMARK INTER:                  -9.902
REMARK INTRA:                  -5.210
REMARK UNBOUND:                -5.210
REMARK SMILES CCCCCCCCCCCCCCCCCCCCCCCCCCCCCC(=O)[O-]
REMARK SMILES IDX 16 1 17 2 18 3 19 4 20 5 21 6 22 7 23 8 24 9 25 10 26 11
REMARK SMILES IDX 27 12 28 13 29 14 30 15 31 16 32 17 15 18 14 19 13 20 12 21
REMARK SMILES IDX 11 22 10 23 9 24 8 25 7 26 6 27 5 28 4 29 3 30 2 31 1 32
REMARK H PARENT
REMARK Flexibility Score: inf
ROOT
ATOM      1  C   UNL     1     -94.095 147.142 237.180  1.00  0.00     0.000 C 
ENDROOT
BRANCH   1   2
ATOM      2  C   UNL     1     -93.046 146.082 237.578  1.00  0.00     0.000 C 
BRANCH   2   3
ATOM      3  C   UNL     1     -92.107 145.631 236.444  1.00  0.00     0.000 C 
BRANCH   3   4
ATOM      4  C   UNL     1     -92.732 145.652 235.035  1.00  0.00     0.000 C 
BRANCH   4   5
ATOM      5  C   UNL     1     -91.924 146.474 234.005  1.00  0.00     0.000 C 
BRANCH   5   6
ATOM      6  C   UNL     1     -92.612 147.778 233.564  1.00  0.00     0.000 C 
BRANCH   6   7
ATOM      7  C   UNL     1     -94.072 147.556 233.124  1.00  0.00     0.000 C 
BRANCH   7   8
ATOM      8  C   UNL     1     -94.979 148.745 233.478  1.00  0.00     0.000 C 
BRANCH   8   9
ATOM      9  C   UNL     1     -96.152 148.348 234.386  1.00  0.00     0.000 C 
BRANCH   9  10
ATOM     10  C   UNL     1     -96.597 149.533 235.256  1.00  0.00     0.000 C 
BRANCH  10  11
ATOM     11  C   UNL     1     -95.455 150.522 235.542  1.00  0.00     0.000 C 
BRANCH  11  12
ATOM     12  C   UNL     1     -95.752 151.941 235.028  1.00  0.00     0.000 C 
BRANCH  12  13
ATOM     13  C   UNL     1     -97.157 152.430 235.414  1.00  0.00     0.006 C 
BRANCH  13  14
ATOM     14  C   UNL     1     -97.396 153.902 235.047  1.00  0.00     0.053 C 
BRANCH  14  15
ATOM     15  C   UNL     1     -98.643 154.418 235.695  1.00  0.00     0.041 C 
ATOM     16  O   UNL     1     -99.319 153.671 236.452  1.00  0.00    -0.550 OA
ATOM     17  O   UNL     1     -99.071 155.718 235.452  1.00  0.00    -0.550 OA
ENDBRANCH  14  15
ENDBRANCH  13  14
ENDBRANCH  12  13
ENDBRANCH  11  12
ENDBRANCH  10  11
ENDBRANCH   9  10
ENDBRANCH   8   9
ENDBRANCH   7   8
ENDBRANCH   6   7
ENDBRANCH   5   6
ENDBRANCH   4   5
ENDBRANCH   3   4
ENDBRANCH   2   3
ENDBRANCH   1   2
BRANCH   1  18
ATOM     18  C   UNL     1     -94.246 148.315 238.165  1.00  0.00     0.000 C 
BRANCH  18  19
ATOM     19  C   UNL     1     -93.559 148.057 239.515  1.00  0.00     0.000 C 
BRANCH  19  20
ATOM     20  C   UNL     1     -94.470 148.476 240.678  1.00  0.00     0.000 C 
BRANCH  20  21
ATOM     21  C   UNL     1     -95.041 147.273 241.446  1.00  0.00     0.000 C 
BRANCH  21  22
ATOM     22  C   UNL     1     -94.665 145.930 240.799  1.00  0.00     0.000 C 
BRANCH  22  23
ATOM     23  C   UNL     1     -95.870 145.208 240.168  1.00  0.00     0.000 C 
BRANCH  23  24
ATOM     24  C   UNL     1     -97.170 146.031 240.105  1.00  0.00    -0.000 C 
BRANCH  24  25
ATOM     25  C   UNL     1     -97.475 146.566 238.694  1.00  0.00    -0.000 C 
BRANCH  25  26
ATOM     26  C   UNL     1     -98.448 147.756 238.713  1.00  0.00    -0.000 C 
BRANCH  26  27
ATOM     27  C   UNL     1     -97.756 149.080 239.089  1.00  0.00    -0.000 C 
BRANCH  27  28
ATOM     28  C   UNL     1     -98.444 149.788 240.267  1.00  0.00    -0.000 C 
BRANCH  28  29
ATOM     29  C   UNL     1     -97.447 150.224 241.353  1.00  0.00    -0.000 C 
BRANCH  29  30
ATOM     30  C   UNL     1     -97.770 149.630 242.734  1.00  0.00    -0.000 C 
BRANCH  30  31
ATOM     31  C   UNL     1     -98.453 148.249 242.666  1.00  0.00    -0.003 C 
ATOM     32  C   UNL     1     -97.917 147.282 243.722  1.00  0.00     0.004 C 
ENDBRANCH  30  31
ENDBRANCH  29  30
ENDBRANCH  28  29
ENDBRANCH  27  28
ENDBRANCH  26  27
ENDBRANCH  25  26
ENDBRANCH  24  25
ENDBRANCH  23  24
ENDBRANCH  22  23
ENDBRANCH  21  22
ENDBRANCH  20  21
ENDBRANCH  19  20
ENDBRANCH  18  19
ENDBRANCH   1  18
TORSDOF 28
ENDMDL
MODEL 2
REMARK VINA RESULT:    -3.636      1.369      2.415
REMARK INTER + INTRA:         -14.799
REMARK INTER:                  -9.504
REMARK INTRA:                  -5.294
REMARK UNBOUND:                -5.210
REMARK SMILES CCCCCCCCCCCCCCCCCCCCCCCCCCCCCC(=O)[O-]
REMARK SMILES IDX 16 1 17 2 18 3 19 4 20 5 21 6 22 7 23 8 24 9 25 10 26 11
REMARK SMILES IDX 27 12 28 13 29 14 30 15 31 16 32 17 15 18 14 19 13 20 12 21
REMARK SMILES IDX 11 22 10 23 9 24 8 25 7 26 6 27 5 28 4 29 3 30 2 31 1 32
REMARK H PARENT
REMARK Flexibility Score: inf
ROOT
ATOM      1  C   UNL     1     -93.756 148.106 239.126  1.00  0.00     0.000 C 
ENDROOT
BRANCH   1   2
ATOM      2  C   UNL     1     -93.673 146.572 238.970  1.00  0.00     0.000 C 
BRANCH   2   3
ATOM      3  C   UNL     1     -92.264 146.015 238.701  1.00  0.00     0.000 C 
BRANCH   3   4
ATOM      4  C   UNL     1     -91.934 145.768 237.215  1.00  0.00     0.000 C 
BRANCH   4   5
ATOM      5  C   UNL     1     -93.171 145.784 236.288  1.00  0.00     0.000 C 
BRANCH   5   6
ATOM      6  C   UNL     1     -93.024 146.702 235.062  1.00  0.00     0.000 C 
BRANCH   6   7
ATOM      7  C   UNL     1     -94.352 147.378 234.668  1.00  0.00     0.000 C 
BRANCH   7   8
ATOM      8  C   UNL     1     -94.138 148.615 233.781  1.00  0.00     0.000 C 
BRANCH   8   9
ATOM      9  C   UNL     1     -95.351 149.558 233.775  1.00  0.00     0.000 C 
BRANCH   9  10
ATOM     10  C   UNL     1     -95.207 150.641 234.855  1.00  0.00     0.000 C 
BRANCH  10  11
ATOM     11  C   UNL     1     -96.198 151.803 234.667  1.00  0.00     0.000 C 
BRANCH  11  12
ATOM     12  C   UNL     1     -97.645 151.414 235.012  1.00  0.00     0.000 C 
BRANCH  12  13
ATOM     13  C   UNL     1     -98.620 152.597 234.900  1.00  0.00     0.006 C 
BRANCH  13  14
ATOM     14  C   UNL     1     -98.610 153.496 236.146  1.00  0.00     0.053 C 
BRANCH  14  15
ATOM     15  C   UNL     1     -98.444 154.934 235.765  1.00  0.00     0.041 C 
ATOM     16  O   UNL     1     -99.449 155.690 235.688  1.00  0.00    -0.550 OA
ATOM     17  O   UNL     1     -97.181 155.439 235.477  1.00  0.00    -0.550 OA
ENDBRANCH  14  15
ENDBRANCH  13  14
ENDBRANCH  12  13
ENDBRANCH  11  12
ENDBRANCH  10  11
ENDBRANCH   9  10
ENDBRANCH   8   9
ENDBRANCH   7   8
ENDBRANCH   6   7
ENDBRANCH   5   6
ENDBRANCH   4   5
ENDBRANCH   3   4
ENDBRANCH   2   3
ENDBRANCH   1   2
BRANCH   1  18
ATOM     18  C   UNL     1     -94.672 148.818 238.115  1.00  0.00     0.000 C 
BRANCH  18  19
ATOM     19  C   UNL     1     -95.925 148.002 237.764  1.00  0.00     0.000 C 
BRANCH  19  20
ATOM     20  C   UNL     1     -97.115 148.930 237.472  1.00  0.00     0.000 C 
BRANCH  20  21
ATOM     21  C   UNL     1     -98.397 148.497 238.201  1.00  0.00     0.000 C 
BRANCH  21  22
ATOM     22  C   UNL     1     -98.314 147.054 238.729  1.00  0.00     0.000 C 
BRANCH  22  23
ATOM     23  C   UNL     1     -99.062 146.858 240.060  1.00  0.00     0.000 C 
BRANCH  23  24
ATOM     24  C   UNL     1     -98.191 146.397 241.243  1.00  0.00    -0.000 C 
BRANCH  24  25
ATOM     25  C   UNL     1     -96.731 146.872 241.136  1.00  0.00    -0.000 C 
BRANCH  25  26
ATOM     26  C   UNL     1     -96.447 148.105 242.010  1.00  0.00    -0.000 C 
BRANCH  26  27
ATOM     27  C   UNL     1     -96.494 149.421 241.209  1.00  0.00    -0.000 C 
BRANCH  27  28
ATOM     28  C   UNL     1     -97.780 150.221 241.469  1.00  0.00    -0.000 C 
BRANCH  28  29
ATOM     29  C   UNL     1     -98.330 150.004 242.889  1.00  0.00    -0.000 C 
BRANCH  29  30
ATOM     30  C   UNL     1     -99.824 149.641 242.902  1.00  0.00    -0.000 C 
BRANCH  30  31
ATOM     31  C   UNL     1    -100.127 148.303 243.605  1.00  0.00    -0.003 C 
ATOM     32  C   UNL     1     -99.082 147.953 244.666  1.00  0.00     0.004 C 
ENDBRANCH  30  31
ENDBRANCH  29  30
ENDBRANCH  28  29
ENDBRANCH  27  28
ENDBRANCH  26  27
ENDBRANCH  25  26
ENDBRANCH  24  25
ENDBRANCH  23  24
ENDBRANCH  22  23
ENDBRANCH  21  22
ENDBRANCH  20  21
ENDBRANCH  19  20
ENDBRANCH  18  19
ENDBRANCH   1  18
TORSDOF 28
ENDMDL
MODEL 3
REMARK VINA RESULT:    -3.636      1.286      2.691
REMARK INTER + INTRA:         -14.798
REMARK INTER:                  -9.622
REMARK INTRA:                  -5.176
REMARK UNBOUND:                -5.210
REMARK SMILES CCCCCCCCCCCCCCCCCCCCCCCCCCCCCC(=O)[O-]
REMARK SMILES IDX 16 1 17 2 18 3 19 4 20 5 21 6 22 7 23 8 24 9 25 10 26 11
REMARK SMILES IDX 27 12 28 13 29 14 30 15 31 16 32 17 15 18 14 19 13 20 12 21
REMARK SMILES IDX 11 22 10 23 9 24 8 25 7 26 6 27 5 28 4 29 3 30 2 31 1 32
REMARK H PARENT
REMARK Flexibility Score: inf
ROOT
ATOM      1  C   UNL     1     -93.814 146.686 238.331  1.00  0.00     0.000 C 
ENDROOT
BRANCH   1   2
ATOM      2  C   UNL     1     -92.393 146.102 238.176  1.00  0.00     0.000 C 
BRANCH   2   3
ATOM      3  C   UNL     1     -92.047 145.583 236.769  1.00  0.00     0.000 C 
BRANCH   3   4
ATOM      4  C   UNL     1     -92.911 146.162 235.630  1.00  0.00     0.000 C 
BRANCH   4   5
ATOM      5  C   UNL     1     -92.146 146.357 234.301  1.00  0.00     0.000 C 
BRANCH   5   6
ATOM      6  C   UNL     1     -92.424 147.703 233.609  1.00  0.00     0.000 C 
BRANCH   6   7
ATOM      7  C   UNL     1     -93.430 147.574 232.450  1.00  0.00     0.000 C 
BRANCH   7   8
ATOM      8  C   UNL     1     -94.745 148.320 232.730  1.00  0.00     0.000 C 
BRANCH   8   9
ATOM      9  C   UNL     1     -94.772 148.975 234.119  1.00  0.00     0.000 C 
BRANCH   9  10
ATOM     10  C   UNL     1     -95.919 149.992 234.222  1.00  0.00     0.000 C 
BRANCH  10  11
ATOM     11  C   UNL     1     -95.507 151.281 234.954  1.00  0.00     0.000 C 
BRANCH  11  12
ATOM     12  C   UNL     1     -96.554 152.400 234.825  1.00  0.00     0.000 C 
BRANCH  12  13
ATOM     13  C   UNL     1     -97.987 151.904 235.074  1.00  0.00     0.006 C 
BRANCH  13  14
ATOM     14  C   UNL     1     -98.575 152.423 236.394  1.00  0.00     0.053 C 
BRANCH  14  15
ATOM     15  C   UNL     1     -99.598 153.486 236.141  1.00  0.00     0.041 C 
ATOM     16  O   UNL     1     -99.837 153.869 234.964  1.00  0.00    -0.550 OA
ATOM     17  O   UNL     1    -100.278 154.069 237.204  1.00  0.00    -0.550 OA
ENDBRANCH  14  15
ENDBRANCH  13  14
ENDBRANCH  12  13
ENDBRANCH  11  12
ENDBRANCH  10  11
ENDBRANCH   9  10
ENDBRANCH   8   9
ENDBRANCH   7   8
ENDBRANCH   6   7
ENDBRANCH   5   6
ENDBRANCH   4   5
ENDBRANCH   3   4
ENDBRANCH   2   3
ENDBRANCH   1   2
BRANCH   1  18
ATOM     18  C   UNL     1     -93.871 148.189 238.658  1.00  0.00     0.000 C 
BRANCH  18  19
ATOM     19  C   UNL     1     -94.845 148.962 237.755  1.00  0.00     0.000 C 
BRANCH  19  20
ATOM     20  C   UNL     1     -96.137 148.161 237.536  1.00  0.00     0.000 C 
BRANCH  20  21
ATOM     21  C   UNL     1     -97.390 149.051 237.512  1.00  0.00     0.000 C 
BRANCH  21  22
ATOM     22  C   UNL     1     -98.661 148.289 237.923  1.00  0.00     0.000 C 
BRANCH  22  23
ATOM     23  C   UNL     1     -99.387 148.931 239.119  1.00  0.00     0.000 C 
BRANCH  23  24
ATOM     24  C   UNL     1     -98.662 150.126 239.764  1.00  0.00    -0.000 C 
BRANCH  24  25
ATOM     25  C   UNL     1     -98.758 150.130 241.300  1.00  0.00    -0.000 C 
BRANCH  25  26
ATOM     26  C   UNL     1     -97.379 150.073 241.977  1.00  0.00    -0.000 C 
BRANCH  26  27
ATOM     27  C   UNL     1     -96.313 149.398 241.092  1.00  0.00    -0.000 C 
BRANCH  27  28
ATOM     28  C   UNL     1     -95.964 147.980 241.572  1.00  0.00    -0.000 C 
BRANCH  28  29
ATOM     29  C   UNL     1     -96.844 146.904 240.915  1.00  0.00    -0.000 C 
BRANCH  29  30
ATOM     30  C   UNL     1     -97.903 146.333 241.872  1.00  0.00    -0.000 C 
BRANCH  30  31
ATOM     31  C   UNL     1     -97.604 146.609 243.359  1.00  0.00    -0.003 C 
ATOM     32  C   UNL     1     -98.751 147.341 244.057  1.00  0.00     0.004 C 
ENDBRANCH  30  31
ENDBRANCH  29  30
ENDBRANCH  28  29
ENDBRANCH  27  28
ENDBRANCH  26  27
ENDBRANCH  25  26
ENDBRANCH  24  25
ENDBRANCH  23  24
ENDBRANCH  22  23
ENDBRANCH  21  22
ENDBRANCH  20  21
ENDBRANCH  19  20
ENDBRANCH  18  19
ENDBRANCH   1  18
TORSDOF 28
ENDMDL
MODEL 4
REMARK VINA RESULT:    -3.566      1.474      2.803
REMARK INTER + INTRA:         -14.613
REMARK INTER:                  -8.965
REMARK INTRA:                  -5.648
REMARK UNBOUND:                -5.210
REMARK SMILES CCCCCCCCCCCCCCCCCCCCCCCCCCCCCC(=O)[O-]
REMARK SMILES IDX 16 1 17 2 18 3 19 4 20 5 21 6 22 7 23 8 24 9 25 10 26 11
REMARK SMILES IDX 27 12 28 13 29 14 30 15 31 16 32 17 15 18 14 19 13 20 12 21
REMARK SMILES IDX 11 22 10 23 9 24 8 25 7 26 6 27 5 28 4 29 3 30 2 31 1 32
REMARK H PARENT
REMARK Flexibility Score: inf
ROOT
ATOM      1  C   UNL     1     -93.390 148.035 239.635  1.00  0.00     0.000 C 
ENDROOT
BRANCH   1   2
ATOM      2  C   UNL     1     -93.285 146.524 239.336  1.00  0.00     0.000 C 
BRANCH   2   3
ATOM      3  C   UNL     1     -91.896 146.040 238.881  1.00  0.00     0.000 C 
BRANCH   3   4
ATOM      4  C   UNL     1     -91.787 145.694 237.382  1.00  0.00     0.000 C 
BRANCH   4   5
ATOM      5  C   UNL     1     -93.043 146.064 236.561  1.00  0.00     0.000 C 
BRANCH   5   6
ATOM      6  C   UNL     1     -92.807 146.112 235.041  1.00  0.00     0.000 C 
BRANCH   6   7
ATOM      7  C   UNL     1     -94.003 146.711 234.276  1.00  0.00     0.000 C 
BRANCH   7   8
ATOM      8  C   UNL     1     -93.691 148.099 233.694  1.00  0.00     0.000 C 
BRANCH   8   9
ATOM      9  C   UNL     1     -94.956 148.926 233.420  1.00  0.00     0.000 C 
BRANCH   9  10
ATOM     10  C   UNL     1     -95.890 148.918 234.640  1.00  0.00     0.000 C 
BRANCH  10  11
ATOM     11  C   UNL     1     -97.341 148.562 234.275  1.00  0.00     0.000 C 
BRANCH  11  12
ATOM     12  C   UNL     1     -98.373 149.394 235.055  1.00  0.00     0.000 C 
BRANCH  12  13
ATOM     13  C   UNL     1     -97.723 150.472 235.936  1.00  0.00     0.006 C 
BRANCH  13  14
ATOM     14  C   UNL     1     -98.255 151.882 235.640  1.00  0.00     0.053 C 
BRANCH  14  15
ATOM     15  C   UNL     1     -97.154 152.779 235.168  1.00  0.00     0.041 C 
ATOM     16  O   UNL     1     -97.412 153.952 234.785  1.00  0.00    -0.550 OA
ATOM     17  O   UNL     1     -95.843 152.319 235.132  1.00  0.00    -0.550 OA
ENDBRANCH  14  15
ENDBRANCH  13  14
ENDBRANCH  12  13
ENDBRANCH  11  12
ENDBRANCH  10  11
ENDBRANCH   9  10
ENDBRANCH   8   9
ENDBRANCH   7   8
ENDBRANCH   6   7
ENDBRANCH   5   6
ENDBRANCH   4   5
ENDBRANCH   3   4
ENDBRANCH   2   3
ENDBRANCH   1   2
BRANCH   1  18
ATOM     18  C   UNL     1     -94.787 148.647 239.430  1.00  0.00     0.000 C 
BRANCH  18  19
ATOM     19  C   UNL     1     -95.339 148.421 238.015  1.00  0.00     0.000 C 
BRANCH  19  20
ATOM     20  C   UNL     1     -96.709 147.728 238.069  1.00  0.00     0.000 C 
BRANCH  20  21
ATOM     21  C   UNL     1     -96.693 146.333 237.424  1.00  0.00     0.000 C 
BRANCH  21  22
ATOM     22  C   UNL     1     -96.386 145.219 238.439  1.00  0.00     0.000 C 
BRANCH  22  23
ATOM     23  C   UNL     1     -97.093 145.427 239.791  1.00  0.00     0.000 C 
BRANCH  23  24
ATOM     24  C   UNL     1     -96.235 145.128 241.035  1.00  0.00    -0.000 C 
BRANCH  24  25
ATOM     25  C   UNL     1     -96.046 146.356 241.944  1.00  0.00    -0.000 C 
BRANCH  25  26
ATOM     26  C   UNL     1     -97.293 147.255 241.986  1.00  0.00    -0.000 C 
BRANCH  26  27
ATOM     27  C   UNL     1     -96.941 148.754 242.011  1.00  0.00    -0.000 C 
BRANCH  27  28
ATOM     28  C   UNL     1     -98.019 149.598 242.710  1.00  0.00    -0.000 C 
BRANCH  28  29
ATOM     29  C   UNL     1     -99.082 150.122 241.731  1.00  0.00    -0.000 C 
BRANCH  29  30
ATOM     30  C   UNL     1     -98.532 150.341 240.312  1.00  0.00    -0.000 C 
BRANCH  30  31
ATOM     31  C   UNL     1     -99.441 149.772 239.204  1.00  0.00    -0.003 C 
ATOM     32  C   UNL     1     -99.986 148.386 239.553  1.00  0.00     0.004 C 
ENDBRANCH  30  31
ENDBRANCH  29  30
ENDBRANCH  28  29
ENDBRANCH  27  28
ENDBRANCH  26  27
ENDBRANCH  25  26
ENDBRANCH  24  25
ENDBRANCH  23  24
ENDBRANCH  22  23
ENDBRANCH  21  22
ENDBRANCH  20  21
ENDBRANCH  19  20
ENDBRANCH  18  19
ENDBRANCH   1  18
TORSDOF 28
ENDMDL
MODEL 5
REMARK VINA RESULT:    -3.550      2.752      6.841
REMARK INTER + INTRA:         -14.572
REMARK INTER:                  -9.163
REMARK INTRA:                  -5.409
REMARK UNBOUND:                -5.210
REMARK SMILES CCCCCCCCCCCCCCCCCCCCCCCCCCCCCC(=O)[O-]
REMARK SMILES IDX 16 1 17 2 18 3 19 4 20 5 21 6 22 7 23 8 24 9 25 10 26 11
REMARK SMILES IDX 27 12 28 13 29 14 30 15 31 16 32 17 15 18 14 19 13 20 12 21
REMARK SMILES IDX 11 22 10 23 9 24 8 25 7 26 6 27 5 28 4 29 3 30 2 31 1 32
REMARK H PARENT
REMARK Flexibility Score: inf
ROOT
ATOM      1  C   UNL     1     -93.366 147.819 238.920  1.00  0.00     0.000 C 
ENDROOT
BRANCH   1   2
ATOM      2  C   UNL     1     -94.622 148.630 239.308  1.00  0.00     0.000 C 
BRANCH   2   3
ATOM      3  C   UNL     1     -95.020 148.553 240.793  1.00  0.00     0.000 C 
BRANCH   3   4
ATOM      4  C   UNL     1     -94.987 147.138 241.403  1.00  0.00     0.000 C 
BRANCH   4   5
ATOM      5  C   UNL     1     -96.362 146.430 241.417  1.00  0.00     0.000 C 
BRANCH   5   6
ATOM      6  C   UNL     1     -96.740 145.768 240.080  1.00  0.00     0.000 C 
BRANCH   6   7
ATOM      7  C   UNL     1     -98.001 146.388 239.449  1.00  0.00     0.000 C 
BRANCH   7   8
ATOM      8  C   UNL     1     -97.670 147.324 238.276  1.00  0.00     0.000 C 
BRANCH   8   9
ATOM      9  C   UNL     1     -98.262 148.731 238.453  1.00  0.00     0.000 C 
BRANCH   9  10
ATOM     10  C   UNL     1     -98.812 148.918 239.875  1.00  0.00     0.000 C 
BRANCH  10  11
ATOM     11  C   UNL     1     -98.420 150.271 240.491  1.00  0.00     0.000 C 
BRANCH  11  12
ATOM     12  C   UNL     1     -97.947 150.148 241.949  1.00  0.00     0.000 C 
BRANCH  12  13
ATOM     13  C   UNL     1     -98.486 148.888 242.643  1.00  0.00     0.006 C 
BRANCH  13  14
ATOM     14  C   UNL     1     -98.265 148.905 244.163  1.00  0.00     0.053 C 
BRANCH  14  15
ATOM     15  C   UNL     1     -98.942 150.086 244.787  1.00  0.00     0.041 C 
ATOM     16  O   UNL     1     -98.277 150.911 245.468  1.00  0.00    -0.550 OA
ATOM     17  O   UNL     1    -100.311 150.268 244.633  1.00  0.00    -0.550 OA
ENDBRANCH  14  15
ENDBRANCH  13  14
ENDBRANCH  12  13
ENDBRANCH  11  12
ENDBRANCH  10  11
ENDBRANCH   9  10
ENDBRANCH   8   9
ENDBRANCH   7   8
ENDBRANCH   6   7
ENDBRANCH   5   6
ENDBRANCH   4   5
ENDBRANCH   3   4
ENDBRANCH   2   3
ENDBRANCH   1   2
BRANCH   1  18
ATOM     18  C   UNL     1     -93.637 146.546 238.100  1.00  0.00     0.000 C 
BRANCH  18  19
ATOM     19  C   UNL     1     -92.379 146.001 237.406  1.00  0.00     0.000 C 
BRANCH  19  20
ATOM     20  C   UNL     1     -92.649 145.739 235.917  1.00  0.00     0.000 C 
BRANCH  20  21
ATOM     21  C   UNL     1     -93.982 146.339 235.441  1.00  0.00     0.000 C 
BRANCH  21  22
ATOM     22  C   UNL     1     -93.820 147.206 234.180  1.00  0.00     0.000 C 
BRANCH  22  23
ATOM     23  C   UNL     1     -94.537 148.564 234.289  1.00  0.00     0.000 C 
BRANCH  23  24
ATOM     24  C   UNL     1     -95.128 148.888 235.674  1.00  0.00    -0.000 C 
BRANCH  24  25
ATOM     25  C   UNL     1     -95.416 150.386 235.869  1.00  0.00    -0.000 C 
BRANCH  25  26
ATOM     26  C   UNL     1     -95.518 151.145 234.535  1.00  0.00    -0.000 C 
BRANCH  26  27
ATOM     27  C   UNL     1     -96.926 151.719 234.286  1.00  0.00    -0.000 C 
BRANCH  27  28
ATOM     28  C   UNL     1     -97.945 150.631 233.911  1.00  0.00    -0.000 C 
BRANCH  28  29
ATOM     29  C   UNL     1     -99.032 150.449 234.983  1.00  0.00    -0.000 C 
BRANCH  29  30
ATOM     30  C   UNL     1     -98.965 151.515 236.089  1.00  0.00    -0.000 C 
BRANCH  30  31
ATOM     31  C   UNL     1    -100.258 151.620 236.924  1.00  0.00    -0.003 C 
ATOM     32  C   UNL     1    -100.099 152.548 238.129  1.00  0.00     0.004 C 
ENDBRANCH  30  31
ENDBRANCH  29  30
ENDBRANCH  28  29
ENDBRANCH  27  28
ENDBRANCH  26  27
ENDBRANCH  25  26
ENDBRANCH  24  25
ENDBRANCH  23  24
ENDBRANCH  22  23
ENDBRANCH  21  22
ENDBRANCH  20  21
ENDBRANCH  19  20
ENDBRANCH  18  19
ENDBRANCH   1  18
TORSDOF 28
ENDMDL
MODEL 6
REMARK VINA RESULT:    -3.543      1.395      2.470
REMARK INTER + INTRA:         -14.553
REMARK INTER:                  -8.492
REMARK INTRA:                  -6.061
REMARK UNBOUND:                -5.210
REMARK SMILES CCCCCCCCCCCCCCCCCCCCCCCCCCCCCC(=O)[O-]
REMARK SMILES IDX 16 1 17 2 18 3 19 4 20 5 21 6 22 7 23 8 24 9 25 10 26 11
REMARK SMILES IDX 27 12 28 13 29 14 30 15 31 16 32 17 15 18 14 19 13 20 12 21
REMARK SMILES IDX 11 22 10 23 9 24 8 25 7 26 6 27 5 28 4 29 3 30 2 31 1 32
REMARK H PARENT
REMARK Flexibility Score: inf
ROOT
ATOM      1  C   UNL     1     -94.464 148.591 238.255  1.00  0.00     0.000 C 
ENDROOT
BRANCH   1   2
ATOM      2  C   UNL     1     -94.165 147.431 237.281  1.00  0.00     0.000 C 
BRANCH   2   3
ATOM      3  C   UNL     1     -93.209 146.352 237.820  1.00  0.00     0.000 C 
BRANCH   3   4
ATOM      4  C   UNL     1     -92.244 145.756 236.775  1.00  0.00     0.000 C 
BRANCH   4   5
ATOM      5  C   UNL     1     -92.880 145.550 235.381  1.00  0.00     0.000 C 
BRANCH   5   6
ATOM      6  C   UNL     1     -92.096 146.207 234.231  1.00  0.00     0.000 C 
BRANCH   6   7
ATOM      7  C   UNL     1     -93.017 146.910 233.215  1.00  0.00     0.000 C 
BRANCH   7   8
ATOM      8  C   UNL     1     -93.555 148.250 233.742  1.00  0.00     0.000 C 
BRANCH   8   9
ATOM      9  C   UNL     1     -95.033 148.477 233.391  1.00  0.00     0.000 C 
BRANCH   9  10
ATOM     10  C   UNL     1     -95.880 147.252 233.771  1.00  0.00     0.000 C 
BRANCH  10  11
ATOM     11  C   UNL     1     -96.693 147.468 235.058  1.00  0.00     0.000 C 
BRANCH  11  12
ATOM     12  C   UNL     1     -98.106 148.014 234.786  1.00  0.00     0.000 C 
BRANCH  12  13
ATOM     13  C   UNL     1     -98.341 149.394 235.420  1.00  0.00     0.006 C 
BRANCH  13  14
ATOM     14  C   UNL     1     -97.048 150.034 235.947  1.00  0.00     0.053 C 
BRANCH  14  15
ATOM     15  C   UNL     1     -96.776 151.333 235.255  1.00  0.00     0.041 C 
ATOM     16  O   UNL     1     -95.590 151.731 235.097  1.00  0.00    -0.550 OA
ATOM     17  O   UNL     1     -97.829 152.117 234.799  1.00  0.00    -0.550 OA
ENDBRANCH  14  15
ENDBRANCH  13  14
ENDBRANCH  12  13
ENDBRANCH  11  12
ENDBRANCH  10  11
ENDBRANCH   9  10
ENDBRANCH   8   9
ENDBRANCH   7   8
ENDBRANCH   6   7
ENDBRANCH   5   6
ENDBRANCH   4   5
ENDBRANCH   3   4
ENDBRANCH   2   3
ENDBRANCH   1   2
BRANCH   1  18
ATOM     18  C   UNL     1     -93.984 148.371 239.700  1.00  0.00     0.000 C 
BRANCH  18  19
ATOM     19  C   UNL     1     -95.074 148.660 240.744  1.00  0.00     0.000 C 
BRANCH  19  20
ATOM     20  C   UNL     1     -95.389 147.400 241.564  1.00  0.00     0.000 C 
BRANCH  20  21
ATOM     21  C   UNL     1     -95.508 146.140 240.693  1.00  0.00     0.000 C 
BRANCH  21  22
ATOM     22  C   UNL     1     -96.960 145.845 240.280  1.00  0.00     0.000 C 
BRANCH  22  23
ATOM     23  C   UNL     1     -97.212 146.056 238.776  1.00  0.00     0.000 C 
BRANCH  23  24
ATOM     24  C   UNL     1     -98.191 147.192 238.426  1.00  0.00    -0.000 C 
BRANCH  24  25
ATOM     25  C   UNL     1     -98.610 148.024 239.651  1.00  0.00    -0.000 C 
BRANCH  25  26
ATOM     26  C   UNL     1     -98.472 149.536 239.412  1.00  0.00    -0.000 C 
BRANCH  26  27
ATOM     27  C   UNL     1     -98.371 150.336 240.725  1.00  0.00    -0.000 C 
BRANCH  27  28
ATOM     28  C   UNL     1     -98.958 149.574 241.923  1.00  0.00    -0.000 C 
BRANCH  28  29
ATOM     29  C   UNL     1     -97.959 149.448 243.086  1.00  0.00    -0.000 C 
BRANCH  29  30
ATOM     30  C   UNL     1     -98.370 148.380 244.113  1.00  0.00    -0.000 C 
BRANCH  30  31
ATOM     31  C   UNL     1     -98.453 146.958 243.524  1.00  0.00    -0.003 C 
ATOM     32  C   UNL     1     -97.528 145.975 244.242  1.00  0.00     0.004 C 
ENDBRANCH  30  31
ENDBRANCH  29  30
ENDBRANCH  28  29
ENDBRANCH  27  28
ENDBRANCH  26  27
ENDBRANCH  25  26
ENDBRANCH  24  25
ENDBRANCH  23  24
ENDBRANCH  22  23
ENDBRANCH  21  22
ENDBRANCH  20  21
ENDBRANCH  19  20
ENDBRANCH  18  19
ENDBRANCH   1  18
TORSDOF 28
ENDMDL
MODEL 7
REMARK VINA RESULT:    -3.518      1.349      2.739
REMARK INTER + INTRA:         -14.486
REMARK INTER:                  -9.046
REMARK INTRA:                  -5.440
REMARK UNBOUND:                -5.210
REMARK SMILES CCCCCCCCCCCCCCCCCCCCCCCCCCCCCC(=O)[O-]
REMARK SMILES IDX 16 1 17 2 18 3 19 4 20 5 21 6 22 7 23 8 24 9 25 10 26 11
REMARK SMILES IDX 27 12 28 13 29 14 30 15 31 16 32 17 15 18 14 19 13 20 12 21
REMARK SMILES IDX 11 22 10 23 9 24 8 25 7 26 6 27 5 28 4 29 3 30 2 31 1 32
REMARK H PARENT
REMARK Flexibility Score: inf
ROOT
ATOM      1  C   UNL     1     -94.614 148.198 238.329  1.00  0.00     0.000 C 
ENDROOT
BRANCH   1   2
ATOM      2  C   UNL     1     -93.471 147.544 239.134  1.00  0.00     0.000 C 
BRANCH   2   3
ATOM      3  C   UNL     1     -92.747 146.385 238.424  1.00  0.00     0.000 C 
BRANCH   3   4
ATOM      4  C   UNL     1     -93.379 145.945 237.088  1.00  0.00     0.000 C 
BRANCH   4   5
ATOM      5  C   UNL     1     -92.353 145.732 235.951  1.00  0.00     0.000 C 
BRANCH   5   6
ATOM      6  C   UNL     1     -92.664 146.525 234.669  1.00  0.00     0.000 C 
BRANCH   6   7
ATOM      7  C   UNL     1     -94.109 147.059 234.641  1.00  0.00     0.000 C 
BRANCH   7   8
ATOM      8  C   UNL     1     -94.200 148.471 234.041  1.00  0.00     0.000 C 
BRANCH   8   9
ATOM      9  C   UNL     1     -95.536 149.163 234.353  1.00  0.00     0.000 C 
BRANCH   9  10
ATOM     10  C   UNL     1     -95.307 150.608 234.823  1.00  0.00     0.000 C 
BRANCH  10  11
ATOM     11  C   UNL     1     -95.685 151.648 233.755  1.00  0.00     0.000 C 
BRANCH  11  12
ATOM     12  C   UNL     1     -96.905 152.496 234.154  1.00  0.00     0.000 C 
BRANCH  12  13
ATOM     13  C   UNL     1     -96.687 153.269 235.464  1.00  0.00     0.006 C 
BRANCH  13  14
ATOM     14  C   UNL     1     -97.921 154.078 235.889  1.00  0.00     0.053 C 
BRANCH  14  15
ATOM     15  C   UNL     1     -97.975 155.388 235.166  1.00  0.00     0.041 C 
ATOM     16  O   UNL     1     -97.126 156.285 235.415  1.00  0.00    -0.550 OA
ATOM     17  O   UNL     1     -98.974 155.628 234.230  1.00  0.00    -0.550 OA
ENDBRANCH  14  15
ENDBRANCH  13  14
ENDBRANCH  12  13
ENDBRANCH  11  12
ENDBRANCH  10  11
ENDBRANCH   9  10
ENDBRANCH   8   9
ENDBRANCH   7   8
ENDBRANCH   6   7
ENDBRANCH   5   6
ENDBRANCH   4   5
ENDBRANCH   3   4
ENDBRANCH   2   3
ENDBRANCH   1   2
BRANCH   1  18
ATOM     18  C   UNL     1     -95.579 149.069 239.152  1.00  0.00     0.000 C 
BRANCH  18  19
ATOM     19  C   UNL     1     -95.297 149.016 240.661  1.00  0.00     0.000 C 
BRANCH  19  20
ATOM     20  C   UNL     1     -96.606 149.082 241.462  1.00  0.00     0.000 C 
BRANCH  20  21
ATOM     21  C   UNL     1     -96.930 147.762 242.179  1.00  0.00     0.000 C 
BRANCH  21  22
ATOM     22  C   UNL     1     -95.913 146.653 241.857  1.00  0.00     0.000 C 
BRANCH  22  23
ATOM     23  C   UNL     1     -96.563 145.407 241.230  1.00  0.00     0.000 C 
BRANCH  23  24
ATOM     24  C   UNL     1     -96.037 145.021 239.835  1.00  0.00    -0.000 C 
BRANCH  24  25
ATOM     25  C   UNL     1     -97.138 145.002 238.761  1.00  0.00    -0.000 C 
BRANCH  25  26
ATOM     26  C   UNL     1     -97.710 146.402 238.479  1.00  0.00    -0.000 C 
BRANCH  26  27
ATOM     27  C   UNL     1     -99.173 146.547 238.941  1.00  0.00    -0.000 C 
BRANCH  27  28
ATOM     28  C   UNL     1     -99.470 147.941 239.517  1.00  0.00    -0.000 C 
BRANCH  28  29
ATOM     29  C   UNL     1     -99.980 148.922 238.449  1.00  0.00    -0.000 C 
BRANCH  29  30
ATOM     30  C   UNL     1     -99.070 150.149 238.281  1.00  0.00    -0.000 C 
BRANCH  30  31
ATOM     31  C   UNL     1     -98.312 150.176 236.938  1.00  0.00    -0.003 C 
ATOM     32  C   UNL     1     -98.814 149.108 235.965  1.00  0.00     0.004 C 
ENDBRANCH  30  31
ENDBRANCH  29  30
ENDBRANCH  28  29
ENDBRANCH  27  28
ENDBRANCH  26  27
ENDBRANCH  25  26
ENDBRANCH  24  25
ENDBRANCH  23  24
ENDBRANCH  22  23
ENDBRANCH  21  22
ENDBRANCH  20  21
ENDBRANCH  19  20
ENDBRANCH  18  19
ENDBRANCH   1  18
TORSDOF 28
ENDMDL
MODEL 8
REMARK VINA RESULT:    -3.497      1.223      2.428
REMARK INTER + INTRA:         -14.432
REMARK INTER:                 -10.230
REMARK INTRA:                  -4.202
REMARK UNBOUND:                -5.210
REMARK SMILES CCCCCCCCCCCCCCCCCCCCCCCCCCCCCC(=O)[O-]
REMARK SMILES IDX 16 1 17 2 18 3 19 4 20 5 21 6 22 7 23 8 24 9 25 10 26 11
REMARK SMILES IDX 27 12 28 13 29 14 30 15 31 16 32 17 15 18 14 19 13 20 12 21
REMARK SMILES IDX 11 22 10 23 9 24 8 25 7 26 6 27 5 28 4 29 3 30 2 31 1 32
REMARK H PARENT
REMARK Flexibility Score: inf
ROOT
ATOM      1  C   UNL     1     -93.419 146.617 239.292  1.00  0.00     0.000 C 
ENDROOT
BRANCH   1   2
ATOM      2  C   UNL     1     -92.009 146.041 239.040  1.00  0.00     0.000 C 
BRANCH   2   3
ATOM      3  C   UNL     1     -91.712 145.646 237.582  1.00  0.00     0.000 C 
BRANCH   3   4
ATOM      4  C   UNL     1     -92.784 146.077 236.561  1.00  0.00     0.000 C 
BRANCH   4   5
ATOM      5  C   UNL     1     -92.984 145.074 235.402  1.00  0.00     0.000 C 
BRANCH   5   6
ATOM      6  C   UNL     1     -92.495 145.587 234.036  1.00  0.00     0.000 C 
BRANCH   6   7
ATOM      7  C   UNL     1     -92.311 147.117 234.012  1.00  0.00     0.000 C 
BRANCH   7   8
ATOM      8  C   UNL     1     -93.463 147.833 233.288  1.00  0.00     0.000 C 
BRANCH   8   9
ATOM      9  C   UNL     1     -94.529 148.369 234.255  1.00  0.00     0.000 C 
BRANCH   9  10
ATOM     10  C   UNL     1     -95.211 149.619 233.678  1.00  0.00     0.000 C 
BRANCH  10  11
ATOM     11  C   UNL     1     -95.327 150.760 234.702  1.00  0.00     0.000 C 
BRANCH  11  12
ATOM     12  C   UNL     1     -96.784 151.166 234.981  1.00  0.00     0.000 C 
BRANCH  12  13
ATOM     13  C   UNL     1     -97.100 152.598 234.521  1.00  0.00     0.006 C 
BRANCH  13  14
ATOM     14  C   UNL     1     -97.106 153.607 235.679  1.00  0.00     0.053 C 
BRANCH  14  15
ATOM     15  C   UNL     1     -98.506 153.956 236.075  1.00  0.00     0.041 C 
ATOM     16  O   UNL     1     -99.209 153.128 236.715  1.00  0.00    -0.550 OA
ATOM     17  O   UNL     1     -99.046 155.188 235.724  1.00  0.00    -0.550 OA
ENDBRANCH  14  15
ENDBRANCH  13  14
ENDBRANCH  12  13
ENDBRANCH  11  12
ENDBRANCH  10  11
ENDBRANCH   9  10
ENDBRANCH   8   9
ENDBRANCH   7   8
ENDBRANCH   6   7
ENDBRANCH   5   6
ENDBRANCH   4   5
ENDBRANCH   3   4
ENDBRANCH   2   3
ENDBRANCH   1   2
BRANCH   1  18
ATOM     18  C   UNL     1     -93.463 148.120 239.622  1.00  0.00     0.000 C 
BRANCH  18  19
ATOM     19  C   UNL     1     -94.814 148.768 239.287  1.00  0.00     0.000 C 
BRANCH  19  20
ATOM     20  C   UNL     1     -94.997 148.889 237.767  1.00  0.00     0.000 C 
BRANCH  20  21
ATOM     21  C   UNL     1     -96.370 148.385 237.293  1.00  0.00     0.000 C 
BRANCH  21  22
ATOM     22  C   UNL     1     -96.401 146.859 237.102  1.00  0.00     0.000 C 
BRANCH  22  23
ATOM     23  C   UNL     1     -97.533 146.178 237.893  1.00  0.00     0.000 C 
BRANCH  23  24
ATOM     24  C   UNL     1     -97.118 145.576 239.248  1.00  0.00    -0.000 C 
BRANCH  24  25
ATOM     25  C   UNL     1     -97.441 146.496 240.439  1.00  0.00    -0.000 C 
BRANCH  25  26
ATOM     26  C   UNL     1     -96.389 146.404 241.556  1.00  0.00    -0.000 C 
BRANCH  26  27
ATOM     27  C   UNL     1     -97.021 146.235 242.951  1.00  0.00    -0.000 C 
BRANCH  27  28
ATOM     28  C   UNL     1     -98.262 147.120 243.144  1.00  0.00    -0.000 C 
BRANCH  28  29
ATOM     29  C   UNL     1     -98.012 148.277 244.126  1.00  0.00    -0.000 C 
BRANCH  29  30
ATOM     30  C   UNL     1     -98.451 149.640 243.569  1.00  0.00    -0.000 C 
BRANCH  30  31
ATOM     31  C   UNL     1     -98.301 149.758 242.038  1.00  0.00    -0.003 C 
ATOM     32  C   UNL     1     -96.877 150.123 241.619  1.00  0.00     0.004 C 
ENDBRANCH  30  31
ENDBRANCH  29  30
ENDBRANCH  28  29
ENDBRANCH  27  28
ENDBRANCH  26  27
ENDBRANCH  25  26
ENDBRANCH  24  25
ENDBRANCH  23  24
ENDBRANCH  22  23
ENDBRANCH  21  22
ENDBRANCH  20  21
ENDBRANCH  19  20
ENDBRANCH  18  19
ENDBRANCH   1  18
TORSDOF 28
ENDMDL
MODEL 9
REMARK VINA RESULT:    -3.484      1.407      2.679
REMARK INTER + INTRA:         -14.396
REMARK INTER:                  -9.618
REMARK INTRA:                  -4.779
REMARK UNBOUND:                -5.210
REMARK SMILES CCCCCCCCCCCCCCCCCCCCCCCCCCCCCC(=O)[O-]
REMARK SMILES IDX 16 1 17 2 18 3 19 4 20 5 21 6 22 7 23 8 24 9 25 10 26 11
REMARK SMILES IDX 27 12 28 13 29 14 30 15 31 16 32 17 15 18 14 19 13 20 12 21
REMARK SMILES IDX 11 22 10 23 9 24 8 25 7 26 6 27 5 28 4 29 3 30 2 31 1 32
REMARK H PARENT
REMARK Flexibility Score: inf
ROOT
ATOM      1  C   UNL     1     -92.114 146.011 238.874  1.00  0.00     0.000 C 
ENDROOT
BRANCH   1   2
ATOM      2  C   UNL     1     -91.729 145.631 237.427  1.00  0.00     0.000 C 
BRANCH   2   3
ATOM      3  C   UNL     1     -92.793 145.950 236.360  1.00  0.00     0.000 C 
BRANCH   3   4
ATOM      4  C   UNL     1     -92.362 145.668 234.907  1.00  0.00     0.000 C 
BRANCH   4   5
ATOM      5  C   UNL     1     -92.333 146.925 234.008  1.00  0.00     0.000 C 
BRANCH   5   6
ATOM      6  C   UNL     1     -93.480 147.915 234.277  1.00  0.00     0.000 C 
BRANCH   6   7
ATOM      7  C   UNL     1     -94.788 147.510 233.569  1.00  0.00     0.000 C 
BRANCH   7   8
ATOM      8  C   UNL     1     -94.675 147.593 232.038  1.00  0.00     0.000 C 
BRANCH   8   9
ATOM      9  C   UNL     1     -95.645 148.615 231.425  1.00  0.00     0.000 C 
BRANCH   9  10
ATOM     10  C   UNL     1     -96.306 149.466 232.520  1.00  0.00     0.000 C 
BRANCH  10  11
ATOM     11  C   UNL     1     -95.983 150.963 232.386  1.00  0.00     0.000 C 
BRANCH  11  12
ATOM     12  C   UNL     1     -95.742 151.645 233.743  1.00  0.00     0.000 C 
BRANCH  12  13
ATOM     13  C   UNL     1     -96.825 152.680 234.088  1.00  0.00     0.006 C 
BRANCH  13  14
ATOM     14  C   UNL     1     -96.690 153.227 235.517  1.00  0.00     0.053 C 
BRANCH  14  15
ATOM     15  C   UNL     1     -97.608 154.390 235.731  1.00  0.00     0.041 C 
ATOM     16  O   UNL     1     -98.762 154.208 236.201  1.00  0.00    -0.550 OA
ATOM     17  O   UNL     1     -97.197 155.675 235.396  1.00  0.00    -0.550 OA
ENDBRANCH  14  15
ENDBRANCH  13  14
ENDBRANCH  12  13
ENDBRANCH  11  12
ENDBRANCH  10  11
ENDBRANCH   9  10
ENDBRANCH   8   9
ENDBRANCH   7   8
ENDBRANCH   6   7
ENDBRANCH   5   6
ENDBRANCH   4   5
ENDBRANCH   3   4
ENDBRANCH   2   3
ENDBRANCH   1   2
BRANCH   1  18
ATOM     18  C   UNL     1     -93.594 146.375 239.083  1.00  0.00     0.000 C 
BRANCH  18  19
ATOM     19  C   UNL     1     -93.793 147.810 239.592  1.00  0.00     0.000 C 
BRANCH  19  20
ATOM     20  C   UNL     1     -94.194 148.745 238.441  1.00  0.00     0.000 C 
BRANCH  20  21
ATOM     21  C   UNL     1     -95.447 148.262 237.694  1.00  0.00     0.000 C 
BRANCH  21  22
ATOM     22  C   UNL     1     -95.947 149.288 236.662  1.00  0.00     0.000 C 
BRANCH  22  23
ATOM     23  C   UNL     1     -97.398 149.032 236.216  1.00  0.00     0.000 C 
BRANCH  23  24
ATOM     24  C   UNL     1     -98.427 150.077 236.688  1.00  0.00    -0.000 C 
BRANCH  24  25
ATOM     25  C   UNL     1     -99.071 149.719 238.038  1.00  0.00    -0.000 C 
BRANCH  25  26
ATOM     26  C   UNL     1     -98.825 150.793 239.111  1.00  0.00    -0.000 C 
BRANCH  26  27
ATOM     27  C   UNL     1     -99.328 150.365 240.503  1.00  0.00    -0.000 C 
BRANCH  27  28
ATOM     28  C   UNL     1     -98.185 150.210 241.518  1.00  0.00    -0.000 C 
BRANCH  28  29
ATOM     29  C   UNL     1     -96.984 149.445 240.939  1.00  0.00    -0.000 C 
BRANCH  29  30
ATOM     30  C   UNL     1     -96.903 147.993 241.436  1.00  0.00    -0.000 C 
BRANCH  30  31
ATOM     31  C   UNL     1     -97.549 146.975 240.474  1.00  0.00    -0.003 C 
ATOM     32  C   UNL     1     -96.832 145.624 240.489  1.00  0.00     0.004 C 
ENDBRANCH  30  31
ENDBRANCH  29  30
ENDBRANCH  28  29
ENDBRANCH  27  28
ENDBRANCH  26  27
ENDBRANCH  25  26
ENDBRANCH  24  25
ENDBRANCH  23  24
ENDBRANCH  22  23
ENDBRANCH  21  22
ENDBRANCH  20  21
ENDBRANCH  19  20
ENDBRANCH  18  19
ENDBRANCH   1  18
TORSDOF 28
ENDMDL
