MODEL 1
REMARK VINA RESULT:    30.646      0.000      0.000
REMARK INTER + INTRA:          35.744
REMARK INTER:                  36.021
REMARK INTRA:                  -0.277
REMARK UNBOUND:                -0.277
REMARK SMILES O=c1cc(-c2ccc(O)c(O)c2)oc2cc(O)cc(O)c12
REMARK SMILES IDX 4 1 3 2 2 3 1 4 21 5 19 6 18 7 16 8 15 9 14 10 13 11 5 12
REMARK SMILES IDX 6 13 7 14 8 15 12 16 10 17 9 18 11 20 20 22 17 24
REMARK H PARENT 9 19 11 21 20 23 17 25
REMARK Flexibility Score: inf
ROOT
ATOM      1  C   UNL     1       2.380  -1.311   0.951  1.00  0.00     0.138 A 
ATOM      2  C   UNL     1       1.512  -0.865   1.958  1.00  0.00     0.100 A 
ATOM      3  C   UNL     1       0.133  -0.922   1.755  1.00  0.00     0.197 A 
ATOM      4  O   UNL     1      -0.622  -0.574   2.699  1.00  0.00    -0.289 OA
ATOM      5  C   UNL     1      -0.377  -1.399   0.523  1.00  0.00     0.107 A 
ATOM      6  C   UNL     1      -1.764  -1.464   0.189  1.00  0.00     0.134 A 
ATOM      7  C   UNL     1      -2.156  -2.062  -1.015  1.00  0.00     0.093 A 
ATOM      8  C   UNL     1      -1.209  -2.544  -1.923  1.00  0.00     0.123 A 
ATOM      9  C   UNL     1       0.149  -2.436  -1.629  1.00  0.00     0.094 A 
ATOM     10  C   UNL     1       0.570  -1.875  -0.422  1.00  0.00     0.146 A 
ATOM     11  O   UNL     1       1.874  -1.804  -0.174  1.00  0.00    -0.456 OA
ENDROOT
BRANCH   1  12
ATOM     12  C   UNL     1       3.856  -1.271   1.115  1.00  0.00     0.021 A 
ATOM     13  C   UNL     1       4.654  -0.778   0.068  1.00  0.00     0.016 A 
ATOM     14  C   UNL     1       6.044  -0.723   0.200  1.00  0.00     0.051 A 
ATOM     15  C   UNL     1       6.659  -1.151   1.382  1.00  0.00     0.157 A 
ATOM     16  C   UNL     1       4.480  -1.688   2.307  1.00  0.00     0.062 A 
ATOM     17  C   UNL     1       5.872  -1.632   2.441  1.00  0.00     0.158 A 
BRANCH  15  18
ATOM     18  O   UNL     1       8.046  -1.097   1.510  1.00  0.00    -0.504 OA
ATOM     19  H   UNL     1       8.578  -1.885   1.861  1.00  0.00     0.293 HD
ENDBRANCH  15  18
BRANCH  17  20
ATOM     20  O   UNL     1       6.454  -2.056   3.636  1.00  0.00    -0.504 OA
ATOM     21  H   UNL     1       7.356  -2.516   3.663  1.00  0.00     0.293 HD
ENDBRANCH  17  20
ENDBRANCH   1  12
BRANCH   6  22
ATOM     22  O   UNL     1      -2.785  -0.937   0.985  1.00  0.00    -0.507 OA
ATOM     23  H   UNL     1      -3.609  -0.474   0.633  1.00  0.00     0.293 HD
ENDBRANCH   6  22
BRANCH   8  24
ATOM     24  O   UNL     1      -1.608  -3.125  -3.125  1.00  0.00    -0.508 OA
ATOM     25  H   UNL     1      -1.081  -3.880  -3.548  1.00  0.00     0.293 HD
ENDBRANCH   8  24
TORSDOF 5
ENDMDL
