MODEL 1
REMARK VINA RESULT:    -1.694      0.000      0.000
REMARK INTER + INTRA:          -8.465
REMARK INTER:                  -3.873
REMARK INTRA:                  -4.593
REMARK UNBOUND:                -4.593
REMARK SMILES CCCCCCCCCCCCCCCCCCCCCCCC(=O)[O-]
REMARK SMILES IDX 13 1 14 2 15 3 16 4 17 5 18 6 19 7 20 8 21 9 22 10 23 11
REMARK SMILES IDX 24 12 25 13 26 14 12 15 11 16 10 17 9 18 8 19 7 20 6 21 5 22
REMARK SMILES IDX 4 23 3 24 2 25 1 26
REMARK H PARENT
REMARK Flexibility Score: inf
ROOT
ATOM      1  C   UNL     1     117.480  17.643  28.118  1.00  0.00     0.000 C 
ENDROOT
BRANCH   1   2
ATOM      2  C   UNL     1     116.809  16.387  28.697  1.00  0.00     0.000 C 
BRANCH   2   3
ATOM      3  C   UNL     1     117.728  15.156  28.669  1.00  0.00     0.000 C 
BRANCH   3   4
ATOM      4  C   UNL     1     116.967  13.893  29.090  1.00  0.00     0.000 C 
BRANCH   4   5
ATOM      5  C   UNL     1     115.527  13.915  28.552  1.00  0.00     0.000 C 
BRANCH   5   6
ATOM      6  C   UNL     1     115.260  12.803  27.526  1.00  0.00     0.000 C 
BRANCH   6   7
ATOM      7  C   UNL     1     115.041  13.351  26.106  1.00  0.00     0.000 C 
BRANCH   7   8
ATOM      8  C   UNL     1     116.356  13.493  25.320  1.00  0.00     0.000 C 
BRANCH   8   9
ATOM      9  C   UNL     1     116.782  14.960  25.138  1.00  0.00     0.000 C 
BRANCH   9  10
ATOM     10  C   UNL     1     115.589  15.933  25.173  1.00  0.00     0.006 C 
BRANCH  10  11
ATOM     11  C   UNL     1     115.882  17.311  24.560  1.00  0.00     0.053 C 
BRANCH  11  12
ATOM     12  C   UNL     1     115.110  18.402  25.236  1.00  0.00     0.041 C 
ATOM     13  O   UNL     1     113.874  18.272  25.437  1.00  0.00    -0.550 OA
ATOM     14  O   UNL     1     115.760  19.554  25.662  1.00  0.00    -0.550 OA
ENDBRANCH  11  12
ENDBRANCH  10  11
ENDBRANCH   9  10
ENDBRANCH   8   9
ENDBRANCH   7   8
ENDBRANCH   6   7
ENDBRANCH   5   6
ENDBRANCH   4   5
ENDBRANCH   3   4
ENDBRANCH   2   3
ENDBRANCH   1   2
BRANCH   1  15
ATOM     15  C   UNL     1     118.669  17.370  27.177  1.00  0.00     0.000 C 
BRANCH  15  16
ATOM     16  C   UNL     1     119.086  18.591  26.329  1.00  0.00     0.000 C 
BRANCH  16  17
ATOM     17  C   UNL     1     120.136  18.234  25.266  1.00  0.00     0.000 C 
BRANCH  17  18
ATOM     18  C   UNL     1     120.027  16.760  24.856  1.00  0.00    -0.000 C 
BRANCH  18  19
ATOM     19  C   UNL     1     120.868  16.471  23.603  1.00  0.00    -0.000 C 
BRANCH  19  20
ATOM     20  C   UNL     1     120.006  15.958  22.430  1.00  0.00    -0.000 C 
BRANCH  20  21
ATOM     21  C   UNL     1     118.673  16.709  22.269  1.00  0.00    -0.000 C 
BRANCH  21  22
ATOM     22  C   UNL     1     117.601  15.872  21.553  1.00  0.00    -0.000 C 
BRANCH  22  23
ATOM     23  C   UNL     1     118.034  14.412  21.344  1.00  0.00    -0.000 C 
BRANCH  23  24
ATOM     24  C   UNL     1     116.925  13.406  21.697  1.00  0.00    -0.000 C 
BRANCH  24  25
ATOM     25  C   UNL     1     115.533  14.056  21.732  1.00  0.00    -0.003 C 
ATOM     26  C   UNL     1     114.518  13.328  20.852  1.00  0.00     0.004 C 
ENDBRANCH  24  25
ENDBRANCH  23  24
ENDBRANCH  22  23
ENDBRANCH  21  22
ENDBRANCH  20  21
ENDBRANCH  19  20
ENDBRANCH  18  19
ENDBRANCH  17  18
ENDBRANCH  16  17
ENDBRANCH  15  16
ENDBRANCH   1  15
TORSDOF 22
ENDMDL
MODEL 2
REMARK VINA RESULT:    -1.675      2.389      4.999
REMARK INTER + INTRA:          -8.421
REMARK INTER:                  -3.381
REMARK INTRA:                  -5.040
REMARK UNBOUND:                -4.593
REMARK SMILES CCCCCCCCCCCCCCCCCCCCCCCC(=O)[O-]
REMARK SMILES IDX 13 1 14 2 15 3 16 4 17 5 18 6 19 7 20 8 21 9 22 10 23 11
REMARK SMILES IDX 24 12 25 13 26 14 12 15 11 16 10 17 9 18 8 19 7 20 6 21 5 22
REMARK SMILES IDX 4 23 3 24 2 25 1 26
REMARK H PARENT
REMARK Flexibility Score: inf
ROOT
ATOM      1  C   UNL     1     117.358  13.325  21.956  1.00  0.00     0.000 C 
ENDROOT
BRANCH   1   2
ATOM      2  C   UNL     1     116.103  12.467  21.728  1.00  0.00     0.000 C 
BRANCH   2   3
ATOM      3  C   UNL     1     115.344  12.164  23.029  1.00  0.00     0.000 C 
BRANCH   3   4
ATOM      4  C   UNL     1     116.301  12.128  24.227  1.00  0.00     0.000 C 
BRANCH   4   5
ATOM      5  C   UNL     1     115.787  13.021  25.367  1.00  0.00     0.000 C 
BRANCH   5   6
ATOM      6  C   UNL     1     116.564  14.342  25.484  1.00  0.00     0.000 C 
BRANCH   6   7
ATOM      7  C   UNL     1     115.669  15.574  25.272  1.00  0.00     0.000 C 
BRANCH   7   8
ATOM      8  C   UNL     1     115.611  16.015  23.800  1.00  0.00     0.000 C 
BRANCH   8   9
ATOM      9  C   UNL     1     114.248  15.724  23.147  1.00  0.00     0.000 C 
BRANCH   9  10
ATOM     10  C   UNL     1     114.305  15.769  21.609  1.00  0.00     0.006 C 
BRANCH  10  11
ATOM     11  C   UNL     1     113.062  16.389  20.951  1.00  0.00     0.053 C 
BRANCH  11  12
ATOM     12  C   UNL     1     113.322  17.781  20.463  1.00  0.00     0.041 C 
ATOM     13  O   UNL     1     113.388  18.017  19.228  1.00  0.00    -0.550 OA
ATOM     14  O   UNL     1     113.471  18.821  21.372  1.00  0.00    -0.550 OA
ENDBRANCH  11  12
ENDBRANCH  10  11
ENDBRANCH   9  10
ENDBRANCH   8   9
ENDBRANCH   7   8
ENDBRANCH   6   7
ENDBRANCH   5   6
ENDBRANCH   4   5
ENDBRANCH   3   4
ENDBRANCH   2   3
ENDBRANCH   1   2
BRANCH   1  15
ATOM     15  C   UNL     1     117.611  14.404  20.885  1.00  0.00     0.000 C 
BRANCH  15  16
ATOM     16  C   UNL     1     118.918  15.198  21.095  1.00  0.00     0.000 C 
BRANCH  16  17
ATOM     17  C   UNL     1     119.071  15.703  22.537  1.00  0.00     0.000 C 
BRANCH  17  18
ATOM     18  C   UNL     1     120.432  16.380  22.743  1.00  0.00    -0.000 C 
BRANCH  18  19
ATOM     19  C   UNL     1     120.668  16.707  24.225  1.00  0.00    -0.000 C 
BRANCH  19  20
ATOM     20  C   UNL     1     119.374  16.595  25.059  1.00  0.00    -0.000 C 
BRANCH  20  21
ATOM     21  C   UNL     1     118.977  17.905  25.761  1.00  0.00    -0.000 C 
BRANCH  21  22
ATOM     22  C   UNL     1     117.922  18.704  24.979  1.00  0.00    -0.000 C 
BRANCH  22  23
ATOM     23  C   UNL     1     118.544  19.795  24.093  1.00  0.00    -0.000 C 
BRANCH  23  24
ATOM     24  C   UNL     1     118.417  19.485  22.591  1.00  0.00    -0.000 C 
BRANCH  24  25
ATOM     25  C   UNL     1     117.024  18.955  22.217  1.00  0.00    -0.003 C 
ATOM     26  C   UNL     1     116.993  18.295  20.839  1.00  0.00     0.004 C 
ENDBRANCH  24  25
ENDBRANCH  23  24
ENDBRANCH  22  23
ENDBRANCH  21  22
ENDBRANCH  20  21
ENDBRANCH  19  20
ENDBRANCH  18  19
ENDBRANCH  17  18
ENDBRANCH  16  17
ENDBRANCH  15  16
ENDBRANCH   1  15
TORSDOF 22
ENDMDL
MODEL 3
REMARK VINA RESULT:    -1.651      2.871      5.874
REMARK INTER + INTRA:          -8.367
REMARK INTER:                  -4.002
REMARK INTRA:                  -4.365
REMARK UNBOUND:                -4.593
REMARK SMILES CCCCCCCCCCCCCCCCCCCCCCCC(=O)[O-]
REMARK SMILES IDX 13 1 14 2 15 3 16 4 17 5 18 6 19 7 20 8 21 9 22 10 23 11
REMARK SMILES IDX 24 12 25 13 26 14 12 15 11 16 10 17 9 18 8 19 7 20 6 21 5 22
REMARK SMILES IDX 4 23 3 24 2 25 1 26
REMARK H PARENT
REMARK Flexibility Score: inf
ROOT
ATOM      1  C   UNL     1     116.280  13.816  26.424  1.00  0.00     0.000 C 
ENDROOT
BRANCH   1   2
ATOM      2  C   UNL     1     116.642  14.288  27.842  1.00  0.00     0.000 C 
BRANCH   2   3
ATOM      3  C   UNL     1     117.546  15.530  27.843  1.00  0.00     0.000 C 
BRANCH   3   4
ATOM      4  C   UNL     1     117.781  16.039  26.415  1.00  0.00     0.000 C 
BRANCH   4   5
ATOM      5  C   UNL     1     119.035  16.925  26.349  1.00  0.00     0.000 C 
BRANCH   5   6
ATOM      6  C   UNL     1     119.829  16.733  25.047  1.00  0.00     0.000 C 
BRANCH   6   7
ATOM      7  C   UNL     1     119.575  17.858  24.030  1.00  0.00     0.000 C 
BRANCH   7   8
ATOM      8  C   UNL     1     119.251  17.320  22.626  1.00  0.00     0.000 C 
BRANCH   8   9
ATOM      9  C   UNL     1     119.958  15.988  22.323  1.00  0.00     0.000 C 
BRANCH   9  10
ATOM     10  C   UNL     1     120.421  15.881  20.858  1.00  0.00     0.006 C 
BRANCH  10  11
ATOM     11  C   UNL     1     119.638  14.854  20.024  1.00  0.00     0.053 C 
BRANCH  11  12
ATOM     12  C   UNL     1     118.744  15.513  19.020  1.00  0.00     0.041 C 
ATOM     13  O   UNL     1     118.274  16.659  19.244  1.00  0.00    -0.550 OA
ATOM     14  O   UNL     1     118.445  14.868  17.825  1.00  0.00    -0.550 OA
ENDBRANCH  11  12
ENDBRANCH  10  11
ENDBRANCH   9  10
ENDBRANCH   8   9
ENDBRANCH   7   8
ENDBRANCH   6   7
ENDBRANCH   5   6
ENDBRANCH   4   5
ENDBRANCH   3   4
ENDBRANCH   2   3
ENDBRANCH   1   2
BRANCH   1  15
ATOM     15  C   UNL     1     115.164  12.756  26.358  1.00  0.00     0.000 C 
BRANCH  15  16
ATOM     16  C   UNL     1     114.942  12.170  24.947  1.00  0.00     0.000 C 
BRANCH  16  17
ATOM     17  C   UNL     1     116.256  11.998  24.171  1.00  0.00     0.000 C 
BRANCH  17  18
ATOM     18  C   UNL     1     116.092  12.426  22.707  1.00  0.00    -0.000 C 
BRANCH  18  19
ATOM     19  C   UNL     1     117.120  13.503  22.328  1.00  0.00    -0.000 C 
BRANCH  19  20
ATOM     20  C   UNL     1     116.452  14.857  22.005  1.00  0.00    -0.000 C 
BRANCH  20  21
ATOM     21  C   UNL     1     115.908  15.587  23.245  1.00  0.00    -0.000 C 
BRANCH  21  22
ATOM     22  C   UNL     1     114.373  15.677  23.258  1.00  0.00    -0.000 C 
BRANCH  22  23
ATOM     23  C   UNL     1     113.802  15.814  24.678  1.00  0.00    -0.000 C 
BRANCH  23  24
ATOM     24  C   UNL     1     114.332  17.057  25.415  1.00  0.00    -0.000 C 
BRANCH  24  25
ATOM     25  C   UNL     1     114.182  16.944  26.940  1.00  0.00    -0.003 C 
ATOM     26  C   UNL     1     113.237  15.820  27.359  1.00  0.00     0.004 C 
ENDBRANCH  24  25
ENDBRANCH  23  24
ENDBRANCH  22  23
ENDBRANCH  21  22
ENDBRANCH  20  21
ENDBRANCH  19  20
ENDBRANCH  18  19
ENDBRANCH  17  18
ENDBRANCH  16  17
ENDBRANCH  15  16
ENDBRANCH   1  15
TORSDOF 22
ENDMDL
MODEL 4
REMARK VINA RESULT:    -1.598      1.838      4.816
REMARK INTER + INTRA:          -8.246
REMARK INTER:                  -3.732
REMARK INTRA:                  -4.514
REMARK UNBOUND:                -4.593
REMARK SMILES CCCCCCCCCCCCCCCCCCCCCCCC(=O)[O-]
REMARK SMILES IDX 13 1 14 2 15 3 16 4 17 5 18 6 19 7 20 8 21 9 22 10 23 11
REMARK SMILES IDX 24 12 25 13 26 14 12 15 11 16 10 17 9 18 8 19 7 20 6 21 5 22
REMARK SMILES IDX 4 23 3 24 2 25 1 26
REMARK H PARENT
REMARK Flexibility Score: inf
ROOT
ATOM      1  C   UNL     1     114.331  13.928  26.057  1.00  0.00     0.000 C 
ENDROOT
BRANCH   1   2
ATOM      2  C   UNL     1     115.035  13.214  27.222  1.00  0.00     0.000 C 
BRANCH   2   3
ATOM      3  C   UNL     1     115.543  14.187  28.296  1.00  0.00     0.000 C 
BRANCH   3   4
ATOM      4  C   UNL     1     117.076  14.228  28.320  1.00  0.00     0.000 C 
BRANCH   4   5
ATOM      5  C   UNL     1     117.588  15.670  28.177  1.00  0.00     0.000 C 
BRANCH   5   6
ATOM      6  C   UNL     1     118.321  15.911  26.848  1.00  0.00     0.000 C 
BRANCH   6   7
ATOM      7  C   UNL     1     117.364  16.288  25.706  1.00  0.00     0.000 C 
BRANCH   7   8
ATOM      8  C   UNL     1     116.199  17.173  26.182  1.00  0.00     0.000 C 
BRANCH   8   9
ATOM      9  C   UNL     1     115.625  18.052  25.057  1.00  0.00     0.000 C 
BRANCH   9  10
ATOM     10  C   UNL     1     115.596  17.332  23.697  1.00  0.00     0.006 C 
BRANCH  10  11
ATOM     11  C   UNL     1     114.185  17.124  23.124  1.00  0.00     0.053 C 
BRANCH  11  12
ATOM     12  C   UNL     1     114.202  16.291  21.879  1.00  0.00     0.041 C 
ATOM     13  O   UNL     1     114.954  16.601  20.919  1.00  0.00    -0.550 OA
ATOM     14  O   UNL     1     113.401  15.159  21.788  1.00  0.00    -0.550 OA
ENDBRANCH  11  12
ENDBRANCH  10  11
ENDBRANCH   9  10
ENDBRANCH   8   9
ENDBRANCH   7   8
ENDBRANCH   6   7
ENDBRANCH   5   6
ENDBRANCH   4   5
ENDBRANCH   3   4
ENDBRANCH   2   3
ENDBRANCH   1   2
BRANCH   1  15
ATOM     15  C   UNL     1     115.020  13.771  24.687  1.00  0.00     0.000 C 
BRANCH  15  16
ATOM     16  C   UNL     1     116.243  12.830  24.708  1.00  0.00     0.000 C 
BRANCH  16  17
ATOM     17  C   UNL     1     116.439  12.092  23.376  1.00  0.00     0.000 C 
BRANCH  17  18
ATOM     18  C   UNL     1     116.208  13.032  22.186  1.00  0.00    -0.000 C 
BRANCH  18  19
ATOM     19  C   UNL     1     117.537  13.605  21.669  1.00  0.00    -0.000 C 
BRANCH  19  20
ATOM     20  C   UNL     1     117.789  15.040  22.179  1.00  0.00    -0.000 C 
BRANCH  20  21
ATOM     21  C   UNL     1     119.239  15.517  21.985  1.00  0.00    -0.000 C 
BRANCH  21  22
ATOM     22  C   UNL     1     119.554  16.799  22.773  1.00  0.00    -0.000 C 
BRANCH  22  23
ATOM     23  C   UNL     1     120.612  16.574  23.865  1.00  0.00    -0.000 C 
BRANCH  23  24
ATOM     24  C   UNL     1     120.783  17.794  24.788  1.00  0.00    -0.000 C 
BRANCH  24  25
ATOM     25  C   UNL     1     119.959  19.004  24.320  1.00  0.00    -0.003 C 
ATOM     26  C   UNL     1     119.080  19.584  25.426  1.00  0.00     0.004 C 
ENDBRANCH  24  25
ENDBRANCH  23  24
ENDBRANCH  22  23
ENDBRANCH  21  22
ENDBRANCH  20  21
ENDBRANCH  19  20
ENDBRANCH  18  19
ENDBRANCH  17  18
ENDBRANCH  16  17
ENDBRANCH  15  16
ENDBRANCH   1  15
TORSDOF 22
ENDMDL
MODEL 5
REMARK VINA RESULT:    -1.594      2.364      5.745
REMARK INTER + INTRA:          -8.236
REMARK INTER:                  -3.722
REMARK INTRA:                  -4.514
REMARK UNBOUND:                -4.593
REMARK SMILES CCCCCCCCCCCCCCCCCCCCCCCC(=O)[O-]
REMARK SMILES IDX 13 1 14 2 15 3 16 4 17 5 18 6 19 7 20 8 21 9 22 10 23 11
REMARK SMILES IDX 24 12 25 13 26 14 12 15 11 16 10 17 9 18 8 19 7 20 6 21 5 22
REMARK SMILES IDX 4 23 3 24 2 25 1 26
REMARK H PARENT
REMARK Flexibility Score: inf
ROOT
ATOM      1  C   UNL     1     114.341  16.164  21.333  1.00  0.00     0.000 C 
ENDROOT
BRANCH   1   2
ATOM      2  C   UNL     1     113.632  14.990  22.029  1.00  0.00     0.000 C 
BRANCH   2   3
ATOM      3  C   UNL     1     113.877  13.646  21.325  1.00  0.00     0.000 C 
BRANCH   3   4
ATOM      4  C   UNL     1     114.962  13.779  20.249  1.00  0.00     0.000 C 
BRANCH   4   5
ATOM      5  C   UNL     1     116.100  12.775  20.490  1.00  0.00     0.000 C 
BRANCH   5   6
ATOM      6  C   UNL     1     116.992  13.162  21.680  1.00  0.00     0.000 C 
BRANCH   6   7
ATOM      7  C   UNL     1     117.063  12.058  22.748  1.00  0.00     0.000 C 
BRANCH   7   8
ATOM      8  C   UNL     1     116.199  12.374  23.981  1.00  0.00     0.000 C 
BRANCH   8   9
ATOM      9  C   UNL     1     116.514  13.752  24.589  1.00  0.00     0.000 C 
BRANCH   9  10
ATOM     10  C   UNL     1     115.280  14.415  25.227  1.00  0.00     0.006 C 
BRANCH  10  11
ATOM     11  C   UNL     1     115.459  14.785  26.708  1.00  0.00     0.053 C 
BRANCH  11  12
ATOM     12  C   UNL     1     115.590  13.573  27.577  1.00  0.00     0.041 C 
ATOM     13  O   UNL     1     114.793  12.608  27.444  1.00  0.00    -0.550 OA
ATOM     14  O   UNL     1     116.608  13.499  28.521  1.00  0.00    -0.550 OA
ENDBRANCH  11  12
ENDBRANCH  10  11
ENDBRANCH   9  10
ENDBRANCH   8   9
ENDBRANCH   7   8
ENDBRANCH   6   7
ENDBRANCH   5   6
ENDBRANCH   4   5
ENDBRANCH   3   4
ENDBRANCH   2   3
ENDBRANCH   1   2
BRANCH   1  15
ATOM     15  C   UNL     1     115.627  16.650  22.029  1.00  0.00     0.000 C 
BRANCH  15  16
ATOM     16  C   UNL     1     116.347  17.793  21.281  1.00  0.00     0.000 C 
BRANCH  16  17
ATOM     17  C   UNL     1     116.713  17.411  19.839  1.00  0.00     0.000 C 
BRANCH  17  18
ATOM     18  C   UNL     1     117.732  16.265  19.815  1.00  0.00    -0.000 C 
BRANCH  18  19
ATOM     19  C   UNL     1     119.090  16.722  20.370  1.00  0.00    -0.000 C 
BRANCH  19  20
ATOM     20  C   UNL     1     119.680  15.707  21.372  1.00  0.00    -0.000 C 
BRANCH  20  21
ATOM     21  C   UNL     1     120.050  16.326  22.731  1.00  0.00    -0.000 C 
BRANCH  21  22
ATOM     22  C   UNL     1     118.923  16.200  23.769  1.00  0.00    -0.000 C 
BRANCH  22  23
ATOM     23  C   UNL     1     118.462  17.563  24.309  1.00  0.00    -0.000 C 
BRANCH  23  24
ATOM     24  C   UNL     1     118.157  17.533  25.817  1.00  0.00    -0.000 C 
BRANCH  24  25
ATOM     25  C   UNL     1     118.974  16.465  26.560  1.00  0.00    -0.003 C 
ATOM     26  C   UNL     1     118.588  16.344  28.034  1.00  0.00     0.004 C 
ENDBRANCH  24  25
ENDBRANCH  23  24
ENDBRANCH  22  23
ENDBRANCH  21  22
ENDBRANCH  20  21
ENDBRANCH  19  20
ENDBRANCH  18  19
ENDBRANCH  17  18
ENDBRANCH  16  17
ENDBRANCH  15  16
ENDBRANCH   1  15
TORSDOF 22
ENDMDL
MODEL 6
REMARK VINA RESULT:    -1.589      2.113      5.257
REMARK INTER + INTRA:          -8.226
REMARK INTER:                  -2.877
REMARK INTRA:                  -5.349
REMARK UNBOUND:                -4.593
REMARK SMILES CCCCCCCCCCCCCCCCCCCCCCCC(=O)[O-]
REMARK SMILES IDX 13 1 14 2 15 3 16 4 17 5 18 6 19 7 20 8 21 9 22 10 23 11
REMARK SMILES IDX 24 12 25 13 26 14 12 15 11 16 10 17 9 18 8 19 7 20 6 21 5 22
REMARK SMILES IDX 4 23 3 24 2 25 1 26
REMARK H PARENT
REMARK Flexibility Score: inf
ROOT
ATOM      1  C   UNL     1     117.580  15.743  24.351  1.00  0.00     0.000 C 
ENDROOT
BRANCH   1   2
ATOM      2  C   UNL     1     118.969  16.394  24.451  1.00  0.00     0.000 C 
BRANCH   2   3
ATOM      3  C   UNL     1     119.743  16.351  23.124  1.00  0.00     0.000 C 
BRANCH   3   4
ATOM      4  C   UNL     1     119.023  15.467  22.098  1.00  0.00     0.000 C 
BRANCH   4   5
ATOM      5  C   UNL     1     118.851  16.208  20.762  1.00  0.00     0.000 C 
BRANCH   5   6
ATOM      6  C   UNL     1     118.423  17.672  20.945  1.00  0.00     0.000 C 
BRANCH   6   7
ATOM      7  C   UNL     1     116.908  17.821  21.162  1.00  0.00     0.000 C 
BRANCH   7   8
ATOM      8  C   UNL     1     116.569  18.745  22.345  1.00  0.00     0.000 C 
BRANCH   8   9
ATOM      9  C   UNL     1     117.790  19.536  22.847  1.00  0.00     0.000 C 
BRANCH   9  10
ATOM     10  C   UNL     1     117.681  19.913  24.336  1.00  0.00     0.006 C 
BRANCH  10  11
ATOM     11  C   UNL     1     116.246  19.896  24.887  1.00  0.00     0.053 C 
BRANCH  11  12
ATOM     12  C   UNL     1     115.678  21.276  25.012  1.00  0.00     0.041 C 
ATOM     13  O   UNL     1     114.445  21.438  25.209  1.00  0.00    -0.550 OA
ATOM     14  O   UNL     1     116.514  22.384  24.931  1.00  0.00    -0.550 OA
ENDBRANCH  11  12
ENDBRANCH  10  11
ENDBRANCH   9  10
ENDBRANCH   8   9
ENDBRANCH   7   8
ENDBRANCH   6   7
ENDBRANCH   5   6
ENDBRANCH   4   5
ENDBRANCH   3   4
ENDBRANCH   2   3
ENDBRANCH   1   2
BRANCH   1  15
ATOM     15  C   UNL     1     116.540  16.276  25.356  1.00  0.00     0.000 C 
BRANCH  15  16
ATOM     16  C   UNL     1     115.657  15.176  25.983  1.00  0.00     0.000 C 
BRANCH  16  17
ATOM     17  C   UNL     1     116.242  13.770  25.784  1.00  0.00     0.000 C 
BRANCH  17  18
ATOM     18  C   UNL     1     115.129  12.723  25.652  1.00  0.00    -0.000 C 
BRANCH  18  19
ATOM     19  C   UNL     1     115.316  11.876  24.384  1.00  0.00    -0.000 C 
BRANCH  19  20
ATOM     20  C   UNL     1     116.745  11.992  23.812  1.00  0.00    -0.000 C 
BRANCH  20  21
ATOM     21  C   UNL     1     116.786  12.452  22.344  1.00  0.00    -0.000 C 
BRANCH  21  22
ATOM     22  C   UNL     1     115.437  13.001  21.855  1.00  0.00    -0.000 C 
BRANCH  22  23
ATOM     23  C   UNL     1     115.477  14.514  21.589  1.00  0.00    -0.000 C 
BRANCH  23  24
ATOM     24  C   UNL     1     114.420  15.288  22.398  1.00  0.00    -0.000 C 
BRANCH  24  25
ATOM     25  C   UNL     1     113.220  14.410  22.787  1.00  0.00    -0.003 C 
ATOM     26  C   UNL     1     112.516  14.898  24.051  1.00  0.00     0.004 C 
ENDBRANCH  24  25
ENDBRANCH  23  24
ENDBRANCH  22  23
ENDBRANCH  21  22
ENDBRANCH  20  21
ENDBRANCH  19  20
ENDBRANCH  18  19
ENDBRANCH  17  18
ENDBRANCH  16  17
ENDBRANCH  15  16
ENDBRANCH   1  15
TORSDOF 22
ENDMDL
MODEL 7
REMARK VINA RESULT:    -1.584      2.122      5.153
REMARK INTER + INTRA:          -8.213
REMARK INTER:                  -3.412
REMARK INTRA:                  -4.801
REMARK UNBOUND:                -4.593
REMARK SMILES CCCCCCCCCCCCCCCCCCCCCCCC(=O)[O-]
REMARK SMILES IDX 13 1 14 2 15 3 16 4 17 5 18 6 19 7 20 8 21 9 22 10 23 11
REMARK SMILES IDX 24 12 25 13 26 14 12 15 11 16 10 17 9 18 8 19 7 20 6 21 5 22
REMARK SMILES IDX 4 23 3 24 2 25 1 26
REMARK H PARENT
REMARK Flexibility Score: inf
ROOT
ATOM      1  C   UNL     1     116.183  12.677  22.373  1.00  0.00     0.000 C 
ENDROOT
BRANCH   1   2
ATOM      2  C   UNL     1     116.553  12.775  23.862  1.00  0.00     0.000 C 
BRANCH   2   3
ATOM      3  C   UNL     1     115.473  12.189  24.783  1.00  0.00     0.000 C 
BRANCH   3   4
ATOM      4  C   UNL     1     115.342  13.013  26.070  1.00  0.00     0.000 C 
BRANCH   4   5
ATOM      5  C   UNL     1     116.398  14.129  26.116  1.00  0.00     0.000 C 
BRANCH   5   6
ATOM      6  C   UNL     1     115.908  15.381  26.861  1.00  0.00     0.000 C 
BRANCH   6   7
ATOM      7  C   UNL     1     115.234  16.398  25.925  1.00  0.00     0.000 C 
BRANCH   7   8
ATOM      8  C   UNL     1     115.862  16.415  24.521  1.00  0.00     0.000 C 
BRANCH   8   9
ATOM      9  C   UNL     1     115.083  17.301  23.534  1.00  0.00     0.000 C 
BRANCH   9  10
ATOM     10  C   UNL     1     113.684  16.743  23.212  1.00  0.00     0.006 C 
BRANCH  10  11
ATOM     11  C   UNL     1     113.695  15.345  22.574  1.00  0.00     0.053 C 
BRANCH  11  12
ATOM     12  C   UNL     1     112.922  14.352  23.385  1.00  0.00     0.041 C 
ATOM     13  O   UNL     1     112.528  14.649  24.544  1.00  0.00    -0.550 OA
ATOM     14  O   UNL     1     112.617  13.104  22.853  1.00  0.00    -0.550 OA
ENDBRANCH  11  12
ENDBRANCH  10  11
ENDBRANCH   9  10
ENDBRANCH   8   9
ENDBRANCH   7   8
ENDBRANCH   6   7
ENDBRANCH   5   6
ENDBRANCH   4   5
ENDBRANCH   3   4
ENDBRANCH   2   3
ENDBRANCH   1   2
BRANCH   1  15
ATOM     15  C   UNL     1     116.977  13.614  21.443  1.00  0.00     0.000 C 
BRANCH  15  16
ATOM     16  C   UNL     1     117.867  14.629  22.191  1.00  0.00     0.000 C 
BRANCH  16  17
ATOM     17  C   UNL     1     118.964  15.220  21.294  1.00  0.00     0.000 C 
BRANCH  17  18
ATOM     18  C   UNL     1     119.960  16.049  22.115  1.00  0.00    -0.000 C 
BRANCH  18  19
ATOM     19  C   UNL     1     119.273  16.695  23.328  1.00  0.00    -0.000 C 
BRANCH  19  20
ATOM     20  C   UNL     1     120.089  16.512  24.626  1.00  0.00    -0.000 C 
BRANCH  20  21
ATOM     21  C   UNL     1     119.258  16.687  25.907  1.00  0.00    -0.000 C 
BRANCH  21  22
ATOM     22  C   UNL     1     119.292  18.125  26.448  1.00  0.00    -0.000 C 
BRANCH  22  23
ATOM     23  C   UNL     1     117.908  18.619  26.898  1.00  0.00    -0.000 C 
BRANCH  23  24
ATOM     24  C   UNL     1     117.248  19.555  25.871  1.00  0.00    -0.000 C 
BRANCH  24  25
ATOM     25  C   UNL     1     118.229  20.019  24.783  1.00  0.00    -0.003 C 
ATOM     26  C   UNL     1     117.603  20.034  23.390  1.00  0.00     0.004 C 
ENDBRANCH  24  25
ENDBRANCH  23  24
ENDBRANCH  22  23
ENDBRANCH  21  22
ENDBRANCH  20  21
ENDBRANCH  19  20
ENDBRANCH  18  19
ENDBRANCH  17  18
ENDBRANCH  16  17
ENDBRANCH  15  16
ENDBRANCH   1  15
TORSDOF 22
ENDMDL
MODEL 8
REMARK VINA RESULT:    -1.583      2.279      4.853
REMARK INTER + INTRA:          -8.212
REMARK INTER:                  -3.724
REMARK INTRA:                  -4.488
REMARK UNBOUND:                -4.593
REMARK SMILES CCCCCCCCCCCCCCCCCCCCCCCC(=O)[O-]
REMARK SMILES IDX 13 1 14 2 15 3 16 4 17 5 18 6 19 7 20 8 21 9 22 10 23 11
REMARK SMILES IDX 24 12 25 13 26 14 12 15 11 16 10 17 9 18 8 19 7 20 6 21 5 22
REMARK SMILES IDX 4 23 3 24 2 25 1 26
REMARK H PARENT
REMARK Flexibility Score: inf
ROOT
ATOM      1  C   UNL     1     117.112  11.892  22.896  1.00  0.00     0.000 C 
ENDROOT
BRANCH   1   2
ATOM      2  C   UNL     1     115.903  12.624  23.503  1.00  0.00     0.000 C 
BRANCH   2   3
ATOM      3  C   UNL     1     115.818  12.468  25.029  1.00  0.00     0.000 C 
BRANCH   3   4
ATOM      4  C   UNL     1     116.324  13.730  25.739  1.00  0.00     0.000 C 
BRANCH   4   5
ATOM      5  C   UNL     1     115.920  13.723  27.222  1.00  0.00     0.000 C 
BRANCH   5   6
ATOM      6  C   UNL     1     115.092  14.955  27.618  1.00  0.00     0.000 C 
BRANCH   6   7
ATOM      7  C   UNL     1     114.689  15.810  26.405  1.00  0.00     0.000 C 
BRANCH   7   8
ATOM      8  C   UNL     1     114.132  17.185  26.811  1.00  0.00     0.000 C 
BRANCH   8   9
ATOM      9  C   UNL     1     115.238  18.232  27.028  1.00  0.00     0.000 C 
BRANCH   9  10
ATOM     10  C   UNL     1     116.569  17.836  26.362  1.00  0.00     0.006 C 
BRANCH  10  11
ATOM     11  C   UNL     1     117.788  17.914  27.294  1.00  0.00     0.053 C 
BRANCH  11  12
ATOM     12  C   UNL     1     118.653  16.696  27.189  1.00  0.00     0.041 C 
ATOM     13  O   UNL     1     118.597  15.801  28.073  1.00  0.00    -0.550 OA
ATOM     14  O   UNL     1     119.506  16.539  26.104  1.00  0.00    -0.550 OA
ENDBRANCH  11  12
ENDBRANCH  10  11
ENDBRANCH   9  10
ENDBRANCH   8   9
ENDBRANCH   7   8
ENDBRANCH   6   7
ENDBRANCH   5   6
ENDBRANCH   4   5
ENDBRANCH   3   4
ENDBRANCH   2   3
ENDBRANCH   1   2
BRANCH   1  15
ATOM     15  C   UNL     1     117.160  11.884  21.356  1.00  0.00     0.000 C 
BRANCH  15  16
ATOM     16  C   UNL     1     115.919  12.515  20.689  1.00  0.00     0.000 C 
BRANCH  16  17
ATOM     17  C   UNL     1     116.291  13.578  19.646  1.00  0.00     0.000 C 
BRANCH  17  18
ATOM     18  C   UNL     1     117.763  13.990  19.780  1.00  0.00    -0.000 C 
BRANCH  18  19
ATOM     19  C   UNL     1     117.927  15.510  19.620  1.00  0.00    -0.000 C 
BRANCH  19  20
ATOM     20  C   UNL     1     118.765  16.127  20.761  1.00  0.00    -0.000 C 
BRANCH  20  21
ATOM     21  C   UNL     1     118.812  15.260  22.030  1.00  0.00    -0.000 C 
BRANCH  21  22
ATOM     22  C   UNL     1     117.871  15.768  23.134  1.00  0.00    -0.000 C 
BRANCH  22  23
ATOM     23  C   UNL     1     117.476  17.241  22.939  1.00  0.00    -0.000 C 
BRANCH  23  24
ATOM     24  C   UNL     1     115.957  17.435  22.791  1.00  0.00    -0.000 C 
BRANCH  24  25
ATOM     25  C   UNL     1     115.190  16.104  22.814  1.00  0.00    -0.003 C 
ATOM     26  C   UNL     1     114.264  15.933  21.611  1.00  0.00     0.004 C 
ENDBRANCH  24  25
ENDBRANCH  23  24
ENDBRANCH  22  23
ENDBRANCH  21  22
ENDBRANCH  20  21
ENDBRANCH  19  20
ENDBRANCH  18  19
ENDBRANCH  17  18
ENDBRANCH  16  17
ENDBRANCH  15  16
ENDBRANCH   1  15
TORSDOF 22
ENDMDL
MODEL 9
REMARK VINA RESULT:    -1.491      2.241      5.825
REMARK INTER + INTRA:          -8.001
REMARK INTER:                  -3.513
REMARK INTRA:                  -4.488
REMARK UNBOUND:                -4.593
REMARK SMILES CCCCCCCCCCCCCCCCCCCCCCCC(=O)[O-]
REMARK SMILES IDX 13 1 14 2 15 3 16 4 17 5 18 6 19 7 20 8 21 9 22 10 23 11
REMARK SMILES IDX 24 12 25 13 26 14 12 15 11 16 10 17 9 18 8 19 7 20 6 21 5 22
REMARK SMILES IDX 4 23 3 24 2 25 1 26
REMARK H PARENT
REMARK Flexibility Score: inf
ROOT
ATOM      1  C   UNL     1     120.176  17.357  21.917  1.00  0.00     0.000 C 
ENDROOT
BRANCH   1   2
ATOM      2  C   UNL     1     120.909  16.543  22.996  1.00  0.00     0.000 C 
BRANCH   2   3
ATOM      3  C   UNL     1     120.872  17.215  24.376  1.00  0.00     0.000 C 
BRANCH   3   4
ATOM      4  C   UNL     1     119.647  16.756  25.177  1.00  0.00     0.000 C 
BRANCH   4   5
ATOM      5  C   UNL     1     118.708  17.937  25.468  1.00  0.00     0.000 C 
BRANCH   5   6
ATOM      6  C   UNL     1     117.497  17.979  24.523  1.00  0.00     0.000 C 
BRANCH   6   7
ATOM      7  C   UNL     1     116.443  19.011  24.960  1.00  0.00     0.000 C 
BRANCH   7   8
ATOM      8  C   UNL     1     115.035  18.670  24.443  1.00  0.00     0.000 C 
BRANCH   8   9
ATOM      9  C   UNL     1     114.903  17.201  24.007  1.00  0.00     0.000 C 
BRANCH   9  10
ATOM     10  C   UNL     1     114.377  17.054  22.567  1.00  0.00     0.006 C 
BRANCH  10  11
ATOM     11  C   UNL     1     115.300  17.655  21.495  1.00  0.00     0.053 C 
BRANCH  11  12
ATOM     12  C   UNL     1     115.279  16.857  20.227  1.00  0.00     0.041 C 
ATOM     13  O   UNL     1     115.604  17.394  19.136  1.00  0.00    -0.550 OA
ATOM     14  O   UNL     1     114.920  15.515  20.255  1.00  0.00    -0.550 OA
ENDBRANCH  11  12
ENDBRANCH  10  11
ENDBRANCH   9  10
ENDBRANCH   8   9
ENDBRANCH   7   8
ENDBRANCH   6   7
ENDBRANCH   5   6
ENDBRANCH   4   5
ENDBRANCH   3   4
ENDBRANCH   2   3
ENDBRANCH   1   2
BRANCH   1  15
ATOM     15  C   UNL     1     118.826  16.769  21.465  1.00  0.00     0.000 C 
BRANCH  15  16
ATOM     16  C   UNL     1     118.724  15.238  21.634  1.00  0.00     0.000 C 
BRANCH  16  17
ATOM     17  C   UNL     1     117.597  14.828  22.593  1.00  0.00     0.000 C 
BRANCH  17  18
ATOM     18  C   UNL     1     117.004  13.469  22.198  1.00  0.00    -0.000 C 
BRANCH  18  19
ATOM     19  C   UNL     1     115.805  13.109  23.089  1.00  0.00    -0.000 C 
BRANCH  19  20
ATOM     20  C   UNL     1     116.214  12.220  24.283  1.00  0.00    -0.000 C 
BRANCH  20  21
ATOM     21  C   UNL     1     115.558  12.633  25.612  1.00  0.00    -0.000 C 
BRANCH  21  22
ATOM     22  C   UNL     1     115.368  14.154  25.734  1.00  0.00    -0.000 C 
BRANCH  22  23
ATOM     23  C   UNL     1     116.634  14.869  26.232  1.00  0.00    -0.000 C 
BRANCH  23  24
ATOM     24  C   UNL     1     116.967  14.538  27.698  1.00  0.00    -0.000 C 
BRANCH  24  25
ATOM     25  C   UNL     1     117.256  15.796  28.532  1.00  0.00    -0.003 C 
ATOM     26  C   UNL     1     116.366  16.977  28.149  1.00  0.00     0.004 C 
ENDBRANCH  24  25
ENDBRANCH  23  24
ENDBRANCH  22  23
ENDBRANCH  21  22
ENDBRANCH  20  21
ENDBRANCH  19  20
ENDBRANCH  18  19
ENDBRANCH  17  18
ENDBRANCH  16  17
ENDBRANCH  15  16
ENDBRANCH   1  15
TORSDOF 22
ENDMDL
