MODEL 1
REMARK VINA RESULT:    -0.681      0.000      0.000
REMARK INTER + INTRA:          -0.957
REMARK INTER:                  -0.820
REMARK INTRA:                  -0.137
REMARK UNBOUND:                -0.137
REMARK SMILES Oc1cc(O)c2cc(O)c(-c3ccc(O)c(O)c3)[o+]c2c1
REMARK SMILES IDX 10 1 19 2 20 3 21 4 2 5 3 6 4 7 6 8 7 9 8 10 11 11 12 12
REMARK SMILES IDX 13 13 14 14 18 15 16 16 15 17 17 19 9 21 1 23 5 25
REMARK H PARENT 15 18 17 20 9 22 1 24 5 26
REMARK Flexibility Score: inf
ROOT
ATOM      1  C   UNL     1      -9.276 -34.894   0.780  1.00  0.00     0.402 A 
ATOM      2  O   UNL     1     -10.025 -34.261   1.678  1.00  0.00    -0.202 OA
ATOM      3  C   UNL     1      -9.713 -34.188   2.968  1.00  0.00     0.368 A 
ATOM      4  C   UNL     1     -10.565 -33.501   3.836  1.00  0.00     0.162 A 
ATOM      5  C   UNL     1     -10.262 -33.412   5.198  1.00  0.00     0.128 A 
ATOM      6  C   UNL     1      -9.103 -34.013   5.693  1.00  0.00     0.093 A 
ATOM      7  C   UNL     1      -8.231 -34.707   4.844  1.00  0.00     0.136 A 
ATOM      8  C   UNL     1      -8.533 -34.798   3.460  1.00  0.00     0.125 A 
ATOM      9  C   UNL     1      -7.713 -35.462   2.534  1.00  0.00     0.078 A 
ATOM     10  C   UNL     1      -8.074 -35.506   1.183  1.00  0.00     0.223 A 
ENDROOT
BRANCH   1  11
ATOM     11  C   UNL     1      -9.737 -34.915  -0.628  1.00  0.00     0.087 A 
ATOM     12  C   UNL     1      -9.915 -36.123  -1.323  1.00  0.00     0.022 A 
ATOM     13  C   UNL     1     -10.373 -36.117  -2.643  1.00  0.00     0.051 A 
ATOM     14  C   UNL     1     -10.671 -34.911  -3.283  1.00  0.00     0.157 A 
ATOM     15  C   UNL     1     -10.057 -33.706  -1.266  1.00  0.00     0.068 A 
ATOM     16  C   UNL     1     -10.516 -33.698  -2.591  1.00  0.00     0.158 A 
BRANCH  14  17
ATOM     17  O   UNL     1     -11.124 -34.937  -4.601  1.00  0.00    -0.504 OA
ATOM     18  H   UNL     1     -12.032 -35.311  -4.851  1.00  0.00     0.293 HD
ENDBRANCH  14  17
BRANCH  16  19
ATOM     19  O   UNL     1     -10.819 -32.491  -3.221  1.00  0.00    -0.504 OA
ATOM     20  H   UNL     1     -11.649 -31.961  -2.982  1.00  0.00     0.293 HD
ENDBRANCH  16  19
ENDBRANCH   1  11
BRANCH  10  21
ATOM     21  O   UNL     1      -7.235 -36.122   0.255  1.00  0.00    -0.500 OA
ATOM     22  H   UNL     1      -7.488 -36.198  -0.723  1.00  0.00     0.294 HD
ENDBRANCH  10  21
BRANCH   5  23
ATOM     23  O   UNL     1     -11.107 -32.728   6.069  1.00  0.00    -0.507 OA
ATOM     24  H   UNL     1     -10.742 -32.147   6.815  1.00  0.00     0.293 HD
ENDBRANCH   5  23
BRANCH   7  25
ATOM     25  O   UNL     1      -7.094 -35.282   5.419  1.00  0.00    -0.507 OA
ATOM     26  H   UNL     1      -6.390 -34.767   5.926  1.00  0.00     0.293 HD
ENDBRANCH   7  25
TORSDOF 6
ENDMDL
