MODEL 1
REMARK VINA RESULT:    -9.188      0.000      0.000
REMARK INTER + INTRA:         -11.068
REMARK INTER:                 -10.800
REMARK INTRA:                  -0.268
REMARK UNBOUND:                -0.268
REMARK SMILES O=c1cc(-c2ccc(O)c(O)c2)oc2cc(O)cc(O)c12
REMARK SMILES IDX 4 1 3 2 2 3 1 4 21 5 19 6 18 7 16 8 15 9 14 10 13 11 5 12
REMARK SMILES IDX 6 13 7 14 8 15 12 16 10 17 9 18 11 20 20 22 17 24
REMARK H PARENT 9 19 11 21 20 23 17 25
REMARK Flexibility Score: inf
ROOT
ATOM      1  C   UNL     1     140.885 -20.465  78.865  1.00  0.00     0.138 A 
ATOM      2  C   UNL     1     139.663 -20.750  78.242  1.00  0.00     0.100 A 
ATOM      3  C   UNL     1     138.482 -20.216  78.759  1.00  0.00     0.197 A 
ATOM      4  O   UNL     1     137.408 -20.440  78.142  1.00  0.00    -0.289 OA
ATOM      5  C   UNL     1     138.524 -19.418  79.927  1.00  0.00     0.107 A 
ATOM      6  C   UNL     1     137.380 -18.854  80.567  1.00  0.00     0.134 A 
ATOM      7  C   UNL     1     137.554 -17.984  81.650  1.00  0.00     0.093 A 
ATOM      8  C   UNL     1     138.828 -17.706  82.153  1.00  0.00     0.123 A 
ATOM      9  C   UNL     1     139.947 -18.293  81.569  1.00  0.00     0.094 A 
ATOM     10  C   UNL     1     139.809 -19.138  80.465  1.00  0.00     0.146 A 
ATOM     11  O   UNL     1     140.903 -19.667  79.928  1.00  0.00    -0.456 OA
ENDROOT
BRANCH   1  12
ATOM     12  C   UNL     1     142.171 -21.008  78.358  1.00  0.00     0.021 A 
ATOM     13  C   UNL     1     142.618 -22.296  78.706  1.00  0.00     0.016 A 
ATOM     14  C   UNL     1     143.837 -22.778  78.222  1.00  0.00     0.051 A 
ATOM     15  C   UNL     1     144.632 -21.982  77.388  1.00  0.00     0.157 A 
ATOM     16  C   UNL     1     142.982 -20.210  77.530  1.00  0.00     0.062 A 
ATOM     17  C   UNL     1     144.202 -20.691  77.043  1.00  0.00     0.158 A 
BRANCH  15  18
ATOM     18  O   UNL     1     145.846 -22.467  76.906  1.00  0.00    -0.504 OA
ATOM     19  H   UNL     1     146.482 -22.989  77.499  1.00  0.00     0.293 HD
ENDBRANCH  15  18
BRANCH  17  20
ATOM     20  O   UNL     1     144.972 -19.871  76.219  1.00  0.00    -0.504 OA
ATOM     21  H   UNL     1     144.591 -19.434  75.388  1.00  0.00     0.293 HD
ENDBRANCH  17  20
ENDBRANCH   1  12
BRANCH   6  22
ATOM     22  O   UNL     1     136.061 -19.134  80.198  1.00  0.00    -0.507 OA
ATOM     23  H   UNL     1     135.686 -19.020  79.269  1.00  0.00     0.293 HD
ENDBRANCH   6  22
BRANCH   8  24
ATOM     24  O   UNL     1     138.991 -16.850  83.241  1.00  0.00    -0.508 OA
ATOM     25  H   UNL     1     138.410 -16.028  83.361  1.00  0.00     0.293 HD
ENDBRANCH   8  24
TORSDOF 5
ENDMDL
MODEL 2
REMARK VINA RESULT:    -8.980      4.007      6.434
REMARK INTER + INTRA:         -10.823
REMARK INTER:                 -10.560
REMARK INTRA:                  -0.263
REMARK UNBOUND:                -0.268
REMARK SMILES O=c1cc(-c2ccc(O)c(O)c2)oc2cc(O)cc(O)c12
REMARK SMILES IDX 4 1 3 2 2 3 1 4 21 5 19 6 18 7 16 8 15 9 14 10 13 11 5 12
REMARK SMILES IDX 6 13 7 14 8 15 12 16 10 17 9 18 11 20 20 22 17 24
REMARK H PARENT 9 19 11 21 20 23 17 25
REMARK Flexibility Score: inf
ROOT
ATOM      1  C   UNL     1     138.719 -17.414  80.275  1.00  0.00     0.138 A 
ATOM      2  C   UNL     1     138.226 -16.160  80.664  1.00  0.00     0.100 A 
ATOM      3  C   UNL     1     139.118 -15.146  81.017  1.00  0.00     0.197 A 
ATOM      4  O   UNL     1     138.648 -14.014  81.301  1.00  0.00    -0.289 OA
ATOM      5  C   UNL     1     140.510 -15.401  81.011  1.00  0.00     0.107 A 
ATOM      6  C   UNL     1     141.510 -14.456  81.391  1.00  0.00     0.134 A 
ATOM      7  C   UNL     1     142.863 -14.783  81.233  1.00  0.00     0.093 A 
ATOM      8  C   UNL     1     143.250 -16.042  80.767  1.00  0.00     0.123 A 
ATOM      9  C   UNL     1     142.283 -16.989  80.444  1.00  0.00     0.094 A 
ATOM     10  C   UNL     1     140.924 -16.682  80.558  1.00  0.00     0.146 A 
ATOM     11  O   UNL     1     140.033 -17.609  80.226  1.00  0.00    -0.456 OA
ENDROOT
BRANCH   1  12
ATOM     12  C   UNL     1     137.815 -18.527  79.892  1.00  0.00     0.021 A 
ATOM     13  C   UNL     1     137.334 -19.449  80.841  1.00  0.00     0.016 A 
ATOM     14  C   UNL     1     136.492 -20.494  80.450  1.00  0.00     0.051 A 
ATOM     15  C   UNL     1     136.123 -20.641  79.108  1.00  0.00     0.157 A 
ATOM     16  C   UNL     1     137.450 -18.690  78.544  1.00  0.00     0.062 A 
ATOM     17  C   UNL     1     136.607 -19.735  78.150  1.00  0.00     0.158 A 
BRANCH  15  18
ATOM     18  O   UNL     1     135.282 -21.684  78.722  1.00  0.00    -0.504 OA
ATOM     19  H   UNL     1     135.456 -22.640  79.011  1.00  0.00     0.293 HD
ENDBRANCH  15  18
BRANCH  17  20
ATOM     20  O   UNL     1     136.261 -19.856  76.804  1.00  0.00    -0.504 OA
ATOM     21  H   UNL     1     136.953 -19.809  76.065  1.00  0.00     0.293 HD
ENDBRANCH  17  20
ENDBRANCH   1  12
BRANCH   6  22
ATOM     22  O   UNL     1     141.232 -13.204  81.947  1.00  0.00    -0.507 OA
ATOM     23  H   UNL     1     141.453 -12.320  81.515  1.00  0.00     0.293 HD
ENDBRANCH   6  22
BRANCH   8  24
ATOM     24  O   UNL     1     144.599 -16.363  80.627  1.00  0.00    -0.508 OA
ATOM     25  H   UNL     1     145.083 -16.932  81.313  1.00  0.00     0.293 HD
ENDBRANCH   8  24
TORSDOF 5
ENDMDL
MODEL 3
REMARK VINA RESULT:    -8.960      3.784      5.457
REMARK INTER + INTRA:         -10.800
REMARK INTER:                 -10.538
REMARK INTRA:                  -0.263
REMARK UNBOUND:                -0.268
REMARK SMILES O=c1cc(-c2ccc(O)c(O)c2)oc2cc(O)cc(O)c12
REMARK SMILES IDX 4 1 3 2 2 3 1 4 21 5 19 6 18 7 16 8 15 9 14 10 13 11 5 12
REMARK SMILES IDX 6 13 7 14 8 15 12 16 10 17 9 18 11 20 20 22 17 24
REMARK H PARENT 9 19 11 21 20 23 17 25
REMARK Flexibility Score: inf
ROOT
ATOM      1  C   UNL     1     138.760 -18.642  79.939  1.00  0.00     0.138 A 
ATOM      2  C   UNL     1     138.290 -19.572  80.877  1.00  0.00     0.100 A 
ATOM      3  C   UNL     1     137.138 -20.310  80.601  1.00  0.00     0.197 A 
ATOM      4  O   UNL     1     136.776 -21.180  81.435  1.00  0.00    -0.289 OA
ATOM      5  C   UNL     1     136.436 -20.091  79.392  1.00  0.00     0.107 A 
ATOM      6  C   UNL     1     135.228 -20.756  79.023  1.00  0.00     0.134 A 
ATOM      7  C   UNL     1     134.686 -20.545  77.749  1.00  0.00     0.093 A 
ATOM      8  C   UNL     1     135.275 -19.646  76.856  1.00  0.00     0.123 A 
ATOM      9  C   UNL     1     136.423 -18.953  77.227  1.00  0.00     0.094 A 
ATOM     10  C   UNL     1     137.008 -19.168  78.478  1.00  0.00     0.146 A 
ATOM     11  O   UNL     1     138.112 -18.496  78.787  1.00  0.00    -0.456 OA
ENDROOT
BRANCH   1  12
ATOM     12  C   UNL     1     139.978 -17.830  80.181  1.00  0.00     0.021 A 
ATOM     13  C   UNL     1     141.226 -18.186  79.634  1.00  0.00     0.016 A 
ATOM     14  C   UNL     1     142.358 -17.407  79.887  1.00  0.00     0.051 A 
ATOM     15  C   UNL     1     142.267 -16.267  80.693  1.00  0.00     0.157 A 
ATOM     16  C   UNL     1     139.899 -16.690  81.001  1.00  0.00     0.062 A 
ATOM     17  C   UNL     1     141.031 -15.908  81.255  1.00  0.00     0.158 A 
BRANCH  15  18
ATOM     18  O   UNL     1     143.399 -15.492  80.942  1.00  0.00    -0.504 OA
ATOM     19  H   UNL     1     143.635 -14.695  80.362  1.00  0.00     0.293 HD
ENDBRANCH  15  18
BRANCH  17  20
ATOM     20  O   UNL     1     140.908 -14.780  82.066  1.00  0.00    -0.504 OA
ATOM     21  H   UNL     1     141.629 -14.070  82.113  1.00  0.00     0.293 HD
ENDBRANCH  17  20
ENDBRANCH   1  12
BRANCH   6  22
ATOM     22  O   UNL     1     134.513 -21.607  79.871  1.00  0.00    -0.507 OA
ATOM     23  H   UNL     1     134.710 -22.588  80.002  1.00  0.00     0.293 HD
ENDBRANCH   6  22
BRANCH   8  24
ATOM     24  O   UNL     1     134.719 -19.431  75.596  1.00  0.00    -0.508 OA
ATOM     25  H   UNL     1     134.354 -18.525  75.325  1.00  0.00     0.293 HD
ENDBRANCH   8  24
TORSDOF 5
ENDMDL
MODEL 4
REMARK VINA RESULT:    -8.863      3.634      6.308
REMARK INTER + INTRA:         -10.686
REMARK INTER:                 -10.367
REMARK INTRA:                  -0.318
REMARK UNBOUND:                -0.268
REMARK SMILES O=c1cc(-c2ccc(O)c(O)c2)oc2cc(O)cc(O)c12
REMARK SMILES IDX 4 1 3 2 2 3 1 4 21 5 19 6 18 7 16 8 15 9 14 10 13 11 5 12
REMARK SMILES IDX 6 13 7 14 8 15 12 16 10 17 9 18 11 20 20 22 17 24
REMARK H PARENT 9 19 11 21 20 23 17 25
REMARK Flexibility Score: inf
ROOT
ATOM      1  C   UNL     1     139.569 -17.768  80.704  1.00  0.00     0.138 A 
ATOM      2  C   UNL     1     140.421 -18.866  80.888  1.00  0.00     0.100 A 
ATOM      3  C   UNL     1     139.929 -20.159  80.712  1.00  0.00     0.197 A 
ATOM      4  O   UNL     1     140.734 -21.121  80.823  1.00  0.00    -0.289 OA
ATOM      5  C   UNL     1     138.567 -20.355  80.382  1.00  0.00     0.107 A 
ATOM      6  C   UNL     1     137.946 -21.629  80.218  1.00  0.00     0.134 A 
ATOM      7  C   UNL     1     136.619 -21.698  79.776  1.00  0.00     0.093 A 
ATOM      8  C   UNL     1     135.873 -20.538  79.552  1.00  0.00     0.123 A 
ATOM      9  C   UNL     1     136.454 -19.290  79.760  1.00  0.00     0.094 A 
ATOM     10  C   UNL     1     137.787 -19.188  80.167  1.00  0.00     0.146 A 
ATOM     11  O   UNL     1     138.307 -17.977  80.341  1.00  0.00    -0.456 OA
ENDROOT
BRANCH   1  12
ATOM     12  C   UNL     1     140.039 -16.371  80.880  1.00  0.00     0.021 A 
ATOM     13  C   UNL     1     141.355 -16.079  81.287  1.00  0.00     0.016 A 
ATOM     14  C   UNL     1     141.767 -14.754  81.453  1.00  0.00     0.051 A 
ATOM     15  C   UNL     1     140.875 -13.701  81.224  1.00  0.00     0.157 A 
ATOM     16  C   UNL     1     139.145 -15.307  80.664  1.00  0.00     0.062 A 
ATOM     17  C   UNL     1     139.556 -13.980  80.830  1.00  0.00     0.158 A 
BRANCH  15  18
ATOM     18  O   UNL     1     141.290 -12.381  81.390  1.00  0.00    -0.504 OA
ATOM     19  H   UNL     1     141.053 -11.850  82.221  1.00  0.00     0.293 HD
ENDBRANCH  15  18
BRANCH  17  20
ATOM     20  O   UNL     1     138.641 -12.953  80.598  1.00  0.00    -0.504 OA
ATOM     21  H   UNL     1     137.818 -13.087  80.022  1.00  0.00     0.293 HD
ENDBRANCH  17  20
ENDBRANCH   1  12
BRANCH   6  22
ATOM     22  O   UNL     1     138.574 -22.847  80.497  1.00  0.00    -0.507 OA
ATOM     23  H   UNL     1     139.338 -22.966  81.144  1.00  0.00     0.293 HD
ENDBRANCH   6  22
BRANCH   8  24
ATOM     24  O   UNL     1     134.548 -20.616  79.127  1.00  0.00    -0.508 OA
ATOM     25  H   UNL     1     133.924 -19.821  79.187  1.00  0.00     0.293 HD
ENDBRANCH   8  24
TORSDOF 5
ENDMDL
MODEL 5
REMARK VINA RESULT:    -8.645      1.318      2.532
REMARK INTER + INTRA:         -10.430
REMARK INTER:                 -10.152
REMARK INTRA:                  -0.278
REMARK UNBOUND:                -0.268
REMARK SMILES O=c1cc(-c2ccc(O)c(O)c2)oc2cc(O)cc(O)c12
REMARK SMILES IDX 4 1 3 2 2 3 1 4 21 5 19 6 18 7 16 8 15 9 14 10 13 11 5 12
REMARK SMILES IDX 6 13 7 14 8 15 12 16 10 17 9 18 11 20 20 22 17 24
REMARK H PARENT 9 19 11 21 20 23 17 25
REMARK Flexibility Score: inf
ROOT
ATOM      1  C   UNL     1     141.137 -20.032  78.983  1.00  0.00     0.138 A 
ATOM      2  C   UNL     1     141.245 -18.735  79.504  1.00  0.00     0.100 A 
ATOM      3  C   UNL     1     140.120 -18.111  80.042  1.00  0.00     0.197 A 
ATOM      4  O   UNL     1     140.262 -16.971  80.557  1.00  0.00    -0.289 OA
ATOM      5  C   UNL     1     138.872 -18.777  80.028  1.00  0.00     0.107 A 
ATOM      6  C   UNL     1     137.649 -18.222  80.511  1.00  0.00     0.134 A 
ATOM      7  C   UNL     1     136.498 -19.019  80.554  1.00  0.00     0.093 A 
ATOM      8  C   UNL     1     136.513 -20.331  80.074  1.00  0.00     0.123 A 
ATOM      9  C   UNL     1     137.688 -20.864  79.551  1.00  0.00     0.094 A 
ATOM     10  C   UNL     1     138.861 -20.106  79.527  1.00  0.00     0.146 A 
ATOM     11  O   UNL     1     139.964 -20.657  79.032  1.00  0.00    -0.456 OA
ENDROOT
BRANCH   1  12
ATOM     12  C   UNL     1     142.301 -20.743  78.398  1.00  0.00     0.021 A 
ATOM     13  C   UNL     1     142.559 -22.098  78.680  1.00  0.00     0.016 A 
ATOM     14  C   UNL     1     143.668 -22.740  78.122  1.00  0.00     0.051 A 
ATOM     15  C   UNL     1     144.540 -22.040  77.280  1.00  0.00     0.157 A 
ATOM     16  C   UNL     1     143.190 -20.045  77.561  1.00  0.00     0.062 A 
ATOM     17  C   UNL     1     144.301 -20.685  77.001  1.00  0.00     0.158 A 
BRANCH  15  18
ATOM     18  O   UNL     1     145.645 -22.684  76.725  1.00  0.00    -0.504 OA
ATOM     19  H   UNL     1     145.600 -23.651  76.425  1.00  0.00     0.293 HD
ENDBRANCH  15  18
BRANCH  17  20
ATOM     20  O   UNL     1     145.153 -19.959  76.169  1.00  0.00    -0.504 OA
ATOM     21  H   UNL     1     145.327 -20.230  75.209  1.00  0.00     0.293 HD
ENDBRANCH  17  20
ENDBRANCH   1  12
BRANCH   6  22
ATOM     22  O   UNL     1     137.505 -16.896  80.934  1.00  0.00    -0.507 OA
ATOM     23  H   UNL     1     137.852 -16.530  81.807  1.00  0.00     0.293 HD
ENDBRANCH   6  22
BRANCH   8  24
ATOM     24  O   UNL     1     135.359 -21.112  80.107  1.00  0.00    -0.508 OA
ATOM     25  H   UNL     1     134.706 -21.126  79.332  1.00  0.00     0.293 HD
ENDBRANCH   8  24
TORSDOF 5
ENDMDL
MODEL 6
REMARK VINA RESULT:    -8.631      4.069     10.023
REMARK INTER + INTRA:         -10.414
REMARK INTER:                 -10.103
REMARK INTRA:                  -0.310
REMARK UNBOUND:                -0.268
REMARK SMILES O=c1cc(-c2ccc(O)c(O)c2)oc2cc(O)cc(O)c12
REMARK SMILES IDX 4 1 3 2 2 3 1 4 21 5 19 6 18 7 16 8 15 9 14 10 13 11 5 12
REMARK SMILES IDX 6 13 7 14 8 15 12 16 10 17 9 18 11 20 20 22 17 24
REMARK H PARENT 9 19 11 21 20 23 17 25
REMARK Flexibility Score: inf
ROOT
ATOM      1  C   UNL     1     146.448 -22.884  77.380  1.00  0.00     0.138 A 
ATOM      2  C   UNL     1     147.066 -23.622  78.400  1.00  0.00     0.100 A 
ATOM      3  C   UNL     1     148.347 -24.137  78.201  1.00  0.00     0.197 A 
ATOM      4  O   UNL     1     148.899 -24.742  79.157  1.00  0.00    -0.289 OA
ATOM      5  C   UNL     1     148.999 -23.940  76.961  1.00  0.00     0.107 A 
ATOM      6  C   UNL     1     150.290 -24.454  76.631  1.00  0.00     0.134 A 
ATOM      7  C   UNL     1     150.885 -24.096  75.416  1.00  0.00     0.093 A 
ATOM      8  C   UNL     1     150.211 -23.292  74.493  1.00  0.00     0.123 A 
ATOM      9  C   UNL     1     148.930 -22.829  74.783  1.00  0.00     0.094 A 
ATOM     10  C   UNL     1     148.323 -23.140  76.002  1.00  0.00     0.146 A 
ATOM     11  O   UNL     1     147.106 -22.667  76.245  1.00  0.00    -0.456 OA
ENDROOT
BRANCH   1  12
ATOM     12  C   UNL     1     145.087 -22.315  77.537  1.00  0.00     0.021 A 
ATOM     13  C   UNL     1     144.148 -22.876  78.423  1.00  0.00     0.016 A 
ATOM     14  C   UNL     1     142.870 -22.325  78.544  1.00  0.00     0.051 A 
ATOM     15  C   UNL     1     142.504 -21.211  77.779  1.00  0.00     0.157 A 
ATOM     16  C   UNL     1     144.707 -21.203  76.764  1.00  0.00     0.062 A 
ATOM     17  C   UNL     1     143.428 -20.649  76.883  1.00  0.00     0.158 A 
BRANCH  15  18
ATOM     18  O   UNL     1     141.228 -20.663  77.903  1.00  0.00    -0.504 OA
ATOM     19  H   UNL     1     140.522 -21.091  78.491  1.00  0.00     0.293 HD
ENDBRANCH  15  18
BRANCH  17  20
ATOM     20  O   UNL     1     143.094 -19.542  76.104  1.00  0.00    -0.504 OA
ATOM     21  H   UNL     1     142.187 -19.094  76.166  1.00  0.00     0.293 HD
ENDBRANCH  17  20
ENDBRANCH   1  12
BRANCH   6  22
ATOM     22  O   UNL     1     151.012 -25.333  77.444  1.00  0.00    -0.507 OA
ATOM     23  H   UNL     1     150.953 -25.368  78.450  1.00  0.00     0.293 HD
ENDBRANCH   6  22
BRANCH   8  24
ATOM     24  O   UNL     1     150.806 -22.953  73.279  1.00  0.00    -0.508 OA
ATOM     25  H   UNL     1     150.887 -21.988  72.980  1.00  0.00     0.293 HD
ENDBRANCH   8  24
TORSDOF 5
ENDMDL
MODEL 7
REMARK VINA RESULT:    -8.627      3.044      6.247
REMARK INTER + INTRA:         -10.409
REMARK INTER:                 -10.146
REMARK INTRA:                  -0.263
REMARK UNBOUND:                -0.268
REMARK SMILES O=c1cc(-c2ccc(O)c(O)c2)oc2cc(O)cc(O)c12
REMARK SMILES IDX 4 1 3 2 2 3 1 4 21 5 19 6 18 7 16 8 15 9 14 10 13 11 5 12
REMARK SMILES IDX 6 13 7 14 8 15 12 16 10 17 9 18 11 20 20 22 17 24
REMARK H PARENT 9 19 11 21 20 23 17 25
REMARK Flexibility Score: inf
ROOT
ATOM      1  C   UNL     1     139.145 -18.556  79.478  1.00  0.00     0.138 A 
ATOM      2  C   UNL     1     140.317 -19.102  78.937  1.00  0.00     0.100 A 
ATOM      3  C   UNL     1     141.543 -18.483  79.179  1.00  0.00     0.197 A 
ATOM      4  O   UNL     1     142.584 -19.032  78.731  1.00  0.00    -0.289 OA
ATOM      5  C   UNL     1     141.591 -17.292  79.940  1.00  0.00     0.107 A 
ATOM      6  C   UNL     1     142.780 -16.552  80.217  1.00  0.00     0.134 A 
ATOM      7  C   UNL     1     142.723 -15.451  81.081  1.00  0.00     0.093 A 
ATOM      8  C   UNL     1     141.509 -15.028  81.629  1.00  0.00     0.123 A 
ATOM      9  C   UNL     1     140.335 -15.712  81.323  1.00  0.00     0.094 A 
ATOM     10  C   UNL     1     140.365 -16.835  80.492  1.00  0.00     0.146 A 
ATOM     11  O   UNL     1     139.225 -17.467  80.236  1.00  0.00    -0.456 OA
ENDROOT
BRANCH   1  12
ATOM     12  C   UNL     1     137.814 -19.172  79.251  1.00  0.00     0.021 A 
ATOM     13  C   UNL     1     137.175 -19.940  80.244  1.00  0.00     0.016 A 
ATOM     14  C   UNL     1     135.926 -20.516  79.999  1.00  0.00     0.051 A 
ATOM     15  C   UNL     1     135.297 -20.343  78.761  1.00  0.00     0.157 A 
ATOM     16  C   UNL     1     137.180 -19.014  78.006  1.00  0.00     0.062 A 
ATOM     17  C   UNL     1     135.929 -19.590  77.758  1.00  0.00     0.158 A 
BRANCH  15  18
ATOM     18  O   UNL     1     134.050 -20.919  78.521  1.00  0.00    -0.504 OA
ATOM     19  H   UNL     1     133.948 -21.914  78.357  1.00  0.00     0.293 HD
ENDBRANCH  15  18
BRANCH  17  20
ATOM     20  O   UNL     1     135.331 -19.402  76.512  1.00  0.00    -0.504 OA
ATOM     21  H   UNL     1     134.336 -19.523  76.370  1.00  0.00     0.293 HD
ENDBRANCH  17  20
ENDBRANCH   1  12
BRANCH   6  22
ATOM     22  O   UNL     1     144.028 -16.838  79.654  1.00  0.00    -0.507 OA
ATOM     23  H   UNL     1     144.779 -17.315  80.129  1.00  0.00     0.293 HD
ENDBRANCH   6  22
BRANCH   8  24
ATOM     24  O   UNL     1     141.459 -13.922  82.476  1.00  0.00    -0.508 OA
ATOM     25  H   UNL     1     140.832 -13.146  82.298  1.00  0.00     0.293 HD
ENDBRANCH   8  24
TORSDOF 5
ENDMDL
MODEL 8
REMARK VINA RESULT:    -8.317      1.472      1.544
REMARK INTER + INTRA:         -10.044
REMARK INTER:                  -9.758
REMARK INTRA:                  -0.286
REMARK UNBOUND:                -0.268
REMARK SMILES O=c1cc(-c2ccc(O)c(O)c2)oc2cc(O)cc(O)c12
REMARK SMILES IDX 4 1 3 2 2 3 1 4 21 5 19 6 18 7 16 8 15 9 14 10 13 11 5 12
REMARK SMILES IDX 6 13 7 14 8 15 12 16 10 17 9 18 11 20 20 22 17 24
REMARK H PARENT 9 19 11 21 20 23 17 25
REMARK Flexibility Score: inf
ROOT
ATOM      1  C   UNL     1     141.018 -19.817  79.144  1.00  0.00     0.138 A 
ATOM      2  C   UNL     1     139.672 -20.207  79.100  1.00  0.00     0.100 A 
ATOM      3  C   UNL     1     138.687 -19.348  79.588  1.00  0.00     0.197 A 
ATOM      4  O   UNL     1     137.484 -19.702  79.478  1.00  0.00    -0.289 OA
ATOM      5  C   UNL     1     139.055 -18.105  80.153  1.00  0.00     0.107 A 
ATOM      6  C   UNL     1     138.140 -17.166  80.718  1.00  0.00     0.134 A 
ATOM      7  C   UNL     1     138.608 -15.916  81.141  1.00  0.00     0.093 A 
ATOM      8  C   UNL     1     139.966 -15.595  81.076  1.00  0.00     0.123 A 
ATOM      9  C   UNL     1     140.874 -16.524  80.576  1.00  0.00     0.094 A 
ATOM     10  C   UNL     1     140.434 -17.767  80.113  1.00  0.00     0.146 A 
ATOM     11  O   UNL     1     141.332 -18.619  79.630  1.00  0.00    -0.456 OA
ENDROOT
BRANCH   1  12
ATOM     12  C   UNL     1     142.106 -20.691  78.641  1.00  0.00     0.021 A 
ATOM     13  C   UNL     1     142.251 -22.020  79.083  1.00  0.00     0.016 A 
ATOM     14  C   UNL     1     143.292 -22.818  78.599  1.00  0.00     0.051 A 
ATOM     15  C   UNL     1     144.207 -22.303  77.674  1.00  0.00     0.157 A 
ATOM     16  C   UNL     1     143.038 -20.178  77.721  1.00  0.00     0.062 A 
ATOM     17  C   UNL     1     144.080 -20.975  77.235  1.00  0.00     0.158 A 
BRANCH  15  18
ATOM     18  O   UNL     1     145.243 -23.103  77.193  1.00  0.00    -0.504 OA
ATOM     19  H   UNL     1     145.450 -24.006  77.603  1.00  0.00     0.293 HD
ENDBRANCH  15  18
BRANCH  17  20
ATOM     20  O   UNL     1     144.978 -20.431  76.317  1.00  0.00    -0.504 OA
ATOM     21  H   UNL     1     145.749 -19.839  76.605  1.00  0.00     0.293 HD
ENDBRANCH  17  20
ENDBRANCH   1  12
BRANCH   6  22
ATOM     22  O   UNL     1     136.778 -17.419  80.907  1.00  0.00    -0.507 OA
ATOM     23  H   UNL     1     136.358 -17.681  81.786  1.00  0.00     0.293 HD
ENDBRANCH   6  22
BRANCH   8  24
ATOM     24  O   UNL     1     140.424 -14.354  81.514  1.00  0.00    -0.508 OA
ATOM     25  H   UNL     1     141.356 -14.024  81.292  1.00  0.00     0.293 HD
ENDBRANCH   8  24
TORSDOF 5
ENDMDL
MODEL 9
REMARK VINA RESULT:    -8.161      5.195      7.755
REMARK INTER + INTRA:          -9.861
REMARK INTER:                  -9.559
REMARK INTRA:                  -0.302
REMARK UNBOUND:                -0.268
REMARK SMILES O=c1cc(-c2ccc(O)c(O)c2)oc2cc(O)cc(O)c12
REMARK SMILES IDX 4 1 3 2 2 3 1 4 21 5 19 6 18 7 16 8 15 9 14 10 13 11 5 12
REMARK SMILES IDX 6 13 7 14 8 15 12 16 10 17 9 18 11 20 20 22 17 24
REMARK H PARENT 9 19 11 21 20 23 17 25
REMARK Flexibility Score: inf
ROOT
ATOM      1  C   UNL     1     135.196 -19.784  77.023  1.00  0.00     0.138 A 
ATOM      2  C   UNL     1     133.954 -19.277  77.429  1.00  0.00     0.100 A 
ATOM      3  C   UNL     1     133.007 -18.919  76.470  1.00  0.00     0.197 A 
ATOM      4  O   UNL     1     131.879 -18.525  76.867  1.00  0.00    -0.289 OA
ATOM      5  C   UNL     1     133.318 -19.038  75.095  1.00  0.00     0.107 A 
ATOM      6  C   UNL     1     132.445 -18.665  74.029  1.00  0.00     0.134 A 
ATOM      7  C   UNL     1     132.816 -18.939  72.707  1.00  0.00     0.093 A 
ATOM      8  C   UNL     1     134.053 -19.516  72.410  1.00  0.00     0.123 A 
ATOM      9  C   UNL     1     134.934 -19.835  73.440  1.00  0.00     0.094 A 
ATOM     10  C   UNL     1     134.579 -19.606  74.772  1.00  0.00     0.146 A 
ATOM     11  O   UNL     1     135.443 -19.938  75.725  1.00  0.00    -0.456 OA
ENDROOT
BRANCH   1  12
ATOM     12  C   UNL     1     136.241 -20.180  78.000  1.00  0.00     0.021 A 
ATOM     13  C   UNL     1     135.912 -20.728  79.254  1.00  0.00     0.016 A 
ATOM     14  C   UNL     1     136.916 -21.083  80.158  1.00  0.00     0.051 A 
ATOM     15  C   UNL     1     138.263 -20.890  79.831  1.00  0.00     0.157 A 
ATOM     16  C   UNL     1     137.597 -19.978  77.685  1.00  0.00     0.062 A 
ATOM     17  C   UNL     1     138.604 -20.332  78.589  1.00  0.00     0.158 A 
BRANCH  15  18
ATOM     18  O   UNL     1     139.262 -21.246  80.736  1.00  0.00    -0.504 OA
ATOM     19  H   UNL     1     140.228 -20.972  80.595  1.00  0.00     0.293 HD
ENDBRANCH  15  18
BRANCH  17  20
ATOM     20  O   UNL     1     139.937 -20.123  78.234  1.00  0.00    -0.504 OA
ATOM     21  H   UNL     1     140.704 -20.468  78.798  1.00  0.00     0.293 HD
ENDBRANCH  17  20
ENDBRANCH   1  12
BRANCH   6  22
ATOM     22  O   UNL     1     131.226 -18.007  74.212  1.00  0.00    -0.507 OA
ATOM     23  H   UNL     1     131.125 -17.067  74.564  1.00  0.00     0.293 HD
ENDBRANCH   6  22
BRANCH   8  24
ATOM     24  O   UNL     1     134.420 -19.770  71.089  1.00  0.00    -0.508 OA
ATOM     25  H   UNL     1     133.768 -19.640  70.324  1.00  0.00     0.293 HD
ENDBRANCH   8  24
TORSDOF 5
ENDMDL
