MODEL 1
REMARK VINA RESULT:    -6.035      0.000      0.000
REMARK INTER + INTRA:         -18.455
REMARK INTER:                 -15.209
REMARK INTRA:                  -3.246
REMARK UNBOUND:                -3.246
REMARK SMILES CCCCCCCCCCCCCCCCCCCCCCCCCCCC(=O)[O-]
REMARK SMILES IDX 15 1 16 2 17 3 18 4 19 5 20 6 21 7 22 8 23 9 24 10 25 11
REMARK SMILES IDX 26 12 27 13 28 14 29 15 30 16 14 17 13 18 12 19 11 20 10 21
REMARK SMILES IDX 9 22 8 23 7 24 6 25 5 26 4 27 3 28 2 29 1 30
REMARK H PARENT
REMARK Flexibility Score: inf
ROOT
ATOM      1  C   UNL     1      87.993 320.710 200.429  1.00  0.00     0.000 C 
ENDROOT
BRANCH   1   2
ATOM      2  C   UNL     1      87.363 321.121 199.090  1.00  0.00     0.000 C 
BRANCH   2   3
ATOM      3  C   UNL     1      87.216 319.908 198.158  1.00  0.00     0.000 C 
BRANCH   3   4
ATOM      4  C   UNL     1      86.426 320.236 196.879  1.00  0.00     0.000 C 
BRANCH   4   5
ATOM      5  C   UNL     1      87.342 320.594 195.697  1.00  0.00     0.000 C 
BRANCH   5   6
ATOM      6  C   UNL     1      86.562 321.032 194.443  1.00  0.00     0.000 C 
BRANCH   6   7
ATOM      7  C   UNL     1      85.058 320.700 194.455  1.00  0.00     0.000 C 
BRANCH   7   8
ATOM      8  C   UNL     1      84.705 319.478 193.592  1.00  0.00     0.000 C 
BRANCH   8   9
ATOM      9  C   UNL     1      85.886 318.997 192.731  1.00  0.00     0.000 C 
BRANCH   9  10
ATOM     10  C   UNL     1      86.427 317.611 193.144  1.00  0.00     0.000 C 
BRANCH  10  11
ATOM     11  C   UNL     1      85.968 317.208 194.556  1.00  0.00     0.000 C 
BRANCH  11  12
ATOM     12  C   UNL     1      87.148 316.869 195.486  1.00  0.00     0.006 C 
BRANCH  12  13
ATOM     13  C   UNL     1      86.723 316.446 196.902  1.00  0.00     0.053 C 
BRANCH  13  14
ATOM     14  C   UNL     1      86.046 315.110 196.905  1.00  0.00     0.041 C 
ATOM     15  O   UNL     1      86.718 314.056 197.048  1.00  0.00    -0.550 OA
ATOM     16  O   UNL     1      84.666 315.030 196.763  1.00  0.00    -0.550 OA
ENDBRANCH  13  14
ENDBRANCH  12  13
ENDBRANCH  11  12
ENDBRANCH  10  11
ENDBRANCH   9  10
ENDBRANCH   8   9
ENDBRANCH   7   8
ENDBRANCH   6   7
ENDBRANCH   5   6
ENDBRANCH   4   5
ENDBRANCH   3   4
ENDBRANCH   2   3
ENDBRANCH   1   2
BRANCH   1  17
ATOM     17  C   UNL     1      86.946 320.454 201.526  1.00  0.00     0.000 C 
BRANCH  17  18
ATOM     18  C   UNL     1      87.097 319.066 202.174  1.00  0.00     0.000 C 
BRANCH  18  19
ATOM     19  C   UNL     1      86.011 318.081 201.715  1.00  0.00     0.000 C 
BRANCH  19  20
ATOM     20  C   UNL     1      84.851 317.965 202.721  1.00  0.00     0.000 C 
BRANCH  20  21
ATOM     21  C   UNL     1      85.320 317.509 204.114  1.00  0.00     0.000 C 
BRANCH  21  22
ATOM     22  C   UNL     1      84.753 318.332 205.289  1.00  0.00    -0.000 C 
BRANCH  22  23
ATOM     23  C   UNL     1      85.735 318.572 206.454  1.00  0.00    -0.000 C 
BRANCH  23  24
ATOM     24  C   UNL     1      85.807 320.023 206.961  1.00  0.00    -0.000 C 
BRANCH  24  25
ATOM     25  C   UNL     1      87.221 320.618 206.863  1.00  0.00    -0.000 C 
BRANCH  25  26
ATOM     26  C   UNL     1      87.750 320.654 205.420  1.00  0.00    -0.000 C 
BRANCH  26  27
ATOM     27  C   UNL     1      89.070 321.434 205.290  1.00  0.00    -0.000 C 
BRANCH  27  28
ATOM     28  C   UNL     1      89.490 321.645 203.827  1.00  0.00    -0.000 C 
BRANCH  28  29
ATOM     29  C   UNL     1      90.352 320.492 203.289  1.00  0.00    -0.003 C 
ATOM     30  C   UNL     1      91.835 320.841 203.354  1.00  0.00     0.004 C 
ENDBRANCH  28  29
ENDBRANCH  27  28
ENDBRANCH  26  27
ENDBRANCH  25  26
ENDBRANCH  24  25
ENDBRANCH  23  24
ENDBRANCH  22  23
ENDBRANCH  21  22
ENDBRANCH  20  21
ENDBRANCH  19  20
ENDBRANCH  18  19
ENDBRANCH  17  18
ENDBRANCH   1  17
TORSDOF 26
ENDMDL
MODEL 2
REMARK VINA RESULT:    -6.026      2.671      3.650
REMARK INTER + INTRA:         -18.431
REMARK INTER:                 -15.484
REMARK INTRA:                  -2.947
REMARK UNBOUND:                -3.246
REMARK SMILES CCCCCCCCCCCCCCCCCCCCCCCCCCCC(=O)[O-]
REMARK SMILES IDX 15 1 16 2 17 3 18 4 19 5 20 6 21 7 22 8 23 9 24 10 25 11
REMARK SMILES IDX 26 12 27 13 28 14 29 15 30 16 14 17 13 18 12 19 11 20 10 21
REMARK SMILES IDX 9 22 8 23 7 24 6 25 5 26 4 27 3 28 2 29 1 30
REMARK H PARENT
REMARK Flexibility Score: inf
ROOT
ATOM      1  C   UNL     1      87.565 319.515 200.468  1.00  0.00     0.000 C 
ENDROOT
BRANCH   1   2
ATOM      2  C   UNL     1      87.638 320.895 199.795  1.00  0.00     0.000 C 
BRANCH   2   3
ATOM      3  C   UNL     1      87.197 320.812 198.325  1.00  0.00     0.000 C 
BRANCH   3   4
ATOM      4  C   UNL     1      87.062 319.362 197.829  1.00  0.00     0.000 C 
BRANCH   4   5
ATOM      5  C   UNL     1      87.034 319.266 196.294  1.00  0.00     0.000 C 
BRANCH   5   6
ATOM      6  C   UNL     1      87.276 320.621 195.602  1.00  0.00     0.000 C 
BRANCH   6   7
ATOM      7  C   UNL     1      86.372 320.912 194.391  1.00  0.00     0.000 C 
BRANCH   7   8
ATOM      8  C   UNL     1      85.014 320.195 194.467  1.00  0.00     0.000 C 
BRANCH   8   9
ATOM      9  C   UNL     1      84.729 319.328 193.229  1.00  0.00     0.000 C 
BRANCH   9  10
ATOM     10  C   UNL     1      86.007 318.826 192.520  1.00  0.00     0.000 C 
BRANCH  10  11
ATOM     11  C   UNL     1      85.703 317.720 191.494  1.00  0.00     0.000 C 
BRANCH  11  12
ATOM     12  C   UNL     1      86.784 317.614 190.403  1.00  0.00     0.006 C 
BRANCH  12  13
ATOM     13  C   UNL     1      86.229 317.282 189.008  1.00  0.00     0.053 C 
BRANCH  13  14
ATOM     14  C   UNL     1      86.254 315.810 188.734  1.00  0.00     0.041 C 
ATOM     15  O   UNL     1      85.307 315.075 189.118  1.00  0.00    -0.550 OA
ATOM     16  O   UNL     1      87.320 315.249 188.041  1.00  0.00    -0.550 OA
ENDBRANCH  13  14
ENDBRANCH  12  13
ENDBRANCH  11  12
ENDBRANCH  10  11
ENDBRANCH   9  10
ENDBRANCH   8   9
ENDBRANCH   7   8
ENDBRANCH   6   7
ENDBRANCH   5   6
ENDBRANCH   4   5
ENDBRANCH   3   4
ENDBRANCH   2   3
ENDBRANCH   1   2
BRANCH   1  17
ATOM     17  C   UNL     1      86.772 319.536 201.785  1.00  0.00     0.000 C 
BRANCH  17  18
ATOM     18  C   UNL     1      86.213 318.153 202.160  1.00  0.00     0.000 C 
BRANCH  18  19
ATOM     19  C   UNL     1      85.164 318.225 203.280  1.00  0.00     0.000 C 
BRANCH  19  20
ATOM     20  C   UNL     1      85.770 317.998 204.677  1.00  0.00     0.000 C 
BRANCH  20  21
ATOM     21  C   UNL     1      84.910 318.604 205.800  1.00  0.00     0.000 C 
BRANCH  21  22
ATOM     22  C   UNL     1      85.611 319.695 206.635  1.00  0.00    -0.000 C 
BRANCH  22  23
ATOM     23  C   UNL     1      87.101 319.914 206.306  1.00  0.00    -0.000 C 
BRANCH  23  24
ATOM     24  C   UNL     1      87.475 321.347 205.885  1.00  0.00    -0.000 C 
BRANCH  24  25
ATOM     25  C   UNL     1      87.871 321.448 204.403  1.00  0.00    -0.000 C 
BRANCH  25  26
ATOM     26  C   UNL     1      89.385 321.627 204.206  1.00  0.00    -0.000 C 
BRANCH  26  27
ATOM     27  C   UNL     1      89.841 321.301 202.773  1.00  0.00    -0.000 C 
BRANCH  27  28
ATOM     28  C   UNL     1      90.825 320.122 202.719  1.00  0.00    -0.000 C 
BRANCH  28  29
ATOM     29  C   UNL     1      90.709 319.201 203.943  1.00  0.00    -0.003 C 
ATOM     30  C   UNL     1      89.616 318.158 203.740  1.00  0.00     0.004 C 
ENDBRANCH  28  29
ENDBRANCH  27  28
ENDBRANCH  26  27
ENDBRANCH  25  26
ENDBRANCH  24  25
ENDBRANCH  23  24
ENDBRANCH  22  23
ENDBRANCH  21  22
ENDBRANCH  20  21
ENDBRANCH  19  20
ENDBRANCH  18  19
ENDBRANCH  17  18
ENDBRANCH   1  17
TORSDOF 26
ENDMDL
MODEL 3
REMARK VINA RESULT:    -5.949      1.403      3.394
REMARK INTER + INTRA:         -18.238
REMARK INTER:                 -14.423
REMARK INTRA:                  -3.815
REMARK UNBOUND:                -3.246
REMARK SMILES CCCCCCCCCCCCCCCCCCCCCCCCCCCC(=O)[O-]
REMARK SMILES IDX 15 1 16 2 17 3 18 4 19 5 20 6 21 7 22 8 23 9 24 10 25 11
REMARK SMILES IDX 26 12 27 13 28 14 29 15 30 16 14 17 13 18 12 19 11 20 10 21
REMARK SMILES IDX 9 22 8 23 7 24 6 25 5 26 4 27 3 28 2 29 1 30
REMARK H PARENT
REMARK Flexibility Score: inf
ROOT
ATOM      1  C   UNL     1      87.264 319.962 199.349  1.00  0.00     0.000 C 
ENDROOT
BRANCH   1   2
ATOM      2  C   UNL     1      87.090 321.027 198.255  1.00  0.00     0.000 C 
BRANCH   2   3
ATOM      3  C   UNL     1      86.548 320.400 196.961  1.00  0.00     0.000 C 
BRANCH   3   4
ATOM      4  C   UNL     1      87.438 320.697 195.741  1.00  0.00     0.000 C 
BRANCH   4   5
ATOM      5  C   UNL     1      86.622 320.910 194.456  1.00  0.00     0.000 C 
BRANCH   5   6
ATOM      6  C   UNL     1      85.153 320.470 194.597  1.00  0.00     0.000 C 
BRANCH   6   7
ATOM      7  C   UNL     1      84.662 319.465 193.539  1.00  0.00     0.000 C 
BRANCH   7   8
ATOM      8  C   UNL     1      85.799 318.902 192.671  1.00  0.00     0.000 C 
BRANCH   8   9
ATOM      9  C   UNL     1      86.103 317.425 192.974  1.00  0.00     0.000 C 
BRANCH   9  10
ATOM     10  C   UNL     1      86.894 317.213 194.284  1.00  0.00     0.000 C 
BRANCH  10  11
ATOM     11  C   UNL     1      85.998 316.705 195.427  1.00  0.00     0.000 C 
BRANCH  11  12
ATOM     12  C   UNL     1      86.662 316.855 196.808  1.00  0.00     0.006 C 
BRANCH  12  13
ATOM     13  C   UNL     1      88.186 317.052 196.748  1.00  0.00     0.053 C 
BRANCH  13  14
ATOM     14  C   UNL     1      88.908 316.105 197.656  1.00  0.00     0.041 C 
ATOM     15  O   UNL     1      90.026 316.417 198.142  1.00  0.00    -0.550 OA
ATOM     16  O   UNL     1      88.338 314.879 197.978  1.00  0.00    -0.550 OA
ENDBRANCH  13  14
ENDBRANCH  12  13
ENDBRANCH  11  12
ENDBRANCH  10  11
ENDBRANCH   9  10
ENDBRANCH   8   9
ENDBRANCH   7   8
ENDBRANCH   6   7
ENDBRANCH   5   6
ENDBRANCH   4   5
ENDBRANCH   3   4
ENDBRANCH   2   3
ENDBRANCH   1   2
BRANCH   1  17
ATOM     17  C   UNL     1      88.056 320.479 200.562  1.00  0.00     0.000 C 
BRANCH  17  18
ATOM     18  C   UNL     1      87.216 320.500 201.851  1.00  0.00     0.000 C 
BRANCH  18  19
ATOM     19  C   UNL     1      88.079 320.407 203.118  1.00  0.00     0.000 C 
BRANCH  19  20
ATOM     20  C   UNL     1      87.639 321.399 204.210  1.00  0.00     0.000 C 
BRANCH  20  21
ATOM     21  C   UNL     1      88.434 321.232 205.517  1.00  0.00     0.000 C 
BRANCH  21  22
ATOM     22  C   UNL     1      87.574 320.976 206.770  1.00  0.00    -0.000 C 
BRANCH  22  23
ATOM     23  C   UNL     1      86.905 319.588 206.834  1.00  0.00    -0.000 C 
BRANCH  23  24
ATOM     24  C   UNL     1      85.371 319.595 206.712  1.00  0.00    -0.000 C 
BRANCH  24  25
ATOM     25  C   UNL     1      84.858 318.665 205.599  1.00  0.00    -0.000 C 
BRANCH  25  26
ATOM     26  C   UNL     1      85.991 317.894 204.904  1.00  0.00    -0.000 C 
BRANCH  26  27
ATOM     27  C   UNL     1      85.471 316.833 203.917  1.00  0.00    -0.000 C 
BRANCH  27  28
ATOM     28  C   UNL     1      85.258 317.395 202.503  1.00  0.00    -0.000 C 
BRANCH  28  29
ATOM     29  C   UNL     1      86.356 316.955 201.522  1.00  0.00    -0.003 C 
ATOM     30  C   UNL     1      85.756 316.525 200.188  1.00  0.00     0.004 C 
ENDBRANCH  28  29
ENDBRANCH  27  28
ENDBRANCH  26  27
ENDBRANCH  25  26
ENDBRANCH  24  25
ENDBRANCH  23  24
ENDBRANCH  22  23
ENDBRANCH  21  22
ENDBRANCH  20  21
ENDBRANCH  19  20
ENDBRANCH  18  19
ENDBRANCH  17  18
ENDBRANCH   1  17
TORSDOF 26
ENDMDL
MODEL 4
REMARK VINA RESULT:    -5.946      1.697     10.094
REMARK INTER + INTRA:         -18.229
REMARK INTER:                 -15.295
REMARK INTRA:                  -2.935
REMARK UNBOUND:                -3.246
REMARK SMILES CCCCCCCCCCCCCCCCCCCCCCCCCCCC(=O)[O-]
REMARK SMILES IDX 15 1 16 2 17 3 18 4 19 5 20 6 21 7 22 8 23 9 24 10 25 11
REMARK SMILES IDX 26 12 27 13 28 14 29 15 30 16 14 17 13 18 12 19 11 20 10 21
REMARK SMILES IDX 9 22 8 23 7 24 6 25 5 26 4 27 3 28 2 29 1 30
REMARK H PARENT
REMARK Flexibility Score: inf
ROOT
ATOM      1  C   UNL     1      87.492 319.279 198.739  1.00  0.00     0.000 C 
ENDROOT
BRANCH   1   2
ATOM      2  C   UNL     1      88.166 319.378 200.116  1.00  0.00     0.000 C 
BRANCH   2   3
ATOM      3  C   UNL     1      87.840 320.719 200.791  1.00  0.00     0.000 C 
BRANCH   3   4
ATOM      4  C   UNL     1      87.230 320.543 202.193  1.00  0.00     0.000 C 
BRANCH   4   5
ATOM      5  C   UNL     1      88.226 320.879 203.315  1.00  0.00     0.000 C 
BRANCH   5   6
ATOM      6  C   UNL     1      87.555 321.526 204.541  1.00  0.00     0.000 C 
BRANCH   6   7
ATOM      7  C   UNL     1      88.317 321.366 205.869  1.00  0.00     0.000 C 
BRANCH   7   8
ATOM      8  C   UNL     1      87.630 320.396 206.844  1.00  0.00     0.000 C 
BRANCH   8   9
ATOM      9  C   UNL     1      86.132 320.214 206.544  1.00  0.00     0.000 C 
BRANCH   9  10
ATOM     10  C   UNL     1      85.704 318.735 206.413  1.00  0.00     0.000 C 
BRANCH  10  11
ATOM     11  C   UNL     1      84.752 318.512 205.224  1.00  0.00     0.000 C 
BRANCH  11  12
ATOM     12  C   UNL     1      85.440 317.801 204.044  1.00  0.00     0.006 C 
BRANCH  12  13
ATOM     13  C   UNL     1      84.680 317.928 202.713  1.00  0.00     0.053 C 
BRANCH  13  14
ATOM     14  C   UNL     1      84.910 316.745 201.824  1.00  0.00     0.041 C 
ATOM     15  O   UNL     1      84.605 315.587 202.214  1.00  0.00    -0.550 OA
ATOM     16  O   UNL     1      85.450 316.921 200.556  1.00  0.00    -0.550 OA
ENDBRANCH  13  14
ENDBRANCH  12  13
ENDBRANCH  11  12
ENDBRANCH  10  11
ENDBRANCH   9  10
ENDBRANCH   8   9
ENDBRANCH   7   8
ENDBRANCH   6   7
ENDBRANCH   5   6
ENDBRANCH   4   5
ENDBRANCH   3   4
ENDBRANCH   2   3
ENDBRANCH   1   2
BRANCH   1  17
ATOM     17  C   UNL     1      86.993 320.639 198.222  1.00  0.00     0.000 C 
BRANCH  17  18
ATOM     18  C   UNL     1      86.286 320.530 196.860  1.00  0.00     0.000 C 
BRANCH  18  19
ATOM     19  C   UNL     1      87.258 320.664 195.679  1.00  0.00     0.000 C 
BRANCH  19  20
ATOM     20  C   UNL     1      86.553 321.065 194.371  1.00  0.00     0.000 C 
BRANCH  20  21
ATOM     21  C   UNL     1      85.125 320.501 194.272  1.00  0.00     0.000 C 
BRANCH  21  22
ATOM     22  C   UNL     1      84.979 319.259 193.369  1.00  0.00    -0.000 C 
BRANCH  22  23
ATOM     23  C   UNL     1      86.230 318.902 192.541  1.00  0.00    -0.000 C 
BRANCH  23  24
ATOM     24  C   UNL     1      85.961 318.070 191.275  1.00  0.00    -0.000 C 
BRANCH  24  25
ATOM     25  C   UNL     1      86.700 316.722 191.281  1.00  0.00    -0.000 C 
BRANCH  25  26
ATOM     26  C   UNL     1      86.025 315.681 192.189  1.00  0.00    -0.000 C 
BRANCH  26  27
ATOM     27  C   UNL     1      86.961 315.157 193.292  1.00  0.00    -0.000 C 
BRANCH  27  28
ATOM     28  C   UNL     1      86.243 314.968 194.637  1.00  0.00    -0.000 C 
BRANCH  28  29
ATOM     29  C   UNL     1      86.998 315.621 195.805  1.00  0.00    -0.003 C 
ATOM     30  C   UNL     1      87.185 317.116 195.568  1.00  0.00     0.004 C 
ENDBRANCH  28  29
ENDBRANCH  27  28
ENDBRANCH  26  27
ENDBRANCH  25  26
ENDBRANCH  24  25
ENDBRANCH  23  24
ENDBRANCH  22  23
ENDBRANCH  21  22
ENDBRANCH  20  21
ENDBRANCH  19  20
ENDBRANCH  18  19
ENDBRANCH  17  18
ENDBRANCH   1  17
TORSDOF 26
ENDMDL
MODEL 5
REMARK VINA RESULT:    -5.887      1.939      4.563
REMARK INTER + INTRA:         -18.081
REMARK INTER:                 -15.321
REMARK INTRA:                  -2.760
REMARK UNBOUND:                -3.246
REMARK SMILES CCCCCCCCCCCCCCCCCCCCCCCCCCCC(=O)[O-]
REMARK SMILES IDX 15 1 16 2 17 3 18 4 19 5 20 6 21 7 22 8 23 9 24 10 25 11
REMARK SMILES IDX 26 12 27 13 28 14 29 15 30 16 14 17 13 18 12 19 11 20 10 21
REMARK SMILES IDX 9 22 8 23 7 24 6 25 5 26 4 27 3 28 2 29 1 30
REMARK H PARENT
REMARK Flexibility Score: inf
ROOT
ATOM      1  C   UNL     1      88.651 319.779 202.635  1.00  0.00     0.000 C 
ENDROOT
BRANCH   1   2
ATOM      2  C   UNL     1      89.024 319.944 201.154  1.00  0.00     0.000 C 
BRANCH   2   3
ATOM      3  C   UNL     1      87.987 320.810 200.421  1.00  0.00     0.000 C 
BRANCH   3   4
ATOM      4  C   UNL     1      87.321 320.070 199.247  1.00  0.00     0.000 C 
BRANCH   4   5
ATOM      5  C   UNL     1      86.967 321.011 198.084  1.00  0.00     0.000 C 
BRANCH   5   6
ATOM      6  C   UNL     1      86.570 320.257 196.801  1.00  0.00     0.000 C 
BRANCH   6   7
ATOM      7  C   UNL     1      87.436 320.560 195.565  1.00  0.00     0.000 C 
BRANCH   7   8
ATOM      8  C   UNL     1      86.616 321.055 194.362  1.00  0.00     0.000 C 
BRANCH   8   9
ATOM      9  C   UNL     1      85.171 320.527 194.370  1.00  0.00     0.000 C 
BRANCH   9  10
ATOM     10  C   UNL     1      84.934 319.364 193.382  1.00  0.00     0.000 C 
BRANCH  10  11
ATOM     11  C   UNL     1      86.189 319.045 192.550  1.00  0.00     0.000 C 
BRANCH  11  12
ATOM     12  C   UNL     1      85.924 317.984 191.466  1.00  0.00     0.006 C 
BRANCH  12  13
ATOM     13  C   UNL     1      84.459 317.523 191.391  1.00  0.00     0.053 C 
BRANCH  13  14
ATOM     14  C   UNL     1      84.340 316.031 191.446  1.00  0.00     0.041 C 
ATOM     15  O   UNL     1      84.173 315.446 192.549  1.00  0.00    -0.550 OA
ATOM     16  O   UNL     1      84.401 315.284 190.276  1.00  0.00    -0.550 OA
ENDBRANCH  13  14
ENDBRANCH  12  13
ENDBRANCH  11  12
ENDBRANCH  10  11
ENDBRANCH   9  10
ENDBRANCH   8   9
ENDBRANCH   7   8
ENDBRANCH   6   7
ENDBRANCH   5   6
ENDBRANCH   4   5
ENDBRANCH   3   4
ENDBRANCH   2   3
ENDBRANCH   1   2
BRANCH   1  17
ATOM     17  C   UNL     1      87.655 320.846 203.120  1.00  0.00     0.000 C 
BRANCH  17  18
ATOM     18  C   UNL     1      88.171 321.623 204.343  1.00  0.00     0.000 C 
BRANCH  18  19
ATOM     19  C   UNL     1      87.396 321.285 205.626  1.00  0.00     0.000 C 
BRANCH  19  20
ATOM     20  C   UNL     1      87.961 320.052 206.354  1.00  0.00     0.000 C 
BRANCH  20  21
ATOM     21  C   UNL     1      87.055 318.816 206.214  1.00  0.00     0.000 C 
BRANCH  21  22
ATOM     22  C   UNL     1      85.548 319.096 206.382  1.00  0.00    -0.000 C 
BRANCH  22  23
ATOM     23  C   UNL     1      84.642 318.475 205.300  1.00  0.00    -0.000 C 
BRANCH  23  24
ATOM     24  C   UNL     1      85.381 317.698 204.195  1.00  0.00    -0.000 C 
BRANCH  24  25
ATOM     25  C   UNL     1      84.955 318.125 202.781  1.00  0.00    -0.000 C 
BRANCH  25  26
ATOM     26  C   UNL     1      84.376 316.961 201.961  1.00  0.00    -0.000 C 
BRANCH  26  27
ATOM     27  C   UNL     1      85.461 316.147 201.235  1.00  0.00    -0.000 C 
BRANCH  27  28
ATOM     28  C   UNL     1      86.424 317.032 200.428  1.00  0.00    -0.000 C 
BRANCH  28  29
ATOM     29  C   UNL     1      87.068 316.283 199.251  1.00  0.00    -0.003 C 
ATOM     30  C   UNL     1      86.005 315.674 198.343  1.00  0.00     0.004 C 
ENDBRANCH  28  29
ENDBRANCH  27  28
ENDBRANCH  26  27
ENDBRANCH  25  26
ENDBRANCH  24  25
ENDBRANCH  23  24
ENDBRANCH  22  23
ENDBRANCH  21  22
ENDBRANCH  20  21
ENDBRANCH  19  20
ENDBRANCH  18  19
ENDBRANCH  17  18
ENDBRANCH   1  17
TORSDOF 26
ENDMDL
MODEL 6
REMARK VINA RESULT:    -5.877      3.135      4.834
REMARK INTER + INTRA:         -18.056
REMARK INTER:                 -15.359
REMARK INTRA:                  -2.697
REMARK UNBOUND:                -3.246
REMARK SMILES CCCCCCCCCCCCCCCCCCCCCCCCCCCC(=O)[O-]
REMARK SMILES IDX 15 1 16 2 17 3 18 4 19 5 20 6 21 7 22 8 23 9 24 10 25 11
REMARK SMILES IDX 26 12 27 13 28 14 29 15 30 16 14 17 13 18 12 19 11 20 10 21
REMARK SMILES IDX 9 22 8 23 7 24 6 25 5 26 4 27 3 28 2 29 1 30
REMARK H PARENT
REMARK Flexibility Score: inf
ROOT
ATOM      1  C   UNL     1      87.219 320.808 198.675  1.00  0.00     0.000 C 
ENDROOT
BRANCH   1   2
ATOM      2  C   UNL     1      87.141 319.350 198.199  1.00  0.00     0.000 C 
BRANCH   2   3
ATOM      3  C   UNL     1      86.932 319.280 196.678  1.00  0.00     0.000 C 
BRANCH   3   4
ATOM      4  C   UNL     1      87.373 320.567 195.960  1.00  0.00     0.000 C 
BRANCH   4   5
ATOM      5  C   UNL     1      86.492 320.893 194.742  1.00  0.00     0.000 C 
BRANCH   5   6
ATOM      6  C   UNL     1      85.065 320.329 194.865  1.00  0.00     0.000 C 
BRANCH   6   7
ATOM      7  C   UNL     1      84.476 319.741 193.570  1.00  0.00     0.000 C 
BRANCH   7   8
ATOM      8  C   UNL     1      85.093 318.386 193.189  1.00  0.00     0.000 C 
BRANCH   8   9
ATOM      9  C   UNL     1      86.168 318.508 192.096  1.00  0.00     0.000 C 
BRANCH   9  10
ATOM     10  C   UNL     1      85.884 317.639 190.851  1.00  0.00     0.000 C 
BRANCH  10  11
ATOM     11  C   UNL     1      84.754 316.625 191.098  1.00  0.00     0.000 C 
BRANCH  11  12
ATOM     12  C   UNL     1      84.136 316.099 189.789  1.00  0.00     0.006 C 
BRANCH  12  13
ATOM     13  C   UNL     1      84.916 316.503 188.527  1.00  0.00     0.053 C 
BRANCH  13  14
ATOM     14  C   UNL     1      85.248 315.318 187.674  1.00  0.00     0.041 C 
ATOM     15  O   UNL     1      84.343 314.719 187.036  1.00  0.00    -0.550 OA
ATOM     16  O   UNL     1      86.564 314.882 187.571  1.00  0.00    -0.550 OA
ENDBRANCH  13  14
ENDBRANCH  12  13
ENDBRANCH  11  12
ENDBRANCH  10  11
ENDBRANCH   9  10
ENDBRANCH   8   9
ENDBRANCH   7   8
ENDBRANCH   6   7
ENDBRANCH   5   6
ENDBRANCH   4   5
ENDBRANCH   3   4
ENDBRANCH   2   3
ENDBRANCH   1   2
BRANCH   1  17
ATOM     17  C   UNL     1      87.941 320.956 200.025  1.00  0.00     0.000 C 
BRANCH  17  18
ATOM     18  C   UNL     1      87.252 320.167 201.152  1.00  0.00     0.000 C 
BRANCH  18  19
ATOM     19  C   UNL     1      87.522 320.766 202.541  1.00  0.00     0.000 C 
BRANCH  19  20
ATOM     20  C   UNL     1      88.159 319.754 203.511  1.00  0.00     0.000 C 
BRANCH  20  21
ATOM     21  C   UNL     1      88.558 320.393 204.853  1.00  0.00     0.000 C 
BRANCH  21  22
ATOM     22  C   UNL     1      87.466 321.265 205.505  1.00  0.00    -0.000 C 
BRANCH  22  23
ATOM     23  C   UNL     1      86.566 320.536 206.522  1.00  0.00    -0.000 C 
BRANCH  23  24
ATOM     24  C   UNL     1      87.057 319.141 206.948  1.00  0.00    -0.000 C 
BRANCH  24  25
ATOM     25  C   UNL     1      86.044 318.030 206.629  1.00  0.00    -0.000 C 
BRANCH  25  26
ATOM     26  C   UNL     1      85.109 318.398 205.465  1.00  0.00    -0.000 C 
BRANCH  26  27
ATOM     27  C   UNL     1      85.351 317.537 204.213  1.00  0.00    -0.000 C 
BRANCH  27  28
ATOM     28  C   UNL     1      84.713 318.138 202.950  1.00  0.00    -0.000 C 
BRANCH  28  29
ATOM     29  C   UNL     1      84.504 317.095 201.841  1.00  0.00    -0.003 C 
ATOM     30  C   UNL     1      85.817 316.784 201.130  1.00  0.00     0.004 C 
ENDBRANCH  28  29
ENDBRANCH  27  28
ENDBRANCH  26  27
ENDBRANCH  25  26
ENDBRANCH  24  25
ENDBRANCH  23  24
ENDBRANCH  22  23
ENDBRANCH  21  22
ENDBRANCH  20  21
ENDBRANCH  19  20
ENDBRANCH  18  19
ENDBRANCH  17  18
ENDBRANCH   1  17
TORSDOF 26
ENDMDL
MODEL 7
REMARK VINA RESULT:    -5.848      2.426      9.178
REMARK INTER + INTRA:         -17.983
REMARK INTER:                 -14.557
REMARK INTRA:                  -3.427
REMARK UNBOUND:                -3.246
REMARK SMILES CCCCCCCCCCCCCCCCCCCCCCCCCCCC(=O)[O-]
REMARK SMILES IDX 15 1 16 2 17 3 18 4 19 5 20 6 21 7 22 8 23 9 24 10 25 11
REMARK SMILES IDX 26 12 27 13 28 14 29 15 30 16 14 17 13 18 12 19 11 20 10 21
REMARK SMILES IDX 9 22 8 23 7 24 6 25 5 26 4 27 3 28 2 29 1 30
REMARK H PARENT
REMARK Flexibility Score: inf
ROOT
ATOM      1  C   UNL     1      87.293 320.534 195.716  1.00  0.00     0.000 C 
ENDROOT
BRANCH   1   2
ATOM      2  C   UNL     1      86.464 320.493 197.009  1.00  0.00     0.000 C 
BRANCH   2   3
ATOM      3  C   UNL     1      87.255 321.085 198.186  1.00  0.00     0.000 C 
BRANCH   3   4
ATOM      4  C   UNL     1      87.277 320.155 199.411  1.00  0.00     0.000 C 
BRANCH   4   5
ATOM      5  C   UNL     1      87.937 320.812 200.636  1.00  0.00     0.000 C 
BRANCH   5   6
ATOM      6  C   UNL     1      87.207 320.494 201.954  1.00  0.00     0.000 C 
BRANCH   6   7
ATOM      7  C   UNL     1      88.114 320.342 203.189  1.00  0.00     0.000 C 
BRANCH   7   8
ATOM      8  C   UNL     1      88.017 321.532 204.157  1.00  0.00     0.000 C 
BRANCH   8   9
ATOM      9  C   UNL     1      88.248 321.126 205.622  1.00  0.00     0.000 C 
BRANCH   9  10
ATOM     10  C   UNL     1      86.941 320.890 206.411  1.00  0.00     0.000 C 
BRANCH  10  11
ATOM     11  C   UNL     1      86.639 319.393 206.597  1.00  0.00     0.000 C 
BRANCH  11  12
ATOM     12  C   UNL     1      85.182 319.038 206.248  1.00  0.00     0.006 C 
BRANCH  12  13
ATOM     13  C   UNL     1      85.020 318.336 204.890  1.00  0.00     0.053 C 
BRANCH  13  14
ATOM     14  C   UNL     1      85.749 317.029 204.847  1.00  0.00     0.041 C 
ATOM     15  O   UNL     1      86.734 316.874 204.078  1.00  0.00    -0.550 OA
ATOM     16  O   UNL     1      85.348 315.981 205.667  1.00  0.00    -0.550 OA
ENDBRANCH  13  14
ENDBRANCH  12  13
ENDBRANCH  11  12
ENDBRANCH  10  11
ENDBRANCH   9  10
ENDBRANCH   8   9
ENDBRANCH   7   8
ENDBRANCH   6   7
ENDBRANCH   5   6
ENDBRANCH   4   5
ENDBRANCH   3   4
ENDBRANCH   2   3
ENDBRANCH   1   2
BRANCH   1  17
ATOM     17  C   UNL     1      86.449 320.888 194.479  1.00  0.00     0.000 C 
BRANCH  17  18
ATOM     18  C   UNL     1      85.071 320.205 194.489  1.00  0.00     0.000 C 
BRANCH  18  19
ATOM     19  C   UNL     1      84.852 319.301 193.266  1.00  0.00     0.000 C 
BRANCH  19  20
ATOM     20  C   UNL     1      86.166 318.945 192.548  1.00  0.00     0.000 C 
BRANCH  20  21
ATOM     21  C   UNL     1      86.221 317.471 192.111  1.00  0.00     0.000 C 
BRANCH  21  22
ATOM     22  C   UNL     1      86.055 316.450 193.255  1.00  0.00    -0.000 C 
BRANCH  22  23
ATOM     23  C   UNL     1      86.971 316.678 194.474  1.00  0.00    -0.000 C 
BRANCH  23  24
ATOM     24  C   UNL     1      86.239 316.917 195.806  1.00  0.00    -0.000 C 
BRANCH  24  25
ATOM     25  C   UNL     1      87.203 317.116 196.987  1.00  0.00    -0.000 C 
BRANCH  25  26
ATOM     26  C   UNL     1      86.865 316.215 198.186  1.00  0.00    -0.000 C 
BRANCH  26  27
ATOM     27  C   UNL     1      87.659 316.586 199.451  1.00  0.00    -0.000 C 
BRANCH  27  28
ATOM     28  C   UNL     1      86.750 316.876 200.656  1.00  0.00    -0.000 C 
BRANCH  28  29
ATOM     29  C   UNL     1      85.454 316.051 200.629  1.00  0.00    -0.003 C 
ATOM     30  C   UNL     1      84.325 316.784 201.347  1.00  0.00     0.004 C 
ENDBRANCH  28  29
ENDBRANCH  27  28
ENDBRANCH  26  27
ENDBRANCH  25  26
ENDBRANCH  24  25
ENDBRANCH  23  24
ENDBRANCH  22  23
ENDBRANCH  21  22
ENDBRANCH  20  21
ENDBRANCH  19  20
ENDBRANCH  18  19
ENDBRANCH  17  18
ENDBRANCH   1  17
TORSDOF 26
ENDMDL
MODEL 8
REMARK VINA RESULT:    -5.813      1.217      3.674
REMARK INTER + INTRA:         -17.895
REMARK INTER:                 -14.569
REMARK INTRA:                  -3.327
REMARK UNBOUND:                -3.246
REMARK SMILES CCCCCCCCCCCCCCCCCCCCCCCCCCCC(=O)[O-]
REMARK SMILES IDX 15 1 16 2 17 3 18 4 19 5 20 6 21 7 22 8 23 9 24 10 25 11
REMARK SMILES IDX 26 12 27 13 28 14 29 15 30 16 14 17 13 18 12 19 11 20 10 21
REMARK SMILES IDX 9 22 8 23 7 24 6 25 5 26 4 27 3 28 2 29 1 30
REMARK H PARENT
REMARK Flexibility Score: inf
ROOT
ATOM      1  C   UNL     1      86.983 320.273 201.441  1.00  0.00     0.000 C 
ENDROOT
BRANCH   1   2
ATOM      2  C   UNL     1      87.926 320.861 200.380  1.00  0.00     0.000 C 
BRANCH   2   3
ATOM      3  C   UNL     1      87.281 320.814 198.986  1.00  0.00     0.000 C 
BRANCH   3   4
ATOM      4  C   UNL     1      87.364 319.420 198.341  1.00  0.00     0.000 C 
BRANCH   4   5
ATOM      5  C   UNL     1      86.833 319.407 196.898  1.00  0.00     0.000 C 
BRANCH   5   6
ATOM      6  C   UNL     1      87.331 320.602 196.063  1.00  0.00     0.000 C 
BRANCH   6   7
ATOM      7  C   UNL     1      86.574 320.846 194.745  1.00  0.00     0.000 C 
BRANCH   7   8
ATOM      8  C   UNL     1      85.061 320.600 194.866  1.00  0.00     0.000 C 
BRANCH   8   9
ATOM      9  C   UNL     1      84.482 319.854 193.652  1.00  0.00     0.000 C 
BRANCH   9  10
ATOM     10  C   UNL     1      85.367 318.686 193.164  1.00  0.00     0.000 C 
BRANCH  10  11
ATOM     11  C   UNL     1      85.313 317.481 194.120  1.00  0.00     0.000 C 
BRANCH  11  12
ATOM     12  C   UNL     1      86.708 316.893 194.406  1.00  0.00     0.006 C 
BRANCH  12  13
ATOM     13  C   UNL     1      86.711 315.796 195.483  1.00  0.00     0.053 C 
BRANCH  13  14
ATOM     14  C   UNL     1      85.524 314.891 195.362  1.00  0.00     0.041 C 
ATOM     15  O   UNL     1      84.692 314.802 196.302  1.00  0.00    -0.550 OA
ATOM     16  O   UNL     1      85.327 314.153 194.200  1.00  0.00    -0.550 OA
ENDBRANCH  13  14
ENDBRANCH  12  13
ENDBRANCH  11  12
ENDBRANCH  10  11
ENDBRANCH   9  10
ENDBRANCH   8   9
ENDBRANCH   7   8
ENDBRANCH   6   7
ENDBRANCH   5   6
ENDBRANCH   4   5
ENDBRANCH   3   4
ENDBRANCH   2   3
ENDBRANCH   1   2
BRANCH   1  17
ATOM     17  C   UNL     1      87.697 319.964 202.767  1.00  0.00     0.000 C 
BRANCH  17  18
ATOM     18  C   UNL     1      88.383 321.201 203.371  1.00  0.00     0.000 C 
BRANCH  18  19
ATOM     19  C   UNL     1      87.752 321.633 204.703  1.00  0.00     0.000 C 
BRANCH  19  20
ATOM     20  C   UNL     1      88.627 321.275 205.918  1.00  0.00     0.000 C 
BRANCH  20  21
ATOM     21  C   UNL     1      87.844 320.524 207.009  1.00  0.00     0.000 C 
BRANCH  21  22
ATOM     22  C   UNL     1      86.314 320.519 206.821  1.00  0.00    -0.000 C 
BRANCH  22  23
ATOM     23  C   UNL     1      85.665 319.121 206.770  1.00  0.00    -0.000 C 
BRANCH  23  24
ATOM     24  C   UNL     1      85.325 318.609 205.359  1.00  0.00    -0.000 C 
BRANCH  24  25
ATOM     25  C   UNL     1      85.305 317.074 205.272  1.00  0.00    -0.000 C 
BRANCH  25  26
ATOM     26  C   UNL     1      85.367 316.562 203.824  1.00  0.00    -0.000 C 
BRANCH  26  27
ATOM     27  C   UNL     1      84.776 317.563 202.814  1.00  0.00    -0.000 C 
BRANCH  27  28
ATOM     28  C   UNL     1      84.629 316.964 201.406  1.00  0.00    -0.000 C 
BRANCH  28  29
ATOM     29  C   UNL     1      85.974 316.846 200.671  1.00  0.00    -0.003 C 
ATOM     30  C   UNL     1      85.822 316.053 199.378  1.00  0.00     0.004 C 
ENDBRANCH  28  29
ENDBRANCH  27  28
ENDBRANCH  26  27
ENDBRANCH  25  26
ENDBRANCH  24  25
ENDBRANCH  23  24
ENDBRANCH  22  23
ENDBRANCH  21  22
ENDBRANCH  20  21
ENDBRANCH  19  20
ENDBRANCH  18  19
ENDBRANCH  17  18
ENDBRANCH   1  17
TORSDOF 26
ENDMDL
MODEL 9
REMARK VINA RESULT:    -5.804      1.267      2.914
REMARK INTER + INTRA:         -17.873
REMARK INTER:                 -14.157
REMARK INTRA:                  -3.716
REMARK UNBOUND:                -3.246
REMARK SMILES CCCCCCCCCCCCCCCCCCCCCCCCCCCC(=O)[O-]
REMARK SMILES IDX 15 1 16 2 17 3 18 4 19 5 20 6 21 7 22 8 23 9 24 10 25 11
REMARK SMILES IDX 26 12 27 13 28 14 29 15 30 16 14 17 13 18 12 19 11 20 10 21
REMARK SMILES IDX 9 22 8 23 7 24 6 25 5 26 4 27 3 28 2 29 1 30
REMARK H PARENT
REMARK Flexibility Score: inf
ROOT
ATOM      1  C   UNL     1      87.121 318.897 202.060  1.00  0.00     0.000 C 
ENDROOT
BRANCH   1   2
ATOM      2  C   UNL     1      86.993 320.375 201.664  1.00  0.00     0.000 C 
BRANCH   2   3
ATOM      3  C   UNL     1      87.956 320.720 200.516  1.00  0.00     0.000 C 
BRANCH   3   4
ATOM      4  C   UNL     1      87.220 321.142 199.232  1.00  0.00     0.000 C 
BRANCH   4   5
ATOM      5  C   UNL     1      87.262 320.054 198.146  1.00  0.00     0.000 C 
BRANCH   5   6
ATOM      6  C   UNL     1      86.439 320.419 196.897  1.00  0.00     0.000 C 
BRANCH   6   7
ATOM      7  C   UNL     1      87.254 320.612 195.605  1.00  0.00     0.000 C 
BRANCH   7   8
ATOM      8  C   UNL     1      86.389 321.029 194.405  1.00  0.00     0.000 C 
BRANCH   8   9
ATOM      9  C   UNL     1      84.987 320.398 194.435  1.00  0.00     0.000 C 
BRANCH   9  10
ATOM     10  C   UNL     1      84.696 319.482 193.226  1.00  0.00     0.000 C 
BRANCH  10  11
ATOM     11  C   UNL     1      85.982 318.883 192.631  1.00  0.00     0.000 C 
BRANCH  11  12
ATOM     12  C   UNL     1      86.204 317.420 193.057  1.00  0.00     0.006 C 
BRANCH  12  13
ATOM     13  C   UNL     1      87.054 317.264 194.329  1.00  0.00     0.053 C 
BRANCH  13  14
ATOM     14  C   UNL     1      86.255 316.714 195.470  1.00  0.00     0.041 C 
ATOM     15  O   UNL     1      85.194 316.071 195.253  1.00  0.00    -0.550 OA
ATOM     16  O   UNL     1      86.689 316.899 196.777  1.00  0.00    -0.550 OA
ENDBRANCH  13  14
ENDBRANCH  12  13
ENDBRANCH  11  12
ENDBRANCH  10  11
ENDBRANCH   9  10
ENDBRANCH   8   9
ENDBRANCH   7   8
ENDBRANCH   6   7
ENDBRANCH   5   6
ENDBRANCH   4   5
ENDBRANCH   3   4
ENDBRANCH   2   3
ENDBRANCH   1   2
BRANCH   1  17
ATOM     17  C   UNL     1      86.132 318.489 203.166  1.00  0.00     0.000 C 
BRANCH  17  18
ATOM     18  C   UNL     1      86.728 317.460 204.141  1.00  0.00     0.000 C 
BRANCH  18  19
ATOM     19  C   UNL     1      86.195 317.626 205.572  1.00  0.00     0.000 C 
BRANCH  19  20
ATOM     20  C   UNL     1      85.045 318.645 205.662  1.00  0.00     0.000 C 
BRANCH  20  21
ATOM     21  C   UNL     1      85.295 319.727 206.728  1.00  0.00     0.000 C 
BRANCH  21  22
ATOM     22  C   UNL     1      86.769 320.151 206.886  1.00  0.00    -0.000 C 
BRANCH  22  23
ATOM     23  C   UNL     1      87.323 321.031 205.748  1.00  0.00    -0.000 C 
BRANCH  23  24
ATOM     24  C   UNL     1      88.713 320.628 205.226  1.00  0.00    -0.000 C 
BRANCH  24  25
ATOM     25  C   UNL     1      89.301 321.654 204.243  1.00  0.00    -0.000 C 
BRANCH  25  26
ATOM     26  C   UNL     1      90.420 321.064 203.370  1.00  0.00    -0.000 C 
BRANCH  26  27
ATOM     27  C   UNL     1      90.925 319.705 203.889  1.00  0.00    -0.000 C 
BRANCH  27  28
ATOM     28  C   UNL     1      90.933 318.622 202.799  1.00  0.00    -0.000 C 
BRANCH  28  29
ATOM     29  C   UNL     1      90.694 319.197 201.394  1.00  0.00    -0.003 C 
ATOM     30  C   UNL     1      91.096 318.194 200.318  1.00  0.00     0.004 C 
ENDBRANCH  28  29
ENDBRANCH  27  28
ENDBRANCH  26  27
ENDBRANCH  25  26
ENDBRANCH  24  25
ENDBRANCH  23  24
ENDBRANCH  22  23
ENDBRANCH  21  22
ENDBRANCH  20  21
ENDBRANCH  19  20
ENDBRANCH  18  19
ENDBRANCH  17  18
ENDBRANCH   1  17
TORSDOF 26
ENDMDL
