MODEL 1
REMARK VINA RESULT:    -3.019      0.000      0.000
REMARK INTER + INTRA:          -8.025
REMARK INTER:                  -6.902
REMARK INTRA:                  -1.124
REMARK UNBOUND:                -1.124
REMARK SMILES CCCCCCCCCCCCCCCCCCCCCCCC(=O)[O-]
REMARK SMILES IDX 13 1 14 2 15 3 16 4 17 5 18 6 19 7 20 8 21 9 22 10 23 11
REMARK SMILES IDX 24 12 25 13 26 14 12 15 11 16 10 17 9 18 8 19 7 20 6 21 5 22
REMARK SMILES IDX 4 23 3 24 2 25 1 26
REMARK H PARENT
REMARK Flexibility Score: inf
ROOT
ATOM      1  C   UNL     1      -0.177  19.894  16.918  1.00  0.00     0.000 C 
ENDROOT
BRANCH   1   2
ATOM      2  C   UNL     1       0.668  20.767  15.978  1.00  0.00     0.000 C 
BRANCH   2   3
ATOM      3  C   UNL     1       2.126  20.294  15.879  1.00  0.00     0.000 C 
BRANCH   3   4
ATOM      4  C   UNL     1       3.101  21.213  16.637  1.00  0.00     0.000 C 
BRANCH   4   5
ATOM      5  C   UNL     1       4.538  20.670  16.646  1.00  0.00     0.000 C 
BRANCH   5   6
ATOM      6  C   UNL     1       4.877  19.875  15.375  1.00  0.00     0.000 C 
BRANCH   6   7
ATOM      7  C   UNL     1       5.944  20.597  14.545  1.00  0.00     0.000 C 
BRANCH   7   8
ATOM      8  C   UNL     1       7.353  20.107  14.912  1.00  0.00     0.000 C 
BRANCH   8   9
ATOM      9  C   UNL     1       8.206  21.200  15.574  1.00  0.00     0.000 C 
BRANCH   9  10
ATOM     10  C   UNL     1       9.646  21.235  15.033  1.00  0.00     0.006 C 
BRANCH  10  11
ATOM     11  C   UNL     1       9.772  20.531  13.675  1.00  0.00     0.053 C 
BRANCH  11  12
ATOM     12  C   UNL     1      10.078  21.499  12.573  1.00  0.00     0.041 C 
ATOM     13  O   UNL     1      10.396  21.077  11.429  1.00  0.00    -0.550 OA
ATOM     14  O   UNL     1       9.974  22.866  12.800  1.00  0.00    -0.550 OA
ENDBRANCH  11  12
ENDBRANCH  10  11
ENDBRANCH   9  10
ENDBRANCH   8   9
ENDBRANCH   7   8
ENDBRANCH   6   7
ENDBRANCH   5   6
ENDBRANCH   4   5
ENDBRANCH   3   4
ENDBRANCH   2   3
ENDBRANCH   1   2
BRANCH   1  15
ATOM     15  C   UNL     1      -1.498  20.589  17.273  1.00  0.00     0.000 C 
BRANCH  15  16
ATOM     16  C   UNL     1      -2.728  19.880  16.680  1.00  0.00     0.000 C 
BRANCH  16  17
ATOM     17  C   UNL     1      -3.589  20.742  15.735  1.00  0.00     0.000 C 
BRANCH  17  18
ATOM     18  C   UNL     1      -5.107  20.515  15.839  1.00  0.00    -0.000 C 
BRANCH  18  19
ATOM     19  C   UNL     1      -5.906  21.350  14.823  1.00  0.00    -0.000 C 
BRANCH  19  20
ATOM     20  C   UNL     1      -7.382  20.926  14.745  1.00  0.00    -0.000 C 
BRANCH  20  21
ATOM     21  C   UNL     1      -7.821  20.077  15.952  1.00  0.00    -0.000 C 
BRANCH  21  22
ATOM     22  C   UNL     1      -9.123  20.606  16.592  1.00  0.00    -0.000 C 
BRANCH  22  23
ATOM     23  C   UNL     1      -8.987  20.927  18.091  1.00  0.00    -0.000 C 
BRANCH  23  24
ATOM     24  C   UNL     1      -8.532  22.369  18.355  1.00  0.00    -0.000 C 
BRANCH  24  25
ATOM     25  C   UNL     1      -8.823  22.780  19.802  1.00  0.00    -0.003 C 
ATOM     26  C   UNL     1      -7.659  23.571  20.395  1.00  0.00     0.004 C 
ENDBRANCH  24  25
ENDBRANCH  23  24
ENDBRANCH  22  23
ENDBRANCH  21  22
ENDBRANCH  20  21
ENDBRANCH  19  20
ENDBRANCH  18  19
ENDBRANCH  17  18
ENDBRANCH  16  17
ENDBRANCH  15  16
ENDBRANCH   1  15
TORSDOF 22
ENDMDL
MODEL 2
REMARK VINA RESULT:    -2.994      5.198     14.656
REMARK INTER + INTRA:          -7.968
REMARK INTER:                  -7.117
REMARK INTRA:                  -0.851
REMARK UNBOUND:                -1.124
REMARK SMILES CCCCCCCCCCCCCCCCCCCCCCCC(=O)[O-]
REMARK SMILES IDX 13 1 14 2 15 3 16 4 17 5 18 6 19 7 20 8 21 9 22 10 23 11
REMARK SMILES IDX 24 12 25 13 26 14 12 15 11 16 10 17 9 18 8 19 7 20 6 21 5 22
REMARK SMILES IDX 4 23 3 24 2 25 1 26
REMARK H PARENT
REMARK Flexibility Score: inf
ROOT
ATOM      1  C   UNL     1      -0.169  20.247  15.869  1.00  0.00     0.000 C 
ENDROOT
BRANCH   1   2
ATOM      2  C   UNL     1      -1.386  20.136  16.799  1.00  0.00     0.000 C 
BRANCH   2   3
ATOM      3  C   UNL     1      -2.578  20.978  16.319  1.00  0.00     0.000 C 
BRANCH   3   4
ATOM      4  C   UNL     1      -3.857  20.143  16.131  1.00  0.00     0.000 C 
BRANCH   4   5
ATOM      5  C   UNL     1      -4.802  20.739  15.075  1.00  0.00     0.000 C 
BRANCH   5   6
ATOM      6  C   UNL     1      -6.185  21.086  15.648  1.00  0.00     0.000 C 
BRANCH   6   7
ATOM      7  C   UNL     1      -7.267  20.174  15.058  1.00  0.00     0.000 C 
BRANCH   7   8
ATOM      8  C   UNL     1      -8.670  20.659  15.455  1.00  0.00     0.000 C 
BRANCH   8   9
ATOM      9  C   UNL     1      -9.055  20.246  16.885  1.00  0.00     0.000 C 
BRANCH   9  10
ATOM     10  C   UNL     1      -9.092  21.440  17.855  1.00  0.00     0.006 C 
BRANCH  10  11
ATOM     11  C   UNL     1      -8.686  21.041  19.280  1.00  0.00     0.053 C 
BRANCH  11  12
ATOM     12  C   UNL     1      -7.362  21.628  19.666  1.00  0.00     0.041 C 
ATOM     13  O   UNL     1      -6.292  21.069  19.304  1.00  0.00    -0.550 OA
ATOM     14  O   UNL     1      -7.311  22.812  20.391  1.00  0.00    -0.550 OA
ENDBRANCH  11  12
ENDBRANCH  10  11
ENDBRANCH   9  10
ENDBRANCH   8   9
ENDBRANCH   7   8
ENDBRANCH   6   7
ENDBRANCH   5   6
ENDBRANCH   4   5
ENDBRANCH   3   4
ENDBRANCH   2   3
ENDBRANCH   1   2
BRANCH   1  15
ATOM     15  C   UNL     1       1.074  20.707  16.645  1.00  0.00     0.000 C 
BRANCH  15  16
ATOM     16  C   UNL     1       2.326  19.876  16.316  1.00  0.00     0.000 C 
BRANCH  16  17
ATOM     17  C   UNL     1       3.668  20.614  16.497  1.00  0.00     0.000 C 
BRANCH  17  18
ATOM     18  C   UNL     1       4.880  19.952  15.818  1.00  0.00    -0.000 C 
BRANCH  18  19
ATOM     19  C   UNL     1       5.759  20.957  15.055  1.00  0.00    -0.000 C 
BRANCH  19  20
ATOM     20  C   UNL     1       7.256  20.774  15.356  1.00  0.00    -0.000 C 
BRANCH  20  21
ATOM     21  C   UNL     1       8.134  20.895  14.097  1.00  0.00    -0.000 C 
BRANCH  21  22
ATOM     22  C   UNL     1       9.625  20.632  14.400  1.00  0.00    -0.000 C 
BRANCH  22  23
ATOM     23  C   UNL     1      10.574  21.109  13.286  1.00  0.00    -0.000 C 
BRANCH  23  24
ATOM     24  C   UNL     1      10.053  22.348  12.546  1.00  0.00    -0.000 C 
BRANCH  24  25
ATOM     25  C   UNL     1      10.869  23.592  12.914  1.00  0.00    -0.003 C 
ATOM     26  C   UNL     1      10.549  24.757  11.981  1.00  0.00     0.004 C 
ENDBRANCH  24  25
ENDBRANCH  23  24
ENDBRANCH  22  23
ENDBRANCH  21  22
ENDBRANCH  20  21
ENDBRANCH  19  20
ENDBRANCH  18  19
ENDBRANCH  17  18
ENDBRANCH  16  17
ENDBRANCH  15  16
ENDBRANCH   1  15
TORSDOF 22
ENDMDL
MODEL 3
REMARK VINA RESULT:    -2.839      5.793     14.533
REMARK INTER + INTRA:          -7.615
REMARK INTER:                  -6.472
REMARK INTRA:                  -1.143
REMARK UNBOUND:                -1.124
REMARK SMILES CCCCCCCCCCCCCCCCCCCCCCCC(=O)[O-]
REMARK SMILES IDX 13 1 14 2 15 3 16 4 17 5 18 6 19 7 20 8 21 9 22 10 23 11
REMARK SMILES IDX 24 12 25 13 26 14 12 15 11 16 10 17 9 18 8 19 7 20 6 21 5 22
REMARK SMILES IDX 4 23 3 24 2 25 1 26
REMARK H PARENT
REMARK Flexibility Score: inf
ROOT
ATOM      1  C   UNL     1      -1.699  20.843  16.935  1.00  0.00     0.000 C 
ENDROOT
BRANCH   1   2
ATOM      2  C   UNL     1      -3.031  20.079  16.909  1.00  0.00     0.000 C 
BRANCH   2   3
ATOM      3  C   UNL     1      -3.812  20.293  15.604  1.00  0.00     0.000 C 
BRANCH   3   4
ATOM      4  C   UNL     1      -5.335  20.336  15.823  1.00  0.00     0.000 C 
BRANCH   4   5
ATOM      5  C   UNL     1      -5.727  20.116  17.292  1.00  0.00     0.000 C 
BRANCH   5   6
ATOM      6  C   UNL     1      -7.247  20.161  17.512  1.00  0.00     0.000 C 
BRANCH   6   7
ATOM      7  C   UNL     1      -7.869  21.367  16.799  1.00  0.00     0.000 C 
BRANCH   7   8
ATOM      8  C   UNL     1      -9.038  21.944  17.611  1.00  0.00     0.000 C 
BRANCH   8   9
ATOM      9  C   UNL     1      -8.658  23.229  18.363  1.00  0.00     0.000 C 
BRANCH   9  10
ATOM     10  C   UNL     1      -9.121  23.214  19.831  1.00  0.00     0.006 C 
BRANCH  10  11
ATOM     11  C   UNL     1      -7.944  23.092  20.808  1.00  0.00     0.053 C 
BRANCH  11  12
ATOM     12  C   UNL     1      -8.011  21.823  21.603  1.00  0.00     0.041 C 
ATOM     13  O   UNL     1      -8.256  20.729  21.029  1.00  0.00    -0.550 OA
ATOM     14  O   UNL     1      -7.765  21.845  22.970  1.00  0.00    -0.550 OA
ENDBRANCH  11  12
ENDBRANCH  10  11
ENDBRANCH   9  10
ENDBRANCH   8   9
ENDBRANCH   7   8
ENDBRANCH   6   7
ENDBRANCH   5   6
ENDBRANCH   4   5
ENDBRANCH   3   4
ENDBRANCH   2   3
ENDBRANCH   1   2
BRANCH   1  15
ATOM     15  C   UNL     1      -0.521  19.901  16.649  1.00  0.00     0.000 C 
BRANCH  15  16
ATOM     16  C   UNL     1       0.563  20.547  15.769  1.00  0.00     0.000 C 
BRANCH  16  17
ATOM     17  C   UNL     1       1.850  20.960  16.511  1.00  0.00     0.000 C 
BRANCH  17  18
ATOM     18  C   UNL     1       2.999  19.938  16.451  1.00  0.00    -0.000 C 
BRANCH  18  19
ATOM     19  C   UNL     1       4.165  20.404  15.562  1.00  0.00    -0.000 C 
BRANCH  19  20
ATOM     20  C   UNL     1       5.535  20.005  16.132  1.00  0.00    -0.000 C 
BRANCH  20  21
ATOM     21  C   UNL     1       6.702  20.736  15.444  1.00  0.00    -0.000 C 
BRANCH  21  22
ATOM     22  C   UNL     1       7.037  20.130  14.065  1.00  0.00    -0.000 C 
BRANCH  22  23
ATOM     23  C   UNL     1       8.547  20.036  13.782  1.00  0.00    -0.000 C 
BRANCH  23  24
ATOM     24  C   UNL     1       9.248  21.401  13.815  1.00  0.00    -0.000 C 
BRANCH  24  25
ATOM     25  C   UNL     1       9.879  21.727  12.457  1.00  0.00    -0.003 C 
ATOM     26  C   UNL     1       9.547  20.654  11.423  1.00  0.00     0.004 C 
ENDBRANCH  24  25
ENDBRANCH  23  24
ENDBRANCH  22  23
ENDBRANCH  21  22
ENDBRANCH  20  21
ENDBRANCH  19  20
ENDBRANCH  18  19
ENDBRANCH  17  18
ENDBRANCH  16  17
ENDBRANCH  15  16
ENDBRANCH   1  15
TORSDOF 22
ENDMDL
MODEL 4
REMARK VINA RESULT:    -2.729      1.592      3.570
REMARK INTER + INTRA:          -7.362
REMARK INTER:                  -6.240
REMARK INTRA:                  -1.122
REMARK UNBOUND:                -1.124
REMARK SMILES CCCCCCCCCCCCCCCCCCCCCCCC(=O)[O-]
REMARK SMILES IDX 13 1 14 2 15 3 16 4 17 5 18 6 19 7 20 8 21 9 22 10 23 11
REMARK SMILES IDX 24 12 25 13 26 14 12 15 11 16 10 17 9 18 8 19 7 20 6 21 5 22
REMARK SMILES IDX 4 23 3 24 2 25 1 26
REMARK H PARENT
REMARK Flexibility Score: inf
ROOT
ATOM      1  C   UNL     1       3.391  20.257  16.641  1.00  0.00     0.000 C 
ENDROOT
BRANCH   1   2
ATOM      2  C   UNL     1       4.335  20.503  15.454  1.00  0.00     0.000 C 
BRANCH   2   3
ATOM      3  C   UNL     1       5.659  21.159  15.876  1.00  0.00     0.000 C 
BRANCH   3   4
ATOM      4  C   UNL     1       6.597  20.184  16.609  1.00  0.00     0.000 C 
BRANCH   4   5
ATOM      5  C   UNL     1       8.081  20.513  16.387  1.00  0.00     0.000 C 
BRANCH   5   6
ATOM      6  C   UNL     1       8.501  20.383  14.914  1.00  0.00     0.000 C 
BRANCH   6   7
ATOM      7  C   UNL     1      10.016  20.181  14.791  1.00  0.00     0.000 C 
BRANCH   7   8
ATOM      8  C   UNL     1      10.502  20.514  13.373  1.00  0.00     0.000 C 
BRANCH   8   9
ATOM      9  C   UNL     1       9.583  21.512  12.652  1.00  0.00     0.000 C 
BRANCH   9  10
ATOM     10  C   UNL     1      10.043  22.971  12.823  1.00  0.00     0.006 C 
BRANCH  10  11
ATOM     11  C   UNL     1      11.117  23.362  11.799  1.00  0.00     0.053 C 
BRANCH  11  12
ATOM     12  C   UNL     1      10.634  24.432  10.867  1.00  0.00     0.041 C 
ATOM     13  O   UNL     1      10.644  24.239   9.622  1.00  0.00    -0.550 OA
ATOM     14  O   UNL     1      10.136  25.625  11.377  1.00  0.00    -0.550 OA
ENDBRANCH  11  12
ENDBRANCH  10  11
ENDBRANCH   9  10
ENDBRANCH   8   9
ENDBRANCH   7   8
ENDBRANCH   6   7
ENDBRANCH   5   6
ENDBRANCH   4   5
ENDBRANCH   3   4
ENDBRANCH   2   3
ENDBRANCH   1   2
BRANCH   1  15
ATOM     15  C   UNL     1       1.986  19.875  16.154  1.00  0.00     0.000 C 
BRANCH  15  16
ATOM     16  C   UNL     1       0.874  20.692  16.833  1.00  0.00     0.000 C 
BRANCH  16  17
ATOM     17  C   UNL     1      -0.562  20.209  16.546  1.00  0.00     0.000 C 
BRANCH  17  18
ATOM     18  C   UNL     1      -1.420  19.921  17.791  1.00  0.00    -0.000 C 
BRANCH  18  19
ATOM     19  C   UNL     1      -2.906  20.261  17.584  1.00  0.00    -0.000 C 
BRANCH  19  20
ATOM     20  C   UNL     1      -3.372  20.003  16.142  1.00  0.00    -0.000 C 
BRANCH  20  21
ATOM     21  C   UNL     1      -4.245  21.143  15.586  1.00  0.00    -0.000 C 
BRANCH  21  22
ATOM     22  C   UNL     1      -5.549  20.619  14.946  1.00  0.00    -0.000 C 
BRANCH  22  23
ATOM     23  C   UNL     1      -6.688  20.404  15.957  1.00  0.00    -0.000 C 
BRANCH  23  24
ATOM     24  C   UNL     1      -7.716  21.543  15.952  1.00  0.00    -0.000 C 
BRANCH  24  25
ATOM     25  C   UNL     1      -7.991  22.042  17.374  1.00  0.00    -0.003 C 
ATOM     26  C   UNL     1      -7.276  21.177  18.409  1.00  0.00     0.004 C 
ENDBRANCH  24  25
ENDBRANCH  23  24
ENDBRANCH  22  23
ENDBRANCH  21  22
ENDBRANCH  20  21
ENDBRANCH  19  20
ENDBRANCH  18  19
ENDBRANCH  17  18
ENDBRANCH  16  17
ENDBRANCH  15  16
ENDBRANCH   1  15
TORSDOF 22
ENDMDL
MODEL 5
REMARK VINA RESULT:    -2.700      1.598      3.641
REMARK INTER + INTRA:          -7.296
REMARK INTER:                  -6.379
REMARK INTRA:                  -0.918
REMARK UNBOUND:                -1.124
REMARK SMILES CCCCCCCCCCCCCCCCCCCCCCCC(=O)[O-]
REMARK SMILES IDX 13 1 14 2 15 3 16 4 17 5 18 6 19 7 20 8 21 9 22 10 23 11
REMARK SMILES IDX 24 12 25 13 26 14 12 15 11 16 10 17 9 18 8 19 7 20 6 21 5 22
REMARK SMILES IDX 4 23 3 24 2 25 1 26
REMARK H PARENT
REMARK Flexibility Score: inf
ROOT
ATOM      1  C   UNL     1       2.833  20.098  15.751  1.00  0.00     0.000 C 
ENDROOT
BRANCH   1   2
ATOM      2  C   UNL     1       4.197  20.636  16.206  1.00  0.00     0.000 C 
BRANCH   2   3
ATOM      3  C   UNL     1       5.368  20.020  15.426  1.00  0.00     0.000 C 
BRANCH   3   4
ATOM      4  C   UNL     1       6.547  20.995  15.257  1.00  0.00     0.000 C 
BRANCH   4   5
ATOM      5  C   UNL     1       7.648  20.437  14.341  1.00  0.00     0.000 C 
BRANCH   5   6
ATOM      6  C   UNL     1       9.010  20.337  15.047  1.00  0.00     0.000 C 
BRANCH   6   7
ATOM      7  C   UNL     1      10.013  21.328  14.446  1.00  0.00     0.000 C 
BRANCH   7   8
ATOM      8  C   UNL     1       9.716  21.578  12.960  1.00  0.00     0.000 C 
BRANCH   8   9
ATOM      9  C   UNL     1      10.798  22.429  12.276  1.00  0.00     0.000 C 
BRANCH   9  10
ATOM     10  C   UNL     1      10.852  22.205  10.755  1.00  0.00     0.006 C 
BRANCH  10  11
ATOM     11  C   UNL     1      10.697  20.724  10.381  1.00  0.00     0.053 C 
BRANCH  11  12
ATOM     12  C   UNL     1       9.537  20.502   9.459  1.00  0.00     0.041 C 
ATOM     13  O   UNL     1       8.380  20.332   9.928  1.00  0.00    -0.550 OA
ATOM     14  O   UNL     1       9.729  20.521   8.083  1.00  0.00    -0.550 OA
ENDBRANCH  11  12
ENDBRANCH  10  11
ENDBRANCH   9  10
ENDBRANCH   8   9
ENDBRANCH   7   8
ENDBRANCH   6   7
ENDBRANCH   5   6
ENDBRANCH   4   5
ENDBRANCH   3   4
ENDBRANCH   2   3
ENDBRANCH   1   2
BRANCH   1  15
ATOM     15  C   UNL     1       1.693  20.749  16.547  1.00  0.00     0.000 C 
BRANCH  15  16
ATOM     16  C   UNL     1       0.423  19.882  16.594  1.00  0.00     0.000 C 
BRANCH  16  17
ATOM     17  C   UNL     1      -0.904  20.665  16.652  1.00  0.00     0.000 C 
BRANCH  17  18
ATOM     18  C   UNL     1      -2.151  19.880  16.209  1.00  0.00    -0.000 C 
BRANCH  18  19
ATOM     19  C   UNL     1      -3.296  19.952  17.234  1.00  0.00    -0.000 C 
BRANCH  19  20
ATOM     20  C   UNL     1      -4.680  19.990  16.566  1.00  0.00    -0.000 C 
BRANCH  20  21
ATOM     21  C   UNL     1      -4.752  20.995  15.402  1.00  0.00    -0.000 C 
BRANCH  21  22
ATOM     22  C   UNL     1      -5.889  20.662  14.413  1.00  0.00    -0.000 C 
BRANCH  22  23
ATOM     23  C   UNL     1      -7.283  20.632  15.063  1.00  0.00    -0.000 C 
BRANCH  23  24
ATOM     24  C   UNL     1      -7.514  21.795  16.038  1.00  0.00    -0.000 C 
BRANCH  24  25
ATOM     25  C   UNL     1      -7.830  21.277  17.445  1.00  0.00    -0.003 C 
ATOM     26  C   UNL     1      -9.024  20.327  17.427  1.00  0.00     0.004 C 
ENDBRANCH  24  25
ENDBRANCH  23  24
ENDBRANCH  22  23
ENDBRANCH  21  22
ENDBRANCH  20  21
ENDBRANCH  19  20
ENDBRANCH  18  19
ENDBRANCH  17  18
ENDBRANCH  16  17
ENDBRANCH  15  16
ENDBRANCH   1  15
TORSDOF 22
ENDMDL
MODEL 6
REMARK VINA RESULT:    -2.688      5.339     14.641
REMARK INTER + INTRA:          -7.268
REMARK INTER:                  -5.980
REMARK INTRA:                  -1.288
REMARK UNBOUND:                -1.124
REMARK SMILES CCCCCCCCCCCCCCCCCCCCCCCC(=O)[O-]
REMARK SMILES IDX 13 1 14 2 15 3 16 4 17 5 18 6 19 7 20 8 21 9 22 10 23 11
REMARK SMILES IDX 24 12 25 13 26 14 12 15 11 16 10 17 9 18 8 19 7 20 6 21 5 22
REMARK SMILES IDX 4 23 3 24 2 25 1 26
REMARK H PARENT
REMARK Flexibility Score: inf
ROOT
ATOM      1  C   UNL     1       2.965  19.900  16.315  1.00  0.00     0.000 C 
ENDROOT
BRANCH   1   2
ATOM      2  C   UNL     1       1.688  20.509  16.915  1.00  0.00     0.000 C 
BRANCH   2   3
ATOM      3  C   UNL     1       0.469  20.360  15.991  1.00  0.00     0.000 C 
BRANCH   3   4
ATOM      4  C   UNL     1      -0.837  20.113  16.768  1.00  0.00     0.000 C 
BRANCH   4   5
ATOM      5  C   UNL     1      -2.020  20.913  16.202  1.00  0.00     0.000 C 
BRANCH   5   6
ATOM      6  C   UNL     1      -3.348  20.578  16.900  1.00  0.00     0.000 C 
BRANCH   6   7
ATOM      7  C   UNL     1      -4.390  20.086  15.889  1.00  0.00     0.000 C 
BRANCH   7   8
ATOM      8  C   UNL     1      -5.019  21.264  15.130  1.00  0.00     0.000 C 
BRANCH   8   9
ATOM      9  C   UNL     1      -6.303  20.870  14.384  1.00  0.00     0.000 C 
BRANCH   9  10
ATOM     10  C   UNL     1      -7.384  20.309  15.325  1.00  0.00     0.006 C 
BRANCH  10  11
ATOM     11  C   UNL     1      -8.251  21.417  15.937  1.00  0.00     0.053 C 
BRANCH  11  12
ATOM     12  C   UNL     1      -7.929  21.641  17.383  1.00  0.00     0.041 C 
ATOM     13  O   UNL     1      -7.034  20.955  17.945  1.00  0.00    -0.550 OA
ATOM     14  O   UNL     1      -8.590  22.632  18.098  1.00  0.00    -0.550 OA
ENDBRANCH  11  12
ENDBRANCH  10  11
ENDBRANCH   9  10
ENDBRANCH   8   9
ENDBRANCH   7   8
ENDBRANCH   6   7
ENDBRANCH   5   6
ENDBRANCH   4   5
ENDBRANCH   3   4
ENDBRANCH   2   3
ENDBRANCH   1   2
BRANCH   1  15
ATOM     15  C   UNL     1       3.903  20.998  15.794  1.00  0.00     0.000 C 
BRANCH  15  16
ATOM     16  C   UNL     1       5.239  21.054  16.555  1.00  0.00     0.000 C 
BRANCH  16  17
ATOM     17  C   UNL     1       6.392  20.255  15.915  1.00  0.00     0.000 C 
BRANCH  17  18
ATOM     18  C   UNL     1       6.487  20.352  14.382  1.00  0.00    -0.000 C 
BRANCH  18  19
ATOM     19  C   UNL     1       7.929  20.214  13.864  1.00  0.00    -0.000 C 
BRANCH  19  20
ATOM     20  C   UNL     1       8.833  21.368  14.327  1.00  0.00    -0.000 C 
BRANCH  20  21
ATOM     21  C   UNL     1      10.228  21.329  13.676  1.00  0.00    -0.000 C 
BRANCH  21  22
ATOM     22  C   UNL     1      10.472  22.540  12.750  1.00  0.00    -0.000 C 
BRANCH  22  23
ATOM     23  C   UNL     1      10.682  22.156  11.275  1.00  0.00    -0.000 C 
BRANCH  23  24
ATOM     24  C   UNL     1      10.792  20.640  11.061  1.00  0.00    -0.000 C 
BRANCH  24  25
ATOM     25  C   UNL     1       9.660  20.128  10.165  1.00  0.00    -0.003 C 
ATOM     26  C   UNL     1       9.525  20.982   8.906  1.00  0.00     0.004 C 
ENDBRANCH  24  25
ENDBRANCH  23  24
ENDBRANCH  22  23
ENDBRANCH  21  22
ENDBRANCH  20  21
ENDBRANCH  19  20
ENDBRANCH  18  19
ENDBRANCH  17  18
ENDBRANCH  16  17
ENDBRANCH  15  16
ENDBRANCH   1  15
TORSDOF 22
ENDMDL
MODEL 7
REMARK VINA RESULT:    -2.650      5.495     14.278
REMARK INTER + INTRA:          -7.181
REMARK INTER:                  -5.792
REMARK INTRA:                  -1.390
REMARK UNBOUND:                -1.124
REMARK SMILES CCCCCCCCCCCCCCCCCCCCCCCC(=O)[O-]
REMARK SMILES IDX 13 1 14 2 15 3 16 4 17 5 18 6 19 7 20 8 21 9 22 10 23 11
REMARK SMILES IDX 24 12 25 13 26 14 12 15 11 16 10 17 9 18 8 19 7 20 6 21 5 22
REMARK SMILES IDX 4 23 3 24 2 25 1 26
REMARK H PARENT
REMARK Flexibility Score: inf
ROOT
ATOM      1  C   UNL     1      -1.112  20.621  17.064  1.00  0.00     0.000 C 
ENDROOT
BRANCH   1   2
ATOM      2  C   UNL     1      -2.388  19.885  16.628  1.00  0.00     0.000 C 
BRANCH   2   3
ATOM      3  C   UNL     1      -3.498  19.944  17.689  1.00  0.00     0.000 C 
BRANCH   3   4
ATOM      4  C   UNL     1      -4.862  20.347  17.099  1.00  0.00     0.000 C 
BRANCH   4   5
ATOM      5  C   UNL     1      -4.760  20.809  15.638  1.00  0.00     0.000 C 
BRANCH   5   6
ATOM      6  C   UNL     1      -6.088  21.364  15.099  1.00  0.00     0.000 C 
BRANCH   6   7
ATOM      7  C   UNL     1      -7.048  20.227  14.731  1.00  0.00     0.000 C 
BRANCH   7   8
ATOM      8  C   UNL     1      -8.423  20.435  15.385  1.00  0.00     0.000 C 
BRANCH   8   9
ATOM      9  C   UNL     1      -8.441  20.028  16.866  1.00  0.00     0.000 C 
BRANCH   9  10
ATOM     10  C   UNL     1      -8.933  21.160  17.785  1.00  0.00     0.006 C 
BRANCH  10  11
ATOM     11  C   UNL     1      -7.792  22.090  18.221  1.00  0.00     0.053 C 
BRANCH  11  12
ATOM     12  C   UNL     1      -7.890  22.448  19.672  1.00  0.00     0.041 C 
ATOM     13  O   UNL     1      -8.572  23.444  20.033  1.00  0.00    -0.550 OA
ATOM     14  O   UNL     1      -7.260  21.660  20.627  1.00  0.00    -0.550 OA
ENDBRANCH  11  12
ENDBRANCH  10  11
ENDBRANCH   9  10
ENDBRANCH   8   9
ENDBRANCH   7   8
ENDBRANCH   6   7
ENDBRANCH   5   6
ENDBRANCH   4   5
ENDBRANCH   3   4
ENDBRANCH   2   3
ENDBRANCH   1   2
BRANCH   1  15
ATOM     15  C   UNL     1       0.134  19.967  16.451  1.00  0.00     0.000 C 
BRANCH  15  16
ATOM     16  C   UNL     1       1.436  20.702  16.814  1.00  0.00     0.000 C 
BRANCH  16  17
ATOM     17  C   UNL     1       2.732  19.912  16.542  1.00  0.00     0.000 C 
BRANCH  17  18
ATOM     18  C   UNL     1       3.720  20.584  15.572  1.00  0.00    -0.000 C 
BRANCH  18  19
ATOM     19  C   UNL     1       5.085  19.876  15.524  1.00  0.00    -0.000 C 
BRANCH  19  20
ATOM     20  C   UNL     1       6.151  20.598  16.363  1.00  0.00    -0.000 C 
BRANCH  20  21
ATOM     21  C   UNL     1       7.583  20.151  16.016  1.00  0.00    -0.000 C 
BRANCH  21  22
ATOM     22  C   UNL     1       8.502  21.347  15.684  1.00  0.00    -0.000 C 
BRANCH  22  23
ATOM     23  C   UNL     1       9.130  21.272  14.282  1.00  0.00    -0.000 C 
BRANCH  23  24
ATOM     24  C   UNL     1       8.713  20.015  13.506  1.00  0.00    -0.000 C 
BRANCH  24  25
ATOM     25  C   UNL     1       8.362  20.357  12.054  1.00  0.00    -0.003 C 
ATOM     26  C   UNL     1       9.449  19.875  11.096  1.00  0.00     0.004 C 
ENDBRANCH  24  25
ENDBRANCH  23  24
ENDBRANCH  22  23
ENDBRANCH  21  22
ENDBRANCH  20  21
ENDBRANCH  19  20
ENDBRANCH  18  19
ENDBRANCH  17  18
ENDBRANCH  16  17
ENDBRANCH  15  16
ENDBRANCH   1  15
TORSDOF 22
ENDMDL
MODEL 8
REMARK VINA RESULT:    -2.618      5.479     14.399
REMARK INTER + INTRA:          -7.109
REMARK INTER:                  -5.677
REMARK INTRA:                  -1.432
REMARK UNBOUND:                -1.124
REMARK SMILES CCCCCCCCCCCCCCCCCCCCCCCC(=O)[O-]
REMARK SMILES IDX 13 1 14 2 15 3 16 4 17 5 18 6 19 7 20 8 21 9 22 10 23 11
REMARK SMILES IDX 24 12 25 13 26 14 12 15 11 16 10 17 9 18 8 19 7 20 6 21 5 22
REMARK SMILES IDX 4 23 3 24 2 25 1 26
REMARK H PARENT
REMARK Flexibility Score: inf
ROOT
ATOM      1  C   UNL     1       3.172  21.443  16.857  1.00  0.00     0.000 C 
ENDROOT
BRANCH   1   2
ATOM      2  C   UNL     1       2.339  20.155  16.935  1.00  0.00     0.000 C 
BRANCH   2   3
ATOM      3  C   UNL     1       1.314  20.042  15.795  1.00  0.00     0.000 C 
BRANCH   3   4
ATOM      4  C   UNL     1      -0.067  20.600  16.182  1.00  0.00     0.000 C 
BRANCH   4   5
ATOM      5  C   UNL     1      -0.618  19.972  17.471  1.00  0.00     0.000 C 
BRANCH   5   6
ATOM      6  C   UNL     1      -2.155  19.951  17.509  1.00  0.00     0.000 C 
BRANCH   6   7
ATOM      7  C   UNL     1      -2.743  20.592  16.247  1.00  0.00     0.000 C 
BRANCH   7   8
ATOM      8  C   UNL     1      -4.162  20.070  15.975  1.00  0.00     0.000 C 
BRANCH   8   9
ATOM      9  C   UNL     1      -4.967  20.999  15.053  1.00  0.00     0.000 C 
BRANCH   9  10
ATOM     10  C   UNL     1      -6.414  21.202  15.537  1.00  0.00     0.006 C 
BRANCH  10  11
ATOM     11  C   UNL     1      -6.686  20.486  16.867  1.00  0.00     0.053 C 
BRANCH  11  12
ATOM     12  C   UNL     1      -7.897  21.036  17.557  1.00  0.00     0.041 C 
ATOM     13  O   UNL     1      -9.049  20.779  17.115  1.00  0.00    -0.550 OA
ATOM     14  O   UNL     1      -7.755  21.801  18.708  1.00  0.00    -0.550 OA
ENDBRANCH  11  12
ENDBRANCH  10  11
ENDBRANCH   9  10
ENDBRANCH   8   9
ENDBRANCH   7   8
ENDBRANCH   6   7
ENDBRANCH   5   6
ENDBRANCH   4   5
ENDBRANCH   3   4
ENDBRANCH   2   3
ENDBRANCH   1   2
BRANCH   1  15
ATOM     15  C   UNL     1       4.668  21.139  17.010  1.00  0.00     0.000 C 
BRANCH  15  16
ATOM     16  C   UNL     1       5.252  20.380  15.806  1.00  0.00     0.000 C 
BRANCH  16  17
ATOM     17  C   UNL     1       5.880  21.269  14.714  1.00  0.00     0.000 C 
BRANCH  17  18
ATOM     18  C   UNL     1       7.146  20.698  14.049  1.00  0.00    -0.000 C 
BRANCH  18  19
ATOM     19  C   UNL     1       8.011  19.878  15.021  1.00  0.00    -0.000 C 
BRANCH  19  20
ATOM     20  C   UNL     1       9.509  20.197  14.887  1.00  0.00    -0.000 C 
BRANCH  20  21
ATOM     21  C   UNL     1       9.873  21.587  15.438  1.00  0.00    -0.000 C 
BRANCH  21  22
ATOM     22  C   UNL     1      10.596  22.459  14.388  1.00  0.00    -0.000 C 
BRANCH  22  23
ATOM     23  C   UNL     1      10.738  21.780  13.015  1.00  0.00    -0.000 C 
BRANCH  23  24
ATOM     24  C   UNL     1      11.108  22.765  11.897  1.00  0.00    -0.000 C 
BRANCH  24  25
ATOM     25  C   UNL     1      11.090  24.209  12.409  1.00  0.00    -0.003 C 
ATOM     26  C   UNL     1      10.361  25.130  11.434  1.00  0.00     0.004 C 
ENDBRANCH  24  25
ENDBRANCH  23  24
ENDBRANCH  22  23
ENDBRANCH  21  22
ENDBRANCH  20  21
ENDBRANCH  19  20
ENDBRANCH  18  19
ENDBRANCH  17  18
ENDBRANCH  16  17
ENDBRANCH  15  16
ENDBRANCH   1  15
TORSDOF 22
ENDMDL
MODEL 9
REMARK VINA RESULT:    -2.506      1.164      1.722
REMARK INTER + INTRA:          -6.852
REMARK INTER:                  -5.889
REMARK INTRA:                  -0.963
REMARK UNBOUND:                -1.124
REMARK SMILES CCCCCCCCCCCCCCCCCCCCCCCC(=O)[O-]
REMARK SMILES IDX 13 1 14 2 15 3 16 4 17 5 18 6 19 7 20 8 21 9 22 10 23 11
REMARK SMILES IDX 24 12 25 13 26 14 12 15 11 16 10 17 9 18 8 19 7 20 6 21 5 22
REMARK SMILES IDX 4 23 3 24 2 25 1 26
REMARK H PARENT
REMARK Flexibility Score: inf
ROOT
ATOM      1  C   UNL     1       0.475  20.872  16.463  1.00  0.00     0.000 C 
ENDROOT
BRANCH   1   2
ATOM      2  C   UNL     1       2.005  20.890  16.605  1.00  0.00     0.000 C 
BRANCH   2   3
ATOM      3  C   UNL     1       2.702  19.936  15.624  1.00  0.00     0.000 C 
BRANCH   3   4
ATOM      4  C   UNL     1       4.234  19.942  15.777  1.00  0.00     0.000 C 
BRANCH   4   5
ATOM      5  C   UNL     1       4.729  21.058  16.710  1.00  0.00     0.000 C 
BRANCH   5   6
ATOM      6  C   UNL     1       6.252  21.255  16.639  1.00  0.00     0.000 C 
BRANCH   6   7
ATOM      7  C   UNL     1       6.968  19.918  16.413  1.00  0.00     0.000 C 
BRANCH   7   8
ATOM      8  C   UNL     1       7.627  19.875  15.026  1.00  0.00     0.000 C 
BRANCH   8   9
ATOM      9  C   UNL     1       7.990  21.272  14.500  1.00  0.00     0.000 C 
BRANCH   9  10
ATOM     10  C   UNL     1       9.228  21.257  13.586  1.00  0.00     0.006 C 
BRANCH  10  11
ATOM     11  C   UNL     1      10.533  21.432  14.375  1.00  0.00     0.053 C 
BRANCH  11  12
ATOM     12  C   UNL     1      10.918  22.875  14.499  1.00  0.00     0.041 C 
ATOM     13  O   UNL     1      11.105  23.384  15.636  1.00  0.00    -0.550 OA
ATOM     14  O   UNL     1      11.107  23.645  13.358  1.00  0.00    -0.550 OA
ENDBRANCH  11  12
ENDBRANCH  10  11
ENDBRANCH   9  10
ENDBRANCH   8   9
ENDBRANCH   7   8
ENDBRANCH   6   7
ENDBRANCH   5   6
ENDBRANCH   4   5
ENDBRANCH   3   4
ENDBRANCH   2   3
ENDBRANCH   1   2
BRANCH   1  15
ATOM     15  C   UNL     1      -0.164  19.975  17.533  1.00  0.00     0.000 C 
BRANCH  15  16
ATOM     16  C   UNL     1      -1.695  20.108  17.590  1.00  0.00     0.000 C 
BRANCH  16  17
ATOM     17  C   UNL     1      -2.382  20.356  16.232  1.00  0.00     0.000 C 
BRANCH  17  18
ATOM     18  C   UNL     1      -3.912  20.185  16.229  1.00  0.00    -0.000 C 
BRANCH  18  19
ATOM     19  C   UNL     1      -4.560  20.638  14.909  1.00  0.00    -0.000 C 
BRANCH  19  20
ATOM     20  C   UNL     1      -5.770  21.559  15.135  1.00  0.00    -0.000 C 
BRANCH  20  21
ATOM     21  C   UNL     1      -7.090  20.782  15.279  1.00  0.00    -0.000 C 
BRANCH  21  22
ATOM     22  C   UNL     1      -7.249  20.157  16.682  1.00  0.00    -0.000 C 
BRANCH  22  23
ATOM     23  C   UNL     1      -8.494  20.650  17.440  1.00  0.00    -0.000 C 
BRANCH  23  24
ATOM     24  C   UNL     1      -8.255  21.967  18.191  1.00  0.00    -0.000 C 
BRANCH  24  25
ATOM     25  C   UNL     1      -8.379  21.766  19.705  1.00  0.00    -0.003 C 
ATOM     26  C   UNL     1      -8.003  23.037  20.461  1.00  0.00     0.004 C 
ENDBRANCH  24  25
ENDBRANCH  23  24
ENDBRANCH  22  23
ENDBRANCH  21  22
ENDBRANCH  20  21
ENDBRANCH  19  20
ENDBRANCH  18  19
ENDBRANCH  17  18
ENDBRANCH  16  17
ENDBRANCH  15  16
ENDBRANCH   1  15
TORSDOF 22
ENDMDL
