MODEL 1
REMARK VINA RESULT:    -7.180      0.000      0.000
REMARK INTER + INTRA:          -9.053
REMARK INTER:                  -8.649
REMARK INTRA:                  -0.405
REMARK UNBOUND:                -0.405
REMARK SMILES O=c1c(O)c(-c2ccc(O)cc2O)oc2cc(O)cc(O)c12
REMARK SMILES IDX 5 1 3 2 2 3 1 4 22 5 20 6 19 7 17 8 16 9 15 10 14 11 6 12
REMARK SMILES IDX 8 13 7 14 9 15 11 16 12 17 10 18 13 20 4 22 21 24 18 26
REMARK H PARENT 10 19 13 21 4 23 21 25 18 27
REMARK Flexibility Score: inf
ROOT
ATOM      1  C   UNL     1      19.471  24.745  41.244  1.00  0.00     0.184 A 
ATOM      2  C   UNL     1      20.286  25.878  41.382  1.00  0.00     0.208 A 
ATOM      3  C   UNL     1      20.043  26.767  42.440  1.00  0.00     0.238 A 
ATOM      4  O   UNL     1      20.743  27.809  42.527  1.00  0.00    -0.285 OA
ATOM      5  C   UNL     1      18.998  26.500  43.358  1.00  0.00     0.111 A 
ATOM      6  C   UNL     1      18.687  27.310  44.490  1.00  0.00     0.134 A 
ATOM      7  C   UNL     1      17.550  27.022  45.255  1.00  0.00     0.093 A 
ATOM      8  C   UNL     1      16.749  25.914  44.966  1.00  0.00     0.123 A 
ATOM      9  C   UNL     1      17.078  25.083  43.898  1.00  0.00     0.094 A 
ATOM     10  C   UNL     1      18.185  25.366  43.095  1.00  0.00     0.146 A 
ATOM     11  O   UNL     1      18.457  24.554  42.079  1.00  0.00    -0.451 OA
ENDROOT
BRANCH   1  12
ATOM     12  C   UNL     1      19.683  23.760  40.162  1.00  0.00     0.063 A 
ATOM     13  C   UNL     1      20.744  21.713  39.395  1.00  0.00     0.047 A 
ATOM     14  C   UNL     1      20.520  22.659  40.398  1.00  0.00     0.020 A 
ATOM     15  C   UNL     1      20.149  21.863  38.141  1.00  0.00     0.119 A 
ATOM     16  C   UNL     1      19.331  22.970  37.887  1.00  0.00     0.093 A 
ATOM     17  C   UNL     1      19.104  23.929  38.887  1.00  0.00     0.130 A 
BRANCH  15  18
ATOM     18  O   UNL     1      20.379  20.909  37.151  1.00  0.00    -0.508 OA
ATOM     19  H   UNL     1      20.014  21.019  36.213  1.00  0.00     0.293 HD
ENDBRANCH  15  18
BRANCH  17  20
ATOM     20  O   UNL     1      18.328  25.053  38.607  1.00  0.00    -0.507 OA
ATOM     21  H   UNL     1      18.732  25.982  38.571  1.00  0.00     0.293 HD
ENDBRANCH  17  20
ENDBRANCH   1  12
BRANCH   2  22
ATOM     22  O   UNL     1      21.300  26.127  40.451  1.00  0.00    -0.502 OA
ATOM     23  H   UNL     1      22.158  26.603  40.699  1.00  0.00     0.293 HD
ENDBRANCH   2  22
BRANCH   6  24
ATOM     24  O   UNL     1      19.472  28.384  44.921  1.00  0.00    -0.507 OA
ATOM     25  H   UNL     1      20.481  28.395  44.919  1.00  0.00     0.293 HD
ENDBRANCH   6  24
BRANCH   8  26
ATOM     26  O   UNL     1      15.628  25.626  45.742  1.00  0.00    -0.508 OA
ATOM     27  H   UNL     1      15.261  26.292  46.410  1.00  0.00     0.293 HD
ENDBRANCH   8  26
TORSDOF 6
ENDMDL
MODEL 2
REMARK VINA RESULT:    -6.857      1.196      2.864
REMARK INTER + INTRA:          -8.665
REMARK INTER:                  -8.250
REMARK INTRA:                  -0.416
REMARK UNBOUND:                -0.405
REMARK SMILES O=c1c(O)c(-c2ccc(O)cc2O)oc2cc(O)cc(O)c12
REMARK SMILES IDX 5 1 3 2 2 3 1 4 22 5 20 6 19 7 17 8 16 9 15 10 14 11 6 12
REMARK SMILES IDX 8 13 7 14 9 15 11 16 12 17 10 18 13 20 4 22 21 24 18 26
REMARK H PARENT 10 19 13 21 4 23 21 25 18 27
REMARK Flexibility Score: inf
ROOT
ATOM      1  C   UNL     1      18.710  24.246  41.694  1.00  0.00     0.184 A 
ATOM      2  C   UNL     1      17.565  23.821  42.384  1.00  0.00     0.208 A 
ATOM      3  C   UNL     1      17.128  24.555  43.497  1.00  0.00     0.238 A 
ATOM      4  O   UNL     1      16.133  24.138  44.144  1.00  0.00    -0.285 OA
ATOM      5  C   UNL     1      17.834  25.717  43.894  1.00  0.00     0.111 A 
ATOM      6  C   UNL     1      17.458  26.561  44.981  1.00  0.00     0.134 A 
ATOM      7  C   UNL     1      18.303  27.611  45.365  1.00  0.00     0.093 A 
ATOM      8  C   UNL     1      19.476  27.886  44.659  1.00  0.00     0.123 A 
ATOM      9  C   UNL     1      19.821  27.104  43.560  1.00  0.00     0.094 A 
ATOM     10  C   UNL     1      19.018  26.028  43.175  1.00  0.00     0.146 A 
ATOM     11  O   UNL     1      19.390  25.301  42.128  1.00  0.00    -0.451 OA
ENDROOT
BRANCH   1  12
ATOM     12  C   UNL     1      19.214  23.528  40.504  1.00  0.00     0.063 A 
ATOM     13  C   UNL     1      20.726  21.873  39.563  1.00  0.00     0.047 A 
ATOM     14  C   UNL     1      20.224  22.567  40.667  1.00  0.00     0.020 A 
ATOM     15  C   UNL     1      20.236  22.141  38.283  1.00  0.00     0.119 A 
ATOM     16  C   UNL     1      19.245  23.114  38.106  1.00  0.00     0.093 A 
ATOM     17  C   UNL     1      18.739  23.820  39.208  1.00  0.00     0.130 A 
BRANCH  15  18
ATOM     18  O   UNL     1      20.743  21.438  37.191  1.00  0.00    -0.508 OA
ATOM     19  H   UNL     1      20.399  20.516  36.947  1.00  0.00     0.293 HD
ENDBRANCH  15  18
BRANCH  17  20
ATOM     20  O   UNL     1      17.788  24.821  39.015  1.00  0.00    -0.507 OA
ATOM     21  H   UNL     1      16.870  24.773  39.443  1.00  0.00     0.293 HD
ENDBRANCH  17  20
ENDBRANCH   1  12
BRANCH   2  22
ATOM     22  O   UNL     1      16.898  22.659  41.981  1.00  0.00    -0.502 OA
ATOM     23  H   UNL     1      17.255  22.054  41.252  1.00  0.00     0.293 HD
ENDBRANCH   2  22
BRANCH   6  24
ATOM     24  O   UNL     1      16.262  26.431  45.694  1.00  0.00    -0.507 OA
ATOM     25  H   UNL     1      16.005  25.623  46.241  1.00  0.00     0.293 HD
ENDBRANCH   6  24
BRANCH   8  26
ATOM     26  O   UNL     1      20.303  28.941  45.039  1.00  0.00    -0.508 OA
ATOM     27  H   UNL     1      21.112  28.795  45.630  1.00  0.00     0.293 HD
ENDBRANCH   8  26
TORSDOF 6
ENDMDL
MODEL 3
REMARK VINA RESULT:    -6.304      3.818      5.741
REMARK INTER + INTRA:          -7.999
REMARK INTER:                  -7.834
REMARK INTRA:                  -0.165
REMARK UNBOUND:                -0.405
REMARK SMILES O=c1c(O)c(-c2ccc(O)cc2O)oc2cc(O)cc(O)c12
REMARK SMILES IDX 5 1 3 2 2 3 1 4 22 5 20 6 19 7 17 8 16 9 15 10 14 11 6 12
REMARK SMILES IDX 8 13 7 14 9 15 11 16 12 17 10 18 13 20 4 22 21 24 18 26
REMARK H PARENT 10 19 13 21 4 23 21 25 18 27
REMARK Flexibility Score: inf
ROOT
ATOM      1  C   UNL     1      17.060  22.760  44.898  1.00  0.00     0.184 A 
ATOM      2  C   UNL     1      17.763  23.204  43.768  1.00  0.00     0.208 A 
ATOM      3  C   UNL     1      18.080  24.566  43.655  1.00  0.00     0.238 A 
ATOM      4  O   UNL     1      18.663  24.967  42.615  1.00  0.00    -0.285 OA
ATOM      5  C   UNL     1      17.706  25.463  44.686  1.00  0.00     0.111 A 
ATOM      6  C   UNL     1      18.011  26.857  44.697  1.00  0.00     0.134 A 
ATOM      7  C   UNL     1      17.478  27.673  45.703  1.00  0.00     0.093 A 
ATOM      8  C   UNL     1      16.706  27.133  46.734  1.00  0.00     0.123 A 
ATOM      9  C   UNL     1      16.452  25.764  46.764  1.00  0.00     0.094 A 
ATOM     10  C   UNL     1      16.939  24.931  45.755  1.00  0.00     0.146 A 
ATOM     11  O   UNL     1      16.664  23.633  45.816  1.00  0.00    -0.451 OA
ENDROOT
BRANCH   1  12
ATOM     12  C   UNL     1      16.708  21.336  45.086  1.00  0.00     0.063 A 
ATOM     13  C   UNL     1      15.735  19.300  44.182  1.00  0.00     0.047 A 
ATOM     14  C   UNL     1      16.085  20.645  44.035  1.00  0.00     0.020 A 
ATOM     15  C   UNL     1      15.990  18.634  45.383  1.00  0.00     0.119 A 
ATOM     16  C   UNL     1      16.591  19.321  46.445  1.00  0.00     0.093 A 
ATOM     17  C   UNL     1      16.940  20.673  46.309  1.00  0.00     0.130 A 
BRANCH  15  18
ATOM     18  O   UNL     1      15.639  17.292  45.513  1.00  0.00    -0.508 OA
ATOM     19  H   UNL     1      15.535  16.690  44.704  1.00  0.00     0.293 HD
ENDBRANCH  15  18
BRANCH  17  20
ATOM     20  O   UNL     1      17.492  21.360  47.390  1.00  0.00    -0.507 OA
ATOM     21  H   UNL     1      18.446  21.197  47.693  1.00  0.00     0.293 HD
ENDBRANCH  17  20
ENDBRANCH   1  12
BRANCH   2  22
ATOM     22  O   UNL     1      18.104  22.300  42.757  1.00  0.00    -0.502 OA
ATOM     23  H   UNL     1      17.888  21.313  42.817  1.00  0.00     0.293 HD
ENDBRANCH   2  22
BRANCH   6  24
ATOM     24  O   UNL     1      18.848  27.481  43.766  1.00  0.00    -0.507 OA
ATOM     25  H   UNL     1      19.110  27.087  42.875  1.00  0.00     0.293 HD
ENDBRANCH   6  24
BRANCH   8  26
ATOM     26  O   UNL     1      16.193  27.950  47.740  1.00  0.00    -0.508 OA
ATOM     27  H   UNL     1      16.692  28.769  48.064  1.00  0.00     0.293 HD
ENDBRANCH   8  26
TORSDOF 6
ENDMDL
MODEL 4
REMARK VINA RESULT:    -6.156      1.722      6.875
REMARK INTER + INTRA:          -7.820
REMARK INTER:                  -7.414
REMARK INTRA:                  -0.406
REMARK UNBOUND:                -0.405
REMARK SMILES O=c1c(O)c(-c2ccc(O)cc2O)oc2cc(O)cc(O)c12
REMARK SMILES IDX 5 1 3 2 2 3 1 4 22 5 20 6 19 7 17 8 16 9 15 10 14 11 6 12
REMARK SMILES IDX 8 13 7 14 9 15 11 16 12 17 10 18 13 20 4 22 21 24 18 26
REMARK H PARENT 10 19 13 21 4 23 21 25 18 27
REMARK Flexibility Score: inf
ROOT
ATOM      1  C   UNL     1      17.586  25.086  42.338  1.00  0.00     0.184 A 
ATOM      2  C   UNL     1      16.846  25.495  41.218  1.00  0.00     0.208 A 
ATOM      3  C   UNL     1      17.163  24.961  39.960  1.00  0.00     0.238 A 
ATOM      4  O   UNL     1      16.531  25.371  38.953  1.00  0.00    -0.285 OA
ATOM      5  C   UNL     1      18.206  24.010  39.842  1.00  0.00     0.111 A 
ATOM      6  C   UNL     1      18.586  23.372  38.624  1.00  0.00     0.134 A 
ATOM      7  C   UNL     1      19.717  22.545  38.601  1.00  0.00     0.093 A 
ATOM      8  C   UNL     1      20.442  22.283  39.766  1.00  0.00     0.123 A 
ATOM      9  C   UNL     1      20.043  22.855  40.972  1.00  0.00     0.094 A 
ATOM     10  C   UNL     1      18.941  23.712  41.020  1.00  0.00     0.146 A 
ATOM     11  O   UNL     1      18.602  24.244  42.188  1.00  0.00    -0.451 OA
ENDROOT
BRANCH   1  12
ATOM     12  C   UNL     1      17.294  25.598  43.694  1.00  0.00     0.063 A 
ATOM     13  C   UNL     1      15.999  25.429  45.743  1.00  0.00     0.047 A 
ATOM     14  C   UNL     1      16.302  24.967  44.460  1.00  0.00     0.020 A 
ATOM     15  C   UNL     1      16.671  26.534  46.271  1.00  0.00     0.119 A 
ATOM     16  C   UNL     1      17.646  27.186  45.505  1.00  0.00     0.093 A 
ATOM     17  C   UNL     1      17.954  26.733  44.213  1.00  0.00     0.130 A 
BRANCH  15  18
ATOM     18  O   UNL     1      16.360  26.981  47.553  1.00  0.00    -0.508 OA
ATOM     19  H   UNL     1      16.834  27.775  47.968  1.00  0.00     0.293 HD
ENDBRANCH  15  18
BRANCH  17  20
ATOM     20  O   UNL     1      18.890  27.419  43.441  1.00  0.00    -0.507 OA
ATOM     21  H   UNL     1      19.365  26.976  42.663  1.00  0.00     0.293 HD
ENDBRANCH  17  20
ENDBRANCH   1  12
BRANCH   2  22
ATOM     22  O   UNL     1      15.833  26.449  41.361  1.00  0.00    -0.502 OA
ATOM     23  H   UNL     1      15.997  27.438  41.225  1.00  0.00     0.293 HD
ENDBRANCH   2  22
BRANCH   6  24
ATOM     24  O   UNL     1      17.877  23.493  37.425  1.00  0.00    -0.507 OA
ATOM     25  H   UNL     1      17.384  24.322  37.130  1.00  0.00     0.293 HD
ENDBRANCH   6  24
BRANCH   8  26
ATOM     26  O   UNL     1      21.556  21.448  39.736  1.00  0.00    -0.508 OA
ATOM     27  H   UNL     1      21.479  20.470  39.484  1.00  0.00     0.293 HD
ENDBRANCH   8  26
TORSDOF 6
ENDMDL
MODEL 5
REMARK VINA RESULT:    -6.079      1.893      2.549
REMARK INTER + INTRA:          -7.728
REMARK INTER:                  -7.309
REMARK INTRA:                  -0.418
REMARK UNBOUND:                -0.405
REMARK SMILES O=c1c(O)c(-c2ccc(O)cc2O)oc2cc(O)cc(O)c12
REMARK SMILES IDX 5 1 3 2 2 3 1 4 22 5 20 6 19 7 17 8 16 9 15 10 14 11 6 12
REMARK SMILES IDX 8 13 7 14 9 15 11 16 12 17 10 18 13 20 4 22 21 24 18 26
REMARK H PARENT 10 19 13 21 4 23 21 25 18 27
REMARK Flexibility Score: inf
ROOT
ATOM      1  C   UNL     1      18.534  24.994  39.733  1.00  0.00     0.184 A 
ATOM      2  C   UNL     1      19.336  26.135  39.582  1.00  0.00     0.208 A 
ATOM      3  C   UNL     1      19.723  26.851  40.725  1.00  0.00     0.238 A 
ATOM      4  O   UNL     1      20.397  27.904  40.580  1.00  0.00    -0.285 OA
ATOM      5  C   UNL     1      19.317  26.405  42.006  1.00  0.00     0.111 A 
ATOM      6  C   UNL     1      19.684  27.029  43.236  1.00  0.00     0.134 A 
ATOM      7  C   UNL     1      19.118  26.578  44.435  1.00  0.00     0.093 A 
ATOM      8  C   UNL     1      18.248  25.485  44.455  1.00  0.00     0.123 A 
ATOM      9  C   UNL     1      17.930  24.832  43.266  1.00  0.00     0.094 A 
ATOM     10  C   UNL     1      18.451  25.281  42.051  1.00  0.00     0.146 A 
ATOM     11  O   UNL     1      18.113  24.636  40.939  1.00  0.00    -0.451 OA
ENDROOT
BRANCH   1  12
ATOM     12  C   UNL     1      18.105  24.186  38.571  1.00  0.00     0.063 A 
ATOM     13  C   UNL     1      16.432  23.717  36.872  1.00  0.00     0.047 A 
ATOM     14  C   UNL     1      16.869  24.465  37.968  1.00  0.00     0.020 A 
ATOM     15  C   UNL     1      17.215  22.673  36.375  1.00  0.00     0.119 A 
ATOM     16  C   UNL     1      18.439  22.371  36.984  1.00  0.00     0.093 A 
ATOM     17  C   UNL     1      18.884  23.113  38.090  1.00  0.00     0.130 A 
BRANCH  15  18
ATOM     18  O   UNL     1      16.768  21.939  35.279  1.00  0.00    -0.508 OA
ATOM     19  H   UNL     1      17.168  22.065  34.356  1.00  0.00     0.293 HD
ENDBRANCH  15  18
BRANCH  17  20
ATOM     20  O   UNL     1      20.081  22.772  38.719  1.00  0.00    -0.507 OA
ATOM     21  H   UNL     1      20.978  22.930  38.276  1.00  0.00     0.293 HD
ENDBRANCH  17  20
ENDBRANCH   1  12
BRANCH   2  22
ATOM     22  O   UNL     1      19.708  26.564  38.304  1.00  0.00    -0.502 OA
ATOM     23  H   UNL     1      19.628  27.530  38.011  1.00  0.00     0.293 HD
ENDBRANCH   2  22
BRANCH   6  24
ATOM     24  O   UNL     1      20.614  28.068  43.337  1.00  0.00    -0.507 OA
ATOM     25  H   UNL     1      21.252  28.340  42.605  1.00  0.00     0.293 HD
ENDBRANCH   6  24
BRANCH   8  26
ATOM     26  O   UNL     1      17.702  25.034  45.655  1.00  0.00    -0.508 OA
ATOM     27  H   UNL     1      17.822  25.548  46.518  1.00  0.00     0.293 HD
ENDBRANCH   8  26
TORSDOF 6
ENDMDL
MODEL 6
REMARK VINA RESULT:    -6.055      2.559      6.755
REMARK INTER + INTRA:          -7.698
REMARK INTER:                  -7.520
REMARK INTRA:                  -0.179
REMARK UNBOUND:                -0.405
REMARK SMILES O=c1c(O)c(-c2ccc(O)cc2O)oc2cc(O)cc(O)c12
REMARK SMILES IDX 5 1 3 2 2 3 1 4 22 5 20 6 19 7 17 8 16 9 15 10 14 11 6 12
REMARK SMILES IDX 8 13 7 14 9 15 11 16 12 17 10 18 13 20 4 22 21 24 18 26
REMARK H PARENT 10 19 13 21 4 23 21 25 18 27
REMARK Flexibility Score: inf
ROOT
ATOM      1  C   UNL     1      17.832  26.266  44.096  1.00  0.00     0.184 A 
ATOM      2  C   UNL     1      19.147  26.721  43.916  1.00  0.00     0.208 A 
ATOM      3  C   UNL     1      19.684  26.754  42.620  1.00  0.00     0.238 A 
ATOM      4  O   UNL     1      20.881  27.112  42.471  1.00  0.00    -0.285 OA
ATOM      5  C   UNL     1      18.892  26.347  41.519  1.00  0.00     0.111 A 
ATOM      6  C   UNL     1      19.319  26.377  40.158  1.00  0.00     0.134 A 
ATOM      7  C   UNL     1      18.499  25.829  39.164  1.00  0.00     0.093 A 
ATOM      8  C   UNL     1      17.239  25.311  39.474  1.00  0.00     0.123 A 
ATOM      9  C   UNL     1      16.788  25.331  40.792  1.00  0.00     0.094 A 
ATOM     10  C   UNL     1      17.599  25.839  41.810  1.00  0.00     0.146 A 
ATOM     11  O   UNL     1      17.135  25.829  43.055  1.00  0.00    -0.451 OA
ENDROOT
BRANCH   1  12
ATOM     12  C   UNL     1      17.200  26.221  45.432  1.00  0.00     0.063 A 
ATOM     13  C   UNL     1      16.086  24.926  47.160  1.00  0.00     0.047 A 
ATOM     14  C   UNL     1      16.693  25.001  45.904  1.00  0.00     0.020 A 
ATOM     15  C   UNL     1      15.964  26.069  47.953  1.00  0.00     0.119 A 
ATOM     16  C   UNL     1      16.446  27.297  47.481  1.00  0.00     0.093 A 
ATOM     17  C   UNL     1      17.053  27.384  46.218  1.00  0.00     0.130 A 
BRANCH  15  18
ATOM     18  O   UNL     1      15.360  25.978  49.205  1.00  0.00    -0.508 OA
ATOM     19  H   UNL     1      15.691  25.327  49.908  1.00  0.00     0.293 HD
ENDBRANCH  15  18
BRANCH  17  20
ATOM     20  O   UNL     1      17.484  28.620  45.739  1.00  0.00    -0.507 OA
ATOM     21  H   UNL     1      17.811  28.736  44.787  1.00  0.00     0.293 HD
ENDBRANCH  17  20
ENDBRANCH   1  12
BRANCH   2  22
ATOM     22  O   UNL     1      19.913  27.100  45.023  1.00  0.00    -0.502 OA
ATOM     23  H   UNL     1      20.199  26.440  45.735  1.00  0.00     0.293 HD
ENDBRANCH   2  22
BRANCH   6  24
ATOM     24  O   UNL     1      20.518  26.954  39.729  1.00  0.00    -0.507 OA
ATOM     25  H   UNL     1      20.697  27.946  39.693  1.00  0.00     0.293 HD
ENDBRANCH   6  24
BRANCH   8  26
ATOM     26  O   UNL     1      16.423  24.782  38.477  1.00  0.00    -0.508 OA
ATOM     27  H   UNL     1      15.899  23.928  38.619  1.00  0.00     0.293 HD
ENDBRANCH   8  26
TORSDOF 6
ENDMDL
MODEL 7
REMARK VINA RESULT:    -6.046      3.176      5.211
REMARK INTER + INTRA:          -7.688
REMARK INTER:                  -7.336
REMARK INTRA:                  -0.352
REMARK UNBOUND:                -0.405
REMARK SMILES O=c1c(O)c(-c2ccc(O)cc2O)oc2cc(O)cc(O)c12
REMARK SMILES IDX 5 1 3 2 2 3 1 4 22 5 20 6 19 7 17 8 16 9 15 10 14 11 6 12
REMARK SMILES IDX 8 13 7 14 9 15 11 16 12 17 10 18 13 20 4 22 21 24 18 26
REMARK H PARENT 10 19 13 21 4 23 21 25 18 27
REMARK Flexibility Score: inf
ROOT
ATOM      1  C   UNL     1      17.970  25.747  44.274  1.00  0.00     0.184 A 
ATOM      2  C   UNL     1      17.723  24.371  44.395  1.00  0.00     0.208 A 
ATOM      3  C   UNL     1      16.971  23.907  45.485  1.00  0.00     0.238 A 
ATOM      4  O   UNL     1      16.798  22.668  45.617  1.00  0.00    -0.285 OA
ATOM      5  C   UNL     1      16.461  24.830  46.431  1.00  0.00     0.111 A 
ATOM      6  C   UNL     1      15.653  24.477  47.553  1.00  0.00     0.134 A 
ATOM      7  C   UNL     1      15.314  25.456  48.495  1.00  0.00     0.093 A 
ATOM      8  C   UNL     1      15.699  26.787  48.322  1.00  0.00     0.123 A 
ATOM      9  C   UNL     1      16.439  27.152  47.199  1.00  0.00     0.094 A 
ATOM     10  C   UNL     1      16.823  26.192  46.261  1.00  0.00     0.146 A 
ATOM     11  O   UNL     1      17.537  26.581  45.211  1.00  0.00    -0.451 OA
ENDROOT
BRANCH   1  12
ATOM     12  C   UNL     1      18.741  26.302  43.141  1.00  0.00     0.063 A 
ATOM     13  C   UNL     1      18.964  26.633  40.744  1.00  0.00     0.047 A 
ATOM     14  C   UNL     1      18.257  26.125  41.836  1.00  0.00     0.020 A 
ATOM     15  C   UNL     1      20.168  27.312  40.940  1.00  0.00     0.119 A 
ATOM     16  C   UNL     1      20.673  27.475  42.236  1.00  0.00     0.093 A 
ATOM     17  C   UNL     1      19.972  26.962  43.339  1.00  0.00     0.130 A 
BRANCH  15  18
ATOM     18  O   UNL     1      20.860  27.817  39.841  1.00  0.00    -0.508 OA
ATOM     19  H   UNL     1      21.788  27.489  39.601  1.00  0.00     0.293 HD
ENDBRANCH  15  18
BRANCH  17  20
ATOM     20  O   UNL     1      20.509  27.087  44.620  1.00  0.00    -0.507 OA
ATOM     21  H   UNL     1      20.756  26.275  45.174  1.00  0.00     0.293 HD
ENDBRANCH  17  20
ENDBRANCH   1  12
BRANCH   2  22
ATOM     22  O   UNL     1      18.253  23.480  43.456  1.00  0.00    -0.502 OA
ATOM     23  H   UNL     1      19.164  23.614  43.036  1.00  0.00     0.293 HD
ENDBRANCH   2  22
BRANCH   6  24
ATOM     24  O   UNL     1      15.137  23.196  47.771  1.00  0.00    -0.507 OA
ATOM     25  H   UNL     1      14.182  22.924  47.595  1.00  0.00     0.293 HD
ENDBRANCH   6  24
BRANCH   8  26
ATOM     26  O   UNL     1      15.344  27.757  49.257  1.00  0.00    -0.508 OA
ATOM     27  H   UNL     1      14.483  28.284  49.173  1.00  0.00     0.293 HD
ENDBRANCH   8  26
TORSDOF 6
ENDMDL
MODEL 8
REMARK VINA RESULT:    -6.036      3.514      6.245
REMARK INTER + INTRA:          -7.676
REMARK INTER:                  -7.271
REMARK INTRA:                  -0.406
REMARK UNBOUND:                -0.405
REMARK SMILES O=c1c(O)c(-c2ccc(O)cc2O)oc2cc(O)cc(O)c12
REMARK SMILES IDX 5 1 3 2 2 3 1 4 22 5 20 6 19 7 17 8 16 9 15 10 14 11 6 12
REMARK SMILES IDX 8 13 7 14 9 15 11 16 12 17 10 18 13 20 4 22 21 24 18 26
REMARK H PARENT 10 19 13 21 4 23 21 25 18 27
REMARK Flexibility Score: inf
ROOT
ATOM      1  C   UNL     1      17.287  24.062  42.949  1.00  0.00     0.184 A 
ATOM      2  C   UNL     1      15.962  24.261  42.534  1.00  0.00     0.208 A 
ATOM      3  C   UNL     1      15.038  23.215  42.681  1.00  0.00     0.238 A 
ATOM      4  O   UNL     1      13.865  23.381  42.259  1.00  0.00    -0.285 OA
ATOM      5  C   UNL     1      15.449  21.989  43.259  1.00  0.00     0.111 A 
ATOM      6  C   UNL     1      14.589  20.876  43.495  1.00  0.00     0.134 A 
ATOM      7  C   UNL     1      15.132  19.668  43.952  1.00  0.00     0.093 A 
ATOM      8  C   UNL     1      16.493  19.554  44.243  1.00  0.00     0.123 A 
ATOM      9  C   UNL     1      17.331  20.654  44.072  1.00  0.00     0.094 A 
ATOM     10  C   UNL     1      16.825  21.861  43.584  1.00  0.00     0.146 A 
ATOM     11  O   UNL     1      17.661  22.881  43.425  1.00  0.00    -0.451 OA
ENDROOT
BRANCH   1  12
ATOM     12  C   UNL     1      18.306  25.128  42.836  1.00  0.00     0.063 A 
ATOM     13  C   UNL     1      19.931  26.312  41.470  1.00  0.00     0.047 A 
ATOM     14  C   UNL     1      18.960  25.317  41.609  1.00  0.00     0.020 A 
ATOM     15  C   UNL     1      20.271  27.119  42.558  1.00  0.00     0.119 A 
ATOM     16  C   UNL     1      19.642  26.923  43.793  1.00  0.00     0.093 A 
ATOM     17  C   UNL     1      18.669  25.922  43.944  1.00  0.00     0.130 A 
BRANCH  15  18
ATOM     18  O   UNL     1      21.239  28.110  42.403  1.00  0.00    -0.508 OA
ATOM     19  H   UNL     1      21.702  28.528  43.202  1.00  0.00     0.293 HD
ENDBRANCH  15  18
BRANCH  17  20
ATOM     20  O   UNL     1      18.085  25.704  45.191  1.00  0.00    -0.507 OA
ATOM     21  H   UNL     1      18.629  25.385  45.984  1.00  0.00     0.293 HD
ENDBRANCH  17  20
ENDBRANCH   1  12
BRANCH   2  22
ATOM     22  O   UNL     1      15.587  25.476  41.950  1.00  0.00    -0.502 OA
ATOM     23  H   UNL     1      14.732  25.956  42.200  1.00  0.00     0.293 HD
ENDBRANCH   2  22
BRANCH   6  24
ATOM     24  O   UNL     1      13.201  20.911  43.324  1.00  0.00    -0.507 OA
ATOM     25  H   UNL     1      12.532  20.960  44.077  1.00  0.00     0.293 HD
ENDBRANCH   6  24
BRANCH   8  26
ATOM     26  O   UNL     1      17.022  18.354  44.711  1.00  0.00    -0.508 OA
ATOM     27  H   UNL     1      16.864  17.480  44.225  1.00  0.00     0.293 HD
ENDBRANCH   8  26
TORSDOF 6
ENDMDL
MODEL 9
REMARK VINA RESULT:    -5.978      4.559      6.698
REMARK INTER + INTRA:          -7.605
REMARK INTER:                  -7.429
REMARK INTRA:                  -0.176
REMARK UNBOUND:                -0.405
REMARK SMILES O=c1c(O)c(-c2ccc(O)cc2O)oc2cc(O)cc(O)c12
REMARK SMILES IDX 5 1 3 2 2 3 1 4 22 5 20 6 19 7 17 8 16 9 15 10 14 11 6 12
REMARK SMILES IDX 8 13 7 14 9 15 11 16 12 17 10 18 13 20 4 22 21 24 18 26
REMARK H PARENT 10 19 13 21 4 23 21 25 18 27
REMARK Flexibility Score: inf
ROOT
ATOM      1  C   UNL     1      16.643  22.553  46.033  1.00  0.00     0.184 A 
ATOM      2  C   UNL     1      15.927  23.065  47.126  1.00  0.00     0.208 A 
ATOM      3  C   UNL     1      15.944  24.448  47.362  1.00  0.00     0.238 A 
ATOM      4  O   UNL     1      15.345  24.896  48.374  1.00  0.00    -0.285 OA
ATOM      5  C   UNL     1      16.662  25.302  46.490  1.00  0.00     0.111 A 
ATOM      6  C   UNL     1      16.715  26.723  46.610  1.00  0.00     0.134 A 
ATOM      7  C   UNL     1      17.563  27.456  45.769  1.00  0.00     0.093 A 
ATOM      8  C   UNL     1      18.309  26.825  44.771  1.00  0.00     0.123 A 
ATOM      9  C   UNL     1      18.218  25.445  44.608  1.00  0.00     0.094 A 
ATOM     10  C   UNL     1      17.410  24.683  45.454  1.00  0.00     0.146 A 
ATOM     11  O   UNL     1      17.361  23.368  45.272  1.00  0.00    -0.451 OA
ENDROOT
BRANCH   1  12
ATOM     12  C   UNL     1      16.654  21.108  45.719  1.00  0.00     0.063 A 
ATOM     13  C   UNL     1      16.098  19.313  44.177  1.00  0.00     0.047 A 
ATOM     14  C   UNL     1      16.107  20.672  44.502  1.00  0.00     0.020 A 
ATOM     15  C   UNL     1      16.621  18.373  45.067  1.00  0.00     0.119 A 
ATOM     16  C   UNL     1      17.148  18.795  46.294  1.00  0.00     0.093 A 
ATOM     17  C   UNL     1      17.157  20.157  46.632  1.00  0.00     0.130 A 
BRANCH  15  18
ATOM     18  O   UNL     1      16.608  17.022  44.727  1.00  0.00    -0.508 OA
ATOM     19  H   UNL     1      15.956  16.653  44.045  1.00  0.00     0.293 HD
ENDBRANCH  15  18
BRANCH  17  20
ATOM     20  O   UNL     1      17.639  20.561  47.877  1.00  0.00    -0.507 OA
ATOM     21  H   UNL     1      18.087  21.460  48.007  1.00  0.00     0.293 HD
ENDBRANCH  17  20
ENDBRANCH   1  12
BRANCH   2  22
ATOM     22  O   UNL     1      15.241  22.197  47.981  1.00  0.00    -0.502 OA
ATOM     23  H   UNL     1      15.665  21.809  48.814  1.00  0.00     0.293 HD
ENDBRANCH   2  22
BRANCH   6  24
ATOM     24  O   UNL     1      15.941  27.460  47.512  1.00  0.00    -0.507 OA
ATOM     25  H   UNL     1      15.047  27.168  47.873  1.00  0.00     0.293 HD
ENDBRANCH   6  24
BRANCH   8  26
ATOM     26  O   UNL     1      19.137  27.564  43.929  1.00  0.00    -0.508 OA
ATOM     27  H   UNL     1      20.033  27.916  44.242  1.00  0.00     0.293 HD
ENDBRANCH   8  26
TORSDOF 6
ENDMDL
