MODEL 1
REMARK VINA RESULT:    -3.988      0.000      0.000
REMARK INTER + INTRA:          -7.896
REMARK INTER:                  -6.786
REMARK INTRA:                  -1.110
REMARK UNBOUND:                -1.110
REMARK SMILES CCCCCCCCCCCCCC(=O)[O-]
REMARK SMILES IDX 8 1 9 2 10 3 11 4 12 5 13 6 14 7 15 8 16 9 7 10 6 11 5 12
REMARK SMILES IDX 4 13 3 14 2 15 1 16
REMARK H PARENT
REMARK Flexibility Score: inf
ROOT
ATOM      1  C   UNL     1      45.309  27.018   3.071  1.00  0.00     0.000 C 
ENDROOT
BRANCH   1   2
ATOM      2  C   UNL     1      43.842  26.970   2.628  1.00  0.00     0.000 C 
BRANCH   2   3
ATOM      3  C   UNL     1      43.324  28.375   2.288  1.00  0.00     0.000 C 
BRANCH   3   4
ATOM      4  C   UNL     1      44.405  29.458   2.432  1.00  0.00     0.000 C 
BRANCH   4   5
ATOM      5  C   UNL     1      44.756  30.124   1.093  1.00  0.00     0.006 C 
BRANCH   5   6
ATOM      6  C   UNL     1      46.168  29.736   0.643  1.00  0.00     0.053 C 
BRANCH   6   7
ATOM      7  C   UNL     1      46.108  28.797  -0.521  1.00  0.00     0.041 C 
ATOM      8  O   UNL     1      45.700  27.616  -0.361  1.00  0.00    -0.550 OA
ATOM      9  O   UNL     1      46.455  29.241  -1.790  1.00  0.00    -0.550 OA
ENDBRANCH   6   7
ENDBRANCH   5   6
ENDBRANCH   4   5
ENDBRANCH   3   4
ENDBRANCH   2   3
ENDBRANCH   1   2
BRANCH   1  10
ATOM     10  C   UNL     1      45.612  25.913   4.094  1.00  0.00     0.000 C 
BRANCH  10  11
ATOM     11  C   UNL     1      46.562  26.381   5.207  1.00  0.00    -0.000 C 
BRANCH  11  12
ATOM     12  C   UNL     1      46.314  27.843   5.621  1.00  0.00    -0.000 C 
BRANCH  12  13
ATOM     13  C   UNL     1      46.151  28.005   7.140  1.00  0.00    -0.000 C 
BRANCH  13  14
ATOM     14  C   UNL     1      46.041  26.655   7.869  1.00  0.00    -0.000 C 
BRANCH  14  15
ATOM     15  C   UNL     1      45.456  26.795   9.283  1.00  0.00    -0.003 C 
ATOM     16  C   UNL     1      45.097  28.238   9.632  1.00  0.00     0.004 C 
ENDBRANCH  14  15
ENDBRANCH  13  14
ENDBRANCH  12  13
ENDBRANCH  11  12
ENDBRANCH  10  11
ENDBRANCH   1  10
TORSDOF 12
ENDMDL
MODEL 2
REMARK VINA RESULT:    -3.765      0.934      1.348
REMARK INTER + INTRA:          -7.516
REMARK INTER:                  -6.550
REMARK INTRA:                  -0.966
REMARK UNBOUND:                -1.110
REMARK SMILES CCCCCCCCCCCCCC(=O)[O-]
REMARK SMILES IDX 8 1 9 2 10 3 11 4 12 5 13 6 14 7 15 8 16 9 7 10 6 11 5 12
REMARK SMILES IDX 4 13 3 14 2 15 1 16
REMARK H PARENT
REMARK Flexibility Score: inf
ROOT
ATOM      1  C   UNL     1      44.749  26.305   3.593  1.00  0.00     0.000 C 
ENDROOT
BRANCH   1   2
ATOM      2  C   UNL     1      44.037  27.063   2.467  1.00  0.00     0.000 C 
BRANCH   2   3
ATOM      3  C   UNL     1      44.215  28.580   2.626  1.00  0.00     0.000 C 
BRANCH   3   4
ATOM      4  C   UNL     1      44.893  29.230   1.409  1.00  0.00     0.000 C 
BRANCH   4   5
ATOM      5  C   UNL     1      45.370  28.196   0.378  1.00  0.00     0.006 C 
BRANCH   5   6
ATOM      6  C   UNL     1      46.466  28.782  -0.518  1.00  0.00     0.053 C 
BRANCH   6   7
ATOM      7  C   UNL     1      46.253  28.377  -1.942  1.00  0.00     0.041 C 
ATOM      8  O   UNL     1      46.421  29.211  -2.870  1.00  0.00    -0.550 OA
ATOM      9  O   UNL     1      45.916  27.065  -2.248  1.00  0.00    -0.550 OA
ENDBRANCH   6   7
ENDBRANCH   5   6
ENDBRANCH   4   5
ENDBRANCH   3   4
ENDBRANCH   2   3
ENDBRANCH   1   2
BRANCH   1  10
ATOM     10  C   UNL     1      46.269  26.514   3.523  1.00  0.00     0.000 C 
BRANCH  10  11
ATOM     11  C   UNL     1      46.892  26.792   4.900  1.00  0.00    -0.000 C 
BRANCH  11  12
ATOM     12  C   UNL     1      46.258  28.005   5.603  1.00  0.00    -0.000 C 
BRANCH  12  13
ATOM     13  C   UNL     1      46.436  27.962   7.129  1.00  0.00    -0.000 C 
BRANCH  13  14
ATOM     14  C   UNL     1      46.244  26.549   7.705  1.00  0.00    -0.000 C 
BRANCH  14  15
ATOM     15  C   UNL     1      45.525  26.558   9.063  1.00  0.00    -0.003 C 
ATOM     16  C   UNL     1      45.224  27.971   9.560  1.00  0.00     0.004 C 
ENDBRANCH  14  15
ENDBRANCH  13  14
ENDBRANCH  12  13
ENDBRANCH  11  12
ENDBRANCH  10  11
ENDBRANCH   1  10
TORSDOF 12
ENDMDL
MODEL 3
REMARK VINA RESULT:    -3.763      4.475      7.483
REMARK INTER + INTRA:          -7.512
REMARK INTER:                  -6.669
REMARK INTRA:                  -0.843
REMARK UNBOUND:                -1.110
REMARK SMILES CCCCCCCCCCCCCC(=O)[O-]
REMARK SMILES IDX 8 1 9 2 10 3 11 4 12 5 13 6 14 7 15 8 16 9 7 10 6 11 5 12
REMARK SMILES IDX 4 13 3 14 2 15 1 16
REMARK H PARENT
REMARK Flexibility Score: inf
ROOT
ATOM      1  C   UNL     1      46.046  26.226   4.173  1.00  0.00     0.000 C 
ENDROOT
BRANCH   1   2
ATOM      2  C   UNL     1      46.671  26.371   5.565  1.00  0.00     0.000 C 
BRANCH   2   3
ATOM      3  C   UNL     1      46.340  27.741   6.177  1.00  0.00     0.000 C 
BRANCH   3   4
ATOM      4  C   UNL     1      46.825  27.874   7.629  1.00  0.00     0.000 C 
BRANCH   4   5
ATOM      5  C   UNL     1      45.673  27.819   8.644  1.00  0.00     0.006 C 
BRANCH   5   6
ATOM      6  C   UNL     1      45.515  26.406   9.216  1.00  0.00     0.053 C 
BRANCH   6   7
ATOM      7  C   UNL     1      46.345  26.245  10.450  1.00  0.00     0.041 C 
ATOM      8  O   UNL     1      46.710  27.257  11.105  1.00  0.00    -0.550 OA
ATOM      9  O   UNL     1      46.673  24.975  10.906  1.00  0.00    -0.550 OA
ENDBRANCH   6   7
ENDBRANCH   5   6
ENDBRANCH   4   5
ENDBRANCH   3   4
ENDBRANCH   2   3
ENDBRANCH   1   2
BRANCH   1  10
ATOM     10  C   UNL     1      47.031  26.665   3.079  1.00  0.00     0.000 C 
BRANCH  10  11
ATOM     11  C   UNL     1      46.794  28.112   2.617  1.00  0.00    -0.000 C 
BRANCH  11  12
ATOM     12  C   UNL     1      46.245  28.192   1.181  1.00  0.00    -0.000 C 
BRANCH  12  13
ATOM     13  C   UNL     1      44.889  28.913   1.109  1.00  0.00    -0.000 C 
BRANCH  13  14
ATOM     14  C   UNL     1      44.047  28.716   2.381  1.00  0.00    -0.000 C 
BRANCH  14  15
ATOM     15  C   UNL     1      42.979  27.623   2.217  1.00  0.00    -0.003 C 
ATOM     16  C   UNL     1      41.576  28.113   2.571  1.00  0.00     0.004 C 
ENDBRANCH  14  15
ENDBRANCH  13  14
ENDBRANCH  12  13
ENDBRANCH  11  12
ENDBRANCH  10  11
ENDBRANCH   1  10
TORSDOF 12
ENDMDL
MODEL 4
REMARK VINA RESULT:    -3.640      2.456      3.518
REMARK INTER + INTRA:          -7.304
REMARK INTER:                  -6.496
REMARK INTRA:                  -0.808
REMARK UNBOUND:                -1.110
REMARK SMILES CCCCCCCCCCCCCC(=O)[O-]
REMARK SMILES IDX 8 1 9 2 10 3 11 4 12 5 13 6 14 7 15 8 16 9 7 10 6 11 5 12
REMARK SMILES IDX 4 13 3 14 2 15 1 16
REMARK H PARENT
REMARK Flexibility Score: inf
ROOT
ATOM      1  C   UNL     1      45.986  26.425   5.668  1.00  0.00     0.000 C 
ENDROOT
BRANCH   1   2
ATOM      2  C   UNL     1      46.485  25.839   4.342  1.00  0.00     0.000 C 
BRANCH   2   3
ATOM      3  C   UNL     1      46.846  26.954   3.349  1.00  0.00     0.000 C 
BRANCH   3   4
ATOM      4  C   UNL     1      45.618  27.740   2.866  1.00  0.00     0.000 C 
BRANCH   4   5
ATOM      5  C   UNL     1      44.323  26.916   2.938  1.00  0.00     0.006 C 
BRANCH   5   6
ATOM      6  C   UNL     1      43.354  27.321   1.823  1.00  0.00     0.053 C 
BRANCH   6   7
ATOM      7  C   UNL     1      42.379  28.340   2.321  1.00  0.00     0.041 C 
ATOM      8  O   UNL     1      41.223  27.990   2.678  1.00  0.00    -0.550 OA
ATOM      9  O   UNL     1      42.762  29.670   2.438  1.00  0.00    -0.550 OA
ENDBRANCH   6   7
ENDBRANCH   5   6
ENDBRANCH   4   5
ENDBRANCH   3   4
ENDBRANCH   2   3
ENDBRANCH   1   2
BRANCH   1  10
ATOM     10  C   UNL     1      46.960  27.484   6.204  1.00  0.00     0.000 C 
BRANCH  10  11
ATOM     11  C   UNL     1      46.243  28.639   6.920  1.00  0.00    -0.000 C 
BRANCH  11  12
ATOM     12  C   UNL     1      46.497  28.643   8.438  1.00  0.00    -0.000 C 
BRANCH  12  13
ATOM     13  C   UNL     1      45.264  28.202   9.243  1.00  0.00    -0.000 C 
BRANCH  13  14
ATOM     14  C   UNL     1      45.162  26.673   9.375  1.00  0.00    -0.000 C 
BRANCH  14  15
ATOM     15  C   UNL     1      46.529  26.008   9.594  1.00  0.00    -0.003 C 
ATOM     16  C   UNL     1      46.842  25.776  11.072  1.00  0.00     0.004 C 
ENDBRANCH  14  15
ENDBRANCH  13  14
ENDBRANCH  12  13
ENDBRANCH  11  12
ENDBRANCH  10  11
ENDBRANCH   1  10
TORSDOF 12
ENDMDL
MODEL 5
REMARK VINA RESULT:    -3.619      4.200      7.666
REMARK INTER + INTRA:          -7.267
REMARK INTER:                  -6.330
REMARK INTRA:                  -0.937
REMARK UNBOUND:                -1.110
REMARK SMILES CCCCCCCCCCCCCC(=O)[O-]
REMARK SMILES IDX 8 1 9 2 10 3 11 4 12 5 13 6 14 7 15 8 16 9 7 10 6 11 5 12
REMARK SMILES IDX 4 13 3 14 2 15 1 16
REMARK H PARENT
REMARK Flexibility Score: inf
ROOT
ATOM      1  C   UNL     1      46.611  27.006   6.330  1.00  0.00     0.000 C 
ENDROOT
BRANCH   1   2
ATOM      2  C   UNL     1      46.677  28.522   6.108  1.00  0.00     0.000 C 
BRANCH   2   3
ATOM      3  C   UNL     1      46.679  29.275   7.446  1.00  0.00     0.000 C 
BRANCH   3   4
ATOM      4  C   UNL     1      45.331  29.188   8.178  1.00  0.00     0.000 C 
BRANCH   4   5
ATOM      5  C   UNL     1      45.473  28.675   9.619  1.00  0.00     0.006 C 
BRANCH   5   6
ATOM      6  C   UNL     1      45.190  27.171   9.695  1.00  0.00     0.053 C 
BRANCH   6   7
ATOM      7  C   UNL     1      46.300  26.464  10.406  1.00  0.00     0.041 C 
ATOM      8  O   UNL     1      46.855  26.998  11.402  1.00  0.00    -0.550 OA
ATOM      9  O   UNL     1      46.688  25.194  10.000  1.00  0.00    -0.550 OA
ENDBRANCH   6   7
ENDBRANCH   5   6
ENDBRANCH   4   5
ENDBRANCH   3   4
ENDBRANCH   2   3
ENDBRANCH   1   2
BRANCH   1  10
ATOM     10  C   UNL     1      46.209  26.278   5.039  1.00  0.00     0.000 C 
BRANCH  10  11
ATOM     11  C   UNL     1      45.627  27.227   3.981  1.00  0.00    -0.000 C 
BRANCH  11  12
ATOM     12  C   UNL     1      44.449  26.604   3.211  1.00  0.00    -0.000 C 
BRANCH  12  13
ATOM     13  C   UNL     1      43.998  27.468   2.022  1.00  0.00    -0.000 C 
BRANCH  13  14
ATOM     14  C   UNL     1      44.113  28.975   2.311  1.00  0.00    -0.000 C 
BRANCH  14  15
ATOM     15  C   UNL     1      44.849  29.734   1.198  1.00  0.00    -0.003 C 
ATOM     16  C   UNL     1      45.739  28.824   0.352  1.00  0.00     0.004 C 
ENDBRANCH  14  15
ENDBRANCH  13  14
ENDBRANCH  12  13
ENDBRANCH  11  12
ENDBRANCH  10  11
ENDBRANCH   1  10
TORSDOF 12
ENDMDL
MODEL 6
REMARK VINA RESULT:    -3.610      3.862      7.752
REMARK INTER + INTRA:          -7.253
REMARK INTER:                  -6.416
REMARK INTRA:                  -0.837
REMARK UNBOUND:                -1.110
REMARK SMILES CCCCCCCCCCCCCC(=O)[O-]
REMARK SMILES IDX 8 1 9 2 10 3 11 4 12 5 13 6 14 7 15 8 16 9 7 10 6 11 5 12
REMARK SMILES IDX 4 13 3 14 2 15 1 16
REMARK H PARENT
REMARK Flexibility Score: inf
ROOT
ATOM      1  C   UNL     1      44.501  26.356   3.356  1.00  0.00     0.000 C 
ENDROOT
BRANCH   1   2
ATOM      2  C   UNL     1      46.030  26.451   3.407  1.00  0.00     0.000 C 
BRANCH   2   3
ATOM      3  C   UNL     1      46.523  26.623   4.852  1.00  0.00     0.000 C 
BRANCH   3   4
ATOM      4  C   UNL     1      46.221  28.019   5.420  1.00  0.00     0.000 C 
BRANCH   4   5
ATOM      5  C   UNL     1      46.236  28.048   6.955  1.00  0.00     0.006 C 
BRANCH   5   6
ATOM      6  C   UNL     1      46.063  26.639   7.532  1.00  0.00     0.053 C 
BRANCH   6   7
ATOM      7  C   UNL     1      45.655  26.707   8.969  1.00  0.00     0.041 C 
ATOM      8  O   UNL     1      45.922  25.755   9.749  1.00  0.00    -0.550 OA
ATOM      9  O   UNL     1      45.024  27.842   9.459  1.00  0.00    -0.550 OA
ENDBRANCH   6   7
ENDBRANCH   5   6
ENDBRANCH   4   5
ENDBRANCH   3   4
ENDBRANCH   2   3
ENDBRANCH   1   2
BRANCH   1  10
ATOM     10  C   UNL     1      43.921  27.359   2.347  1.00  0.00     0.000 C 
BRANCH  10  11
ATOM     11  C   UNL     1      44.943  27.784   1.282  1.00  0.00    -0.000 C 
BRANCH  11  12
ATOM     12  C   UNL     1      45.159  29.308   1.243  1.00  0.00    -0.000 C 
BRANCH  12  13
ATOM     13  C   UNL     1      45.695  29.792  -0.113  1.00  0.00    -0.000 C 
BRANCH  13  14
ATOM     14  C   UNL     1      46.383  28.671  -0.910  1.00  0.00    -0.000 C 
BRANCH  14  15
ATOM     15  C   UNL     1      46.040  28.717  -2.408  1.00  0.00    -0.003 C 
ATOM     16  C   UNL     1      46.092  27.340  -3.066  1.00  0.00     0.004 C 
ENDBRANCH  14  15
ENDBRANCH  13  14
ENDBRANCH  12  13
ENDBRANCH  11  12
ENDBRANCH  10  11
ENDBRANCH   1  10
TORSDOF 12
ENDMDL
MODEL 7
REMARK VINA RESULT:    -3.609      3.565      7.065
REMARK INTER + INTRA:          -7.251
REMARK INTER:                  -6.093
REMARK INTRA:                  -1.158
REMARK UNBOUND:                -1.110
REMARK SMILES CCCCCCCCCCCCCC(=O)[O-]
REMARK SMILES IDX 8 1 9 2 10 3 11 4 12 5 13 6 14 7 15 8 16 9 7 10 6 11 5 12
REMARK SMILES IDX 4 13 3 14 2 15 1 16
REMARK H PARENT
REMARK Flexibility Score: inf
ROOT
ATOM      1  C   UNL     1      46.064  26.433   3.716  1.00  0.00     0.000 C 
ENDROOT
BRANCH   1   2
ATOM      2  C   UNL     1      46.405  27.057   5.074  1.00  0.00     0.000 C 
BRANCH   2   3
ATOM      3  C   UNL     1      46.212  28.581   5.045  1.00  0.00     0.000 C 
BRANCH   3   4
ATOM      4  C   UNL     1      46.013  29.181   6.445  1.00  0.00     0.000 C 
BRANCH   4   5
ATOM      5  C   UNL     1      46.718  28.369   7.542  1.00  0.00     0.006 C 
BRANCH   5   6
ATOM      6  C   UNL     1      45.700  27.750   8.506  1.00  0.00     0.053 C 
BRANCH   6   7
ATOM      7  C   UNL     1      46.171  26.411   8.976  1.00  0.00     0.041 C 
ATOM      8  O   UNL     1      45.688  25.902  10.022  1.00  0.00    -0.550 OA
ATOM      9  O   UNL     1      47.106  25.702   8.234  1.00  0.00    -0.550 OA
ENDBRANCH   6   7
ENDBRANCH   5   6
ENDBRANCH   4   5
ENDBRANCH   3   4
ENDBRANCH   2   3
ENDBRANCH   1   2
BRANCH   1  10
ATOM     10  C   UNL     1      44.546  26.414   3.484  1.00  0.00     0.000 C 
BRANCH  10  11
ATOM     11  C   UNL     1      44.144  27.050   2.145  1.00  0.00    -0.000 C 
BRANCH  11  12
ATOM     12  C   UNL     1      43.085  28.155   2.308  1.00  0.00    -0.000 C 
BRANCH  12  13
ATOM     13  C   UNL     1      43.668  29.563   2.110  1.00  0.00    -0.000 C 
BRANCH  13  14
ATOM     14  C   UNL     1      45.159  29.537   1.737  1.00  0.00    -0.000 C 
BRANCH  14  15
ATOM     15  C   UNL     1      45.408  29.933   0.273  1.00  0.00    -0.003 C 
ATOM     16  C   UNL     1      46.010  28.796  -0.551  1.00  0.00     0.004 C 
ENDBRANCH  14  15
ENDBRANCH  13  14
ENDBRANCH  12  13
ENDBRANCH  11  12
ENDBRANCH  10  11
ENDBRANCH   1  10
TORSDOF 12
ENDMDL
MODEL 8
REMARK VINA RESULT:    -3.586      4.142      6.744
REMARK INTER + INTRA:          -7.210
REMARK INTER:                  -6.611
REMARK INTRA:                  -0.600
REMARK UNBOUND:                -1.110
REMARK SMILES CCCCCCCCCCCCCC(=O)[O-]
REMARK SMILES IDX 8 1 9 2 10 3 11 4 12 5 13 6 14 7 15 8 16 9 7 10 6 11 5 12
REMARK SMILES IDX 4 13 3 14 2 15 1 16
REMARK H PARENT
REMARK Flexibility Score: inf
ROOT
ATOM      1  C   UNL     1      46.005  27.829  -2.256  1.00  0.00     0.000 C 
ENDROOT
BRANCH   1   2
ATOM      2  C   UNL     1      45.886  28.475  -3.642  1.00  0.00     0.000 C 
BRANCH   2   3
ATOM      3  C   UNL     1      46.443  27.547  -4.732  1.00  0.00     0.000 C 
BRANCH   3   4
ATOM      4  C   UNL     1      45.520  27.449  -5.957  1.00  0.00     0.000 C 
BRANCH   4   5
ATOM      5  C   UNL     1      44.035  27.591  -5.591  1.00  0.00     0.006 C 
BRANCH   5   6
ATOM      6  C   UNL     1      43.302  28.471  -6.608  1.00  0.00     0.053 C 
BRANCH   6   7
ATOM      7  C   UNL     1      42.157  29.181  -5.959  1.00  0.00     0.041 C 
ATOM      8  O   UNL     1      42.270  29.623  -4.785  1.00  0.00    -0.550 OA
ATOM      9  O   UNL     1      40.982  29.397  -6.666  1.00  0.00    -0.550 OA
ENDBRANCH   6   7
ENDBRANCH   5   6
ENDBRANCH   4   5
ENDBRANCH   3   4
ENDBRANCH   2   3
ENDBRANCH   1   2
BRANCH   1  10
ATOM     10  C   UNL     1      46.108  28.898  -1.158  1.00  0.00     0.000 C 
BRANCH  10  11
ATOM     11  C   UNL     1      45.861  28.328   0.247  1.00  0.00    -0.000 C 
BRANCH  11  12
ATOM     12  C   UNL     1      44.979  29.246   1.112  1.00  0.00    -0.000 C 
BRANCH  12  13
ATOM     13  C   UNL     1      44.835  28.737   2.554  1.00  0.00    -0.000 C 
BRANCH  13  14
ATOM     14  C   UNL     1      44.109  27.383   2.633  1.00  0.00    -0.000 C 
BRANCH  14  15
ATOM     15  C   UNL     1      42.777  27.384   1.867  1.00  0.00    -0.003 C 
ATOM     16  C   UNL     1      41.682  28.167   2.589  1.00  0.00     0.004 C 
ENDBRANCH  14  15
ENDBRANCH  13  14
ENDBRANCH  12  13
ENDBRANCH  11  12
ENDBRANCH  10  11
ENDBRANCH   1  10
TORSDOF 12
ENDMDL
MODEL 9
REMARK VINA RESULT:    -3.584      3.655      8.668
REMARK INTER + INTRA:          -7.209
REMARK INTER:                  -6.373
REMARK INTRA:                  -0.835
REMARK UNBOUND:                -1.110
REMARK SMILES CCCCCCCCCCCCCC(=O)[O-]
REMARK SMILES IDX 8 1 9 2 10 3 11 4 12 5 13 6 14 7 15 8 16 9 7 10 6 11 5 12
REMARK SMILES IDX 4 13 3 14 2 15 1 16
REMARK H PARENT
REMARK Flexibility Score: inf
ROOT
ATOM      1  C   UNL     1      46.672  29.149  -1.035  1.00  0.00     0.000 C 
ENDROOT
BRANCH   1   2
ATOM      2  C   UNL     1      45.693  29.276   0.139  1.00  0.00     0.000 C 
BRANCH   2   3
ATOM      3  C   UNL     1      45.593  27.955   0.918  1.00  0.00     0.000 C 
BRANCH   3   4
ATOM      4  C   UNL     1      44.143  27.569   1.247  1.00  0.00     0.000 C 
BRANCH   4   5
ATOM      5  C   UNL     1      43.944  27.228   2.731  1.00  0.00     0.006 C 
BRANCH   5   6
ATOM      6  C   UNL     1      45.234  27.463   3.524  1.00  0.00     0.053 C 
BRANCH   6   7
ATOM      7  C   UNL     1      45.620  26.228   4.274  1.00  0.00     0.041 C 
ATOM      8  O   UNL     1      46.137  26.318   5.419  1.00  0.00    -0.550 OA
ATOM      9  O   UNL     1      45.365  24.976   3.731  1.00  0.00    -0.550 OA
ENDBRANCH   6   7
ENDBRANCH   5   6
ENDBRANCH   4   5
ENDBRANCH   3   4
ENDBRANCH   2   3
ENDBRANCH   1   2
BRANCH   1  10
ATOM     10  C   UNL     1      46.247  30.049  -2.205  1.00  0.00     0.000 C 
BRANCH  10  11
ATOM     11  C   UNL     1      45.660  29.252  -3.380  1.00  0.00    -0.000 C 
BRANCH  11  12
ATOM     12  C   UNL     1      45.835  27.732  -3.211  1.00  0.00    -0.000 C 
BRANCH  12  13
ATOM     13  C   UNL     1      45.226  26.936  -4.376  1.00  0.00    -0.000 C 
BRANCH  13  14
ATOM     14  C   UNL     1      44.730  27.842  -5.515  1.00  0.00    -0.000 C 
BRANCH  14  15
ATOM     15  C   UNL     1      43.293  27.512  -5.949  1.00  0.00    -0.003 C 
ATOM     16  C   UNL     1      42.292  28.591  -5.540  1.00  0.00     0.004 C 
ENDBRANCH  14  15
ENDBRANCH  13  14
ENDBRANCH  12  13
ENDBRANCH  11  12
ENDBRANCH  10  11
ENDBRANCH   1  10
TORSDOF 12
ENDMDL
