MODEL 1
REMARK VINA RESULT:    -6.995      0.000      0.000
REMARK INTER + INTRA:         -11.963
REMARK INTER:                 -10.266
REMARK INTRA:                  -1.697
REMARK UNBOUND:                -1.697
REMARK SMILES O=c1c(O[C@H]2O[C@H](CO)[C@H](O)[C@@H](O)[C@@H]2O)c(-c2ccc(O)c(O)c2)oc2cc(O)cc(O)c12
REMARK SMILES IDX 4 1 3 2 16 3 25 4 2 5 26 6 1 7 33 8 27 9 31 10 28 11 30 12
REMARK SMILES IDX 17 13 18 14 19 15 20 16 24 17 22 18 21 19 23 21 32 23 29 25
REMARK SMILES IDX 5 27 14 28 6 29 12 30 7 31 10 32 15 33 13 35 8 37 9 38 11 40
REMARK H PARENT 21 20 23 22 32 24 29 26 15 34 13 36 9 39 11 41
REMARK Flexibility Score: inf
ROOT
ATOM      1  O   UNL     1      -1.320 -18.741  28.124  1.00  0.00    -0.454 OA
ENDROOT
BRANCH   1   2
ATOM      2  C   UNL     1      -1.149 -20.071  28.576  1.00  0.00     0.214 A 
ATOM      3  C   UNL     1      -0.450 -20.966  27.745  1.00  0.00     0.180 A 
ATOM      4  O   UNL     1      -0.357 -22.249  28.066  1.00  0.00    -0.452 OA
ATOM      5  C   UNL     1      -1.668 -20.566  29.798  1.00  0.00     0.239 A 
ATOM      6  C   UNL     1      -0.842 -22.757  29.189  1.00  0.00     0.146 A 
ATOM      7  O   UNL     1      -2.320 -19.804  30.554  1.00  0.00    -0.285 OA
ATOM      8  C   UNL     1      -1.480 -21.928  30.145  1.00  0.00     0.111 A 
ATOM      9  C   UNL     1      -0.709 -24.129  29.411  1.00  0.00     0.094 A 
ATOM     10  C   UNL     1      -1.927 -22.522  31.367  1.00  0.00     0.134 A 
ATOM     11  C   UNL     1      -1.203 -24.708  30.577  1.00  0.00     0.123 A 
ATOM     12  C   UNL     1      -1.810 -23.905  31.545  1.00  0.00     0.093 A 
BRANCH   3  13
ATOM     13  C   UNL     1       0.183 -20.522  26.489  1.00  0.00     0.025 A 
ATOM     14  C   UNL     1       1.561 -20.267  26.436  1.00  0.00     0.016 A 
ATOM     15  C   UNL     1       2.159 -19.873  25.238  1.00  0.00     0.051 A 
ATOM     16  C   UNL     1       1.391 -19.753  24.071  1.00  0.00     0.157 A 
ATOM     17  C   UNL     1      -0.580 -20.426  25.317  1.00  0.00     0.062 A 
ATOM     18  C   UNL     1       0.015 -20.038  24.110  1.00  0.00     0.158 A 
BRANCH  16  19
ATOM     19  O   UNL     1       1.990 -19.356  22.876  1.00  0.00    -0.504 OA
ATOM     20  H   UNL     1       1.447 -18.970  22.113  1.00  0.00     0.293 HD
ENDBRANCH  16  19
BRANCH  18  21
ATOM     21  O   UNL     1      -0.772 -19.946  22.963  1.00  0.00    -0.504 OA
ATOM     22  H   UNL     1      -1.680 -19.498  22.969  1.00  0.00     0.293 HD
ENDBRANCH  18  21
ENDBRANCH   3  13
BRANCH  10  23
ATOM     23  O   UNL     1      -2.457 -21.801  32.439  1.00  0.00    -0.507 OA
ATOM     24  H   UNL     1      -2.532 -20.796  32.480  1.00  0.00     0.293 HD
ENDBRANCH  10  23
BRANCH  11  25
ATOM     25  O   UNL     1      -1.073 -26.081  30.772  1.00  0.00    -0.508 OA
ATOM     26  H   UNL     1      -1.168 -26.498  31.690  1.00  0.00     0.293 HD
ENDBRANCH  11  25
ENDBRANCH   1   2
BRANCH   1  27
ATOM     27  C   UNL     1      -0.501 -17.610  28.445  1.00  0.00     0.339 C 
ATOM     28  C   UNL     1      -1.332 -16.472  29.085  1.00  0.00     0.214 C 
ATOM     29  O   UNL     1       0.232 -17.161  27.316  1.00  0.00    -0.332 OA
ATOM     30  C   UNL     1      -2.162 -15.677  28.045  1.00  0.00     0.180 C 
ATOM     31  C   UNL     1      -0.632 -16.692  26.295  1.00  0.00     0.179 C 
ATOM     32  C   UNL     1      -1.364 -15.408  26.752  1.00  0.00     0.177 C 
BRANCH  28  33
ATOM     33  O   UNL     1      -0.453 -15.598  29.745  1.00  0.00    -0.384 OA
ATOM     34  H   UNL     1       0.095 -16.149  30.364  1.00  0.00     0.211 HD
ENDBRANCH  28  33
BRANCH  30  35
ATOM     35  O   UNL     1      -3.389 -16.307  27.774  1.00  0.00    -0.387 OA
ATOM     36  H   UNL     1      -4.041 -15.608  27.526  1.00  0.00     0.211 HD
ENDBRANCH  30  35
BRANCH  31  37
ATOM     37  C   UNL     1       0.179 -16.466  25.012  1.00  0.00     0.191 C 
BRANCH  37  38
ATOM     38  O   UNL     1      -0.455 -15.534  24.179  1.00  0.00    -0.394 OA
ATOM     39  H   UNL     1      -0.174 -14.637  24.496  1.00  0.00     0.210 HD
ENDBRANCH  37  38
ENDBRANCH  31  37
BRANCH  32  40
ATOM     40  O   UNL     1      -0.435 -14.380  27.003  1.00  0.00    -0.387 OA
ATOM     41  H   UNL     1       0.401 -14.613  26.522  1.00  0.00     0.211 HD
ENDBRANCH  32  40
ENDBRANCH   1  27
TORSDOF 12
ENDMDL
MODEL 2
REMARK VINA RESULT:    -6.893      2.088      3.321
REMARK INTER + INTRA:         -11.814
REMARK INTER:                 -10.343
REMARK INTRA:                  -1.471
REMARK UNBOUND:                -1.697
REMARK SMILES O=c1c(O[C@H]2O[C@H](CO)[C@H](O)[C@@H](O)[C@@H]2O)c(-c2ccc(O)c(O)c2)oc2cc(O)cc(O)c12
REMARK SMILES IDX 4 1 3 2 16 3 25 4 2 5 26 6 1 7 33 8 27 9 31 10 28 11 30 12
REMARK SMILES IDX 17 13 18 14 19 15 20 16 24 17 22 18 21 19 23 21 32 23 29 25
REMARK SMILES IDX 5 27 14 28 6 29 12 30 7 31 10 32 15 33 13 35 8 37 9 38 11 40
REMARK H PARENT 21 20 23 22 32 24 29 26 15 34 13 36 9 39 11 41
REMARK Flexibility Score: inf
ROOT
ATOM      1  O   UNL     1      -0.385 -20.951  28.008  1.00  0.00    -0.454 OA
ENDROOT
BRANCH   1   2
ATOM      2  C   UNL     1      -0.469 -22.210  28.647  1.00  0.00     0.214 A 
ATOM      3  C   UNL     1       0.299 -23.268  28.127  1.00  0.00     0.180 A 
ATOM      4  O   UNL     1       0.174 -24.494  28.615  1.00  0.00    -0.452 OA
ATOM      5  C   UNL     1      -1.307 -22.482  29.757  1.00  0.00     0.239 A 
ATOM      6  C   UNL     1      -0.609 -24.795  29.640  1.00  0.00     0.146 A 
ATOM      7  O   UNL     1      -2.027 -21.570  30.233  1.00  0.00    -0.285 OA
ATOM      8  C   UNL     1      -1.355 -23.790  30.303  1.00  0.00     0.111 A 
ATOM      9  C   UNL     1      -0.682 -26.127  30.053  1.00  0.00     0.094 A 
ATOM     10  C   UNL     1      -2.133 -24.164  31.443  1.00  0.00     0.134 A 
ATOM     11  C   UNL     1      -1.492 -26.490  31.126  1.00  0.00     0.123 A 
ATOM     12  C   UNL     1      -2.214 -25.511  31.812  1.00  0.00     0.093 A 
BRANCH   3  13
ATOM     13  C   UNL     1       1.250 -23.061  27.017  1.00  0.00     0.025 A 
ATOM     14  C   UNL     1       2.555 -22.618  27.271  1.00  0.00     0.016 A 
ATOM     15  C   UNL     1       3.459 -22.449  26.220  1.00  0.00     0.051 A 
ATOM     16  C   UNL     1       3.075 -22.746  24.904  1.00  0.00     0.157 A 
ATOM     17  C   UNL     1       0.874 -23.382  25.705  1.00  0.00     0.062 A 
ATOM     18  C   UNL     1       1.778 -23.222  24.648  1.00  0.00     0.158 A 
BRANCH  16  19
ATOM     19  O   UNL     1       3.978 -22.575  23.855  1.00  0.00    -0.504 OA
ATOM     20  H   UNL     1       3.736 -22.819  22.902  1.00  0.00     0.293 HD
ENDBRANCH  16  19
BRANCH  18  21
ATOM     21  O   UNL     1       1.371 -23.544  23.353  1.00  0.00    -0.504 OA
ATOM     22  H   UNL     1       0.535 -24.084  23.171  1.00  0.00     0.293 HD
ENDBRANCH  18  21
ENDBRANCH   3  13
BRANCH  10  23
ATOM     23  O   UNL     1      -2.814 -23.256  32.258  1.00  0.00    -0.507 OA
ATOM     24  H   UNL     1      -2.908 -22.269  32.072  1.00  0.00     0.293 HD
ENDBRANCH  10  23
BRANCH  11  25
ATOM     25  O   UNL     1      -1.562 -27.827  31.513  1.00  0.00    -0.508 OA
ATOM     26  H   UNL     1      -2.450 -28.292  31.654  1.00  0.00     0.293 HD
ENDBRANCH  11  25
ENDBRANCH   1   2
BRANCH   1  27
ATOM     27  C   UNL     1      -1.261 -20.438  26.997  1.00  0.00     0.339 C 
ATOM     28  C   UNL     1      -0.530 -20.275  25.643  1.00  0.00     0.214 C 
ATOM     29  O   UNL     1      -1.884 -19.232  27.411  1.00  0.00    -0.332 OA
ATOM     30  C   UNL     1       0.384 -19.024  25.601  1.00  0.00     0.180 C 
ATOM     31  C   UNL     1      -0.931 -18.201  27.607  1.00  0.00     0.179 C 
ATOM     32  C   UNL     1      -0.282 -17.799  26.261  1.00  0.00     0.177 C 
BRANCH  28  33
ATOM     33  O   UNL     1      -1.493 -20.183  24.626  1.00  0.00    -0.384 OA
ATOM     34  H   UNL     1      -1.261 -19.388  24.077  1.00  0.00     0.211 HD
ENDBRANCH  28  33
BRANCH  30  35
ATOM     35  O   UNL     1       1.648 -19.287  26.156  1.00  0.00    -0.387 OA
ATOM     36  H   UNL     1       1.563 -19.246  27.138  1.00  0.00     0.211 HD
ENDBRANCH  30  35
BRANCH  31  37
ATOM     37  C   UNL     1      -1.610 -17.011  28.298  1.00  0.00     0.191 C 
BRANCH  37  38
ATOM     38  O   UNL     1      -2.875 -16.769  27.743  1.00  0.00    -0.394 OA
ATOM     39  H   UNL     1      -3.323 -16.115  28.340  1.00  0.00     0.210 HD
ENDBRANCH  37  38
ENDBRANCH  31  37
BRANCH  32  40
ATOM     40  O   UNL     1      -1.257 -17.289  25.384  1.00  0.00    -0.387 OA
ATOM     41  H   UNL     1      -1.343 -17.931  24.631  1.00  0.00     0.211 HD
ENDBRANCH  32  40
ENDBRANCH   1  27
TORSDOF 12
ENDMDL
MODEL 3
REMARK VINA RESULT:    -6.830      2.232      7.798
REMARK INTER + INTRA:         -11.722
REMARK INTER:                 -10.059
REMARK INTRA:                  -1.662
REMARK UNBOUND:                -1.697
REMARK SMILES O=c1c(O[C@H]2O[C@H](CO)[C@H](O)[C@@H](O)[C@@H]2O)c(-c2ccc(O)c(O)c2)oc2cc(O)cc(O)c12
REMARK SMILES IDX 4 1 3 2 16 3 25 4 2 5 26 6 1 7 33 8 27 9 31 10 28 11 30 12
REMARK SMILES IDX 17 13 18 14 19 15 20 16 24 17 22 18 21 19 23 21 32 23 29 25
REMARK SMILES IDX 5 27 14 28 6 29 12 30 7 31 10 32 15 33 13 35 8 37 9 38 11 40
REMARK H PARENT 21 20 23 22 32 24 29 26 15 34 13 36 9 39 11 41
REMARK Flexibility Score: inf
ROOT
ATOM      1  O   UNL     1       0.168 -20.929  26.011  1.00  0.00    -0.454 OA
ENDROOT
BRANCH   1   2
ATOM      2  C   UNL     1      -0.264 -19.606  26.262  1.00  0.00     0.214 A 
ATOM      3  C   UNL     1      -0.791 -19.312  27.533  1.00  0.00     0.180 A 
ATOM      4  O   UNL     1      -1.313 -18.120  27.787  1.00  0.00    -0.452 OA
ATOM      5  C   UNL     1      -0.231 -18.565  25.300  1.00  0.00     0.239 A 
ATOM      6  C   UNL     1      -1.318 -17.125  26.912  1.00  0.00     0.146 A 
ATOM      7  O   UNL     1       0.208 -18.795  24.146  1.00  0.00    -0.285 OA
ATOM      8  C   UNL     1      -0.727 -17.279  25.634  1.00  0.00     0.111 A 
ATOM      9  C   UNL     1      -1.919 -15.919  27.280  1.00  0.00     0.094 A 
ATOM     10  C   UNL     1      -0.707 -16.150  24.756  1.00  0.00     0.134 A 
ATOM     11  C   UNL     1      -1.949 -14.846  26.393  1.00  0.00     0.123 A 
ATOM     12  C   UNL     1      -1.348 -14.966  25.139  1.00  0.00     0.093 A 
BRANCH   3  13
ATOM     13  C   UNL     1      -0.801 -20.313  28.617  1.00  0.00     0.025 A 
ATOM     14  C   UNL     1       0.090 -20.207  29.694  1.00  0.00     0.016 A 
ATOM     15  C   UNL     1       0.058 -21.143  30.730  1.00  0.00     0.051 A 
ATOM     16  C   UNL     1      -0.883 -22.183  30.713  1.00  0.00     0.157 A 
ATOM     17  C   UNL     1      -1.758 -21.339  28.612  1.00  0.00     0.062 A 
ATOM     18  C   UNL     1      -1.799 -22.276  29.652  1.00  0.00     0.158 A 
BRANCH  16  19
ATOM     19  O   UNL     1      -0.912 -23.118  31.747  1.00  0.00    -0.504 OA
ATOM     20  H   UNL     1      -1.752 -23.288  32.286  1.00  0.00     0.293 HD
ENDBRANCH  16  19
BRANCH  18  21
ATOM     21  O   UNL     1      -2.759 -23.287  29.615  1.00  0.00    -0.504 OA
ATOM     22  H   UNL     1      -3.073 -23.761  30.453  1.00  0.00     0.293 HD
ENDBRANCH  18  21
ENDBRANCH   3  13
BRANCH  10  23
ATOM     23  O   UNL     1      -0.050 -16.129  23.523  1.00  0.00    -0.507 OA
ATOM     24  H   UNL     1      -0.492 -15.946  22.635  1.00  0.00     0.293 HD
ENDBRANCH  10  23
BRANCH  11  25
ATOM     25  O   UNL     1      -2.567 -13.657  26.774  1.00  0.00    -0.508 OA
ATOM     26  H   UNL     1      -2.362 -12.780  26.309  1.00  0.00     0.293 HD
ENDBRANCH  11  25
ENDBRANCH   1   2
BRANCH   1  27
ATOM     27  C   UNL     1       1.507 -21.430  26.104  1.00  0.00     0.339 C 
ATOM     28  C   UNL     1       1.986 -22.019  24.756  1.00  0.00     0.214 C 
ATOM     29  O   UNL     1       1.642 -22.361  27.167  1.00  0.00    -0.332 OA
ATOM     30  C   UNL     1       1.394 -23.423  24.470  1.00  0.00     0.180 C 
ATOM     31  C   UNL     1       0.849 -23.514  26.945  1.00  0.00     0.179 C 
ATOM     32  C   UNL     1       1.380 -24.312  25.731  1.00  0.00     0.177 C 
BRANCH  28  33
ATOM     33  O   UNL     1       3.388 -22.101  24.780  1.00  0.00    -0.384 OA
ATOM     34  H   UNL     1       3.637 -22.586  25.611  1.00  0.00     0.211 HD
ENDBRANCH  28  33
BRANCH  30  35
ATOM     35  O   UNL     1       0.120 -23.338  23.883  1.00  0.00    -0.387 OA
ATOM     36  H   UNL     1      -0.548 -23.571  24.572  1.00  0.00     0.211 HD
ENDBRANCH  30  35
BRANCH  31  37
ATOM     37  C   UNL     1       0.823 -24.361  28.224  1.00  0.00     0.191 C 
BRANCH  37  38
ATOM     38  O   UNL     1       0.715 -25.724  27.917  1.00  0.00    -0.394 OA
ATOM     39  H   UNL     1       1.464 -26.178  28.382  1.00  0.00     0.210 HD
ENDBRANCH  37  38
ENDBRANCH  31  37
BRANCH  32  40
ATOM     40  O   UNL     1       2.691 -24.761  25.979  1.00  0.00    -0.387 OA
ATOM     41  H   UNL     1       3.312 -24.098  25.579  1.00  0.00     0.211 HD
ENDBRANCH  32  40
ENDBRANCH   1  27
TORSDOF 12
ENDMDL
MODEL 4
REMARK VINA RESULT:    -6.777      2.266      7.879
REMARK INTER + INTRA:         -11.644
REMARK INTER:                  -9.984
REMARK INTRA:                  -1.660
REMARK UNBOUND:                -1.697
REMARK SMILES O=c1c(O[C@H]2O[C@H](CO)[C@H](O)[C@@H](O)[C@@H]2O)c(-c2ccc(O)c(O)c2)oc2cc(O)cc(O)c12
REMARK SMILES IDX 4 1 3 2 16 3 25 4 2 5 26 6 1 7 33 8 27 9 31 10 28 11 30 12
REMARK SMILES IDX 17 13 18 14 19 15 20 16 24 17 22 18 21 19 23 21 32 23 29 25
REMARK SMILES IDX 5 27 14 28 6 29 12 30 7 31 10 32 15 33 13 35 8 37 9 38 11 40
REMARK H PARENT 21 20 23 22 32 24 29 26 15 34 13 36 9 39 11 41
REMARK Flexibility Score: inf
ROOT
ATOM      1  O   UNL     1       0.161 -20.979  26.021  1.00  0.00    -0.454 OA
ENDROOT
BRANCH   1   2
ATOM      2  C   UNL     1      -0.276 -19.656  26.268  1.00  0.00     0.214 A 
ATOM      3  C   UNL     1      -0.851 -19.373  27.521  1.00  0.00     0.180 A 
ATOM      4  O   UNL     1      -1.378 -18.181  27.765  1.00  0.00    -0.452 OA
ATOM      5  C   UNL     1      -0.203 -18.607  25.319  1.00  0.00     0.239 A 
ATOM      6  C   UNL     1      -1.346 -17.178  26.901  1.00  0.00     0.146 A 
ATOM      7  O   UNL     1       0.280 -18.828  24.180  1.00  0.00    -0.285 OA
ATOM      8  C   UNL     1      -0.706 -17.322  25.645  1.00  0.00     0.111 A 
ATOM      9  C   UNL     1      -1.957 -15.974  27.257  1.00  0.00     0.094 A 
ATOM     10  C   UNL     1      -0.648 -16.185  24.780  1.00  0.00     0.134 A 
ATOM     11  C   UNL     1      -1.948 -14.892  26.380  1.00  0.00     0.123 A 
ATOM     12  C   UNL     1      -1.300 -15.003  25.149  1.00  0.00     0.093 A 
BRANCH   3  13
ATOM     13  C   UNL     1      -0.906 -20.385  28.593  1.00  0.00     0.025 A 
ATOM     14  C   UNL     1      -1.849 -21.420  28.549  1.00  0.00     0.016 A 
ATOM     15  C   UNL     1      -1.878 -22.391  29.553  1.00  0.00     0.051 A 
ATOM     16  C   UNL     1      -0.946 -22.351  30.600  1.00  0.00     0.157 A 
ATOM     17  C   UNL     1       0.042 -20.359  29.627  1.00  0.00     0.062 A 
ATOM     18  C   UNL     1       0.022 -21.334  30.633  1.00  0.00     0.158 A 
BRANCH  16  19
ATOM     19  O   UNL     1      -0.979 -23.319  31.603  1.00  0.00    -0.504 OA
ATOM     20  H   UNL     1      -1.579 -24.132  31.538  1.00  0.00     0.293 HD
ENDBRANCH  16  19
BRANCH  18  21
ATOM     21  O   UNL     1       0.974 -21.278  31.650  1.00  0.00    -0.504 OA
ATOM     22  H   UNL     1       1.400 -20.406  31.941  1.00  0.00     0.293 HD
ENDBRANCH  18  21
ENDBRANCH   3  13
BRANCH  10  23
ATOM     23  O   UNL     1       0.055 -16.155  23.574  1.00  0.00    -0.507 OA
ATOM     24  H   UNL     1      -0.299 -15.782  22.706  1.00  0.00     0.293 HD
ENDBRANCH  10  23
BRANCH  11  25
ATOM     25  O   UNL     1      -2.576 -13.704  26.748  1.00  0.00    -0.508 OA
ATOM     26  H   UNL     1      -3.413 -13.701  27.319  1.00  0.00     0.293 HD
ENDBRANCH  11  25
ENDBRANCH   1   2
BRANCH   1  27
ATOM     27  C   UNL     1       1.501 -21.475  26.117  1.00  0.00     0.339 C 
ATOM     28  C   UNL     1       1.985 -22.063  24.770  1.00  0.00     0.214 C 
ATOM     29  O   UNL     1       1.638 -22.406  27.180  1.00  0.00    -0.332 OA
ATOM     30  C   UNL     1       1.400 -23.469  24.483  1.00  0.00     0.180 C 
ATOM     31  C   UNL     1       0.849 -23.562  26.956  1.00  0.00     0.179 C 
ATOM     32  C   UNL     1       1.386 -24.358  25.743  1.00  0.00     0.177 C 
BRANCH  28  33
ATOM     33  O   UNL     1       3.387 -22.139  24.797  1.00  0.00    -0.384 OA
ATOM     34  H   UNL     1       3.676 -22.492  23.914  1.00  0.00     0.211 HD
ENDBRANCH  28  33
BRANCH  30  35
ATOM     35  O   UNL     1       0.126 -23.387  23.893  1.00  0.00    -0.387 OA
ATOM     36  H   UNL     1       0.106 -22.582  23.322  1.00  0.00     0.211 HD
ENDBRANCH  30  35
BRANCH  31  37
ATOM     37  C   UNL     1       0.823 -24.410  28.235  1.00  0.00     0.191 C 
BRANCH  37  38
ATOM     38  O   UNL     1       0.721 -25.773  27.927  1.00  0.00    -0.394 OA
ATOM     39  H   UNL     1      -0.248 -25.971  27.846  1.00  0.00     0.210 HD
ENDBRANCH  37  38
ENDBRANCH  31  37
BRANCH  32  40
ATOM     40  O   UNL     1       2.697 -24.802  25.994  1.00  0.00    -0.387 OA
ATOM     41  H   UNL     1       3.102 -24.178  26.652  1.00  0.00     0.211 HD
ENDBRANCH  32  40
ENDBRANCH   1  27
TORSDOF 12
ENDMDL
MODEL 5
REMARK VINA RESULT:    -6.723      1.927      6.529
REMARK INTER + INTRA:         -11.564
REMARK INTER:                 -10.009
REMARK INTRA:                  -1.555
REMARK UNBOUND:                -1.697
REMARK SMILES O=c1c(O[C@H]2O[C@H](CO)[C@H](O)[C@@H](O)[C@@H]2O)c(-c2ccc(O)c(O)c2)oc2cc(O)cc(O)c12
REMARK SMILES IDX 4 1 3 2 16 3 25 4 2 5 26 6 1 7 33 8 27 9 31 10 28 11 30 12
REMARK SMILES IDX 17 13 18 14 19 15 20 16 24 17 22 18 21 19 23 21 32 23 29 25
REMARK SMILES IDX 5 27 14 28 6 29 12 30 7 31 10 32 15 33 13 35 8 37 9 38 11 40
REMARK H PARENT 21 20 23 22 32 24 29 26 15 34 13 36 9 39 11 41
REMARK Flexibility Score: inf
ROOT
ATOM      1  O   UNL     1       0.077 -20.305  28.577  1.00  0.00    -0.454 OA
ENDROOT
BRANCH   1   2
ATOM      2  C   UNL     1      -0.374 -19.142  27.911  1.00  0.00     0.214 A 
ATOM      3  C   UNL     1      -0.026 -18.978  26.558  1.00  0.00     0.180 A 
ATOM      4  O   UNL     1      -0.326 -17.857  25.917  1.00  0.00    -0.452 OA
ATOM      5  C   UNL     1      -1.127 -18.114  28.532  1.00  0.00     0.239 A 
ATOM      6  C   UNL     1      -1.012 -16.865  26.464  1.00  0.00     0.146 A 
ATOM      7  O   UNL     1      -1.435 -18.212  29.746  1.00  0.00    -0.285 OA
ATOM      8  C   UNL     1      -1.498 -16.963  27.791  1.00  0.00     0.111 A 
ATOM      9  C   UNL     1      -1.248 -15.719  25.701  1.00  0.00     0.094 A 
ATOM     10  C   UNL     1      -2.286 -15.887  28.306  1.00  0.00     0.134 A 
ATOM     11  C   UNL     1      -1.964 -14.651  26.234  1.00  0.00     0.123 A 
ATOM     12  C   UNL     1      -2.476 -14.738  27.530  1.00  0.00     0.093 A 
BRANCH   3  13
ATOM     13  C   UNL     1       0.696 -20.027  25.813  1.00  0.00     0.025 A 
ATOM     14  C   UNL     1       2.096 -20.075  25.824  1.00  0.00     0.016 A 
ATOM     15  C   UNL     1       2.773 -21.087  25.139  1.00  0.00     0.051 A 
ATOM     16  C   UNL     1       2.055 -22.078  24.455  1.00  0.00     0.157 A 
ATOM     17  C   UNL     1      -0.023 -21.033  25.149  1.00  0.00     0.062 A 
ATOM     18  C   UNL     1       0.650 -22.054  24.466  1.00  0.00     0.158 A 
BRANCH  16  19
ATOM     19  O   UNL     1       2.731 -23.086  23.769  1.00  0.00    -0.504 OA
ATOM     20  H   UNL     1       3.663 -23.379  24.039  1.00  0.00     0.293 HD
ENDBRANCH  16  19
BRANCH  18  21
ATOM     21  O   UNL     1      -0.093 -23.035  23.812  1.00  0.00    -0.504 OA
ATOM     22  H   UNL     1      -0.058 -23.156  22.807  1.00  0.00     0.293 HD
ENDBRANCH  18  21
ENDBRANCH   3  13
BRANCH  10  23
ATOM     23  O   UNL     1      -2.927 -15.910  29.547  1.00  0.00    -0.507 OA
ATOM     24  H   UNL     1      -2.816 -16.633  30.242  1.00  0.00     0.293 HD
ENDBRANCH  10  23
BRANCH  11  25
ATOM     25  O   UNL     1      -2.175 -13.511  25.462  1.00  0.00    -0.508 OA
ATOM     26  H   UNL     1      -2.490 -12.641  25.874  1.00  0.00     0.293 HD
ENDBRANCH  11  25
ENDBRANCH   1   2
BRANCH   1  27
ATOM     27  C   UNL     1      -0.595 -21.568  28.656  1.00  0.00     0.339 C 
ATOM     28  C   UNL     1      -1.821 -21.500  29.597  1.00  0.00     0.214 C 
ATOM     29  O   UNL     1       0.296 -22.611  29.022  1.00  0.00    -0.332 OA
ATOM     30  C   UNL     1      -1.429 -21.524  31.097  1.00  0.00     0.180 C 
ATOM     31  C   UNL     1       0.818 -22.408  30.324  1.00  0.00     0.179 C 
ATOM     32  C   UNL     1      -0.301 -22.536  31.383  1.00  0.00     0.177 C 
BRANCH  28  33
ATOM     33  O   UNL     1      -2.658 -22.592  29.318  1.00  0.00    -0.384 OA
ATOM     34  H   UNL     1      -3.203 -22.757  30.132  1.00  0.00     0.211 HD
ENDBRANCH  28  33
BRANCH  30  35
ATOM     35  O   UNL     1      -1.103 -20.239  31.566  1.00  0.00    -0.387 OA
ATOM     36  H   UNL     1      -0.293 -20.317  32.125  1.00  0.00     0.211 HD
ENDBRANCH  30  35
BRANCH  31  37
ATOM     37  C   UNL     1       1.961 -23.402  30.569  1.00  0.00     0.191 C 
BRANCH  37  38
ATOM     38  O   UNL     1       2.073 -23.705  31.933  1.00  0.00    -0.394 OA
ATOM     39  H   UNL     1       1.342 -24.343  32.141  1.00  0.00     0.210 HD
ENDBRANCH  37  38
ENDBRANCH  31  37
BRANCH  32  40
ATOM     40  O   UNL     1      -0.846 -23.834  31.361  1.00  0.00    -0.387 OA
ATOM     41  H   UNL     1      -0.372 -24.342  30.652  1.00  0.00     0.211 HD
ENDBRANCH  32  40
ENDBRANCH   1  27
TORSDOF 12
ENDMDL
MODEL 6
REMARK VINA RESULT:    -6.632      3.217      7.713
REMARK INTER + INTRA:         -11.431
REMARK INTER:                 -10.605
REMARK INTRA:                  -0.826
REMARK UNBOUND:                -1.697
REMARK SMILES O=c1c(O[C@H]2O[C@H](CO)[C@H](O)[C@@H](O)[C@@H]2O)c(-c2ccc(O)c(O)c2)oc2cc(O)cc(O)c12
REMARK SMILES IDX 4 1 3 2 16 3 25 4 2 5 26 6 1 7 33 8 27 9 31 10 28 11 30 12
REMARK SMILES IDX 17 13 18 14 19 15 20 16 24 17 22 18 21 19 23 21 32 23 29 25
REMARK SMILES IDX 5 27 14 28 6 29 12 30 7 31 10 32 15 33 13 35 8 37 9 38 11 40
REMARK H PARENT 21 20 23 22 32 24 29 26 15 34 13 36 9 39 11 41
REMARK Flexibility Score: inf
ROOT
ATOM      1  O   UNL     1      -0.367 -23.308  28.744  1.00  0.00    -0.454 OA
ENDROOT
BRANCH   1   2
ATOM      2  C   UNL     1       0.395 -22.787  27.672  1.00  0.00     0.214 A 
ATOM      3  C   UNL     1       1.756 -23.139  27.595  1.00  0.00     0.180 A 
ATOM      4  O   UNL     1       2.542 -22.593  26.678  1.00  0.00    -0.452 OA
ATOM      5  C   UNL     1      -0.118 -21.904  26.690  1.00  0.00     0.239 A 
ATOM      6  C   UNL     1       2.107 -21.751  25.753  1.00  0.00     0.146 A 
ATOM      7  O   UNL     1      -1.321 -21.546  26.740  1.00  0.00    -0.285 OA
ATOM      8  C   UNL     1       0.736 -21.400  25.676  1.00  0.00     0.111 A 
ATOM      9  C   UNL     1       3.031 -21.216  24.853  1.00  0.00     0.094 A 
ATOM     10  C   UNL     1       0.315 -20.537  24.617  1.00  0.00     0.134 A 
ATOM     11  C   UNL     1       2.620 -20.327  23.863  1.00  0.00     0.123 A 
ATOM     12  C   UNL     1       1.270 -19.990  23.752  1.00  0.00     0.093 A 
BRANCH   3  13
ATOM     13  C   UNL     1       2.358 -24.106  28.533  1.00  0.00     0.025 A 
ATOM     14  C   UNL     1       2.978 -23.666  29.710  1.00  0.00     0.016 A 
ATOM     15  C   UNL     1       3.523 -24.587  30.607  1.00  0.00     0.051 A 
ATOM     16  C   UNL     1       3.431 -25.963  30.349  1.00  0.00     0.157 A 
ATOM     17  C   UNL     1       2.244 -25.482  28.287  1.00  0.00     0.062 A 
ATOM     18  C   UNL     1       2.782 -26.411  29.186  1.00  0.00     0.158 A 
BRANCH  16  19
ATOM     19  O   UNL     1       3.977 -26.881  31.244  1.00  0.00    -0.504 OA
ATOM     20  H   UNL     1       3.431 -27.648  31.618  1.00  0.00     0.293 HD
ENDBRANCH  16  19
BRANCH  18  21
ATOM     21  O   UNL     1       2.657 -27.772  28.911  1.00  0.00    -0.504 OA
ATOM     22  H   UNL     1       2.708 -28.475  29.638  1.00  0.00     0.293 HD
ENDBRANCH  18  21
ENDBRANCH   3  13
BRANCH  10  23
ATOM     23  O   UNL     1      -1.018 -20.214  24.353  1.00  0.00    -0.507 OA
ATOM     24  H   UNL     1      -1.378 -19.935  23.453  1.00  0.00     0.293 HD
ENDBRANCH  10  23
BRANCH  11  25
ATOM     25  O   UNL     1       3.561 -19.793  22.985  1.00  0.00    -0.508 OA
ATOM     26  H   UNL     1       4.205 -19.067  23.274  1.00  0.00     0.293 HD
ENDBRANCH  11  25
ENDBRANCH   1   2
BRANCH   1  27
ATOM     27  C   UNL     1      -1.635 -22.832  29.210  1.00  0.00     0.339 C 
ATOM     28  C   UNL     1      -1.486 -21.523  30.020  1.00  0.00     0.214 C 
ATOM     29  O   UNL     1      -2.330 -23.831  29.940  1.00  0.00    -0.332 OA
ATOM     30  C   UNL     1      -0.958 -21.763  31.458  1.00  0.00     0.180 C 
ATOM     31  C   UNL     1      -1.631 -24.185  31.121  1.00  0.00     0.179 C 
ATOM     32  C   UNL     1      -1.609 -22.999  32.114  1.00  0.00     0.177 C 
BRANCH  28  33
ATOM     33  O   UNL     1      -2.740 -20.895  30.085  1.00  0.00    -0.384 OA
ATOM     34  H   UNL     1      -2.927 -20.715  31.044  1.00  0.00     0.211 HD
ENDBRANCH  28  33
BRANCH  30  35
ATOM     35  O   UNL     1       0.445 -21.841  31.486  1.00  0.00    -0.387 OA
ATOM     36  H   UNL     1       0.731 -22.447  30.761  1.00  0.00     0.211 HD
ENDBRANCH  30  35
BRANCH  31  37
ATOM     37  C   UNL     1      -2.276 -25.436  31.733  1.00  0.00     0.191 C 
BRANCH  37  38
ATOM     38  O   UNL     1      -2.092 -25.462  33.122  1.00  0.00    -0.394 OA
ATOM     39  H   UNL     1      -2.907 -25.059  33.521  1.00  0.00     0.210 HD
ENDBRANCH  37  38
ENDBRANCH  31  37
BRANCH  32  40
ATOM     40  O   UNL     1      -2.920 -22.663  32.502  1.00  0.00    -0.387 OA
ATOM     41  H   UNL     1      -3.531 -23.327  32.087  1.00  0.00     0.211 HD
ENDBRANCH  32  40
ENDBRANCH   1  27
TORSDOF 12
ENDMDL
MODEL 7
REMARK VINA RESULT:    -6.512      2.716      5.569
REMARK INTER + INTRA:         -11.255
REMARK INTER:                  -9.799
REMARK INTRA:                  -1.456
REMARK UNBOUND:                -1.697
REMARK SMILES O=c1c(O[C@H]2O[C@H](CO)[C@H](O)[C@@H](O)[C@@H]2O)c(-c2ccc(O)c(O)c2)oc2cc(O)cc(O)c12
REMARK SMILES IDX 4 1 3 2 16 3 25 4 2 5 26 6 1 7 33 8 27 9 31 10 28 11 30 12
REMARK SMILES IDX 17 13 18 14 19 15 20 16 24 17 22 18 21 19 23 21 32 23 29 25
REMARK SMILES IDX 5 27 14 28 6 29 12 30 7 31 10 32 15 33 13 35 8 37 9 38 11 40
REMARK H PARENT 21 20 23 22 32 24 29 26 15 34 13 36 9 39 11 41
REMARK Flexibility Score: inf
ROOT
ATOM      1  O   UNL     1       0.114 -21.931  27.118  1.00  0.00    -0.454 OA
ENDROOT
BRANCH   1   2
ATOM      2  C   UNL     1       0.686 -22.931  27.939  1.00  0.00     0.214 A 
ATOM      3  C   UNL     1       0.497 -22.834  29.330  1.00  0.00     0.180 A 
ATOM      4  O   UNL     1       1.104 -23.679  30.152  1.00  0.00    -0.452 OA
ATOM      5  C   UNL     1       1.470 -24.006  27.449  1.00  0.00     0.239 A 
ATOM      6  C   UNL     1       1.857 -24.686  29.737  1.00  0.00     0.146 A 
ATOM      7  O   UNL     1       1.683 -24.112  26.215  1.00  0.00    -0.285 OA
ATOM      8  C   UNL     1       2.038 -24.937  28.355  1.00  0.00     0.111 A 
ATOM      9  C   UNL     1       2.469 -25.498  30.696  1.00  0.00     0.094 A 
ATOM     10  C   UNL     1       2.810 -26.077  27.968  1.00  0.00     0.134 A 
ATOM     11  C   UNL     1       3.269 -26.568  30.307  1.00  0.00     0.123 A 
ATOM     12  C   UNL     1       3.439 -26.850  28.950  1.00  0.00     0.093 A 
BRANCH   3  13
ATOM     13  C   UNL     1      -0.359 -21.789  29.922  1.00  0.00     0.025 A 
ATOM     14  C   UNL     1      -1.750 -21.953  29.975  1.00  0.00     0.016 A 
ATOM     15  C   UNL     1      -2.553 -20.973  30.562  1.00  0.00     0.051 A 
ATOM     16  C   UNL     1      -1.972 -19.828  31.126  1.00  0.00     0.157 A 
ATOM     17  C   UNL     1       0.224 -20.656  30.508  1.00  0.00     0.062 A 
ATOM     18  C   UNL     1      -0.576 -19.673  31.104  1.00  0.00     0.158 A 
BRANCH  16  19
ATOM     19  O   UNL     1      -2.776 -18.848  31.708  1.00  0.00    -0.504 OA
ATOM     20  H   UNL     1      -2.755 -18.668  32.705  1.00  0.00     0.293 HD
ENDBRANCH  16  19
BRANCH  18  21
ATOM     21  O   UNL     1       0.034 -18.556  31.672  1.00  0.00    -0.504 OA
ATOM     22  H   UNL     1       1.034 -18.509  31.828  1.00  0.00     0.293 HD
ENDBRANCH  18  21
ENDBRANCH   3  13
BRANCH  10  23
ATOM     23  O   UNL     1       2.963 -26.507  26.648  1.00  0.00    -0.507 OA
ATOM     24  H   UNL     1       2.376 -26.227  25.876  1.00  0.00     0.293 HD
ENDBRANCH  10  23
BRANCH  11  25
ATOM     25  O   UNL     1       3.883 -27.356  31.278  1.00  0.00    -0.508 OA
ATOM     26  H   UNL     1       3.440 -27.539  32.171  1.00  0.00     0.293 HD
ENDBRANCH  11  25
ENDBRANCH   1   2
BRANCH   1  27
ATOM     27  C   UNL     1       0.683 -20.658  26.789  1.00  0.00     0.339 C 
ATOM     28  C   UNL     1      -0.314 -19.506  27.055  1.00  0.00     0.214 C 
ATOM     29  O   UNL     1       1.174 -20.637  25.457  1.00  0.00    -0.332 OA
ATOM     30  C   UNL     1      -1.406 -19.391  25.960  1.00  0.00     0.180 C 
ATOM     31  C   UNL     1       0.126 -20.808  24.519  1.00  0.00     0.179 C 
ATOM     32  C   UNL     1      -0.828 -19.590  24.544  1.00  0.00     0.177 C 
BRANCH  28  33
ATOM     33  O   UNL     1       0.406 -18.301  27.121  1.00  0.00    -0.384 OA
ATOM     34  H   UNL     1      -0.219 -17.608  27.463  1.00  0.00     0.211 HD
ENDBRANCH  28  33
BRANCH  30  35
ATOM     35  O   UNL     1      -2.480 -20.264  26.208  1.00  0.00    -0.387 OA
ATOM     36  H   UNL     1      -3.006 -20.342  25.377  1.00  0.00     0.211 HD
ENDBRANCH  30  35
BRANCH  31  37
ATOM     37  C   UNL     1       0.728 -21.039  23.126  1.00  0.00     0.191 C 
BRANCH  37  38
ATOM     38  O   UNL     1       1.877 -20.257  22.944  1.00  0.00    -0.394 OA
ATOM     39  H   UNL     1       1.566 -19.320  22.845  1.00  0.00     0.210 HD
ENDBRANCH  37  38
ENDBRANCH  31  37
BRANCH  32  40
ATOM     40  O   UNL     1      -0.137 -18.422  24.173  1.00  0.00    -0.387 OA
ATOM     41  H   UNL     1       0.815 -18.670  24.040  1.00  0.00     0.211 HD
ENDBRANCH  32  40
ENDBRANCH   1  27
TORSDOF 12
ENDMDL
MODEL 8
REMARK VINA RESULT:    -6.433      2.167      7.706
REMARK INTER + INTRA:         -11.139
REMARK INTER:                  -9.916
REMARK INTRA:                  -1.223
REMARK UNBOUND:                -1.697
REMARK SMILES O=c1c(O[C@H]2O[C@H](CO)[C@H](O)[C@@H](O)[C@@H]2O)c(-c2ccc(O)c(O)c2)oc2cc(O)cc(O)c12
REMARK SMILES IDX 4 1 3 2 16 3 25 4 2 5 26 6 1 7 33 8 27 9 31 10 28 11 30 12
REMARK SMILES IDX 17 13 18 14 19 15 20 16 24 17 22 18 21 19 23 21 32 23 29 25
REMARK SMILES IDX 5 27 14 28 6 29 12 30 7 31 10 32 15 33 13 35 8 37 9 38 11 40
REMARK H PARENT 21 20 23 22 32 24 29 26 15 34 13 36 9 39 11 41
REMARK Flexibility Score: inf
ROOT
ATOM      1  O   UNL     1       0.271 -18.414  26.264  1.00  0.00    -0.454 OA
ENDROOT
BRANCH   1   2
ATOM      2  C   UNL     1      -0.071 -17.113  26.702  1.00  0.00     0.214 A 
ATOM      3  C   UNL     1      -0.599 -16.969  27.999  1.00  0.00     0.180 A 
ATOM      4  O   UNL     1      -1.039 -15.792  28.420  1.00  0.00    -0.452 OA
ATOM      5  C   UNL     1       0.051 -15.949  25.903  1.00  0.00     0.239 A 
ATOM      6  C   UNL     1      -0.959 -14.683  27.700  1.00  0.00     0.146 A 
ATOM      7  O   UNL     1       0.493 -16.040  24.731  1.00  0.00    -0.285 OA
ATOM      8  C   UNL     1      -0.358 -14.692  26.417  1.00  0.00     0.111 A 
ATOM      9  C   UNL     1      -1.481 -13.503  28.235  1.00  0.00     0.094 A 
ATOM     10  C   UNL     1      -0.244 -13.453  25.714  1.00  0.00     0.134 A 
ATOM     11  C   UNL     1      -1.419 -12.314  27.515  1.00  0.00     0.123 A 
ATOM     12  C   UNL     1      -0.806 -12.294  26.261  1.00  0.00     0.093 A 
BRANCH   3  13
ATOM     13  C   UNL     1      -0.697 -18.114  28.924  1.00  0.00     0.025 A 
ATOM     14  C   UNL     1       0.459 -18.712  29.444  1.00  0.00     0.016 A 
ATOM     15  C   UNL     1       0.358 -19.778  30.341  1.00  0.00     0.051 A 
ATOM     16  C   UNL     1      -0.901 -20.243  30.748  1.00  0.00     0.157 A 
ATOM     17  C   UNL     1      -1.956 -18.562  29.351  1.00  0.00     0.062 A 
ATOM     18  C   UNL     1      -2.063 -19.626  30.255  1.00  0.00     0.158 A 
BRANCH  16  19
ATOM     19  O   UNL     1      -0.999 -21.309  31.641  1.00  0.00    -0.504 OA
ATOM     20  H   UNL     1      -0.453 -21.340  32.493  1.00  0.00     0.293 HD
ENDBRANCH  16  19
BRANCH  18  21
ATOM     21  O   UNL     1      -3.329 -20.052  30.654  1.00  0.00    -0.504 OA
ATOM     22  H   UNL     1      -3.529 -20.324  31.609  1.00  0.00     0.293 HD
ENDBRANCH  18  21
ENDBRANCH   3  13
BRANCH  10  23
ATOM     23  O   UNL     1       0.434 -13.300  24.502  1.00  0.00    -0.507 OA
ATOM     24  H   UNL     1       0.837 -14.054  23.965  1.00  0.00     0.293 HD
ENDBRANCH  10  23
BRANCH  11  25
ATOM     25  O   UNL     1      -1.958 -11.151  28.061  1.00  0.00    -0.508 OA
ATOM     26  H   UNL     1      -1.554 -10.712  28.879  1.00  0.00     0.293 HD
ENDBRANCH  11  25
ENDBRANCH   1   2
BRANCH   1  27
ATOM     27  C   UNL     1      -0.522 -19.282  25.445  1.00  0.00     0.339 C 
ATOM     28  C   UNL     1      -0.808 -20.626  26.156  1.00  0.00     0.214 C 
ATOM     29  O   UNL     1       0.065 -19.474  24.167  1.00  0.00    -0.332 OA
ATOM     30  C   UNL     1       0.408 -21.586  26.138  1.00  0.00     0.180 C 
ATOM     31  C   UNL     1       1.317 -20.131  24.270  1.00  0.00     0.179 C 
ATOM     32  C   UNL     1       1.127 -21.582  24.773  1.00  0.00     0.177 C 
BRANCH  28  33
ATOM     33  O   UNL     1      -1.898 -21.243  25.520  1.00  0.00    -0.384 OA
ATOM     34  H   UNL     1      -2.158 -20.660  24.758  1.00  0.00     0.211 HD
ENDBRANCH  28  33
BRANCH  30  35
ATOM     35  O   UNL     1       1.298 -21.314  27.192  1.00  0.00    -0.387 OA
ATOM     36  H   UNL     1       0.918 -21.700  28.017  1.00  0.00     0.211 HD
ENDBRANCH  30  35
BRANCH  31  37
ATOM     37  C   UNL     1       2.026 -20.081  22.910  1.00  0.00     0.191 C 
BRANCH  37  38
ATOM     38  O   UNL     1       3.388 -19.795  23.069  1.00  0.00    -0.394 OA
ATOM     39  H   UNL     1       3.800 -20.603  23.474  1.00  0.00     0.210 HD
ENDBRANCH  37  38
ENDBRANCH  31  37
BRANCH  32  40
ATOM     40  O   UNL     1       0.355 -22.318  23.855  1.00  0.00    -0.387 OA
ATOM     41  H   UNL     1      -0.323 -21.700  23.475  1.00  0.00     0.211 HD
ENDBRANCH  32  40
ENDBRANCH   1  27
TORSDOF 12
ENDMDL
MODEL 9
REMARK VINA RESULT:    -6.429      1.953      5.028
REMARK INTER + INTRA:         -11.133
REMARK INTER:                  -9.430
REMARK INTRA:                  -1.703
REMARK UNBOUND:                -1.697
REMARK SMILES O=c1c(O[C@H]2O[C@H](CO)[C@H](O)[C@@H](O)[C@@H]2O)c(-c2ccc(O)c(O)c2)oc2cc(O)cc(O)c12
REMARK SMILES IDX 4 1 3 2 16 3 25 4 2 5 26 6 1 7 33 8 27 9 31 10 28 11 30 12
REMARK SMILES IDX 17 13 18 14 19 15 20 16 24 17 22 18 21 19 23 21 32 23 29 25
REMARK SMILES IDX 5 27 14 28 6 29 12 30 7 31 10 32 15 33 13 35 8 37 9 38 11 40
REMARK H PARENT 21 20 23 22 32 24 29 26 15 34 13 36 9 39 11 41
REMARK Flexibility Score: inf
ROOT
ATOM      1  O   UNL     1       0.906 -22.047  27.204  1.00  0.00    -0.454 OA
ENDROOT
BRANCH   1   2
ATOM      2  C   UNL     1       0.112 -22.156  28.370  1.00  0.00     0.214 A 
ATOM      3  C   UNL     1      -0.273 -20.969  29.020  1.00  0.00     0.180 A 
ATOM      4  O   UNL     1      -0.921 -21.014  30.176  1.00  0.00    -0.452 OA
ATOM      5  C   UNL     1      -0.290 -23.388  28.944  1.00  0.00     0.239 A 
ATOM      6  C   UNL     1      -1.301 -22.143  30.755  1.00  0.00     0.146 A 
ATOM      7  O   UNL     1       0.056 -24.469  28.406  1.00  0.00    -0.285 OA
ATOM      8  C   UNL     1      -1.051 -23.395  30.140  1.00  0.00     0.111 A 
ATOM      9  C   UNL     1      -1.955 -22.072  31.987  1.00  0.00     0.094 A 
ATOM     10  C   UNL     1      -1.541 -24.575  30.782  1.00  0.00     0.134 A 
ATOM     11  C   UNL     1      -2.373 -23.232  32.633  1.00  0.00     0.123 A 
ATOM     12  C   UNL     1      -2.162 -24.474  32.032  1.00  0.00     0.093 A 
BRANCH   3  13
ATOM     13  C   UNL     1       0.042 -19.642  28.457  1.00  0.00     0.025 A 
ATOM     14  C   UNL     1       1.295 -19.054  28.675  1.00  0.00     0.016 A 
ATOM     15  C   UNL     1       1.596 -17.810  28.117  1.00  0.00     0.051 A 
ATOM     16  C   UNL     1       0.656 -17.150  27.312  1.00  0.00     0.157 A 
ATOM     17  C   UNL     1      -0.889 -18.994  27.632  1.00  0.00     0.062 A 
ATOM     18  C   UNL     1      -0.590 -17.750  27.064  1.00  0.00     0.158 A 
BRANCH  16  19
ATOM     19  O   UNL     1       0.958 -15.907  26.758  1.00  0.00    -0.504 OA
ATOM     20  H   UNL     1       1.400 -15.823  25.851  1.00  0.00     0.293 HD
ENDBRANCH  16  19
BRANCH  18  21
ATOM     21  O   UNL     1      -1.539 -17.128  26.253  1.00  0.00    -0.504 OA
ATOM     22  H   UNL     1      -1.381 -16.217  25.841  1.00  0.00     0.293 HD
ENDBRANCH  18  21
ENDBRANCH   3  13
BRANCH  10  23
ATOM     23  O   UNL     1      -1.472 -25.854  30.225  1.00  0.00    -0.507 OA
ATOM     24  H   UNL     1      -2.213 -26.299  29.704  1.00  0.00     0.293 HD
ENDBRANCH  10  23
BRANCH  11  25
ATOM     25  O   UNL     1      -3.011 -23.139  33.868  1.00  0.00    -0.508 OA
ATOM     26  H   UNL     1      -2.901 -22.327  34.462  1.00  0.00     0.293 HD
ENDBRANCH  11  25
ENDBRANCH   1   2
BRANCH   1  27
ATOM     27  C   UNL     1       0.442 -21.962  25.851  1.00  0.00     0.339 C 
ATOM     28  C   UNL     1       0.954 -23.149  25.001  1.00  0.00     0.214 C 
ATOM     29  O   UNL     1       0.769 -20.711  25.266  1.00  0.00    -0.332 OA
ATOM     30  C   UNL     1       2.439 -22.994  24.586  1.00  0.00     0.180 C 
ATOM     31  C   UNL     1       2.172 -20.540  25.168  1.00  0.00     0.179 C 
ATOM     32  C   UNL     1       2.773 -21.548  24.161  1.00  0.00     0.177 C 
BRANCH  28  33
ATOM     33  O   UNL     1       0.157 -23.247  23.848  1.00  0.00    -0.384 OA
ATOM     34  H   UNL     1      -0.778 -23.054  24.124  1.00  0.00     0.211 HD
ENDBRANCH  28  33
BRANCH  30  35
ATOM     35  O   UNL     1       3.308 -23.450  25.593  1.00  0.00    -0.387 OA
ATOM     36  H   UNL     1       3.860 -24.174  25.213  1.00  0.00     0.211 HD
ENDBRANCH  30  35
BRANCH  31  37
ATOM     37  C   UNL     1       2.477 -19.087  24.780  1.00  0.00     0.191 C 
BRANCH  37  38
ATOM     38  O   UNL     1       1.523 -18.603  23.874  1.00  0.00    -0.394 OA
ATOM     39  H   UNL     1       0.747 -18.306  24.416  1.00  0.00     0.210 HD
ENDBRANCH  37  38
ENDBRANCH  31  37
BRANCH  32  40
ATOM     40  O   UNL     1       2.246 -21.325  22.875  1.00  0.00    -0.387 OA
ATOM     41  H   UNL     1       2.211 -20.343  22.735  1.00  0.00     0.211 HD
ENDBRANCH  32  40
ENDBRANCH   1  27
TORSDOF 12
ENDMDL
