MODEL 1
REMARK VINA RESULT:    -4.306      0.000      0.000
REMARK INTER + INTRA:          -5.575
REMARK INTER:                  -5.187
REMARK INTRA:                  -0.387
REMARK UNBOUND:                -0.387
REMARK SMILES O=c1c(O)c(-c2ccc(O)cc2O)oc2cc(O)cc(O)c12
REMARK SMILES IDX 5 1 3 2 2 3 1 4 22 5 20 6 19 7 17 8 16 9 15 10 14 11 6 12
REMARK SMILES IDX 8 13 7 14 9 15 11 16 12 17 10 18 13 20 4 22 21 24 18 26
REMARK H PARENT 10 19 13 21 4 23 21 25 18 27
REMARK Flexibility Score: inf
ROOT
ATOM      1  C   UNL     1      -6.530   0.512  -5.295  1.00  0.00     0.184 A 
ATOM      2  C   UNL     1      -7.670   0.289  -4.507  1.00  0.00     0.208 A 
ATOM      3  C   UNL     1      -7.516   0.099  -3.125  1.00  0.00     0.238 A 
ATOM      4  O   UNL     1      -8.534  -0.160  -2.433  1.00  0.00    -0.285 OA
ATOM      5  C   UNL     1      -6.224   0.162  -2.545  1.00  0.00     0.111 A 
ATOM      6  C   UNL     1      -5.954   0.023  -1.150  1.00  0.00     0.134 A 
ATOM      7  C   UNL     1      -4.627  -0.019  -0.705  1.00  0.00     0.093 A 
ATOM      8  C   UNL     1      -3.563   0.137  -1.597  1.00  0.00     0.123 A 
ATOM      9  C   UNL     1      -3.818   0.332  -2.952  1.00  0.00     0.094 A 
ATOM     10  C   UNL     1      -5.129   0.341  -3.432  1.00  0.00     0.146 A 
ATOM     11  O   UNL     1      -5.328   0.515  -4.734  1.00  0.00    -0.451 OA
ENDROOT
BRANCH   1  12
ATOM     12  C   UNL     1      -6.634   0.741  -6.752  1.00  0.00     0.063 A 
ATOM     13  C   UNL     1      -6.613  -0.164  -9.011  1.00  0.00     0.047 A 
ATOM     14  C   UNL     1      -6.465  -0.341  -7.634  1.00  0.00     0.020 A 
ATOM     15  C   UNL     1      -6.940   1.095  -9.526  1.00  0.00     0.119 A 
ATOM     16  C   UNL     1      -7.112   2.176  -8.659  1.00  0.00     0.093 A 
ATOM     17  C   UNL     1      -6.957   2.014  -7.277  1.00  0.00     0.130 A 
BRANCH  15  18
ATOM     18  O   UNL     1      -7.095   1.282 -10.898  1.00  0.00    -0.508 OA
ATOM     19  H   UNL     1      -6.302   1.466 -11.501  1.00  0.00     0.293 HD
ENDBRANCH  15  18
BRANCH  17  20
ATOM     20  O   UNL     1      -7.105   3.138  -6.460  1.00  0.00    -0.507 OA
ATOM     21  H   UNL     1      -7.945   3.326  -5.928  1.00  0.00     0.293 HD
ENDBRANCH  17  20
ENDBRANCH   1  12
BRANCH   2  22
ATOM     22  O   UNL     1      -8.931   0.237  -5.105  1.00  0.00    -0.502 OA
ATOM     23  H   UNL     1      -9.789   0.270  -4.567  1.00  0.00     0.293 HD
ENDBRANCH   2  22
BRANCH   6  24
ATOM     24  O   UNL     1      -6.944  -0.050  -0.167  1.00  0.00    -0.507 OA
ATOM     25  H   UNL     1      -7.459   0.740   0.192  1.00  0.00     0.293 HD
ENDBRANCH   6  24
BRANCH   8  26
ATOM     26  O   UNL     1      -2.245   0.109  -1.144  1.00  0.00    -0.508 OA
ATOM     27  H   UNL     1      -1.495   0.546  -1.668  1.00  0.00     0.293 HD
ENDBRANCH   8  26
TORSDOF 6
ENDMDL
MODEL 2
REMARK VINA RESULT:    -4.201      4.712      6.927
REMARK INTER + INTRA:          -5.448
REMARK INTER:                  -5.068
REMARK INTRA:                  -0.380
REMARK UNBOUND:                -0.387
REMARK SMILES O=c1c(O)c(-c2ccc(O)cc2O)oc2cc(O)cc(O)c12
REMARK SMILES IDX 5 1 3 2 2 3 1 4 22 5 20 6 19 7 17 8 16 9 15 10 14 11 6 12
REMARK SMILES IDX 8 13 7 14 9 15 11 16 12 17 10 18 13 20 4 22 21 24 18 26
REMARK H PARENT 10 19 13 21 4 23 21 25 18 27
REMARK Flexibility Score: inf
ROOT
ATOM      1  C   UNL     1      -3.168   3.278  -1.565  1.00  0.00     0.184 A 
ATOM      2  C   UNL     1      -3.634   3.981  -0.444  1.00  0.00     0.208 A 
ATOM      3  C   UNL     1      -2.807   4.948   0.146  1.00  0.00     0.238 A 
ATOM      4  O   UNL     1      -3.206   5.532   1.187  1.00  0.00    -0.285 OA
ATOM      5  C   UNL     1      -1.532   5.220  -0.412  1.00  0.00     0.111 A 
ATOM      6  C   UNL     1      -0.626   6.206   0.080  1.00  0.00     0.134 A 
ATOM      7  C   UNL     1       0.656   6.303  -0.475  1.00  0.00     0.093 A 
ATOM      8  C   UNL     1       1.041   5.493  -1.546  1.00  0.00     0.123 A 
ATOM      9  C   UNL     1       0.143   4.567  -2.071  1.00  0.00     0.094 A 
ATOM     10  C   UNL     1      -1.130   4.421  -1.515  1.00  0.00     0.146 A 
ATOM     11  O   UNL     1      -1.950   3.516  -2.036  1.00  0.00    -0.451 OA
ENDROOT
BRANCH   1  12
ATOM     12  C   UNL     1      -4.006   2.265  -2.242  1.00  0.00     0.063 A 
ATOM     13  C   UNL     1      -5.945   1.746  -3.617  1.00  0.00     0.047 A 
ATOM     14  C   UNL     1      -5.166   2.673  -2.923  1.00  0.00     0.020 A 
ATOM     15  C   UNL     1      -5.572   0.398  -3.648  1.00  0.00     0.119 A 
ATOM     16  C   UNL     1      -4.420  -0.018  -2.977  1.00  0.00     0.093 A 
ATOM     17  C   UNL     1      -3.635   0.900  -2.269  1.00  0.00     0.130 A 
BRANCH  15  18
ATOM     18  O   UNL     1      -6.339  -0.536  -4.342  1.00  0.00    -0.508 OA
ATOM     19  H   UNL     1      -7.277  -0.320  -4.659  1.00  0.00     0.293 HD
ENDBRANCH  15  18
BRANCH  17  20
ATOM     20  O   UNL     1      -2.514   0.422  -1.586  1.00  0.00    -0.507 OA
ATOM     21  H   UNL     1      -2.259   0.732  -0.658  1.00  0.00     0.293 HD
ENDBRANCH  17  20
ENDBRANCH   1  12
BRANCH   2  22
ATOM     22  O   UNL     1      -4.897   3.696   0.082  1.00  0.00    -0.502 OA
ATOM     23  H   UNL     1      -5.126   3.849   1.056  1.00  0.00     0.293 HD
ENDBRANCH   2  22
BRANCH   6  24
ATOM     24  O   UNL     1      -0.941   7.125   1.084  1.00  0.00    -0.507 OA
ATOM     25  H   UNL     1      -1.146   8.101   0.929  1.00  0.00     0.293 HD
ENDBRANCH   6  24
BRANCH   8  26
ATOM     26  O   UNL     1       2.314   5.606  -2.103  1.00  0.00    -0.508 OA
ATOM     27  H   UNL     1       3.086   6.004  -1.582  1.00  0.00     0.293 HD
ENDBRANCH   8  26
TORSDOF 6
ENDMDL
MODEL 3
REMARK VINA RESULT:    -4.105      4.542      7.009
REMARK INTER + INTRA:          -5.332
REMARK INTER:                  -4.990
REMARK INTRA:                  -0.342
REMARK UNBOUND:                -0.387
REMARK SMILES O=c1c(O)c(-c2ccc(O)cc2O)oc2cc(O)cc(O)c12
REMARK SMILES IDX 5 1 3 2 2 3 1 4 22 5 20 6 19 7 17 8 16 9 15 10 14 11 6 12
REMARK SMILES IDX 8 13 7 14 9 15 11 16 12 17 10 18 13 20 4 22 21 24 18 26
REMARK H PARENT 10 19 13 21 4 23 21 25 18 27
REMARK Flexibility Score: inf
ROOT
ATOM      1  C   UNL     1      -5.098  -2.415  -1.836  1.00  0.00     0.184 A 
ATOM      2  C   UNL     1      -5.876  -2.703  -2.968  1.00  0.00     0.208 A 
ATOM      3  C   UNL     1      -5.877  -4.011  -3.478  1.00  0.00     0.238 A 
ATOM      4  O   UNL     1      -6.529  -4.250  -4.528  1.00  0.00    -0.285 OA
ATOM      5  C   UNL     1      -5.121  -5.020  -2.830  1.00  0.00     0.111 A 
ATOM      6  C   UNL     1      -5.080  -6.388  -3.236  1.00  0.00     0.134 A 
ATOM      7  C   UNL     1      -4.202  -7.271  -2.595  1.00  0.00     0.093 A 
ATOM      8  C   UNL     1      -3.413  -6.851  -1.522  1.00  0.00     0.123 A 
ATOM      9  C   UNL     1      -3.489  -5.532  -1.081  1.00  0.00     0.094 A 
ATOM     10  C   UNL     1      -4.327  -4.618  -1.724  1.00  0.00     0.146 A 
ATOM     11  O   UNL     1      -4.359  -3.366  -1.280  1.00  0.00    -0.451 OA
ENDROOT
BRANCH   1  12
ATOM     12  C   UNL     1      -5.076  -1.061  -1.242  1.00  0.00     0.063 A 
ATOM     13  C   UNL     1      -6.262   0.735  -0.105  1.00  0.00     0.047 A 
ATOM     14  C   UNL     1      -6.264  -0.518  -0.722  1.00  0.00     0.020 A 
ATOM     15  C   UNL     1      -5.070   1.460   0.007  1.00  0.00     0.119 A 
ATOM     16  C   UNL     1      -3.884   0.928  -0.504  1.00  0.00     0.093 A 
ATOM     17  C   UNL     1      -3.875  -0.322  -1.134  1.00  0.00     0.130 A 
BRANCH  15  18
ATOM     18  O   UNL     1      -5.055   2.708   0.626  1.00  0.00    -0.508 OA
ATOM     19  H   UNL     1      -4.792   3.547   0.120  1.00  0.00     0.293 HD
ENDBRANCH  15  18
BRANCH  17  20
ATOM     20  O   UNL     1      -2.668  -0.788  -1.659  1.00  0.00    -0.507 OA
ATOM     21  H   UNL     1      -2.327  -0.527  -2.575  1.00  0.00     0.293 HD
ENDBRANCH  17  20
ENDBRANCH   1  12
BRANCH   2  22
ATOM     22  O   UNL     1      -6.615  -1.690  -3.583  1.00  0.00    -0.502 OA
ATOM     23  H   UNL     1      -7.458  -1.307  -3.172  1.00  0.00     0.293 HD
ENDBRANCH   2  22
BRANCH   6  24
ATOM     24  O   UNL     1      -5.891  -6.931  -4.235  1.00  0.00    -0.507 OA
ATOM     25  H   UNL     1      -6.453  -6.393  -4.877  1.00  0.00     0.293 HD
ENDBRANCH   6  24
BRANCH   8  26
ATOM     26  O   UNL     1      -2.553  -7.740  -0.880  1.00  0.00    -0.508 OA
ATOM     27  H   UNL     1      -2.894  -8.600  -0.465  1.00  0.00     0.293 HD
ENDBRANCH   8  26
TORSDOF 6
ENDMDL
MODEL 4
REMARK VINA RESULT:    -4.092      4.285      6.541
REMARK INTER + INTRA:          -5.317
REMARK INTER:                  -4.929
REMARK INTRA:                  -0.388
REMARK UNBOUND:                -0.387
REMARK SMILES O=c1c(O)c(-c2ccc(O)cc2O)oc2cc(O)cc(O)c12
REMARK SMILES IDX 5 1 3 2 2 3 1 4 22 5 20 6 19 7 17 8 16 9 15 10 14 11 6 12
REMARK SMILES IDX 8 13 7 14 9 15 11 16 12 17 10 18 13 20 4 22 21 24 18 26
REMARK H PARENT 10 19 13 21 4 23 21 25 18 27
REMARK Flexibility Score: inf
ROOT
ATOM      1  C   UNL     1      -3.818   2.633  -1.464  1.00  0.00     0.184 A 
ATOM      2  C   UNL     1      -4.407   3.414  -0.458  1.00  0.00     0.208 A 
ATOM      3  C   UNL     1      -3.712   4.530   0.033  1.00  0.00     0.238 A 
ATOM      4  O   UNL     1      -4.218   5.190   0.976  1.00  0.00    -0.285 OA
ATOM      5  C   UNL     1      -2.447   4.866  -0.511  1.00  0.00     0.111 A 
ATOM      6  C   UNL     1      -1.671   5.997  -0.118  1.00  0.00     0.134 A 
ATOM      7  C   UNL     1      -0.381   6.163  -0.636  1.00  0.00     0.093 A 
ATOM      8  C   UNL     1       0.136   5.273  -1.582  1.00  0.00     0.123 A 
ATOM      9  C   UNL     1      -0.637   4.198  -2.015  1.00  0.00     0.094 A 
ATOM     10  C   UNL     1      -1.913   3.986  -1.489  1.00  0.00     0.146 A 
ATOM     11  O   UNL     1      -2.610   2.940  -1.919  1.00  0.00    -0.451 OA
ENDROOT
BRANCH   1  12
ATOM     12  C   UNL     1      -4.514   1.460  -2.035  1.00  0.00     0.063 A 
ATOM     13  C   UNL     1      -5.805   0.483  -3.852  1.00  0.00     0.047 A 
ATOM     14  C   UNL     1      -5.187   1.588  -3.263  1.00  0.00     0.020 A 
ATOM     15  C   UNL     1      -5.754  -0.767  -3.227  1.00  0.00     0.119 A 
ATOM     16  C   UNL     1      -5.086  -0.906  -2.008  1.00  0.00     0.093 A 
ATOM     17  C   UNL     1      -4.471   0.196  -1.401  1.00  0.00     0.130 A 
BRANCH  15  18
ATOM     18  O   UNL     1      -6.362  -1.877  -3.808  1.00  0.00    -0.508 OA
ATOM     19  H   UNL     1      -6.455  -2.754  -3.307  1.00  0.00     0.293 HD
ENDBRANCH  15  18
BRANCH  17  20
ATOM     20  O   UNL     1      -3.849   0.007  -0.165  1.00  0.00    -0.507 OA
ATOM     21  H   UNL     1      -4.072   0.555   0.655  1.00  0.00     0.293 HD
ENDBRANCH  17  20
ENDBRANCH   1  12
BRANCH   2  22
ATOM     22  O   UNL     1      -5.658   3.061   0.056  1.00  0.00    -0.502 OA
ATOM     23  H   UNL     1      -6.419   3.725   0.136  1.00  0.00     0.293 HD
ENDBRANCH   2  22
BRANCH   6  24
ATOM     24  O   UNL     1      -2.126   6.993   0.750  1.00  0.00    -0.507 OA
ATOM     25  H   UNL     1      -3.096   7.189   0.944  1.00  0.00     0.293 HD
ENDBRANCH   6  24
BRANCH   8  26
ATOM     26  O   UNL     1       1.415   5.453  -2.104  1.00  0.00    -0.508 OA
ATOM     27  H   UNL     1       2.244   5.247  -1.558  1.00  0.00     0.293 HD
ENDBRANCH   8  26
TORSDOF 6
ENDMDL
MODEL 5
REMARK VINA RESULT:    -4.085      5.270      7.513
REMARK INTER + INTRA:          -5.308
REMARK INTER:                  -4.996
REMARK INTRA:                  -0.312
REMARK UNBOUND:                -0.387
REMARK SMILES O=c1c(O)c(-c2ccc(O)cc2O)oc2cc(O)cc(O)c12
REMARK SMILES IDX 5 1 3 2 2 3 1 4 22 5 20 6 19 7 17 8 16 9 15 10 14 11 6 12
REMARK SMILES IDX 8 13 7 14 9 15 11 16 12 17 10 18 13 20 4 22 21 24 18 26
REMARK H PARENT 10 19 13 21 4 23 21 25 18 27
REMARK Flexibility Score: inf
ROOT
ATOM      1  C   UNL     1      -3.066   3.842  -1.078  1.00  0.00     0.184 A 
ATOM      2  C   UNL     1      -1.723   4.209  -1.246  1.00  0.00     0.208 A 
ATOM      3  C   UNL     1      -1.166   5.167  -0.385  1.00  0.00     0.238 A 
ATOM      4  O   UNL     1       0.022   5.537  -0.579  1.00  0.00    -0.285 OA
ATOM      5  C   UNL     1      -1.954   5.726   0.652  1.00  0.00     0.111 A 
ATOM      6  C   UNL     1      -1.482   6.676   1.607  1.00  0.00     0.134 A 
ATOM      7  C   UNL     1      -2.384   7.251   2.511  1.00  0.00     0.093 A 
ATOM      8  C   UNL     1      -3.725   6.862   2.537  1.00  0.00     0.123 A 
ATOM      9  C   UNL     1      -4.183   5.893   1.647  1.00  0.00     0.094 A 
ATOM     10  C   UNL     1      -3.316   5.328   0.709  1.00  0.00     0.146 A 
ATOM     11  O   UNL     1      -3.797   4.418  -0.131  1.00  0.00    -0.451 OA
ENDROOT
BRANCH   1  12
ATOM     12  C   UNL     1      -3.699   2.821  -1.940  1.00  0.00     0.063 A 
ATOM     13  C   UNL     1      -3.771   0.524  -2.740  1.00  0.00     0.047 A 
ATOM     14  C   UNL     1      -3.161   1.522  -1.979  1.00  0.00     0.020 A 
ATOM     15  C   UNL     1      -4.932   0.806  -3.468  1.00  0.00     0.119 A 
ATOM     16  C   UNL     1      -5.476   2.092  -3.434  1.00  0.00     0.093 A 
ATOM     17  C   UNL     1      -4.869   3.105  -2.683  1.00  0.00     0.130 A 
BRANCH  15  18
ATOM     18  O   UNL     1      -5.553  -0.184  -4.227  1.00  0.00    -0.508 OA
ATOM     19  H   UNL     1      -5.241  -0.405  -5.166  1.00  0.00     0.293 HD
ENDBRANCH  15  18
BRANCH  17  20
ATOM     20  O   UNL     1      -5.436   4.381  -2.714  1.00  0.00    -0.507 OA
ATOM     21  H   UNL     1      -5.108   5.116  -3.328  1.00  0.00     0.293 HD
ENDBRANCH  17  20
ENDBRANCH   1  12
BRANCH   2  22
ATOM     22  O   UNL     1      -0.968   3.639  -2.274  1.00  0.00    -0.502 OA
ATOM     23  H   UNL     1      -1.113   2.688  -2.591  1.00  0.00     0.293 HD
ENDBRANCH   2  22
BRANCH   6  24
ATOM     24  O   UNL     1      -0.146   7.066   1.726  1.00  0.00    -0.507 OA
ATOM     25  H   UNL     1       0.519   6.658   2.366  1.00  0.00     0.293 HD
ENDBRANCH   6  24
BRANCH   8  26
ATOM     26  O   UNL     1      -4.613   7.428   3.451  1.00  0.00    -0.508 OA
ATOM     27  H   UNL     1      -5.553   7.692   3.181  1.00  0.00     0.293 HD
ENDBRANCH   8  26
TORSDOF 6
ENDMDL
MODEL 6
REMARK VINA RESULT:    -4.073      5.268      6.615
REMARK INTER + INTRA:          -5.294
REMARK INTER:                  -4.961
REMARK INTRA:                  -0.333
REMARK UNBOUND:                -0.387
REMARK SMILES O=c1c(O)c(-c2ccc(O)cc2O)oc2cc(O)cc(O)c12
REMARK SMILES IDX 5 1 3 2 2 3 1 4 22 5 20 6 19 7 17 8 16 9 15 10 14 11 6 12
REMARK SMILES IDX 8 13 7 14 9 15 11 16 12 17 10 18 13 20 4 22 21 24 18 26
REMARK H PARENT 10 19 13 21 4 23 21 25 18 27
REMARK Flexibility Score: inf
ROOT
ATOM      1  C   UNL     1      -2.872   4.142  -2.098  1.00  0.00     0.184 A 
ATOM      2  C   UNL     1      -3.706   4.693  -1.113  1.00  0.00     0.208 A 
ATOM      3  C   UNL     1      -4.479   3.834  -0.317  1.00  0.00     0.238 A 
ATOM      4  O   UNL     1      -5.270   4.336   0.523  1.00  0.00    -0.285 OA
ATOM      5  C   UNL     1      -4.386   2.431  -0.499  1.00  0.00     0.111 A 
ATOM      6  C   UNL     1      -5.093   1.464   0.277  1.00  0.00     0.134 A 
ATOM      7  C   UNL     1      -5.017   0.111  -0.071  1.00  0.00     0.093 A 
ATOM      8  C   UNL     1      -4.209  -0.318  -1.127  1.00  0.00     0.123 A 
ATOM      9  C   UNL     1      -3.469   0.613  -1.854  1.00  0.00     0.094 A 
ATOM     10  C   UNL     1      -3.553   1.974  -1.554  1.00  0.00     0.146 A 
ATOM     11  O   UNL     1      -2.842   2.828  -2.281  1.00  0.00    -0.451 OA
ENDROOT
BRANCH   1  12
ATOM     12  C   UNL     1      -2.018   4.997  -2.950  1.00  0.00     0.063 A 
ATOM     13  C   UNL     1      -1.840   6.757  -4.621  1.00  0.00     0.047 A 
ATOM     14  C   UNL     1      -2.621   5.898  -3.845  1.00  0.00     0.020 A 
ATOM     15  C   UNL     1      -0.445   6.734  -4.508  1.00  0.00     0.119 A 
ATOM     16  C   UNL     1       0.163   5.844  -3.620  1.00  0.00     0.093 A 
ATOM     17  C   UNL     1      -0.608   4.971  -2.843  1.00  0.00     0.130 A 
BRANCH  15  18
ATOM     18  O   UNL     1       0.343   7.590  -5.274  1.00  0.00    -0.508 OA
ATOM     19  H   UNL     1       0.023   8.516  -5.532  1.00  0.00     0.293 HD
ENDBRANCH  15  18
BRANCH  17  20
ATOM     20  O   UNL     1       0.056   4.078  -1.999  1.00  0.00    -0.507 OA
ATOM     21  H   UNL     1       1.005   4.222  -1.678  1.00  0.00     0.293 HD
ENDBRANCH  17  20
ENDBRANCH   1  12
BRANCH   2  22
ATOM     22  O   UNL     1      -3.774   6.079  -0.953  1.00  0.00    -0.502 OA
ATOM     23  H   UNL     1      -3.581   6.724  -1.710  1.00  0.00     0.293 HD
ENDBRANCH   2  22
BRANCH   6  24
ATOM     24  O   UNL     1      -5.856   1.776   1.406  1.00  0.00    -0.507 OA
ATOM     25  H   UNL     1      -6.853   1.645   1.482  1.00  0.00     0.293 HD
ENDBRANCH   6  24
BRANCH   8  26
ATOM     26  O   UNL     1      -4.127  -1.669  -1.458  1.00  0.00    -0.508 OA
ATOM     27  H   UNL     1      -4.228  -1.986  -2.416  1.00  0.00     0.293 HD
ENDBRANCH   8  26
TORSDOF 6
ENDMDL
MODEL 7
REMARK VINA RESULT:    -4.061      4.386      6.265
REMARK INTER + INTRA:          -5.279
REMARK INTER:                  -4.872
REMARK INTRA:                  -0.407
REMARK UNBOUND:                -0.387
REMARK SMILES O=c1c(O)c(-c2ccc(O)cc2O)oc2cc(O)cc(O)c12
REMARK SMILES IDX 5 1 3 2 2 3 1 4 22 5 20 6 19 7 17 8 16 9 15 10 14 11 6 12
REMARK SMILES IDX 8 13 7 14 9 15 11 16 12 17 10 18 13 20 4 22 21 24 18 26
REMARK H PARENT 10 19 13 21 4 23 21 25 18 27
REMARK Flexibility Score: inf
ROOT
ATOM      1  C   UNL     1      -4.931  -0.188  -1.255  1.00  0.00     0.184 A 
ATOM      2  C   UNL     1      -3.951   0.673  -1.772  1.00  0.00     0.208 A 
ATOM      3  C   UNL     1      -3.887   1.993  -1.300  1.00  0.00     0.238 A 
ATOM      4  O   UNL     1      -3.046   2.778  -1.810  1.00  0.00    -0.285 OA
ATOM      5  C   UNL     1      -4.787   2.426  -0.294  1.00  0.00     0.111 A 
ATOM      6  C   UNL     1      -4.787   3.730   0.287  1.00  0.00     0.134 A 
ATOM      7  C   UNL     1      -5.801   4.085   1.185  1.00  0.00     0.093 A 
ATOM      8  C   UNL     1      -6.776   3.163   1.572  1.00  0.00     0.123 A 
ATOM      9  C   UNL     1      -6.751   1.870   1.054  1.00  0.00     0.094 A 
ATOM     10  C   UNL     1      -5.774   1.497   0.128  1.00  0.00     0.146 A 
ATOM     11  O   UNL     1      -5.794   0.259  -0.351  1.00  0.00    -0.451 OA
ENDROOT
BRANCH   1  12
ATOM     12  C   UNL     1      -5.031  -1.595  -1.698  1.00  0.00     0.063 A 
ATOM     13  C   UNL     1      -4.199  -3.879  -1.585  1.00  0.00     0.047 A 
ATOM     14  C   UNL     1      -4.096  -2.533  -1.227  1.00  0.00     0.020 A 
ATOM     15  C   UNL     1      -5.244  -4.308  -2.412  1.00  0.00     0.119 A 
ATOM     16  C   UNL     1      -6.179  -3.384  -2.883  1.00  0.00     0.093 A 
ATOM     17  C   UNL     1      -6.081  -2.030  -2.540  1.00  0.00     0.130 A 
BRANCH  15  18
ATOM     18  O   UNL     1      -5.360  -5.649  -2.771  1.00  0.00    -0.508 OA
ATOM     19  H   UNL     1      -4.769  -6.059  -3.485  1.00  0.00     0.293 HD
ENDBRANCH  15  18
BRANCH  17  20
ATOM     20  O   UNL     1      -7.023  -1.145  -3.069  1.00  0.00    -0.507 OA
ATOM     21  H   UNL     1      -7.865  -1.451  -3.539  1.00  0.00     0.293 HD
ENDBRANCH  17  20
ENDBRANCH   1  12
BRANCH   2  22
ATOM     22  O   UNL     1      -3.074   0.218  -2.759  1.00  0.00    -0.502 OA
ATOM     23  H   UNL     1      -2.588  -0.668  -2.687  1.00  0.00     0.293 HD
ENDBRANCH   2  22
BRANCH   6  24
ATOM     24  O   UNL     1      -3.808   4.696   0.039  1.00  0.00    -0.507 OA
ATOM     25  H   UNL     1      -3.181   5.073   0.733  1.00  0.00     0.293 HD
ENDBRANCH   6  24
BRANCH   8  26
ATOM     26  O   UNL     1      -7.773   3.519   2.478  1.00  0.00    -0.508 OA
ATOM     27  H   UNL     1      -8.401   2.829   2.874  1.00  0.00     0.293 HD
ENDBRANCH   8  26
TORSDOF 6
ENDMDL
MODEL 8
REMARK VINA RESULT:    -4.021      4.386      6.107
REMARK INTER + INTRA:          -5.232
REMARK INTER:                  -4.843
REMARK INTRA:                  -0.388
REMARK UNBOUND:                -0.387
REMARK SMILES O=c1c(O)c(-c2ccc(O)cc2O)oc2cc(O)cc(O)c12
REMARK SMILES IDX 5 1 3 2 2 3 1 4 22 5 20 6 19 7 17 8 16 9 15 10 14 11 6 12
REMARK SMILES IDX 8 13 7 14 9 15 11 16 12 17 10 18 13 20 4 22 21 24 18 26
REMARK H PARENT 10 19 13 21 4 23 21 25 18 27
REMARK Flexibility Score: inf
ROOT
ATOM      1  C   UNL     1      -5.573  -0.826  -1.158  1.00  0.00     0.184 A 
ATOM      2  C   UNL     1      -6.938  -1.144  -1.082  1.00  0.00     0.208 A 
ATOM      3  C   UNL     1      -7.327  -2.492  -1.124  1.00  0.00     0.238 A 
ATOM      4  O   UNL     1      -8.555  -2.767  -1.117  1.00  0.00    -0.285 OA
ATOM      5  C   UNL     1      -6.342  -3.506  -1.212  1.00  0.00     0.111 A 
ATOM      6  C   UNL     1      -6.618  -4.907  -1.221  1.00  0.00     0.134 A 
ATOM      7  C   UNL     1      -5.574  -5.815  -1.435  1.00  0.00     0.093 A 
ATOM      8  C   UNL     1      -4.255  -5.377  -1.575  1.00  0.00     0.123 A 
ATOM      9  C   UNL     1      -3.967  -4.016  -1.510  1.00  0.00     0.094 A 
ATOM     10  C   UNL     1      -4.992  -3.083  -1.335  1.00  0.00     0.146 A 
ATOM     11  O   UNL     1      -4.675  -1.794  -1.292  1.00  0.00    -0.451 OA
ENDROOT
BRANCH   1  12
ATOM     12  C   UNL     1      -5.104   0.574  -1.096  1.00  0.00     0.063 A 
ATOM     13  C   UNL     1      -4.741   2.594   0.213  1.00  0.00     0.047 A 
ATOM     14  C   UNL     1      -5.226   1.289   0.109  1.00  0.00     0.020 A 
ATOM     15  C   UNL     1      -4.120   3.202  -0.884  1.00  0.00     0.119 A 
ATOM     16  C   UNL     1      -3.992   2.500  -2.085  1.00  0.00     0.093 A 
ATOM     17  C   UNL     1      -4.483   1.194  -2.205  1.00  0.00     0.130 A 
BRANCH  15  18
ATOM     18  O   UNL     1      -3.627   4.502  -0.791  1.00  0.00    -0.508 OA
ATOM     19  H   UNL     1      -3.632   5.128  -1.587  1.00  0.00     0.293 HD
ENDBRANCH  15  18
BRANCH  17  20
ATOM     20  O   UNL     1      -4.359   0.553  -3.440  1.00  0.00    -0.507 OA
ATOM     21  H   UNL     1      -3.527   0.051  -3.721  1.00  0.00     0.293 HD
ENDBRANCH  17  20
ENDBRANCH   1  12
BRANCH   2  22
ATOM     22  O   UNL     1      -7.887  -0.123  -0.991  1.00  0.00    -0.502 OA
ATOM     23  H   UNL     1      -7.659   0.848  -1.167  1.00  0.00     0.293 HD
ENDBRANCH   2  22
BRANCH   6  24
ATOM     24  O   UNL     1      -7.885  -5.454  -1.001  1.00  0.00    -0.507 OA
ATOM     25  H   UNL     1      -8.743  -4.924  -0.964  1.00  0.00     0.293 HD
ENDBRANCH   6  24
BRANCH   8  26
ATOM     26  O   UNL     1      -3.220  -6.289  -1.773  1.00  0.00    -0.508 OA
ATOM     27  H   UNL     1      -2.342  -6.209  -1.272  1.00  0.00     0.293 HD
ENDBRANCH   8  26
TORSDOF 6
ENDMDL
MODEL 9
REMARK VINA RESULT:    -3.985      2.998      6.364
REMARK INTER + INTRA:          -5.187
REMARK INTER:                  -4.844
REMARK INTRA:                  -0.344
REMARK UNBOUND:                -0.387
REMARK SMILES O=c1c(O)c(-c2ccc(O)cc2O)oc2cc(O)cc(O)c12
REMARK SMILES IDX 5 1 3 2 2 3 1 4 22 5 20 6 19 7 17 8 16 9 15 10 14 11 6 12
REMARK SMILES IDX 8 13 7 14 9 15 11 16 12 17 10 18 13 20 4 22 21 24 18 26
REMARK H PARENT 10 19 13 21 4 23 21 25 18 27
REMARK Flexibility Score: inf
ROOT
ATOM      1  C   UNL     1      -4.444   1.269  -2.060  1.00  0.00     0.184 A 
ATOM      2  C   UNL     1      -4.705   0.217  -1.170  1.00  0.00     0.208 A 
ATOM      3  C   UNL     1      -5.356  -0.932  -1.646  1.00  0.00     0.238 A 
ATOM      4  O   UNL     1      -5.641  -1.847  -0.830  1.00  0.00    -0.285 OA
ATOM      5  C   UNL     1      -5.713  -1.024  -3.014  1.00  0.00     0.111 A 
ATOM      6  C   UNL     1      -6.340  -2.156  -3.615  1.00  0.00     0.134 A 
ATOM      7  C   UNL     1      -6.758  -2.087  -4.949  1.00  0.00     0.093 A 
ATOM      8  C   UNL     1      -6.512  -0.950  -5.724  1.00  0.00     0.123 A 
ATOM      9  C   UNL     1      -5.847   0.138  -5.163  1.00  0.00     0.094 A 
ATOM     10  C   UNL     1      -5.452   0.114  -3.824  1.00  0.00     0.146 A 
ATOM     11  O   UNL     1      -4.835   1.179  -3.325  1.00  0.00    -0.451 OA
ENDROOT
BRANCH   1  12
ATOM     12  C   UNL     1      -3.741   2.493  -1.620  1.00  0.00     0.063 A 
ATOM     13  C   UNL     1      -1.749   3.891  -1.688  1.00  0.00     0.047 A 
ATOM     14  C   UNL     1      -2.418   2.717  -2.043  1.00  0.00     0.020 A 
ATOM     15  C   UNL     1      -2.395   4.861  -0.914  1.00  0.00     0.119 A 
ATOM     16  C   UNL     1      -3.709   4.649  -0.491  1.00  0.00     0.093 A 
ATOM     17  C   UNL     1      -4.388   3.472  -0.831  1.00  0.00     0.130 A 
BRANCH  15  18
ATOM     18  O   UNL     1      -1.739   6.037  -0.559  1.00  0.00    -0.508 OA
ATOM     19  H   UNL     1      -0.766   6.194  -0.797  1.00  0.00     0.293 HD
ENDBRANCH  15  18
BRANCH  17  20
ATOM     20  O   UNL     1      -5.687   3.298  -0.350  1.00  0.00    -0.507 OA
ATOM     21  H   UNL     1      -6.477   3.102  -0.952  1.00  0.00     0.293 HD
ENDBRANCH  17  20
ENDBRANCH   1  12
BRANCH   2  22
ATOM     22  O   UNL     1      -4.338   0.332   0.173  1.00  0.00    -0.502 OA
ATOM     23  H   UNL     1      -3.472  -0.050   0.534  1.00  0.00     0.293 HD
ENDBRANCH   2  22
BRANCH   6  24
ATOM     24  O   UNL     1      -6.552  -3.371  -2.958  1.00  0.00    -0.507 OA
ATOM     25  H   UNL     1      -6.602  -4.271  -3.412  1.00  0.00     0.293 HD
ENDBRANCH   6  24
BRANCH   8  26
ATOM     26  O   UNL     1      -6.916  -0.895  -7.056  1.00  0.00    -0.508 OA
ATOM     27  H   UNL     1      -6.283  -0.600  -7.790  1.00  0.00     0.293 HD
ENDBRANCH   8  26
TORSDOF 6
ENDMDL
