MODEL 1
REMARK VINA RESULT:    -4.047      0.000      0.000
REMARK INTER + INTRA:         -14.115
REMARK INTER:                 -10.198
REMARK INTRA:                  -3.917
REMARK UNBOUND:                -3.917
REMARK SMILES CCCCCCCCCCCCCCCCCCCCCCCCCCCC(=O)[O-]
REMARK SMILES IDX 15 1 16 2 17 3 18 4 19 5 20 6 21 7 22 8 23 9 24 10 25 11
REMARK SMILES IDX 26 12 27 13 28 14 29 15 30 16 14 17 13 18 12 19 11 20 10 21
REMARK SMILES IDX 9 22 8 23 7 24 6 25 5 26 4 27 3 28 2 29 1 30
REMARK H PARENT
REMARK Flexibility Score: inf
ROOT
ATOM      1  C   UNL     1      44.163  43.323  11.274  1.00  0.00     0.000 C 
ENDROOT
BRANCH   1   2
ATOM      2  C   UNL     1      45.694  43.148  11.308  1.00  0.00     0.000 C 
BRANCH   2   3
ATOM      3  C   UNL     1      46.381  44.150  12.249  1.00  0.00     0.000 C 
BRANCH   3   4
ATOM      4  C   UNL     1      45.400  45.240  12.702  1.00  0.00     0.000 C 
BRANCH   4   5
ATOM      5  C   UNL     1      46.063  46.625  12.818  1.00  0.00     0.000 C 
BRANCH   5   6
ATOM      6  C   UNL     1      47.313  46.809  11.933  1.00  0.00     0.000 C 
BRANCH   6   7
ATOM      7  C   UNL     1      47.165  47.953  10.915  1.00  0.00     0.000 C 
BRANCH   7   8
ATOM      8  C   UNL     1      48.471  48.753  10.791  1.00  0.00     0.000 C 
BRANCH   8   9
ATOM      9  C   UNL     1      49.404  48.549  11.995  1.00  0.00     0.000 C 
BRANCH   9  10
ATOM     10  C   UNL     1      50.890  48.517  11.593  1.00  0.00     0.000 C 
BRANCH  10  11
ATOM     11  C   UNL     1      51.236  47.317  10.700  1.00  0.00     0.000 C 
BRANCH  11  12
ATOM     12  C   UNL     1      51.765  46.115  11.504  1.00  0.00     0.006 C 
BRANCH  12  13
ATOM     13  C   UNL     1      52.991  45.471  10.842  1.00  0.00     0.053 C 
BRANCH  13  14
ATOM     14  C   UNL     1      54.210  45.581  11.706  1.00  0.00     0.041 C 
ATOM     15  O   UNL     1      55.043  46.505  11.513  1.00  0.00    -0.550 OA
ATOM     16  O   UNL     1      54.447  44.640  12.700  1.00  0.00    -0.550 OA
ENDBRANCH  13  14
ENDBRANCH  12  13
ENDBRANCH  11  12
ENDBRANCH  10  11
ENDBRANCH   9  10
ENDBRANCH   8   9
ENDBRANCH   7   8
ENDBRANCH   6   7
ENDBRANCH   5   6
ENDBRANCH   4   5
ENDBRANCH   3   4
ENDBRANCH   2   3
ENDBRANCH   1   2
BRANCH   1  17
ATOM     17  C   UNL     1      43.589  43.539   9.859  1.00  0.00     0.000 C 
BRANCH  17  18
ATOM     18  C   UNL     1      44.604  43.400   8.711  1.00  0.00     0.000 C 
BRANCH  18  19
ATOM     19  C   UNL     1      44.574  42.008   8.059  1.00  0.00     0.000 C 
BRANCH  19  20
ATOM     20  C   UNL     1      44.393  42.113   6.535  1.00  0.00     0.000 C 
BRANCH  20  21
ATOM     21  C   UNL     1      43.188  41.302   6.028  1.00  0.00     0.000 C 
BRANCH  21  22
ATOM     22  C   UNL     1      42.110  42.182   5.371  1.00  0.00    -0.000 C 
BRANCH  22  23
ATOM     23  C   UNL     1      42.189  43.647   5.830  1.00  0.00    -0.000 C 
BRANCH  23  24
ATOM     24  C   UNL     1      41.077  44.024   6.821  1.00  0.00    -0.000 C 
BRANCH  24  25
ATOM     25  C   UNL     1      41.243  45.476   7.293  1.00  0.00    -0.000 C 
BRANCH  25  26
ATOM     26  C   UNL     1      42.658  46.030   7.046  1.00  0.00    -0.000 C 
BRANCH  26  27
ATOM     27  C   UNL     1      43.006  47.298   7.845  1.00  0.00    -0.000 C 
BRANCH  27  28
ATOM     28  C   UNL     1      44.050  47.046   8.945  1.00  0.00    -0.000 C 
BRANCH  28  29
ATOM     29  C   UNL     1      43.565  47.505  10.329  1.00  0.00    -0.003 C 
ATOM     30  C   UNL     1      42.244  46.851  10.733  1.00  0.00     0.004 C 
ENDBRANCH  28  29
ENDBRANCH  27  28
ENDBRANCH  26  27
ENDBRANCH  25  26
ENDBRANCH  24  25
ENDBRANCH  23  24
ENDBRANCH  22  23
ENDBRANCH  21  22
ENDBRANCH  20  21
ENDBRANCH  19  20
ENDBRANCH  18  19
ENDBRANCH  17  18
ENDBRANCH   1  17
TORSDOF 26
ENDMDL
MODEL 2
REMARK VINA RESULT:    -4.040      1.466      4.083
REMARK INTER + INTRA:         -14.097
REMARK INTER:                 -10.183
REMARK INTRA:                  -3.914
REMARK UNBOUND:                -3.917
REMARK SMILES CCCCCCCCCCCCCCCCCCCCCCCCCCCC(=O)[O-]
REMARK SMILES IDX 15 1 16 2 17 3 18 4 19 5 20 6 21 7 22 8 23 9 24 10 25 11
REMARK SMILES IDX 26 12 27 13 28 14 29 15 30 16 14 17 13 18 12 19 11 20 10 21
REMARK SMILES IDX 9 22 8 23 7 24 6 25 5 26 4 27 3 28 2 29 1 30
REMARK H PARENT
REMARK Flexibility Score: inf
ROOT
ATOM      1  C   UNL     1      44.950  45.370   8.840  1.00  0.00     0.000 C 
ENDROOT
BRANCH   1   2
ATOM      2  C   UNL     1      44.060  46.577   9.199  1.00  0.00     0.000 C 
BRANCH   2   3
ATOM      3  C   UNL     1      44.871  47.771   9.727  1.00  0.00     0.000 C 
BRANCH   3   4
ATOM      4  C   UNL     1      44.506  48.080  11.185  1.00  0.00     0.000 C 
BRANCH   4   5
ATOM      5  C   UNL     1      45.745  48.232  12.088  1.00  0.00     0.000 C 
BRANCH   5   6
ATOM      6  C   UNL     1      46.318  46.899  12.612  1.00  0.00     0.000 C 
BRANCH   6   7
ATOM      7  C   UNL     1      47.711  46.580  12.045  1.00  0.00     0.000 C 
BRANCH   7   8
ATOM      8  C   UNL     1      48.368  47.838  11.456  1.00  0.00     0.000 C 
BRANCH   8   9
ATOM      9  C   UNL     1      49.867  47.930  11.786  1.00  0.00     0.000 C 
BRANCH   9  10
ATOM     10  C   UNL     1      50.748  47.971  10.525  1.00  0.00     0.000 C 
BRANCH  10  11
ATOM     11  C   UNL     1      51.695  46.766  10.423  1.00  0.00     0.000 C 
BRANCH  11  12
ATOM     12  C   UNL     1      51.965  46.111  11.789  1.00  0.00     0.006 C 
BRANCH  12  13
ATOM     13  C   UNL     1      53.397  46.364  12.279  1.00  0.00     0.053 C 
BRANCH  13  14
ATOM     14  C   UNL     1      54.295  45.199  11.995  1.00  0.00     0.041 C 
ATOM     15  O   UNL     1      54.680  44.451  12.932  1.00  0.00    -0.550 OA
ATOM     16  O   UNL     1      54.739  44.961  10.701  1.00  0.00    -0.550 OA
ENDBRANCH  13  14
ENDBRANCH  12  13
ENDBRANCH  11  12
ENDBRANCH  10  11
ENDBRANCH   9  10
ENDBRANCH   8   9
ENDBRANCH   7   8
ENDBRANCH   6   7
ENDBRANCH   5   6
ENDBRANCH   4   5
ENDBRANCH   3   4
ENDBRANCH   2   3
ENDBRANCH   1   2
BRANCH   1  17
ATOM     17  C   UNL     1      45.243  44.433  10.029  1.00  0.00     0.000 C 
BRANCH  17  18
ATOM     18  C   UNL     1      44.125  44.341  11.082  1.00  0.00     0.000 C 
BRANCH  18  19
ATOM     19  C   UNL     1      44.345  43.195  12.083  1.00  0.00     0.000 C 
BRANCH  19  20
ATOM     20  C   UNL     1      45.816  42.746  12.097  1.00  0.00     0.000 C 
BRANCH  20  21
ATOM     21  C   UNL     1      45.975  41.242  11.814  1.00  0.00     0.000 C 
BRANCH  21  22
ATOM     22  C   UNL     1      44.644  40.559  11.453  1.00  0.00    -0.000 C 
BRANCH  22  23
ATOM     23  C   UNL     1      44.690  39.878  10.076  1.00  0.00    -0.000 C 
BRANCH  23  24
ATOM     24  C   UNL     1      45.309  40.769   8.989  1.00  0.00    -0.000 C 
BRANCH  24  25
ATOM     25  C   UNL     1      44.340  40.935   7.808  1.00  0.00    -0.000 C 
BRANCH  25  26
ATOM     26  C   UNL     1      42.925  41.352   8.248  1.00  0.00    -0.000 C 
BRANCH  26  27
ATOM     27  C   UNL     1      42.575  42.828   7.989  1.00  0.00    -0.000 C 
BRANCH  27  28
ATOM     28  C   UNL     1      43.007  43.311   6.595  1.00  0.00    -0.000 C 
BRANCH  28  29
ATOM     29  C   UNL     1      42.255  42.588   5.467  1.00  0.00    -0.003 C 
ATOM     30  C   UNL     1      41.120  43.430   4.886  1.00  0.00     0.004 C 
ENDBRANCH  28  29
ENDBRANCH  27  28
ENDBRANCH  26  27
ENDBRANCH  25  26
ENDBRANCH  24  25
ENDBRANCH  23  24
ENDBRANCH  22  23
ENDBRANCH  21  22
ENDBRANCH  20  21
ENDBRANCH  19  20
ENDBRANCH  18  19
ENDBRANCH  17  18
ENDBRANCH   1  17
TORSDOF 26
ENDMDL
MODEL 3
REMARK VINA RESULT:    -3.990     10.128     13.400
REMARK INTER + INTRA:         -13.971
REMARK INTER:                 -12.030
REMARK INTRA:                  -1.940
REMARK UNBOUND:                -3.917
REMARK SMILES CCCCCCCCCCCCCCCCCCCCCCCCCCCC(=O)[O-]
REMARK SMILES IDX 15 1 16 2 17 3 18 4 19 5 20 6 21 7 22 8 23 9 24 10 25 11
REMARK SMILES IDX 26 12 27 13 28 14 29 15 30 16 14 17 13 18 12 19 11 20 10 21
REMARK SMILES IDX 9 22 8 23 7 24 6 25 5 26 4 27 3 28 2 29 1 30
REMARK H PARENT
REMARK Flexibility Score: inf
ROOT
ATOM      1  C   UNL     1      49.747  34.636   7.608  1.00  0.00     0.000 C 
ENDROOT
BRANCH   1   2
ATOM      2  C   UNL     1      50.161  35.216   8.975  1.00  0.00     0.000 C 
BRANCH   2   3
ATOM      3  C   UNL     1      49.634  34.381  10.153  1.00  0.00     0.000 C 
BRANCH   3   4
ATOM      4  C   UNL     1      49.833  35.121  11.483  1.00  0.00     0.000 C 
BRANCH   4   5
ATOM      5  C   UNL     1      48.500  35.480  12.167  1.00  0.00     0.000 C 
BRANCH   5   6
ATOM      6  C   UNL     1      47.668  36.544  11.424  1.00  0.00     0.000 C 
BRANCH   6   7
ATOM      7  C   UNL     1      47.475  37.833  12.240  1.00  0.00     0.000 C 
BRANCH   7   8
ATOM      8  C   UNL     1      46.515  38.799  11.528  1.00  0.00     0.000 C 
BRANCH   8   9
ATOM      9  C   UNL     1      45.447  38.064  10.701  1.00  0.00     0.000 C 
BRANCH   9  10
ATOM     10  C   UNL     1      44.183  38.915  10.481  1.00  0.00     0.000 C 
BRANCH  10  11
ATOM     11  C   UNL     1      44.503  40.384  10.170  1.00  0.00     0.000 C 
BRANCH  11  12
ATOM     12  C   UNL     1      45.251  40.556   8.836  1.00  0.00     0.006 C 
BRANCH  12  13
ATOM     13  C   UNL     1      44.604  41.624   7.943  1.00  0.00     0.053 C 
BRANCH  13  14
ATOM     14  C   UNL     1      43.702  41.014   6.914  1.00  0.00     0.041 C 
ATOM     15  O   UNL     1      43.454  39.780   6.938  1.00  0.00    -0.550 OA
ATOM     16  O   UNL     1      43.166  41.802   5.904  1.00  0.00    -0.550 OA
ENDBRANCH  13  14
ENDBRANCH  12  13
ENDBRANCH  11  12
ENDBRANCH  10  11
ENDBRANCH   9  10
ENDBRANCH   8   9
ENDBRANCH   7   8
ENDBRANCH   6   7
ENDBRANCH   5   6
ENDBRANCH   4   5
ENDBRANCH   3   4
ENDBRANCH   2   3
ENDBRANCH   1   2
BRANCH   1  17
ATOM     17  C   UNL     1      49.081  33.248   7.692  1.00  0.00     0.000 C 
BRANCH  17  18
ATOM     18  C   UNL     1      49.370  32.310   6.507  1.00  0.00     0.000 C 
BRANCH  18  19
ATOM     19  C   UNL     1      50.868  32.205   6.183  1.00  0.00     0.000 C 
BRANCH  19  20
ATOM     20  C   UNL     1      51.133  32.458   4.689  1.00  0.00     0.000 C 
BRANCH  20  21
ATOM     21  C   UNL     1      50.237  33.567   4.113  1.00  0.00     0.000 C 
BRANCH  21  22
ATOM     22  C   UNL     1      50.487  33.818   2.615  1.00  0.00    -0.000 C 
BRANCH  22  23
ATOM     23  C   UNL     1      51.676  33.008   2.075  1.00  0.00    -0.000 C 
BRANCH  23  24
ATOM     24  C   UNL     1      51.490  32.575   0.613  1.00  0.00    -0.000 C 
BRANCH  24  25
ATOM     25  C   UNL     1      50.092  32.963   0.108  1.00  0.00    -0.000 C 
BRANCH  25  26
ATOM     26  C   UNL     1      50.116  33.605  -1.291  1.00  0.00    -0.000 C 
BRANCH  26  27
ATOM     27  C   UNL     1      51.443  33.447  -2.054  1.00  0.00    -0.000 C 
BRANCH  27  28
ATOM     28  C   UNL     1      51.871  34.730  -2.785  1.00  0.00    -0.000 C 
BRANCH  28  29
ATOM     29  C   UNL     1      53.318  35.132  -2.461  1.00  0.00    -0.003 C 
ATOM     30  C   UNL     1      53.690  34.859  -1.004  1.00  0.00     0.004 C 
ENDBRANCH  28  29
ENDBRANCH  27  28
ENDBRANCH  26  27
ENDBRANCH  25  26
ENDBRANCH  24  25
ENDBRANCH  23  24
ENDBRANCH  22  23
ENDBRANCH  21  22
ENDBRANCH  20  21
ENDBRANCH  19  20
ENDBRANCH  18  19
ENDBRANCH  17  18
ENDBRANCH   1  17
TORSDOF 26
ENDMDL
MODEL 4
REMARK VINA RESULT:    -3.887     10.031     13.698
REMARK INTER + INTRA:         -13.713
REMARK INTER:                 -10.941
REMARK INTRA:                  -2.772
REMARK UNBOUND:                -3.917
REMARK SMILES CCCCCCCCCCCCCCCCCCCCCCCCCCCC(=O)[O-]
REMARK SMILES IDX 15 1 16 2 17 3 18 4 19 5 20 6 21 7 22 8 23 9 24 10 25 11
REMARK SMILES IDX 26 12 27 13 28 14 29 15 30 16 14 17 13 18 12 19 11 20 10 21
REMARK SMILES IDX 9 22 8 23 7 24 6 25 5 26 4 27 3 28 2 29 1 30
REMARK H PARENT
REMARK Flexibility Score: inf
ROOT
ATOM      1  C   UNL     1      49.877  34.601   7.888  1.00  0.00     0.000 C 
ENDROOT
BRANCH   1   2
ATOM      2  C   UNL     1      50.126  35.280   9.250  1.00  0.00     0.000 C 
BRANCH   2   3
ATOM      3  C   UNL     1      49.903  34.326  10.434  1.00  0.00     0.000 C 
BRANCH   3   4
ATOM      4  C   UNL     1      49.182  35.039  11.586  1.00  0.00     0.000 C 
BRANCH   4   5
ATOM      5  C   UNL     1      48.565  36.384  11.159  1.00  0.00     0.000 C 
BRANCH   5   6
ATOM      6  C   UNL     1      47.029  36.448  11.280  1.00  0.00     0.000 C 
BRANCH   6   7
ATOM      7  C   UNL     1      46.313  35.411  10.398  1.00  0.00     0.000 C 
BRANCH   7   8
ATOM      8  C   UNL     1      44.993  34.959  11.040  1.00  0.00     0.000 C 
BRANCH   8   9
ATOM      9  C   UNL     1      43.804  35.053  10.070  1.00  0.00     0.000 C 
BRANCH   9  10
ATOM     10  C   UNL     1      43.180  36.460  10.036  1.00  0.00     0.000 C 
BRANCH  10  11
ATOM     11  C   UNL     1      43.459  37.200   8.720  1.00  0.00     0.000 C 
BRANCH  11  12
ATOM     12  C   UNL     1      44.420  38.389   8.904  1.00  0.00     0.006 C 
BRANCH  12  13
ATOM     13  C   UNL     1      44.335  38.988  10.315  1.00  0.00     0.053 C 
BRANCH  13  14
ATOM     14  C   UNL     1      45.390  40.028  10.541  1.00  0.00     0.041 C 
ATOM     15  O   UNL     1      46.237  39.882  11.460  1.00  0.00    -0.550 OA
ATOM     16  O   UNL     1      45.412  41.178   9.762  1.00  0.00    -0.550 OA
ENDBRANCH  13  14
ENDBRANCH  12  13
ENDBRANCH  11  12
ENDBRANCH  10  11
ENDBRANCH   9  10
ENDBRANCH   8   9
ENDBRANCH   7   8
ENDBRANCH   6   7
ENDBRANCH   5   6
ENDBRANCH   4   5
ENDBRANCH   3   4
ENDBRANCH   2   3
ENDBRANCH   1   2
BRANCH   1  17
ATOM     17  C   UNL     1      48.767  33.531   7.916  1.00  0.00     0.000 C 
BRANCH  17  18
ATOM     18  C   UNL     1      49.205  32.120   7.487  1.00  0.00     0.000 C 
BRANCH  18  19
ATOM     19  C   UNL     1      49.277  31.959   5.961  1.00  0.00     0.000 C 
BRANCH  19  20
ATOM     20  C   UNL     1      50.735  31.961   5.470  1.00  0.00     0.000 C 
BRANCH  20  21
ATOM     21  C   UNL     1      51.091  33.238   4.690  1.00  0.00     0.000 C 
BRANCH  21  22
ATOM     22  C   UNL     1      50.000  33.647   3.683  1.00  0.00    -0.000 C 
BRANCH  22  23
ATOM     23  C   UNL     1      50.561  33.868   2.270  1.00  0.00    -0.000 C 
BRANCH  23  24
ATOM     24  C   UNL     1      51.637  32.841   1.885  1.00  0.00    -0.000 C 
BRANCH  24  25
ATOM     25  C   UNL     1      51.617  32.578   0.372  1.00  0.00    -0.000 C 
BRANCH  25  26
ATOM     26  C   UNL     1      50.195  32.386  -0.186  1.00  0.00    -0.000 C 
BRANCH  26  27
ATOM     27  C   UNL     1      49.927  33.080  -1.533  1.00  0.00    -0.000 C 
BRANCH  27  28
ATOM     28  C   UNL     1      51.216  33.411  -2.302  1.00  0.00    -0.000 C 
BRANCH  28  29
ATOM     29  C   UNL     1      51.078  34.683  -3.154  1.00  0.00    -0.003 C 
ATOM     30  C   UNL     1      52.222  34.844  -4.155  1.00  0.00     0.004 C 
ENDBRANCH  28  29
ENDBRANCH  27  28
ENDBRANCH  26  27
ENDBRANCH  25  26
ENDBRANCH  24  25
ENDBRANCH  23  24
ENDBRANCH  22  23
ENDBRANCH  21  22
ENDBRANCH  20  21
ENDBRANCH  19  20
ENDBRANCH  18  19
ENDBRANCH  17  18
ENDBRANCH   1  17
TORSDOF 26
ENDMDL
MODEL 5
REMARK VINA RESULT:    -3.864      1.267      3.514
REMARK INTER + INTRA:         -13.655
REMARK INTER:                 -10.160
REMARK INTRA:                  -3.495
REMARK UNBOUND:                -3.917
REMARK SMILES CCCCCCCCCCCCCCCCCCCCCCCCCCCC(=O)[O-]
REMARK SMILES IDX 15 1 16 2 17 3 18 4 19 5 20 6 21 7 22 8 23 9 24 10 25 11
REMARK SMILES IDX 26 12 27 13 28 14 29 15 30 16 14 17 13 18 12 19 11 20 10 21
REMARK SMILES IDX 9 22 8 23 7 24 6 25 5 26 4 27 3 28 2 29 1 30
REMARK H PARENT
REMARK Flexibility Score: inf
ROOT
ATOM      1  C   UNL     1      45.095  44.559  12.635  1.00  0.00     0.000 C 
ENDROOT
BRANCH   1   2
ATOM      2  C   UNL     1      46.634  44.612  12.560  1.00  0.00     0.000 C 
BRANCH   2   3
ATOM      3  C   UNL     1      47.220  45.812  13.322  1.00  0.00     0.000 C 
BRANCH   3   4
ATOM      4  C   UNL     1      46.817  47.134  12.656  1.00  0.00     0.000 C 
BRANCH   4   5
ATOM      5  C   UNL     1      47.432  47.306  11.254  1.00  0.00     0.000 C 
BRANCH   5   6
ATOM      6  C   UNL     1      47.793  48.760  10.890  1.00  0.00     0.000 C 
BRANCH   6   7
ATOM      7  C   UNL     1      47.898  49.678  12.119  1.00  0.00     0.000 C 
BRANCH   7   8
ATOM      8  C   UNL     1      49.366  49.916  12.506  1.00  0.00     0.000 C 
BRANCH   8   9
ATOM      9  C   UNL     1      50.349  49.280  11.510  1.00  0.00     0.000 C 
BRANCH   9  10
ATOM     10  C   UNL     1      51.394  48.385  12.200  1.00  0.00     0.000 C 
BRANCH  10  11
ATOM     11  C   UNL     1      50.994  46.903  12.207  1.00  0.00     0.000 C 
BRANCH  11  12
ATOM     12  C   UNL     1      52.212  45.963  12.142  1.00  0.00     0.006 C 
BRANCH  12  13
ATOM     13  C   UNL     1      52.389  45.341  10.750  1.00  0.00     0.053 C 
BRANCH  13  14
ATOM     14  C   UNL     1      53.759  44.762  10.571  1.00  0.00     0.041 C 
ATOM     15  O   UNL     1      53.899  43.556  10.238  1.00  0.00    -0.550 OA
ATOM     16  O   UNL     1      54.882  45.543  10.811  1.00  0.00    -0.550 OA
ENDBRANCH  13  14
ENDBRANCH  12  13
ENDBRANCH  11  12
ENDBRANCH  10  11
ENDBRANCH   9  10
ENDBRANCH   8   9
ENDBRANCH   7   8
ENDBRANCH   6   7
ENDBRANCH   5   6
ENDBRANCH   4   5
ENDBRANCH   3   4
ENDBRANCH   2   3
ENDBRANCH   1   2
BRANCH   1  17
ATOM     17  C   UNL     1      44.401  44.552  11.258  1.00  0.00     0.000 C 
BRANCH  17  18
ATOM     18  C   UNL     1      45.348  44.502  10.047  1.00  0.00     0.000 C 
BRANCH  18  19
ATOM     19  C   UNL     1      44.903  45.431   8.906  1.00  0.00     0.000 C 
BRANCH  19  20
ATOM     20  C   UNL     1      44.504  46.816   9.443  1.00  0.00     0.000 C 
BRANCH  20  21
ATOM     21  C   UNL     1      43.574  47.574   8.480  1.00  0.00     0.000 C 
BRANCH  21  22
ATOM     22  C   UNL     1      42.086  47.420   8.841  1.00  0.00    -0.000 C 
BRANCH  22  23
ATOM     23  C   UNL     1      41.271  46.779   7.706  1.00  0.00    -0.000 C 
BRANCH  23  24
ATOM     24  C   UNL     1      42.144  46.329   6.524  1.00  0.00    -0.000 C 
BRANCH  24  25
ATOM     25  C   UNL     1      41.765  44.907   6.083  1.00  0.00    -0.000 C 
BRANCH  25  26
ATOM     26  C   UNL     1      42.455  43.815   6.920  1.00  0.00    -0.000 C 
BRANCH  26  27
ATOM     27  C   UNL     1      43.166  42.723   6.101  1.00  0.00    -0.000 C 
BRANCH  27  28
ATOM     28  C   UNL     1      44.495  42.273   6.729  1.00  0.00    -0.000 C 
BRANCH  28  29
ATOM     29  C   UNL     1      44.339  41.003   7.580  1.00  0.00    -0.003 C 
ATOM     30  C   UNL     1      44.856  41.187   9.006  1.00  0.00     0.004 C 
ENDBRANCH  28  29
ENDBRANCH  27  28
ENDBRANCH  26  27
ENDBRANCH  25  26
ENDBRANCH  24  25
ENDBRANCH  23  24
ENDBRANCH  22  23
ENDBRANCH  21  22
ENDBRANCH  20  21
ENDBRANCH  19  20
ENDBRANCH  18  19
ENDBRANCH  17  18
ENDBRANCH   1  17
TORSDOF 26
ENDMDL
MODEL 6
REMARK VINA RESULT:    -3.846     10.109     13.142
REMARK INTER + INTRA:         -13.610
REMARK INTER:                 -11.732
REMARK INTRA:                  -1.877
REMARK UNBOUND:                -3.917
REMARK SMILES CCCCCCCCCCCCCCCCCCCCCCCCCCCC(=O)[O-]
REMARK SMILES IDX 15 1 16 2 17 3 18 4 19 5 20 6 21 7 22 8 23 9 24 10 25 11
REMARK SMILES IDX 26 12 27 13 28 14 29 15 30 16 14 17 13 18 12 19 11 20 10 21
REMARK SMILES IDX 9 22 8 23 7 24 6 25 5 26 4 27 3 28 2 29 1 30
REMARK H PARENT
REMARK Flexibility Score: inf
ROOT
ATOM      1  C   UNL     1      50.122  35.243   9.143  1.00  0.00     0.000 C 
ENDROOT
BRANCH   1   2
ATOM      2  C   UNL     1      49.370  34.334   8.150  1.00  0.00     0.000 C 
BRANCH   2   3
ATOM      3  C   UNL     1      49.693  32.845   8.352  1.00  0.00     0.000 C 
BRANCH   3   4
ATOM      4  C   UNL     1      48.874  31.971   7.394  1.00  0.00     0.000 C 
BRANCH   4   5
ATOM      5  C   UNL     1      49.361  32.069   5.936  1.00  0.00     0.000 C 
BRANCH   5   6
ATOM      6  C   UNL     1      50.889  32.213   5.784  1.00  0.00     0.000 C 
BRANCH   6   7
ATOM      7  C   UNL     1      51.316  32.614   4.362  1.00  0.00     0.000 C 
BRANCH   7   8
ATOM      8  C   UNL     1      50.390  33.701   3.794  1.00  0.00     0.000 C 
BRANCH   8   9
ATOM      9  C   UNL     1      50.453  33.787   2.260  1.00  0.00     0.000 C 
BRANCH   9  10
ATOM     10  C   UNL     1      51.828  33.379   1.702  1.00  0.00     0.000 C 
BRANCH  10  11
ATOM     11  C   UNL     1      51.736  32.253   0.662  1.00  0.00     0.000 C 
BRANCH  11  12
ATOM     12  C   UNL     1      50.472  32.358  -0.211  1.00  0.00     0.006 C 
BRANCH  12  13
ATOM     13  C   UNL     1      50.668  33.309  -1.400  1.00  0.00     0.053 C 
BRANCH  13  14
ATOM     14  C   UNL     1      50.168  32.708  -2.679  1.00  0.00     0.041 C 
ATOM     15  O   UNL     1      50.759  32.946  -3.765  1.00  0.00    -0.550 OA
ATOM     16  O   UNL     1      49.026  31.918  -2.677  1.00  0.00    -0.550 OA
ENDBRANCH  13  14
ENDBRANCH  12  13
ENDBRANCH  11  12
ENDBRANCH  10  11
ENDBRANCH   9  10
ENDBRANCH   8   9
ENDBRANCH   7   8
ENDBRANCH   6   7
ENDBRANCH   5   6
ENDBRANCH   4   5
ENDBRANCH   3   4
ENDBRANCH   2   3
ENDBRANCH   1   2
BRANCH   1  17
ATOM     17  C   UNL     1      49.630  35.121  10.599  1.00  0.00     0.000 C 
BRANCH  17  18
ATOM     18  C   UNL     1      48.278  35.794  10.893  1.00  0.00     0.000 C 
BRANCH  18  19
ATOM     19  C   UNL     1      48.433  37.195  11.506  1.00  0.00     0.000 C 
BRANCH  19  20
ATOM     20  C   UNL     1      47.090  37.715  12.048  1.00  0.00     0.000 C 
BRANCH  20  21
ATOM     21  C   UNL     1      45.901  37.311  11.160  1.00  0.00     0.000 C 
BRANCH  21  22
ATOM     22  C   UNL     1      45.159  38.523  10.568  1.00  0.00    -0.000 C 
BRANCH  22  23
ATOM     23  C   UNL     1      44.470  38.194   9.234  1.00  0.00    -0.000 C 
BRANCH  23  24
ATOM     24  C   UNL     1      44.131  39.446   8.411  1.00  0.00    -0.000 C 
BRANCH  24  25
ATOM     25  C   UNL     1      45.087  40.598   8.760  1.00  0.00    -0.000 C 
BRANCH  25  26
ATOM     26  C   UNL     1      44.381  41.964   8.827  1.00  0.00    -0.000 C 
BRANCH  26  27
ATOM     27  C   UNL     1      45.244  43.114   9.375  1.00  0.00    -0.000 C 
BRANCH  27  28
ATOM     28  C   UNL     1      44.848  43.535  10.799  1.00  0.00    -0.000 C 
BRANCH  28  29
ATOM     29  C   UNL     1      45.937  43.203  11.831  1.00  0.00    -0.003 C 
ATOM     30  C   UNL     1      46.005  41.711  12.152  1.00  0.00     0.004 C 
ENDBRANCH  28  29
ENDBRANCH  27  28
ENDBRANCH  26  27
ENDBRANCH  25  26
ENDBRANCH  24  25
ENDBRANCH  23  24
ENDBRANCH  22  23
ENDBRANCH  21  22
ENDBRANCH  20  21
ENDBRANCH  19  20
ENDBRANCH  18  19
ENDBRANCH  17  18
ENDBRANCH   1  17
TORSDOF 26
ENDMDL
MODEL 7
REMARK VINA RESULT:    -3.841      2.986      8.835
REMARK INTER + INTRA:         -13.595
REMARK INTER:                 -10.454
REMARK INTRA:                  -3.140
REMARK UNBOUND:                -3.917
REMARK SMILES CCCCCCCCCCCCCCCCCCCCCCCCCCCC(=O)[O-]
REMARK SMILES IDX 15 1 16 2 17 3 18 4 19 5 20 6 21 7 22 8 23 9 24 10 25 11
REMARK SMILES IDX 26 12 27 13 28 14 29 15 30 16 14 17 13 18 12 19 11 20 10 21
REMARK SMILES IDX 9 22 8 23 7 24 6 25 5 26 4 27 3 28 2 29 1 30
REMARK H PARENT
REMARK Flexibility Score: inf
ROOT
ATOM      1  C   UNL     1      44.335  44.363   9.947  1.00  0.00     0.000 C 
ENDROOT
BRANCH   1   2
ATOM      2  C   UNL     1      44.589  45.686   9.197  1.00  0.00     0.000 C 
BRANCH   2   3
ATOM      3  C   UNL     1      43.412  46.667   9.317  1.00  0.00     0.000 C 
BRANCH   3   4
ATOM      4  C   UNL     1      42.961  47.156   7.934  1.00  0.00     0.000 C 
BRANCH   4   5
ATOM      5  C   UNL     1      42.682  45.998   6.956  1.00  0.00     0.000 C 
BRANCH   5   6
ATOM      6  C   UNL     1      41.588  45.018   7.425  1.00  0.00     0.000 C 
BRANCH   6   7
ATOM      7  C   UNL     1      41.981  43.544   7.235  1.00  0.00     0.000 C 
BRANCH   7   8
ATOM      8  C   UNL     1      43.376  43.422   6.603  1.00  0.00     0.000 C 
BRANCH   8   9
ATOM      9  C   UNL     1      43.747  41.968   6.269  1.00  0.00     0.000 C 
BRANCH   9  10
ATOM     10  C   UNL     1      44.443  41.251   7.441  1.00  0.00     0.000 C 
BRANCH  10  11
ATOM     11  C   UNL     1      43.851  39.863   7.722  1.00  0.00     0.000 C 
BRANCH  11  12
ATOM     12  C   UNL     1      43.740  39.563   9.228  1.00  0.00     0.006 C 
BRANCH  12  13
ATOM     13  C   UNL     1      44.733  38.483   9.678  1.00  0.00     0.053 C 
BRANCH  13  14
ATOM     14  C   UNL     1      45.788  39.041  10.584  1.00  0.00     0.041 C 
ATOM     15  O   UNL     1      45.917  40.286  10.715  1.00  0.00    -0.550 OA
ATOM     16  O   UNL     1      46.654  38.186  11.253  1.00  0.00    -0.550 OA
ENDBRANCH  13  14
ENDBRANCH  12  13
ENDBRANCH  11  12
ENDBRANCH  10  11
ENDBRANCH   9  10
ENDBRANCH   8   9
ENDBRANCH   7   8
ENDBRANCH   6   7
ENDBRANCH   5   6
ENDBRANCH   4   5
ENDBRANCH   3   4
ENDBRANCH   2   3
ENDBRANCH   1   2
BRANCH   1  17
ATOM     17  C   UNL     1      45.621  43.650  10.412  1.00  0.00     0.000 C 
BRANCH  17  18
ATOM     18  C   UNL     1      45.969  43.829  11.900  1.00  0.00     0.000 C 
BRANCH  18  19
ATOM     19  C   UNL     1      46.698  45.152  12.185  1.00  0.00     0.000 C 
BRANCH  19  20
ATOM     20  C   UNL     1      45.734  46.205  12.756  1.00  0.00     0.000 C 
BRANCH  20  21
ATOM     21  C   UNL     1      46.014  47.616  12.212  1.00  0.00     0.000 C 
BRANCH  21  22
ATOM     22  C   UNL     1      47.112  47.633  11.133  1.00  0.00    -0.000 C 
BRANCH  22  23
ATOM     23  C   UNL     1      48.343  48.447  11.562  1.00  0.00    -0.000 C 
BRANCH  23  24
ATOM     24  C   UNL     1      49.440  47.581  12.201  1.00  0.00    -0.000 C 
BRANCH  24  25
ATOM     25  C   UNL     1      50.831  48.056  11.756  1.00  0.00    -0.000 C 
BRANCH  25  26
ATOM     26  C   UNL     1      51.142  47.713  10.287  1.00  0.00    -0.000 C 
BRANCH  26  27
ATOM     27  C   UNL     1      51.950  46.420  10.081  1.00  0.00    -0.000 C 
BRANCH  27  28
ATOM     28  C   UNL     1      52.781  46.030  11.314  1.00  0.00    -0.000 C 
BRANCH  28  29
ATOM     29  C   UNL     1      54.180  45.517  10.937  1.00  0.00    -0.003 C 
ATOM     30  C   UNL     1      54.188  44.026  10.606  1.00  0.00     0.004 C 
ENDBRANCH  28  29
ENDBRANCH  27  28
ENDBRANCH  26  27
ENDBRANCH  25  26
ENDBRANCH  24  25
ENDBRANCH  23  24
ENDBRANCH  22  23
ENDBRANCH  21  22
ENDBRANCH  20  21
ENDBRANCH  19  20
ENDBRANCH  18  19
ENDBRANCH  17  18
ENDBRANCH   1  17
TORSDOF 26
ENDMDL
MODEL 8
REMARK VINA RESULT:    -3.833      1.539      3.541
REMARK INTER + INTRA:         -13.575
REMARK INTER:                  -9.454
REMARK INTRA:                  -4.120
REMARK UNBOUND:                -3.917
REMARK SMILES CCCCCCCCCCCCCCCCCCCCCCCCCCCC(=O)[O-]
REMARK SMILES IDX 15 1 16 2 17 3 18 4 19 5 20 6 21 7 22 8 23 9 24 10 25 11
REMARK SMILES IDX 26 12 27 13 28 14 29 15 30 16 14 17 13 18 12 19 11 20 10 21
REMARK SMILES IDX 9 22 8 23 7 24 6 25 5 26 4 27 3 28 2 29 1 30
REMARK H PARENT
REMARK Flexibility Score: inf
ROOT
ATOM      1  C   UNL     1      45.253  44.779   9.607  1.00  0.00     0.000 C 
ENDROOT
BRANCH   1   2
ATOM      2  C   UNL     1      44.505  45.907   8.868  1.00  0.00     0.000 C 
BRANCH   2   3
ATOM      3  C   UNL     1      43.761  46.848   9.828  1.00  0.00     0.000 C 
BRANCH   3   4
ATOM      4  C   UNL     1      44.285  48.285   9.704  1.00  0.00     0.000 C 
BRANCH   4   5
ATOM      5  C   UNL     1      45.685  48.462  10.321  1.00  0.00     0.000 C 
BRANCH   5   6
ATOM      6  C   UNL     1      45.856  47.815  11.710  1.00  0.00     0.000 C 
BRANCH   6   7
ATOM      7  C   UNL     1      47.211  47.109  11.882  1.00  0.00     0.000 C 
BRANCH   7   8
ATOM      8  C   UNL     1      48.118  47.884  12.849  1.00  0.00     0.000 C 
BRANCH   8   9
ATOM      9  C   UNL     1      49.038  48.881  12.125  1.00  0.00     0.000 C 
BRANCH   9  10
ATOM     10  C   UNL     1      49.498  48.366  10.749  1.00  0.00     0.000 C 
BRANCH  10  11
ATOM     11  C   UNL     1      51.025  48.385  10.588  1.00  0.00     0.000 C 
BRANCH  11  12
ATOM     12  C   UNL     1      51.607  46.984  10.322  1.00  0.00     0.006 C 
BRANCH  12  13
ATOM     13  C   UNL     1      51.613  46.111  11.585  1.00  0.00     0.053 C 
BRANCH  13  14
ATOM     14  C   UNL     1      52.966  46.074  12.228  1.00  0.00     0.041 C 
ATOM     15  O   UNL     1      53.616  44.997  12.275  1.00  0.00    -0.550 OA
ATOM     16  O   UNL     1      53.492  47.219  12.810  1.00  0.00    -0.550 OA
ENDBRANCH  13  14
ENDBRANCH  12  13
ENDBRANCH  11  12
ENDBRANCH  10  11
ENDBRANCH   9  10
ENDBRANCH   8   9
ENDBRANCH   7   8
ENDBRANCH   6   7
ENDBRANCH   5   6
ENDBRANCH   4   5
ENDBRANCH   3   4
ENDBRANCH   2   3
ENDBRANCH   1   2
BRANCH   1  17
ATOM     17  C   UNL     1      44.532  44.274  10.873  1.00  0.00     0.000 C 
BRANCH  17  18
ATOM     18  C   UNL     1      45.455  43.855  12.031  1.00  0.00     0.000 C 
BRANCH  18  19
ATOM     19  C   UNL     1      46.011  42.432  11.861  1.00  0.00     0.000 C 
BRANCH  19  20
ATOM     20  C   UNL     1      44.971  41.504  11.210  1.00  0.00     0.000 C 
BRANCH  20  21
ATOM     21  C   UNL     1      45.579  40.168  10.753  1.00  0.00     0.000 C 
BRANCH  21  22
ATOM     22  C   UNL     1      45.274  39.845   9.279  1.00  0.00    -0.000 C 
BRANCH  22  23
ATOM     23  C   UNL     1      44.904  41.098   8.470  1.00  0.00    -0.000 C 
BRANCH  23  24
ATOM     24  C   UNL     1      43.796  40.837   7.439  1.00  0.00    -0.000 C 
BRANCH  24  25
ATOM     25  C   UNL     1      43.877  41.853   6.288  1.00  0.00    -0.000 C 
BRANCH  25  26
ATOM     26  C   UNL     1      43.461  43.273   6.711  1.00  0.00    -0.000 C 
BRANCH  26  27
ATOM     27  C   UNL     1      41.948  43.473   6.909  1.00  0.00    -0.000 C 
BRANCH  27  28
ATOM     28  C   UNL     1      41.564  43.728   8.376  1.00  0.00    -0.000 C 
BRANCH  28  29
ATOM     29  C   UNL     1      40.930  42.495   9.037  1.00  0.00    -0.003 C 
ATOM     30  C   UNL     1      41.538  42.186  10.405  1.00  0.00     0.004 C 
ENDBRANCH  28  29
ENDBRANCH  27  28
ENDBRANCH  26  27
ENDBRANCH  25  26
ENDBRANCH  24  25
ENDBRANCH  23  24
ENDBRANCH  22  23
ENDBRANCH  21  22
ENDBRANCH  20  21
ENDBRANCH  19  20
ENDBRANCH  18  19
ENDBRANCH  17  18
ENDBRANCH   1  17
TORSDOF 26
ENDMDL
MODEL 9
REMARK VINA RESULT:    -3.820      3.686      9.141
REMARK INTER + INTRA:         -13.544
REMARK INTER:                 -10.217
REMARK INTRA:                  -3.327
REMARK UNBOUND:                -3.917
REMARK SMILES CCCCCCCCCCCCCCCCCCCCCCCCCCCC(=O)[O-]
REMARK SMILES IDX 15 1 16 2 17 3 18 4 19 5 20 6 21 7 22 8 23 9 24 10 25 11
REMARK SMILES IDX 26 12 27 13 28 14 29 15 30 16 14 17 13 18 12 19 11 20 10 21
REMARK SMILES IDX 9 22 8 23 7 24 6 25 5 26 4 27 3 28 2 29 1 30
REMARK H PARENT
REMARK Flexibility Score: inf
ROOT
ATOM      1  C   UNL     1      43.539  48.651  10.717  1.00  0.00     0.000 C 
ENDROOT
BRANCH   1   2
ATOM      2  C   UNL     1      42.238  48.780   9.900  1.00  0.00     0.000 C 
BRANCH   2   3
ATOM      3  C   UNL     1      41.994  47.570   8.985  1.00  0.00     0.000 C 
BRANCH   3   4
ATOM      4  C   UNL     1      43.209  47.306   8.087  1.00  0.00     0.000 C 
BRANCH   4   5
ATOM      5  C   UNL     1      43.662  45.834   8.116  1.00  0.00     0.000 C 
BRANCH   5   6
ATOM      6  C   UNL     1      44.906  45.567   8.987  1.00  0.00     0.000 C 
BRANCH   6   7
ATOM      7  C   UNL     1      44.555  45.059  10.395  1.00  0.00     0.000 C 
BRANCH   7   8
ATOM      8  C   UNL     1      45.710  44.239  10.990  1.00  0.00     0.000 C 
BRANCH   8   9
ATOM      9  C   UNL     1      45.561  42.732  10.723  1.00  0.00     0.000 C 
BRANCH   9  10
ATOM     10  C   UNL     1      44.094  42.310  10.525  1.00  0.00     0.000 C 
BRANCH  10  11
ATOM     11  C   UNL     1      43.940  40.803  10.274  1.00  0.00     0.000 C 
BRANCH  11  12
ATOM     12  C   UNL     1      43.502  40.487   8.832  1.00  0.00     0.006 C 
BRANCH  12  13
ATOM     13  C   UNL     1      44.530  40.967   7.798  1.00  0.00     0.053 C 
BRANCH  13  14
ATOM     14  C   UNL     1      43.869  41.597   6.610  1.00  0.00     0.041 C 
ATOM     15  O   UNL     1      44.096  42.802   6.322  1.00  0.00    -0.550 OA
ATOM     16  O   UNL     1      42.970  40.867   5.844  1.00  0.00    -0.550 OA
ENDBRANCH  13  14
ENDBRANCH  12  13
ENDBRANCH  11  12
ENDBRANCH  10  11
ENDBRANCH   9  10
ENDBRANCH   8   9
ENDBRANCH   7   8
ENDBRANCH   6   7
ENDBRANCH   5   6
ENDBRANCH   4   5
ENDBRANCH   3   4
ENDBRANCH   2   3
ENDBRANCH   1   2
BRANCH   1  17
ATOM     17  C   UNL     1      44.557  49.780  10.458  1.00  0.00     0.000 C 
BRANCH  17  18
ATOM     18  C   UNL     1      45.926  49.597  11.135  1.00  0.00     0.000 C 
BRANCH  18  19
ATOM     19  C   UNL     1      46.840  48.624  10.372  1.00  0.00     0.000 C 
BRANCH  19  20
ATOM     20  C   UNL     1      47.293  47.465  11.276  1.00  0.00     0.000 C 
BRANCH  20  21
ATOM     21  C   UNL     1      47.121  47.782  12.771  1.00  0.00     0.000 C 
BRANCH  21  22
ATOM     22  C   UNL     1      48.204  47.130  13.649  1.00  0.00    -0.000 C 
BRANCH  22  23
ATOM     23  C   UNL     1      49.292  46.433  12.816  1.00  0.00    -0.000 C 
BRANCH  23  24
ATOM     24  C   UNL     1      50.715  46.811  13.254  1.00  0.00    -0.000 C 
BRANCH  24  25
ATOM     25  C   UNL     1      51.351  47.782  12.247  1.00  0.00    -0.000 C 
BRANCH  25  26
ATOM     26  C   UNL     1      50.961  47.474  10.789  1.00  0.00    -0.000 C 
BRANCH  26  27
ATOM     27  C   UNL     1      52.001  46.661   9.998  1.00  0.00    -0.000 C 
BRANCH  27  28
ATOM     28  C   UNL     1      52.432  45.376  10.721  1.00  0.00    -0.000 C 
BRANCH  28  29
ATOM     29  C   UNL     1      53.959  45.207  10.753  1.00  0.00    -0.003 C 
ATOM     30  C   UNL     1      54.632  46.144  11.755  1.00  0.00     0.004 C 
ENDBRANCH  28  29
ENDBRANCH  27  28
ENDBRANCH  26  27
ENDBRANCH  25  26
ENDBRANCH  24  25
ENDBRANCH  23  24
ENDBRANCH  22  23
ENDBRANCH  21  22
ENDBRANCH  20  21
ENDBRANCH  19  20
ENDBRANCH  18  19
ENDBRANCH  17  18
ENDBRANCH   1  17
TORSDOF 26
ENDMDL
