MODEL 1
REMARK VINA RESULT:    -2.706      0.000      0.000
REMARK INTER + INTRA:          -7.014
REMARK INTER:                  -4.920
REMARK INTRA:                  -2.093
REMARK UNBOUND:                -2.093
REMARK SMILES CCCCCCCCCCCCCCCC(=O)[O-]
REMARK SMILES IDX 9 1 10 2 11 3 12 4 13 5 14 6 15 7 16 8 17 9 18 10 8 11 7 12
REMARK SMILES IDX 6 13 5 14 4 15 3 16 2 17 1 18
REMARK H PARENT
REMARK Flexibility Score: inf
ROOT
ATOM      1  C   UNL     1      52.896  81.000  29.975  1.00  0.00     0.000 C 
ENDROOT
BRANCH   1   2
ATOM      2  C   UNL     1      51.854  82.104  29.741  1.00  0.00     0.000 C 
BRANCH   2   3
ATOM      3  C   UNL     1      52.495  83.471  29.448  1.00  0.00     0.000 C 
BRANCH   3   4
ATOM      4  C   UNL     1      51.805  84.625  30.196  1.00  0.00     0.000 C 
BRANCH   4   5
ATOM      5  C   UNL     1      52.117  84.609  31.708  1.00  0.00     0.000 C 
BRANCH   5   6
ATOM      6  C   UNL     1      50.861  84.719  32.595  1.00  0.00     0.006 C 
BRANCH   6   7
ATOM      7  C   UNL     1      49.886  83.543  32.443  1.00  0.00     0.053 C 
BRANCH   7   8
ATOM      8  C   UNL     1      48.726  83.890  31.559  1.00  0.00     0.041 C 
ATOM      9  O   UNL     1      48.322  85.079  31.483  1.00  0.00    -0.550 OA
ATOM     10  O   UNL     1      48.103  82.903  30.804  1.00  0.00    -0.550 OA
ENDBRANCH   7   8
ENDBRANCH   6   7
ENDBRANCH   5   6
ENDBRANCH   4   5
ENDBRANCH   3   4
ENDBRANCH   2   3
ENDBRANCH   1   2
BRANCH   1  11
ATOM     11  C   UNL     1      54.322  81.547  29.813  1.00  0.00     0.000 C 
BRANCH  11  12
ATOM     12  C   UNL     1      55.186  81.357  31.074  1.00  0.00    -0.000 C 
BRANCH  12  13
ATOM     13  C   UNL     1      54.797  82.249  32.268  1.00  0.00    -0.000 C 
BRANCH  13  14
ATOM     14  C   UNL     1      55.864  83.308  32.595  1.00  0.00    -0.000 C 
BRANCH  14  15
ATOM     15  C   UNL     1      55.982  84.386  31.506  1.00  0.00    -0.000 C 
BRANCH  15  16
ATOM     16  C   UNL     1      57.311  84.303  30.737  1.00  0.00    -0.000 C 
BRANCH  16  17
ATOM     17  C   UNL     1      57.138  84.568  29.233  1.00  0.00    -0.003 C 
ATOM     18  C   UNL     1      55.733  85.055  28.875  1.00  0.00     0.004 C 
ENDBRANCH  16  17
ENDBRANCH  15  16
ENDBRANCH  14  15
ENDBRANCH  13  14
ENDBRANCH  12  13
ENDBRANCH  11  12
ENDBRANCH   1  11
TORSDOF 14
ENDMDL
MODEL 2
REMARK VINA RESULT:    -2.649      2.869      6.139
REMARK INTER + INTRA:          -6.910
REMARK INTER:                  -4.913
REMARK INTRA:                  -1.997
REMARK UNBOUND:                -2.093
REMARK SMILES CCCCCCCCCCCCCCCC(=O)[O-]
REMARK SMILES IDX 9 1 10 2 11 3 12 4 13 5 14 6 15 7 16 8 17 9 18 10 8 11 7 12
REMARK SMILES IDX 6 13 5 14 4 15 3 16 2 17 1 18
REMARK H PARENT
REMARK Flexibility Score: inf
ROOT
ATOM      1  C   UNL     1      52.971  81.410  31.210  1.00  0.00     0.000 C 
ENDROOT
BRANCH   1   2
ATOM      2  C   UNL     1      53.509  81.614  29.785  1.00  0.00     0.000 C 
BRANCH   2   3
ATOM      3  C   UNL     1      55.006  81.288  29.665  1.00  0.00     0.000 C 
BRANCH   3   4
ATOM      4  C   UNL     1      55.820  82.440  29.050  1.00  0.00     0.000 C 
BRANCH   4   5
ATOM      5  C   UNL     1      55.059  83.783  29.102  1.00  0.00     0.000 C 
BRANCH   5   6
ATOM      6  C   UNL     1      55.528  84.711  30.239  1.00  0.00     0.006 C 
BRANCH   6   7
ATOM      7  C   UNL     1      56.545  84.064  31.191  1.00  0.00     0.053 C 
BRANCH   7   8
ATOM      8  C   UNL     1      55.949  83.785  32.538  1.00  0.00     0.041 C 
ATOM      9  O   UNL     1      55.657  84.734  33.310  1.00  0.00    -0.550 OA
ATOM     10  O   UNL     1      55.697  82.476  32.933  1.00  0.00    -0.550 OA
ENDBRANCH   7   8
ENDBRANCH   6   7
ENDBRANCH   5   6
ENDBRANCH   4   5
ENDBRANCH   3   4
ENDBRANCH   2   3
ENDBRANCH   1   2
BRANCH   1  11
ATOM     11  C   UNL     1      52.021  82.548  31.606  1.00  0.00     0.000 C 
BRANCH  11  12
ATOM     12  C   UNL     1      51.843  83.598  30.494  1.00  0.00    -0.000 C 
BRANCH  12  13
ATOM     13  C   UNL     1      50.437  83.648  29.866  1.00  0.00    -0.000 C 
BRANCH  13  14
ATOM     14  C   UNL     1      49.506  82.546  30.400  1.00  0.00    -0.000 C 
BRANCH  14  15
ATOM     15  C   UNL     1      48.252  83.112  31.087  1.00  0.00    -0.000 C 
BRANCH  15  16
ATOM     16  C   UNL     1      48.505  84.483  31.736  1.00  0.00    -0.000 C 
BRANCH  16  17
ATOM     17  C   UNL     1      48.832  84.373  33.234  1.00  0.00    -0.003 C 
ATOM     18  C   UNL     1      50.109  85.120  33.619  1.00  0.00     0.004 C 
ENDBRANCH  16  17
ENDBRANCH  15  16
ENDBRANCH  14  15
ENDBRANCH  13  14
ENDBRANCH  12  13
ENDBRANCH  11  12
ENDBRANCH   1  11
TORSDOF 14
ENDMDL
MODEL 3
REMARK VINA RESULT:    -2.549      1.487      2.825
REMARK INTER + INTRA:          -6.728
REMARK INTER:                  -4.800
REMARK INTRA:                  -1.928
REMARK UNBOUND:                -2.093
REMARK SMILES CCCCCCCCCCCCCCCC(=O)[O-]
REMARK SMILES IDX 9 1 10 2 11 3 12 4 13 5 14 6 15 7 16 8 17 9 18 10 8 11 7 12
REMARK SMILES IDX 6 13 5 14 4 15 3 16 2 17 1 18
REMARK H PARENT
REMARK Flexibility Score: inf
ROOT
ATOM      1  C   UNL     1      54.906  81.383  29.636  1.00  0.00     0.000 C 
ENDROOT
BRANCH   1   2
ATOM      2  C   UNL     1      53.406  81.051  29.610  1.00  0.00     0.000 C 
BRANCH   2   3
ATOM      3  C   UNL     1      52.763  81.102  31.005  1.00  0.00     0.000 C 
BRANCH   3   4
ATOM      4  C   UNL     1      51.387  81.791  31.003  1.00  0.00     0.000 C 
BRANCH   4   5
ATOM      5  C   UNL     1      51.362  83.039  30.092  1.00  0.00     0.000 C 
BRANCH   5   6
ATOM      6  C   UNL     1      50.146  83.953  30.339  1.00  0.00     0.006 C 
BRANCH   6   7
ATOM      7  C   UNL     1      50.372  85.009  31.430  1.00  0.00     0.053 C 
BRANCH   7   8
ATOM      8  C   UNL     1      49.696  84.636  32.715  1.00  0.00     0.041 C 
ATOM      9  O   UNL     1      50.105  85.111  33.806  1.00  0.00    -0.550 OA
ATOM     10  O   UNL     1      48.602  83.779  32.707  1.00  0.00    -0.550 OA
ENDBRANCH   7   8
ENDBRANCH   6   7
ENDBRANCH   5   6
ENDBRANCH   4   5
ENDBRANCH   3   4
ENDBRANCH   2   3
ENDBRANCH   1   2
BRANCH   1  11
ATOM     11  C   UNL     1      55.192  82.687  28.878  1.00  0.00     0.000 C 
BRANCH  11  12
ATOM     12  C   UNL     1      56.262  83.558  29.563  1.00  0.00    -0.000 C 
BRANCH  12  13
ATOM     13  C   UNL     1      55.814  84.993  29.899  1.00  0.00    -0.000 C 
BRANCH  13  14
ATOM     14  C   UNL     1      54.352  85.067  30.374  1.00  0.00    -0.000 C 
BRANCH  14  15
ATOM     15  C   UNL     1      54.168  84.544  31.808  1.00  0.00    -0.000 C 
BRANCH  15  16
ATOM     16  C   UNL     1      55.376  84.857  32.708  1.00  0.00    -0.000 C 
BRANCH  16  17
ATOM     17  C   UNL     1      56.208  83.605  33.029  1.00  0.00    -0.003 C 
ATOM     18  C   UNL     1      55.390  82.315  32.960  1.00  0.00     0.004 C 
ENDBRANCH  16  17
ENDBRANCH  15  16
ENDBRANCH  14  15
ENDBRANCH  13  14
ENDBRANCH  12  13
ENDBRANCH  11  12
ENDBRANCH   1  11
TORSDOF 14
ENDMDL
MODEL 4
REMARK VINA RESULT:    -2.413      1.631      3.299
REMARK INTER + INTRA:          -6.481
REMARK INTER:                  -4.517
REMARK INTRA:                  -1.964
REMARK UNBOUND:                -2.093
REMARK SMILES CCCCCCCCCCCCCCCC(=O)[O-]
REMARK SMILES IDX 9 1 10 2 11 3 12 4 13 5 14 6 15 7 16 8 17 9 18 10 8 11 7 12
REMARK SMILES IDX 6 13 5 14 4 15 3 16 2 17 1 18
REMARK H PARENT
REMARK Flexibility Score: inf
ROOT
ATOM      1  C   UNL     1      52.529  84.558  31.432  1.00  0.00     0.000 C 
ENDROOT
BRANCH   1   2
ATOM      2  C   UNL     1      52.740  85.041  29.988  1.00  0.00     0.000 C 
BRANCH   2   3
ATOM      3  C   UNL     1      51.480  84.885  29.122  1.00  0.00     0.000 C 
BRANCH   3   4
ATOM      4  C   UNL     1      50.189  84.806  29.956  1.00  0.00     0.000 C 
BRANCH   4   5
ATOM      5  C   UNL     1      49.527  83.413  29.873  1.00  0.00     0.000 C 
BRANCH   5   6
ATOM      6  C   UNL     1      48.371  83.224  30.874  1.00  0.00     0.006 C 
BRANCH   6   7
ATOM      7  C   UNL     1      48.107  84.450  31.761  1.00  0.00     0.053 C 
BRANCH   7   8
ATOM      8  C   UNL     1      48.556  84.223  33.174  1.00  0.00     0.041 C 
ATOM      9  O   UNL     1      47.877  83.498  33.945  1.00  0.00    -0.550 OA
ATOM     10  O   UNL     1      49.735  84.798  33.633  1.00  0.00    -0.550 OA
ENDBRANCH   7   8
ENDBRANCH   6   7
ENDBRANCH   5   6
ENDBRANCH   4   5
ENDBRANCH   3   4
ENDBRANCH   2   3
ENDBRANCH   1   2
BRANCH   1  11
ATOM     11  C   UNL     1      53.611  85.124  32.363  1.00  0.00     0.000 C 
BRANCH  11  12
ATOM     12  C   UNL     1      55.013  85.125  31.725  1.00  0.00    -0.000 C 
BRANCH  12  13
ATOM     13  C   UNL     1      55.742  83.769  31.757  1.00  0.00    -0.000 C 
BRANCH  13  14
ATOM     14  C   UNL     1      56.557  83.498  30.480  1.00  0.00    -0.000 C 
BRANCH  14  15
ATOM     15  C   UNL     1      55.703  82.903  29.349  1.00  0.00    -0.000 C 
BRANCH  15  16
ATOM     16  C   UNL     1      55.062  81.560  29.739  1.00  0.00    -0.000 C 
BRANCH  16  17
ATOM     17  C   UNL     1      53.569  81.494  29.377  1.00  0.00    -0.003 C 
ATOM     18  C   UNL     1      52.677  81.222  30.588  1.00  0.00     0.004 C 
ENDBRANCH  16  17
ENDBRANCH  15  16
ENDBRANCH  14  15
ENDBRANCH  13  14
ENDBRANCH  12  13
ENDBRANCH  11  12
ENDBRANCH   1  11
TORSDOF 14
ENDMDL
MODEL 5
REMARK VINA RESULT:    -2.371      2.393      5.289
REMARK INTER + INTRA:          -6.404
REMARK INTER:                  -4.468
REMARK INTRA:                  -1.936
REMARK UNBOUND:                -2.093
REMARK SMILES CCCCCCCCCCCCCCCC(=O)[O-]
REMARK SMILES IDX 9 1 10 2 11 3 12 4 13 5 14 6 15 7 16 8 17 9 18 10 8 11 7 12
REMARK SMILES IDX 6 13 5 14 4 15 3 16 2 17 1 18
REMARK H PARENT
REMARK Flexibility Score: inf
ROOT
ATOM      1  C   UNL     1      54.973  81.287  29.204  1.00  0.00     0.000 C 
ENDROOT
BRANCH   1   2
ATOM      2  C   UNL     1      56.071  82.324  28.920  1.00  0.00     0.000 C 
BRANCH   2   3
ATOM      3  C   UNL     1      55.532  83.762  28.884  1.00  0.00     0.000 C 
BRANCH   3   4
ATOM      4  C   UNL     1      56.329  84.720  29.787  1.00  0.00     0.000 C 
BRANCH   4   5
ATOM      5  C   UNL     1      57.024  83.981  30.951  1.00  0.00     0.000 C 
BRANCH   5   6
ATOM      6  C   UNL     1      56.275  84.106  32.292  1.00  0.00     0.006 C 
BRANCH   6   7
ATOM      7  C   UNL     1      54.752  83.954  32.171  1.00  0.00     0.053 C 
BRANCH   7   8
ATOM      8  C   UNL     1      54.289  82.603  32.626  1.00  0.00     0.041 C 
ATOM      9  O   UNL     1      53.072  82.404  32.878  1.00  0.00    -0.550 OA
ATOM     10  O   UNL     1      55.197  81.559  32.753  1.00  0.00    -0.550 OA
ENDBRANCH   7   8
ENDBRANCH   6   7
ENDBRANCH   5   6
ENDBRANCH   4   5
ENDBRANCH   3   4
ENDBRANCH   2   3
ENDBRANCH   1   2
BRANCH   1  11
ATOM     11  C   UNL     1      53.585  81.855  28.876  1.00  0.00     0.000 C 
BRANCH  11  12
ATOM     12  C   UNL     1      52.458  81.200  29.698  1.00  0.00    -0.000 C 
BRANCH  12  13
ATOM     13  C   UNL     1      51.325  82.154  30.122  1.00  0.00    -0.000 C 
BRANCH  13  14
ATOM     14  C   UNL     1      51.594  83.615  29.722  1.00  0.00    -0.000 C 
BRANCH  14  15
ATOM     15  C   UNL     1      50.935  84.622  30.679  1.00  0.00    -0.000 C 
BRANCH  15  16
ATOM     16  C   UNL     1      49.718  84.030  31.409  1.00  0.00    -0.000 C 
BRANCH  16  17
ATOM     17  C   UNL     1      49.894  84.024  32.936  1.00  0.00    -0.003 C 
ATOM     18  C   UNL     1      50.848  85.114  33.427  1.00  0.00     0.004 C 
ENDBRANCH  16  17
ENDBRANCH  15  16
ENDBRANCH  14  15
ENDBRANCH  13  14
ENDBRANCH  12  13
ENDBRANCH  11  12
ENDBRANCH   1  11
TORSDOF 14
ENDMDL
MODEL 6
REMARK VINA RESULT:    -2.323      1.677      2.820
REMARK INTER + INTRA:          -6.317
REMARK INTER:                  -4.825
REMARK INTRA:                  -1.492
REMARK UNBOUND:                -2.093
REMARK SMILES CCCCCCCCCCCCCCCC(=O)[O-]
REMARK SMILES IDX 9 1 10 2 11 3 12 4 13 5 14 6 15 7 16 8 17 9 18 10 8 11 7 12
REMARK SMILES IDX 6 13 5 14 4 15 3 16 2 17 1 18
REMARK H PARENT
REMARK Flexibility Score: inf
ROOT
ATOM      1  C   UNL     1      52.436  83.348  31.244  1.00  0.00     0.000 C 
ENDROOT
BRANCH   1   2
ATOM      2  C   UNL     1      51.840  83.598  29.850  1.00  0.00     0.000 C 
BRANCH   2   3
ATOM      3  C   UNL     1      50.881  82.482  29.407  1.00  0.00     0.000 C 
BRANCH   3   4
ATOM      4  C   UNL     1      49.716  82.272  30.390  1.00  0.00     0.000 C 
BRANCH   4   5
ATOM      5  C   UNL     1      48.642  83.375  30.264  1.00  0.00     0.000 C 
BRANCH   5   6
ATOM      6  C   UNL     1      48.047  83.810  31.618  1.00  0.00     0.006 C 
BRANCH   6   7
ATOM      7  C   UNL     1      48.627  85.125  32.159  1.00  0.00     0.053 C 
BRANCH   7   8
ATOM      8  C   UNL     1      49.203  84.958  33.532  1.00  0.00     0.041 C 
ATOM      9  O   UNL     1      48.452  84.696  34.506  1.00  0.00    -0.550 OA
ATOM     10  O   UNL     1      50.574  85.072  33.734  1.00  0.00    -0.550 OA
ENDBRANCH   7   8
ENDBRANCH   6   7
ENDBRANCH   5   6
ENDBRANCH   4   5
ENDBRANCH   3   4
ENDBRANCH   2   3
ENDBRANCH   1   2
BRANCH   1  11
ATOM     11  C   UNL     1      52.790  81.866  31.432  1.00  0.00     0.000 C 
BRANCH  11  12
ATOM     12  C   UNL     1      54.258  81.549  31.091  1.00  0.00    -0.000 C 
BRANCH  12  13
ATOM     13  C   UNL     1      54.531  81.258  29.603  1.00  0.00    -0.000 C 
BRANCH  13  14
ATOM     14  C   UNL     1      55.848  81.877  29.105  1.00  0.00    -0.000 C 
BRANCH  14  15
ATOM     15  C   UNL     1      55.784  83.410  29.013  1.00  0.00    -0.000 C 
BRANCH  15  16
ATOM     16  C   UNL     1      56.694  84.100  30.043  1.00  0.00    -0.000 C 
BRANCH  16  17
ATOM     17  C   UNL     1      55.901  84.724  31.203  1.00  0.00    -0.003 C 
ATOM     18  C   UNL     1      56.128  84.003  32.532  1.00  0.00     0.004 C 
ENDBRANCH  16  17
ENDBRANCH  15  16
ENDBRANCH  14  15
ENDBRANCH  13  14
ENDBRANCH  12  13
ENDBRANCH  11  12
ENDBRANCH   1  11
TORSDOF 14
ENDMDL
MODEL 7
REMARK VINA RESULT:    -2.307      2.877      6.413
REMARK INTER + INTRA:          -6.288
REMARK INTER:                  -5.129
REMARK INTRA:                  -1.159
REMARK UNBOUND:                -2.093
REMARK SMILES CCCCCCCCCCCCCCCC(=O)[O-]
REMARK SMILES IDX 9 1 10 2 11 3 12 4 13 5 14 6 15 7 16 8 17 9 18 10 8 11 7 12
REMARK SMILES IDX 6 13 5 14 4 15 3 16 2 17 1 18
REMARK H PARENT
REMARK Flexibility Score: inf
ROOT
ATOM      1  C   UNL     1      53.319  82.073  32.578  1.00  0.00     0.000 C 
ENDROOT
BRANCH   1   2
ATOM      2  C   UNL     1      54.779  81.827  32.166  1.00  0.00     0.000 C 
BRANCH   2   3
ATOM      3  C   UNL     1      55.777  82.631  33.014  1.00  0.00     0.000 C 
BRANCH   3   4
ATOM      4  C   UNL     1      55.817  84.121  32.633  1.00  0.00     0.000 C 
BRANCH   4   5
ATOM      5  C   UNL     1      55.726  84.335  31.106  1.00  0.00     0.000 C 
BRANCH   5   6
ATOM      6  C   UNL     1      57.041  84.029  30.363  1.00  0.00     0.006 C 
BRANCH   6   7
ATOM      7  C   UNL     1      56.842  83.488  28.940  1.00  0.00     0.053 C 
BRANCH   7   8
ATOM      8  C   UNL     1      55.887  82.333  28.911  1.00  0.00     0.041 C 
ATOM      9  O   UNL     1      54.646  82.539  28.875  1.00  0.00    -0.550 OA
ATOM     10  O   UNL     1      56.367  81.029  28.904  1.00  0.00    -0.550 OA
ENDBRANCH   7   8
ENDBRANCH   6   7
ENDBRANCH   5   6
ENDBRANCH   4   5
ENDBRANCH   3   4
ENDBRANCH   2   3
ENDBRANCH   1   2
BRANCH   1  11
ATOM     11  C   UNL     1      52.350  81.494  31.537  1.00  0.00     0.000 C 
BRANCH  11  12
ATOM     12  C   UNL     1      51.705  82.573  30.648  1.00  0.00    -0.000 C 
BRANCH  12  13
ATOM     13  C   UNL     1      51.844  84.015  31.173  1.00  0.00    -0.000 C 
BRANCH  13  14
ATOM     14  C   UNL     1      50.660  84.912  30.775  1.00  0.00    -0.000 C 
BRANCH  14  15
ATOM     15  C   UNL     1      49.394  84.107  30.440  1.00  0.00    -0.000 C 
BRANCH  15  16
ATOM     16  C   UNL     1      48.236  84.398  31.410  1.00  0.00    -0.000 C 
BRANCH  16  17
ATOM     17  C   UNL     1      48.541  83.936  32.844  1.00  0.00    -0.003 C 
ATOM     18  C   UNL     1      48.155  84.976  33.896  1.00  0.00     0.004 C 
ENDBRANCH  16  17
ENDBRANCH  15  16
ENDBRANCH  14  15
ENDBRANCH  13  14
ENDBRANCH  12  13
ENDBRANCH  11  12
ENDBRANCH   1  11
TORSDOF 14
ENDMDL
