MODEL 1
REMARK VINA RESULT:    -4.409      0.000      0.000
REMARK INTER + INTRA:          -9.202
REMARK INTER:                  -7.502
REMARK INTRA:                  -1.701
REMARK UNBOUND:                -1.701
REMARK SMILES CCCCCCCCCCCCCC(=O)[O-]
REMARK SMILES IDX 8 1 9 2 10 3 11 4 12 5 13 6 14 7 15 8 16 9 7 10 6 11 5 12
REMARK SMILES IDX 4 13 3 14 2 15 1 16
REMARK H PARENT
REMARK Flexibility Score: inf
ROOT
ATOM      1  C   UNL     1       3.280 -37.625  18.050  1.00  0.00     0.000 C 
ENDROOT
BRANCH   1   2
ATOM      2  C   UNL     1       1.840 -37.211  18.392  1.00  0.00     0.000 C 
BRANCH   2   3
ATOM      3  C   UNL     1       1.716 -36.598  19.795  1.00  0.00     0.000 C 
BRANCH   3   4
ATOM      4  C   UNL     1       1.226 -37.640  20.808  1.00  0.00     0.000 C 
BRANCH   4   5
ATOM      5  C   UNL     1      -0.186 -37.303  21.307  1.00  0.00     0.006 C 
BRANCH   5   6
ATOM      6  C   UNL     1      -0.418 -35.790  21.418  1.00  0.00     0.053 C 
BRANCH   6   7
ATOM      7  C   UNL     1      -1.869 -35.459  21.588  1.00  0.00     0.041 C 
ATOM      8  O   UNL     1      -2.727 -35.961  20.816  1.00  0.00    -0.550 OA
ATOM      9  O   UNL     1      -2.277 -34.625  22.621  1.00  0.00    -0.550 OA
ENDBRANCH   6   7
ENDBRANCH   5   6
ENDBRANCH   4   5
ENDBRANCH   3   4
ENDBRANCH   2   3
ENDBRANCH   1   2
BRANCH   1  10
ATOM     10  C   UNL     1       4.315 -36.572  18.485  1.00  0.00     0.000 C 
BRANCH  10  11
ATOM     11  C   UNL     1       5.604 -37.205  19.036  1.00  0.00    -0.000 C 
BRANCH  11  12
ATOM     12  C   UNL     1       5.810 -36.925  20.533  1.00  0.00    -0.000 C 
BRANCH  12  13
ATOM     13  C   UNL     1       5.012 -37.916  21.390  1.00  0.00    -0.000 C 
BRANCH  13  14
ATOM     14  C   UNL     1       4.333 -37.201  22.568  1.00  0.00    -0.000 C 
BRANCH  14  15
ATOM     15  C   UNL     1       4.239 -35.682  22.364  1.00  0.00    -0.003 C 
ATOM     16  C   UNL     1       2.957 -35.084  22.941  1.00  0.00     0.004 C 
ENDBRANCH  14  15
ENDBRANCH  13  14
ENDBRANCH  12  13
ENDBRANCH  11  12
ENDBRANCH  10  11
ENDBRANCH   1  10
TORSDOF 12
ENDMDL
MODEL 2
REMARK VINA RESULT:    -4.340     22.565     24.034
REMARK INTER + INTRA:          -9.085
REMARK INTER:                  -7.464
REMARK INTRA:                  -1.620
REMARK UNBOUND:                -1.701
REMARK SMILES CCCCCCCCCCCCCC(=O)[O-]
REMARK SMILES IDX 8 1 9 2 10 3 11 4 12 5 13 6 14 7 15 8 16 9 7 10 6 11 5 12
REMARK SMILES IDX 4 13 3 14 2 15 1 16
REMARK H PARENT
REMARK Flexibility Score: inf
ROOT
ATOM      1  C   UNL     1      -9.215 -18.789  29.768  1.00  0.00     0.000 C 
ENDROOT
BRANCH   1   2
ATOM      2  C   UNL     1      -8.041 -18.744  30.760  1.00  0.00     0.000 C 
BRANCH   2   3
ATOM      3  C   UNL     1      -8.340 -17.879  31.994  1.00  0.00     0.000 C 
BRANCH   3   4
ATOM      4  C   UNL     1      -7.398 -18.231  33.151  1.00  0.00     0.000 C 
BRANCH   4   5
ATOM      5  C   UNL     1      -6.066 -18.790  32.627  1.00  0.00     0.006 C 
BRANCH   5   6
ATOM      6  C   UNL     1      -5.518 -19.915  33.516  1.00  0.00     0.053 C 
BRANCH   6   7
ATOM      7  C   UNL     1      -4.218 -19.536  34.155  1.00  0.00     0.041 C 
ATOM      8  O   UNL     1      -3.754 -18.375  34.007  1.00  0.00    -0.550 OA
ATOM      9  O   UNL     1      -3.535 -20.455  34.943  1.00  0.00    -0.550 OA
ENDBRANCH   6   7
ENDBRANCH   5   6
ENDBRANCH   4   5
ENDBRANCH   3   4
ENDBRANCH   2   3
ENDBRANCH   1   2
BRANCH   1  10
ATOM     10  C   UNL     1     -10.582 -18.701  30.468  1.00  0.00     0.000 C 
BRANCH  10  11
ATOM     11  C   UNL     1     -11.180 -20.085  30.771  1.00  0.00    -0.000 C 
BRANCH  11  12
ATOM     12  C   UNL     1     -12.043 -20.094  32.042  1.00  0.00    -0.000 C 
BRANCH  12  13
ATOM     13  C   UNL     1     -11.665 -18.933  32.969  1.00  0.00    -0.000 C 
BRANCH  13  14
ATOM     14  C   UNL     1     -10.843 -19.431  34.167  1.00  0.00    -0.000 C 
BRANCH  14  15
ATOM     15  C   UNL     1     -10.579 -20.944  34.115  1.00  0.00    -0.003 C 
ATOM     16  C   UNL     1      -9.141 -21.281  33.722  1.00  0.00     0.004 C 
ENDBRANCH  14  15
ENDBRANCH  13  14
ENDBRANCH  12  13
ENDBRANCH  11  12
ENDBRANCH  10  11
ENDBRANCH   1  10
TORSDOF 12
ENDMDL
MODEL 3
REMARK VINA RESULT:    -4.316      1.144      2.973
REMARK INTER + INTRA:          -9.044
REMARK INTER:                  -7.422
REMARK INTRA:                  -1.622
REMARK UNBOUND:                -1.701
REMARK SMILES CCCCCCCCCCCCCC(=O)[O-]
REMARK SMILES IDX 8 1 9 2 10 3 11 4 12 5 13 6 14 7 15 8 16 9 7 10 6 11 5 12
REMARK SMILES IDX 4 13 3 14 2 15 1 16
REMARK H PARENT
REMARK Flexibility Score: inf
ROOT
ATOM      1  C   UNL     1       2.643 -35.474  22.223  1.00  0.00     0.000 C 
ENDROOT
BRANCH   1   2
ATOM      2  C   UNL     1       1.396 -35.883  21.422  1.00  0.00     0.000 C 
BRANCH   2   3
ATOM      3  C   UNL     1       1.162 -37.402  21.424  1.00  0.00     0.000 C 
BRANCH   3   4
ATOM      4  C   UNL     1      -0.067 -37.767  20.582  1.00  0.00     0.000 C 
BRANCH   4   5
ATOM      5  C   UNL     1      -1.344 -37.749  21.435  1.00  0.00     0.006 C 
BRANCH   5   6
ATOM      6  C   UNL     1      -2.386 -36.757  20.900  1.00  0.00     0.053 C 
BRANCH   6   7
ATOM      7  C   UNL     1      -2.745 -35.722  21.922  1.00  0.00     0.041 C 
ATOM      8  O   UNL     1      -3.885 -35.726  22.454  1.00  0.00    -0.550 OA
ATOM      9  O   UNL     1      -1.807 -34.774  22.312  1.00  0.00    -0.550 OA
ENDBRANCH   6   7
ENDBRANCH   5   6
ENDBRANCH   4   5
ENDBRANCH   3   4
ENDBRANCH   2   3
ENDBRANCH   1   2
BRANCH   1  10
ATOM     10  C   UNL     1       3.573 -36.665  22.517  1.00  0.00     0.000 C 
BRANCH  10  11
ATOM     11  C   UNL     1       5.005 -36.435  22.005  1.00  0.00    -0.000 C 
BRANCH  11  12
ATOM     12  C   UNL     1       5.529 -37.607  21.161  1.00  0.00    -0.000 C 
BRANCH  12  13
ATOM     13  C   UNL     1       4.512 -38.005  20.084  1.00  0.00    -0.000 C 
BRANCH  13  14
ATOM     14  C   UNL     1       4.694 -37.158  18.816  1.00  0.00    -0.000 C 
BRANCH  14  15
ATOM     15  C   UNL     1       3.469 -36.283  18.508  1.00  0.00    -0.003 C 
ATOM     16  C   UNL     1       2.369 -37.043  17.768  1.00  0.00     0.004 C 
ENDBRANCH  14  15
ENDBRANCH  13  14
ENDBRANCH  12  13
ENDBRANCH  11  12
ENDBRANCH  10  11
ENDBRANCH   1  10
TORSDOF 12
ENDMDL
MODEL 4
REMARK VINA RESULT:    -4.257     21.768     23.526
REMARK INTER + INTRA:          -8.944
REMARK INTER:                  -7.943
REMARK INTRA:                  -1.001
REMARK UNBOUND:                -1.701
REMARK SMILES CCCCCCCCCCCCCC(=O)[O-]
REMARK SMILES IDX 8 1 9 2 10 3 11 4 12 5 13 6 14 7 15 8 16 9 7 10 6 11 5 12
REMARK SMILES IDX 4 13 3 14 2 15 1 16
REMARK H PARENT
REMARK Flexibility Score: inf
ROOT
ATOM      1  C   UNL     1      -8.563 -19.470  33.473  1.00  0.00     0.000 C 
ENDROOT
BRANCH   1   2
ATOM      2  C   UNL     1      -7.191 -20.024  33.890  1.00  0.00     0.000 C 
BRANCH   2   3
ATOM      3  C   UNL     1      -7.242 -21.511  34.273  1.00  0.00     0.000 C 
BRANCH   3   4
ATOM      4  C   UNL     1      -6.009 -21.908  35.093  1.00  0.00     0.000 C 
BRANCH   4   5
ATOM      5  C   UNL     1      -5.366 -20.678  35.751  1.00  0.00     0.006 C 
BRANCH   5   6
ATOM      6  C   UNL     1      -3.859 -20.862  35.980  1.00  0.00     0.053 C 
BRANCH   6   7
ATOM      7  C   UNL     1      -3.046 -20.136  34.952  1.00  0.00     0.041 C 
ATOM      8  O   UNL     1      -1.870 -20.504  34.700  1.00  0.00    -0.550 OA
ATOM      9  O   UNL     1      -3.602 -19.074  34.249  1.00  0.00    -0.550 OA
ENDBRANCH   6   7
ENDBRANCH   5   6
ENDBRANCH   4   5
ENDBRANCH   3   4
ENDBRANCH   2   3
ENDBRANCH   1   2
BRANCH   1  10
ATOM     10  C   UNL     1      -9.523 -20.573  32.993  1.00  0.00     0.000 C 
BRANCH  10  11
ATOM     11  C   UNL     1     -10.694 -20.018  32.166  1.00  0.00    -0.000 C 
BRANCH  11  12
ATOM     12  C   UNL     1     -10.564 -18.512  31.889  1.00  0.00    -0.000 C 
BRANCH  12  13
ATOM     13  C   UNL     1     -10.675 -18.220  30.388  1.00  0.00    -0.000 C 
BRANCH  13  14
ATOM     14  C   UNL     1      -9.440 -18.736  29.634  1.00  0.00    -0.000 C 
BRANCH  14  15
ATOM     15  C   UNL     1      -9.806 -19.507  28.357  1.00  0.00    -0.003 C 
ATOM     16  C   UNL     1     -10.249 -20.942  28.638  1.00  0.00     0.004 C 
ENDBRANCH  14  15
ENDBRANCH  13  14
ENDBRANCH  12  13
ENDBRANCH  11  12
ENDBRANCH  10  11
ENDBRANCH   1  10
TORSDOF 12
ENDMDL
MODEL 5
REMARK VINA RESULT:    -4.256      1.908      3.436
REMARK INTER + INTRA:          -8.943
REMARK INTER:                  -7.881
REMARK INTRA:                  -1.062
REMARK UNBOUND:                -1.701
REMARK SMILES CCCCCCCCCCCCCC(=O)[O-]
REMARK SMILES IDX 8 1 9 2 10 3 11 4 12 5 13 6 14 7 15 8 16 9 7 10 6 11 5 12
REMARK SMILES IDX 4 13 3 14 2 15 1 16
REMARK H PARENT
REMARK Flexibility Score: inf
ROOT
ATOM      1  C   UNL     1       1.037 -35.822  20.105  1.00  0.00     0.000 C 
ENDROOT
BRANCH   1   2
ATOM      2  C   UNL     1       0.366 -35.970  21.480  1.00  0.00     0.000 C 
BRANCH   2   3
ATOM      3  C   UNL     1      -1.063 -36.526  21.385  1.00  0.00     0.000 C 
BRANCH   3   4
ATOM      4  C   UNL     1      -2.091 -35.470  21.810  1.00  0.00     0.000 C 
BRANCH   4   5
ATOM      5  C   UNL     1      -1.417 -34.323  22.578  1.00  0.00     0.006 C 
BRANCH   5   6
ATOM      6  C   UNL     1      -2.425 -33.495  23.388  1.00  0.00     0.053 C 
BRANCH   6   7
ATOM      7  C   UNL     1      -1.756 -32.387  24.142  1.00  0.00     0.041 C 
ATOM      8  O   UNL     1      -0.539 -32.476  24.451  1.00  0.00    -0.550 OA
ATOM      9  O   UNL     1      -2.468 -31.240  24.471  1.00  0.00    -0.550 OA
ENDBRANCH   6   7
ENDBRANCH   5   6
ENDBRANCH   4   5
ENDBRANCH   3   4
ENDBRANCH   2   3
ENDBRANCH   1   2
BRANCH   1  10
ATOM     10  C   UNL     1       1.473 -37.173  19.512  1.00  0.00     0.000 C 
BRANCH  10  11
ATOM     11  C   UNL     1       2.271 -37.016  18.207  1.00  0.00    -0.000 C 
BRANCH  11  12
ATOM     12  C   UNL     1       3.644 -36.365  18.426  1.00  0.00    -0.000 C 
BRANCH  12  13
ATOM     13  C   UNL     1       4.677 -37.403  18.881  1.00  0.00    -0.000 C 
BRANCH  13  14
ATOM     14  C   UNL     1       5.375 -36.956  20.174  1.00  0.00    -0.000 C 
BRANCH  14  15
ATOM     15  C   UNL     1       4.455 -37.043  21.402  1.00  0.00    -0.003 C 
ATOM     16  C   UNL     1       4.256 -35.692  22.089  1.00  0.00     0.004 C 
ENDBRANCH  14  15
ENDBRANCH  13  14
ENDBRANCH  12  13
ENDBRANCH  11  12
ENDBRANCH  10  11
ENDBRANCH   1  10
TORSDOF 12
ENDMDL
MODEL 6
REMARK VINA RESULT:    -4.221     21.870     23.672
REMARK INTER + INTRA:          -8.882
REMARK INTER:                  -7.448
REMARK INTRA:                  -1.434
REMARK UNBOUND:                -1.701
REMARK SMILES CCCCCCCCCCCCCC(=O)[O-]
REMARK SMILES IDX 8 1 9 2 10 3 11 4 12 5 13 6 14 7 15 8 16 9 7 10 6 11 5 12
REMARK SMILES IDX 4 13 3 14 2 15 1 16
REMARK H PARENT
REMARK Flexibility Score: inf
ROOT
ATOM      1  C   UNL     1      -9.625 -20.673  33.687  1.00  0.00     0.000 C 
ENDROOT
BRANCH   1   2
ATOM      2  C   UNL     1      -8.171 -20.390  33.278  1.00  0.00     0.000 C 
BRANCH   2   3
ATOM      3  C   UNL     1      -7.712 -18.974  33.660  1.00  0.00     0.000 C 
BRANCH   3   4
ATOM      4  C   UNL     1      -6.637 -18.466  32.690  1.00  0.00     0.000 C 
BRANCH   4   5
ATOM      5  C   UNL     1      -5.413 -19.393  32.690  1.00  0.00     0.006 C 
BRANCH   5   6
ATOM      6  C   UNL     1      -4.433 -19.061  33.824  1.00  0.00     0.053 C 
BRANCH   6   7
ATOM      7  C   UNL     1      -3.965 -20.294  34.535  1.00  0.00     0.041 C 
ATOM      8  O   UNL     1      -2.745 -20.447  34.802  1.00  0.00    -0.550 OA
ATOM      9  O   UNL     1      -4.883 -21.257  34.935  1.00  0.00    -0.550 OA
ENDBRANCH   6   7
ENDBRANCH   5   6
ENDBRANCH   4   5
ENDBRANCH   3   4
ENDBRANCH   2   3
ENDBRANCH   1   2
BRANCH   1  10
ATOM     10  C   UNL     1     -10.519 -19.425  33.587  1.00  0.00     0.000 C 
BRANCH  10  11
ATOM     11  C   UNL     1     -11.190 -19.287  32.210  1.00  0.00    -0.000 C 
BRANCH  11  12
ATOM     12  C   UNL     1     -10.628 -18.115  31.391  1.00  0.00    -0.000 C 
BRANCH  12  13
ATOM     13  C   UNL     1      -9.728 -18.621  30.257  1.00  0.00    -0.000 C 
BRANCH  13  14
ATOM     14  C   UNL     1     -10.070 -20.072  29.889  1.00  0.00    -0.000 C 
BRANCH  14  15
ATOM     15  C   UNL     1     -10.037 -20.321  28.373  1.00  0.00    -0.003 C 
ATOM     16  C   UNL     1      -9.690 -19.066  27.574  1.00  0.00     0.004 C 
ENDBRANCH  14  15
ENDBRANCH  13  14
ENDBRANCH  12  13
ENDBRANCH  11  12
ENDBRANCH  10  11
ENDBRANCH   1  10
TORSDOF 12
ENDMDL
MODEL 7
REMARK VINA RESULT:    -4.209      3.202      6.528
REMARK INTER + INTRA:          -8.863
REMARK INTER:                  -7.691
REMARK INTRA:                  -1.172
REMARK UNBOUND:                -1.701
REMARK SMILES CCCCCCCCCCCCCC(=O)[O-]
REMARK SMILES IDX 8 1 9 2 10 3 11 4 12 5 13 6 14 7 15 8 16 9 7 10 6 11 5 12
REMARK SMILES IDX 4 13 3 14 2 15 1 16
REMARK H PARENT
REMARK Flexibility Score: inf
ROOT
ATOM      1  C   UNL     1       0.749 -37.455  20.996  1.00  0.00     0.000 C 
ENDROOT
BRANCH   1   2
ATOM      2  C   UNL     1       1.257 -38.095  19.694  1.00  0.00     0.000 C 
BRANCH   2   3
ATOM      3  C   UNL     1       1.666 -37.054  18.641  1.00  0.00     0.000 C 
BRANCH   3   4
ATOM      4  C   UNL     1       3.068 -37.350  18.094  1.00  0.00     0.000 C 
BRANCH   4   5
ATOM      5  C   UNL     1       4.120 -36.445  18.752  1.00  0.00     0.006 C 
BRANCH   5   6
ATOM      6  C   UNL     1       4.874 -37.157  19.883  1.00  0.00     0.053 C 
BRANCH   6   7
ATOM      7  C   UNL     1       4.433 -36.678  21.233  1.00  0.00     0.041 C 
ATOM      8  O   UNL     1       4.759 -37.316  22.268  1.00  0.00    -0.550 OA
ATOM      9  O   UNL     1       3.693 -35.508  21.350  1.00  0.00    -0.550 OA
ENDBRANCH   6   7
ENDBRANCH   5   6
ENDBRANCH   4   5
ENDBRANCH   3   4
ENDBRANCH   2   3
ENDBRANCH   1   2
BRANCH   1  10
ATOM     10  C   UNL     1       0.067 -36.096  20.759  1.00  0.00     0.000 C 
BRANCH  10  11
ATOM     11  C   UNL     1      -1.372 -36.056  21.298  1.00  0.00    -0.000 C 
BRANCH  11  12
ATOM     12  C   UNL     1      -1.947 -37.456  21.562  1.00  0.00    -0.000 C 
BRANCH  12  13
ATOM     13  C   UNL     1      -2.786 -37.937  20.371  1.00  0.00    -0.000 C 
BRANCH  13  14
ATOM     14  C   UNL     1      -3.620 -36.787  19.787  1.00  0.00    -0.000 C 
BRANCH  14  15
ATOM     15  C   UNL     1      -4.369 -37.191  18.508  1.00  0.00    -0.003 C 
ATOM     16  C   UNL     1      -4.914 -35.990  17.736  1.00  0.00     0.004 C 
ENDBRANCH  14  15
ENDBRANCH  13  14
ENDBRANCH  12  13
ENDBRANCH  11  12
ENDBRANCH  10  11
ENDBRANCH   1  10
TORSDOF 12
ENDMDL
MODEL 8
REMARK VINA RESULT:    -4.202     22.364     24.058
REMARK INTER + INTRA:          -8.850
REMARK INTER:                  -7.312
REMARK INTRA:                  -1.537
REMARK UNBOUND:                -1.701
REMARK SMILES CCCCCCCCCCCCCC(=O)[O-]
REMARK SMILES IDX 8 1 9 2 10 3 11 4 12 5 13 6 14 7 15 8 16 9 7 10 6 11 5 12
REMARK SMILES IDX 4 13 3 14 2 15 1 16
REMARK H PARENT
REMARK Flexibility Score: inf
ROOT
ATOM      1  C   UNL     1      -8.091 -18.650  30.841  1.00  0.00     0.000 C 
ENDROOT
BRANCH   1   2
ATOM      2  C   UNL     1      -8.586 -18.015  32.150  1.00  0.00     0.000 C 
BRANCH   2   3
ATOM      3  C   UNL     1      -8.137 -18.793  33.395  1.00  0.00     0.000 C 
BRANCH   3   4
ATOM      4  C   UNL     1      -8.406 -20.294  33.230  1.00  0.00     0.000 C 
BRANCH   4   5
ATOM      5  C   UNL     1      -7.450 -21.125  34.099  1.00  0.00     0.006 C 
BRANCH   5   6
ATOM      6  C   UNL     1      -6.180 -20.347  34.472  1.00  0.00     0.053 C 
BRANCH   6   7
ATOM      7  C   UNL     1      -5.137 -21.240  35.072  1.00  0.00     0.041 C 
ATOM      8  O   UNL     1      -5.467 -22.334  35.599  1.00  0.00    -0.550 OA
ATOM      9  O   UNL     1      -3.796 -20.880  35.015  1.00  0.00    -0.550 OA
ENDBRANCH   6   7
ENDBRANCH   5   6
ENDBRANCH   4   5
ENDBRANCH   3   4
ENDBRANCH   2   3
ENDBRANCH   1   2
BRANCH   1  10
ATOM     10  C   UNL     1      -9.214 -18.805  29.799  1.00  0.00     0.000 C 
BRANCH  10  11
ATOM     11  C   UNL     1     -10.613 -18.808  30.436  1.00  0.00    -0.000 C 
BRANCH  11  12
ATOM     12  C   UNL     1     -11.127 -20.225  30.732  1.00  0.00    -0.000 C 
BRANCH  12  13
ATOM     13  C   UNL     1     -12.362 -20.182  31.641  1.00  0.00    -0.000 C 
BRANCH  13  14
ATOM     14  C   UNL     1     -11.959 -20.268  33.121  1.00  0.00    -0.000 C 
BRANCH  14  15
ATOM     15  C   UNL     1     -12.084 -18.920  33.847  1.00  0.00    -0.003 C 
ATOM     16  C   UNL     1     -11.844 -19.033  35.352  1.00  0.00     0.004 C 
ENDBRANCH  14  15
ENDBRANCH  13  14
ENDBRANCH  12  13
ENDBRANCH  11  12
ENDBRANCH  10  11
ENDBRANCH   1  10
TORSDOF 12
ENDMDL
MODEL 9
REMARK VINA RESULT:    -4.147     22.532     23.777
REMARK INTER + INTRA:          -8.757
REMARK INTER:                  -7.050
REMARK INTRA:                  -1.707
REMARK UNBOUND:                -1.701
REMARK SMILES CCCCCCCCCCCCCC(=O)[O-]
REMARK SMILES IDX 8 1 9 2 10 3 11 4 12 5 13 6 14 7 15 8 16 9 7 10 6 11 5 12
REMARK SMILES IDX 4 13 3 14 2 15 1 16
REMARK H PARENT
REMARK Flexibility Score: inf
ROOT
ATOM      1  C   UNL     1      -8.266 -18.904  30.802  1.00  0.00     0.000 C 
ENDROOT
BRANCH   1   2
ATOM      2  C   UNL     1      -9.383 -18.700  29.765  1.00  0.00     0.000 C 
BRANCH   2   3
ATOM      3  C   UNL     1     -10.788 -18.806  30.377  1.00  0.00     0.000 C 
BRANCH   3   4
ATOM      4  C   UNL     1     -11.082 -20.241  30.829  1.00  0.00     0.000 C 
BRANCH   4   5
ATOM      5  C   UNL     1     -12.311 -20.288  31.749  1.00  0.00     0.006 C 
BRANCH   5   6
ATOM      6  C   UNL     1     -12.092 -19.506  33.052  1.00  0.00     0.053 C 
BRANCH   6   7
ATOM      7  C   UNL     1     -12.265 -20.376  34.259  1.00  0.00     0.041 C 
ATOM      8  O   UNL     1     -11.295 -21.046  34.701  1.00  0.00    -0.550 OA
ATOM      9  O   UNL     1     -13.488 -20.419  34.918  1.00  0.00    -0.550 OA
ENDBRANCH   6   7
ENDBRANCH   5   6
ENDBRANCH   4   5
ENDBRANCH   3   4
ENDBRANCH   2   3
ENDBRANCH   1   2
BRANCH   1  10
ATOM     10  C   UNL     1      -8.435 -17.999  32.036  1.00  0.00     0.000 C 
BRANCH  10  11
ATOM     11  C   UNL     1      -8.469 -18.795  33.351  1.00  0.00    -0.000 C 
BRANCH  11  12
ATOM     12  C   UNL     1      -8.248 -20.301  33.140  1.00  0.00    -0.000 C 
BRANCH  12  13
ATOM     13  C   UNL     1      -7.228 -20.851  34.145  1.00  0.00    -0.000 C 
BRANCH  13  14
ATOM     14  C   UNL     1      -6.092 -19.845  34.383  1.00  0.00    -0.000 C 
BRANCH  14  15
ATOM     15  C   UNL     1      -5.120 -19.759  33.197  1.00  0.00    -0.003 C 
ATOM     16  C   UNL     1      -4.709 -18.323  32.871  1.00  0.00     0.004 C 
ENDBRANCH  14  15
ENDBRANCH  13  14
ENDBRANCH  12  13
ENDBRANCH  11  12
ENDBRANCH  10  11
ENDBRANCH   1  10
TORSDOF 12
ENDMDL
