MODEL 1
REMARK VINA RESULT:    -2.779      0.000      0.000
REMARK INTER + INTRA:         -10.347
REMARK INTER:                  -6.029
REMARK INTRA:                  -4.318
REMARK UNBOUND:                -4.318
REMARK SMILES CCCCCCCCCCCCCCCCCCCCCC(=O)[O-]
REMARK SMILES IDX 12 1 11 2 10 3 9 4 8 5 7 6 6 7 5 8 4 9 3 10 2 11 1 12 13 13
REMARK SMILES IDX 14 14 15 15 16 16 17 17 18 18 19 19 20 20 21 21 22 22 23 23
REMARK SMILES IDX 24 24
REMARK H PARENT
REMARK Flexibility Score: inf
ROOT
ATOM      1  C   UNL     1      13.719   0.042 199.389  1.00  0.00     0.000 C 
ENDROOT
BRANCH   1   2
ATOM      2  C   UNL     1      14.455   0.884 200.449  1.00  0.00     0.000 C 
BRANCH   2   3
ATOM      3  C   UNL     1      13.556   1.807 201.293  1.00  0.00     0.000 C 
BRANCH   3   4
ATOM      4  C   UNL     1      14.004   1.901 202.760  1.00  0.00    -0.000 C 
BRANCH   4   5
ATOM      5  C   UNL     1      15.513   1.664 202.945  1.00  0.00    -0.000 C 
BRANCH   5   6
ATOM      6  C   UNL     1      15.878   0.427 203.788  1.00  0.00    -0.000 C 
BRANCH   6   7
ATOM      7  C   UNL     1      17.351  -0.016 203.699  1.00  0.00    -0.000 C 
BRANCH   7   8
ATOM      8  C   UNL     1      17.615  -1.094 202.625  1.00  0.00    -0.000 C 
BRANCH   8   9
ATOM      9  C   UNL     1      18.144  -0.501 201.311  1.00  0.00    -0.000 C 
BRANCH   9  10
ATOM     10  C   UNL     1      17.872  -1.443 200.130  1.00  0.00    -0.000 C 
BRANCH  10  11
ATOM     11  C   UNL     1      17.407  -0.692 198.873  1.00  0.00    -0.003 C 
ATOM     12  C   UNL     1      16.838  -1.624 197.802  1.00  0.00     0.004 C 
ENDBRANCH  10  11
ENDBRANCH   9  10
ENDBRANCH   8   9
ENDBRANCH   7   8
ENDBRANCH   6   7
ENDBRANCH   5   6
ENDBRANCH   4   5
ENDBRANCH   3   4
ENDBRANCH   2   3
ENDBRANCH   1   2
BRANCH   1  13
ATOM     13  C   UNL     1      13.650  -1.453 199.748  1.00  0.00     0.000 C 
BRANCH  13  14
ATOM     14  C   UNL     1      14.374  -1.787 201.066  1.00  0.00     0.000 C 
BRANCH  14  15
ATOM     15  C   UNL     1      13.651  -2.798 201.974  1.00  0.00     0.000 C 
BRANCH  15  16
ATOM     16  C   UNL     1      13.828  -2.494 203.472  1.00  0.00     0.000 C 
BRANCH  16  17
ATOM     17  C   UNL     1      12.734  -1.558 204.012  1.00  0.00     0.000 C 
BRANCH  17  18
ATOM     18  C   UNL     1      11.413  -1.694 203.234  1.00  0.00     0.000 C 
BRANCH  18  19
ATOM     19  C   UNL     1      10.824  -0.337 202.811  1.00  0.00     0.000 C 
BRANCH  19  20
ATOM     20  C   UNL     1      10.588  -0.170 201.295  1.00  0.00     0.006 C 
BRANCH  20  21
ATOM     21  C   UNL     1       9.881  -1.358 200.625  1.00  0.00     0.053 C 
BRANCH  21  22
ATOM     22  C   UNL     1       8.568  -0.964 200.023  1.00  0.00     0.041 C 
ATOM     23  O   UNL     1       8.001  -1.720 199.190  1.00  0.00    -0.550 OA
ATOM     24  O   UNL     1       7.956   0.224 200.401  1.00  0.00    -0.550 OA
ENDBRANCH  21  22
ENDBRANCH  20  21
ENDBRANCH  19  20
ENDBRANCH  18  19
ENDBRANCH  17  18
ENDBRANCH  16  17
ENDBRANCH  15  16
ENDBRANCH  14  15
ENDBRANCH  13  14
ENDBRANCH   1  13
TORSDOF 20
ENDMDL
MODEL 2
REMARK VINA RESULT:    -2.765     14.959     19.069
REMARK INTER + INTRA:         -10.315
REMARK INTER:                  -6.856
REMARK INTRA:                  -3.459
REMARK UNBOUND:                -4.318
REMARK SMILES CCCCCCCCCCCCCCCCCCCCCC(=O)[O-]
REMARK SMILES IDX 12 1 11 2 10 3 9 4 8 5 7 6 6 7 5 8 4 9 3 10 2 11 1 12 13 13
REMARK SMILES IDX 14 14 15 15 16 16 17 17 18 18 19 19 20 20 21 21 22 22 23 23
REMARK SMILES IDX 24 24
REMARK H PARENT
REMARK Flexibility Score: inf
ROOT
ATOM      1  C   UNL     1      18.260 -12.754 186.660  1.00  0.00     0.000 C 
ENDROOT
BRANCH   1   2
ATOM      2  C   UNL     1      18.469 -14.254 186.949  1.00  0.00     0.000 C 
BRANCH   2   3
ATOM      3  C   UNL     1      17.186 -15.044 187.272  1.00  0.00     0.000 C 
BRANCH   3   4
ATOM      4  C   UNL     1      16.453 -15.535 186.013  1.00  0.00    -0.000 C 
BRANCH   4   5
ATOM      5  C   UNL     1      14.921 -15.459 186.141  1.00  0.00    -0.000 C 
BRANCH   5   6
ATOM      6  C   UNL     1      14.239 -14.450 185.198  1.00  0.00    -0.000 C 
BRANCH   6   7
ATOM      7  C   UNL     1      15.198 -13.539 184.408  1.00  0.00    -0.000 C 
BRANCH   7   8
ATOM      8  C   UNL     1      15.153 -12.058 184.843  1.00  0.00    -0.000 C 
BRANCH   8   9
ATOM      9  C   UNL     1      14.006 -11.765 185.821  1.00  0.00    -0.000 C 
BRANCH   9  10
ATOM     10  C   UNL     1      14.467 -10.829 186.948  1.00  0.00    -0.000 C 
BRANCH  10  11
ATOM     11  C   UNL     1      15.214 -11.575 188.064  1.00  0.00    -0.003 C 
ATOM     12  C   UNL     1      14.437 -12.779 188.597  1.00  0.00     0.004 C 
ENDBRANCH  10  11
ENDBRANCH   9  10
ENDBRANCH   8   9
ENDBRANCH   7   8
ENDBRANCH   6   7
ENDBRANCH   5   6
ENDBRANCH   4   5
ENDBRANCH   3   4
ENDBRANCH   2   3
ENDBRANCH   1   2
BRANCH   1  13
ATOM     13  C   UNL     1      19.266 -11.853 187.397  1.00  0.00     0.000 C 
BRANCH  13  14
ATOM     14  C   UNL     1      19.157 -10.373 186.989  1.00  0.00     0.000 C 
BRANCH  14  15
ATOM     15  C   UNL     1      17.942 -10.021 186.111  1.00  0.00     0.000 C 
BRANCH  15  16
ATOM     16  C   UNL     1      18.052  -8.630 185.464  1.00  0.00     0.000 C 
BRANCH  16  17
ATOM     17  C   UNL     1      16.779  -7.790 185.662  1.00  0.00     0.000 C 
BRANCH  17  18
ATOM     18  C   UNL     1      16.922  -6.775 186.809  1.00  0.00     0.000 C 
BRANCH  18  19
ATOM     19  C   UNL     1      18.365  -6.270 186.987  1.00  0.00     0.000 C 
BRANCH  19  20
ATOM     20  C   UNL     1      18.953  -6.453 188.402  1.00  0.00     0.006 C 
BRANCH  20  21
ATOM     21  C   UNL     1      18.058  -7.247 189.366  1.00  0.00     0.053 C 
BRANCH  21  22
ATOM     22  C   UNL     1      18.810  -7.719 190.572  1.00  0.00     0.041 C 
ATOM     23  O   UNL     1      18.513  -7.280 191.715  1.00  0.00    -0.550 OA
ATOM     24  O   UNL     1      19.820  -8.663 190.438  1.00  0.00    -0.550 OA
ENDBRANCH  21  22
ENDBRANCH  20  21
ENDBRANCH  19  20
ENDBRANCH  18  19
ENDBRANCH  17  18
ENDBRANCH  16  17
ENDBRANCH  15  16
ENDBRANCH  14  15
ENDBRANCH  13  14
ENDBRANCH   1  13
TORSDOF 20
ENDMDL
MODEL 3
REMARK VINA RESULT:    -2.741     13.965     18.225
REMARK INTER + INTRA:         -10.265
REMARK INTER:                  -6.862
REMARK INTRA:                  -3.403
REMARK UNBOUND:                -4.318
REMARK SMILES CCCCCCCCCCCCCCCCCCCCCC(=O)[O-]
REMARK SMILES IDX 12 1 11 2 10 3 9 4 8 5 7 6 6 7 5 8 4 9 3 10 2 11 1 12 13 13
REMARK SMILES IDX 14 14 15 15 16 16 17 17 18 18 19 19 20 20 21 21 22 22 23 23
REMARK SMILES IDX 24 24
REMARK H PARENT
REMARK Flexibility Score: inf
ROOT
ATOM      1  C   UNL     1      19.067 -10.457 188.161  1.00  0.00     0.000 C 
ENDROOT
BRANCH   1   2
ATOM      2  C   UNL     1      19.380 -11.843 187.564  1.00  0.00     0.000 C 
BRANCH   2   3
ATOM      3  C   UNL     1      18.336 -12.378 186.565  1.00  0.00     0.000 C 
BRANCH   3   4
ATOM      4  C   UNL     1      17.935 -13.836 186.842  1.00  0.00    -0.000 C 
BRANCH   4   5
ATOM      5  C   UNL     1      16.411 -14.040 186.899  1.00  0.00    -0.000 C 
BRANCH   5   6
ATOM      6  C   UNL     1      15.768 -14.506 185.579  1.00  0.00    -0.000 C 
BRANCH   6   7
ATOM      7  C   UNL     1      14.866 -13.467 184.886  1.00  0.00    -0.000 C 
BRANCH   7   8
ATOM      8  C   UNL     1      15.641 -12.306 184.227  1.00  0.00    -0.000 C 
BRANCH   8   9
ATOM      9  C   UNL     1      15.023 -10.934 184.534  1.00  0.00    -0.000 C 
BRANCH   9  10
ATOM     10  C   UNL     1      14.433 -10.899 185.951  1.00  0.00    -0.000 C 
BRANCH  10  11
ATOM     11  C   UNL     1      15.400 -10.286 186.977  1.00  0.00    -0.003 C 
ATOM     12  C   UNL     1      15.255 -10.901 188.369  1.00  0.00     0.004 C 
ENDBRANCH  10  11
ENDBRANCH   9  10
ENDBRANCH   8   9
ENDBRANCH   7   8
ENDBRANCH   6   7
ENDBRANCH   5   6
ENDBRANCH   4   5
ENDBRANCH   3   4
ENDBRANCH   2   3
ENDBRANCH   1   2
BRANCH   1  13
ATOM     13  C   UNL     1      20.114  -9.392 187.792  1.00  0.00     0.000 C 
BRANCH  13  14
ATOM     14  C   UNL     1      19.866  -8.760 186.410  1.00  0.00     0.000 C 
BRANCH  14  15
ATOM     15  C   UNL     1      18.389  -8.668 185.985  1.00  0.00     0.000 C 
BRANCH  15  16
ATOM     16  C   UNL     1      17.730  -7.338 186.390  1.00  0.00     0.000 C 
BRANCH  16  17
ATOM     17  C   UNL     1      18.665  -6.135 186.183  1.00  0.00     0.000 C 
BRANCH  17  18
ATOM     18  C   UNL     1      18.920  -5.362 187.489  1.00  0.00     0.000 C 
BRANCH  18  19
ATOM     19  C   UNL     1      18.231  -6.001 188.708  1.00  0.00     0.000 C 
BRANCH  19  20
ATOM     20  C   UNL     1      19.181  -6.430 189.846  1.00  0.00     0.006 C 
BRANCH  20  21
ATOM     21  C   UNL     1      18.663  -7.596 190.703  1.00  0.00     0.053 C 
BRANCH  21  22
ATOM     22  C   UNL     1      18.425  -7.187 192.123  1.00  0.00     0.041 C 
ATOM     23  O   UNL     1      18.851  -7.904 193.068  1.00  0.00    -0.550 OA
ATOM     24  O   UNL     1      17.758  -6.002 192.405  1.00  0.00    -0.550 OA
ENDBRANCH  21  22
ENDBRANCH  20  21
ENDBRANCH  19  20
ENDBRANCH  18  19
ENDBRANCH  17  18
ENDBRANCH  16  17
ENDBRANCH  15  16
ENDBRANCH  14  15
ENDBRANCH  13  14
ENDBRANCH   1  13
TORSDOF 20
ENDMDL
MODEL 4
REMARK VINA RESULT:    -2.741      1.623      3.013
REMARK INTER + INTRA:         -10.264
REMARK INTER:                  -6.180
REMARK INTRA:                  -4.084
REMARK UNBOUND:                -4.318
REMARK SMILES CCCCCCCCCCCCCCCCCCCCCC(=O)[O-]
REMARK SMILES IDX 12 1 11 2 10 3 9 4 8 5 7 6 6 7 5 8 4 9 3 10 2 11 1 12 13 13
REMARK SMILES IDX 14 14 15 15 16 16 17 17 18 18 19 19 20 20 21 21 22 22 23 23
REMARK SMILES IDX 24 24
REMARK H PARENT
REMARK Flexibility Score: inf
ROOT
ATOM      1  C   UNL     1      15.155  -2.784 200.503  1.00  0.00     0.000 C 
ENDROOT
BRANCH   1   2
ATOM      2  C   UNL     1      14.620  -1.349 200.331  1.00  0.00     0.000 C 
BRANCH   2   3
ATOM      3  C   UNL     1      15.544  -0.393 199.552  1.00  0.00     0.000 C 
BRANCH   3   4
ATOM      4  C   UNL     1      15.352   1.080 199.948  1.00  0.00    -0.000 C 
BRANCH   4   5
ATOM      5  C   UNL     1      14.043   1.330 200.717  1.00  0.00    -0.000 C 
BRANCH   5   6
ATOM      6  C   UNL     1      14.179   2.239 201.954  1.00  0.00    -0.000 C 
BRANCH   6   7
ATOM      7  C   UNL     1      15.510   2.110 202.719  1.00  0.00    -0.000 C 
BRANCH   7   8
ATOM      8  C   UNL     1      15.548   0.926 203.710  1.00  0.00    -0.000 C 
BRANCH   8   9
ATOM      9  C   UNL     1      16.908   0.213 203.726  1.00  0.00    -0.000 C 
BRANCH   9  10
ATOM     10  C   UNL     1      17.827   0.752 202.621  1.00  0.00    -0.000 C 
BRANCH  10  11
ATOM     11  C   UNL     1      18.499  -0.370 201.814  1.00  0.00    -0.003 C 
ATOM     12  C   UNL     1      18.236  -1.759 202.397  1.00  0.00     0.004 C 
ENDBRANCH  10  11
ENDBRANCH   9  10
ENDBRANCH   8   9
ENDBRANCH   7   8
ENDBRANCH   6   7
ENDBRANCH   5   6
ENDBRANCH   4   5
ENDBRANCH   3   4
ENDBRANCH   2   3
ENDBRANCH   1   2
BRANCH   1  13
ATOM     13  C   UNL     1      14.849  -3.378 201.888  1.00  0.00     0.000 C 
BRANCH  13  14
ATOM     14  C   UNL     1      14.532  -2.304 202.945  1.00  0.00     0.000 C 
BRANCH  14  15
ATOM     15  C   UNL     1      13.393  -2.657 203.919  1.00  0.00     0.000 C 
BRANCH  15  16
ATOM     16  C   UNL     1      12.343  -1.541 204.045  1.00  0.00     0.000 C 
BRANCH  16  17
ATOM     17  C   UNL     1      11.918  -0.980 202.677  1.00  0.00     0.000 C 
BRANCH  17  18
ATOM     18  C   UNL     1      11.019  -1.956 201.899  1.00  0.00     0.000 C 
BRANCH  18  19
ATOM     19  C   UNL     1      10.045  -1.243 200.945  1.00  0.00     0.000 C 
BRANCH  19  20
ATOM     20  C   UNL     1      10.616   0.002 200.236  1.00  0.00     0.006 C 
BRANCH  20  21
ATOM     21  C   UNL     1       9.761   1.271 200.388  1.00  0.00     0.053 C 
BRANCH  21  22
ATOM     22  C   UNL     1       9.746   1.772 201.798  1.00  0.00     0.041 C 
ATOM     23  O   UNL     1      10.628   2.581 202.192  1.00  0.00    -0.550 OA
ATOM     24  O   UNL     1       8.743   1.370 202.671  1.00  0.00    -0.550 OA
ENDBRANCH  21  22
ENDBRANCH  20  21
ENDBRANCH  19  20
ENDBRANCH  18  19
ENDBRANCH  17  18
ENDBRANCH  16  17
ENDBRANCH  15  16
ENDBRANCH  14  15
ENDBRANCH  13  14
ENDBRANCH   1  13
TORSDOF 20
ENDMDL
MODEL 5
REMARK VINA RESULT:    -2.678      3.534      6.220
REMARK INTER + INTRA:         -10.126
REMARK INTER:                  -6.206
REMARK INTRA:                  -3.920
REMARK UNBOUND:                -4.318
REMARK SMILES CCCCCCCCCCCCCCCCCCCCCC(=O)[O-]
REMARK SMILES IDX 12 1 11 2 10 3 9 4 8 5 7 6 6 7 5 8 4 9 3 10 2 11 1 12 13 13
REMARK SMILES IDX 14 14 15 15 16 16 17 17 18 18 19 19 20 20 21 21 22 22 23 23
REMARK SMILES IDX 24 24
REMARK H PARENT
REMARK Flexibility Score: inf
ROOT
ATOM      1  C   UNL     1      13.201   0.623 200.969  1.00  0.00     0.000 C 
ENDROOT
BRANCH   1   2
ATOM      2  C   UNL     1      12.212   0.437 202.137  1.00  0.00     0.000 C 
BRANCH   2   3
ATOM      3  C   UNL     1      11.201  -0.712 201.963  1.00  0.00     0.000 C 
BRANCH   3   4
ATOM      4  C   UNL     1      11.233  -1.718 203.125  1.00  0.00    -0.000 C 
BRANCH   4   5
ATOM      5  C   UNL     1      12.406  -1.482 204.093  1.00  0.00    -0.000 C 
BRANCH   5   6
ATOM      6  C   UNL     1      13.466  -2.599 204.114  1.00  0.00    -0.000 C 
BRANCH   6   7
ATOM      7  C   UNL     1      14.543  -2.502 203.017  1.00  0.00    -0.000 C 
BRANCH   7   8
ATOM      8  C   UNL     1      14.186  -3.263 201.721  1.00  0.00    -0.000 C 
BRANCH   8   9
ATOM      9  C   UNL     1      14.764  -2.594 200.465  1.00  0.00    -0.000 C 
BRANCH   9  10
ATOM     10  C   UNL     1      13.998  -3.026 199.207  1.00  0.00    -0.000 C 
BRANCH  10  11
ATOM     11  C   UNL     1      12.477  -3.058 199.426  1.00  0.00    -0.003 C 
ATOM     12  C   UNL     1      11.725  -2.100 198.501  1.00  0.00     0.004 C 
ENDBRANCH  10  11
ENDBRANCH   9  10
ENDBRANCH   8   9
ENDBRANCH   7   8
ENDBRANCH   6   7
ENDBRANCH   5   6
ENDBRANCH   4   5
ENDBRANCH   3   4
ENDBRANCH   2   3
ENDBRANCH   1   2
BRANCH   1  13
ATOM     13  C   UNL     1      14.636   0.922 201.437  1.00  0.00     0.000 C 
BRANCH  13  14
ATOM     14  C   UNL     1      14.715   1.295 202.929  1.00  0.00     0.000 C 
BRANCH  14  15
ATOM     15  C   UNL     1      15.846   0.610 203.718  1.00  0.00     0.000 C 
BRANCH  15  16
ATOM     16  C   UNL     1      17.024   0.180 202.828  1.00  0.00     0.000 C 
BRANCH  16  17
ATOM     17  C   UNL     1      18.324  -0.008 203.628  1.00  0.00     0.000 C 
BRANCH  17  18
ATOM     18  C   UNL     1      19.106  -1.258 203.186  1.00  0.00     0.000 C 
BRANCH  18  19
ATOM     19  C   UNL     1      18.196  -2.466 202.904  1.00  0.00     0.000 C 
BRANCH  19  20
ATOM     20  C   UNL     1      18.888  -3.660 202.215  1.00  0.00     0.006 C 
BRANCH  20  21
ATOM     21  C   UNL     1      18.050  -4.337 201.119  1.00  0.00     0.053 C 
BRANCH  21  22
ATOM     22  C   UNL     1      17.525  -5.670 201.555  1.00  0.00     0.041 C 
ATOM     23  O   UNL     1      16.321  -5.977 201.345  1.00  0.00    -0.550 OA
ATOM     24  O   UNL     1      18.371  -6.585 202.170  1.00  0.00    -0.550 OA
ENDBRANCH  21  22
ENDBRANCH  20  21
ENDBRANCH  19  20
ENDBRANCH  18  19
ENDBRANCH  17  18
ENDBRANCH  16  17
ENDBRANCH  15  16
ENDBRANCH  14  15
ENDBRANCH  13  14
ENDBRANCH   1  13
TORSDOF 20
ENDMDL
MODEL 6
REMARK VINA RESULT:    -2.673      2.640      4.028
REMARK INTER + INTRA:         -10.115
REMARK INTER:                  -6.175
REMARK INTRA:                  -3.940
REMARK UNBOUND:                -4.318
REMARK SMILES CCCCCCCCCCCCCCCCCCCCCC(=O)[O-]
REMARK SMILES IDX 12 1 11 2 10 3 9 4 8 5 7 6 6 7 5 8 4 9 3 10 2 11 1 12 13 13
REMARK SMILES IDX 14 14 15 15 16 16 17 17 18 18 19 19 20 20 21 21 22 22 23 23
REMARK SMILES IDX 24 24
REMARK H PARENT
REMARK Flexibility Score: inf
ROOT
ATOM      1  C   UNL     1      12.379   0.143 200.214  1.00  0.00     0.000 C 
ENDROOT
BRANCH   1   2
ATOM      2  C   UNL     1      13.413   1.099 200.842  1.00  0.00     0.000 C 
BRANCH   2   3
ATOM      3  C   UNL     1      12.925   1.865 202.087  1.00  0.00     0.000 C 
BRANCH   3   4
ATOM      4  C   UNL     1      14.079   2.361 202.974  1.00  0.00    -0.000 C 
BRANCH   4   5
ATOM      5  C   UNL     1      15.461   1.906 202.473  1.00  0.00    -0.000 C 
BRANCH   5   6
ATOM      6  C   UNL     1      16.333   1.197 203.527  1.00  0.00    -0.000 C 
BRANCH   6   7
ATOM      7  C   UNL     1      17.616   0.540 202.984  1.00  0.00    -0.000 C 
BRANCH   7   8
ATOM      8  C   UNL     1      17.577   0.255 201.466  1.00  0.00    -0.000 C 
BRANCH   8   9
ATOM      9  C   UNL     1      18.420  -0.968 201.074  1.00  0.00    -0.000 C 
BRANCH   9  10
ATOM     10  C   UNL     1      19.039  -1.631 202.312  1.00  0.00    -0.000 C 
BRANCH  10  11
ATOM     11  C   UNL     1      18.435  -3.015 202.603  1.00  0.00    -0.003 C 
ATOM     12  C   UNL     1      19.423  -3.961 203.286  1.00  0.00     0.004 C 
ENDBRANCH  10  11
ENDBRANCH   9  10
ENDBRANCH   8   9
ENDBRANCH   7   8
ENDBRANCH   6   7
ENDBRANCH   5   6
ENDBRANCH   4   5
ENDBRANCH   3   4
ENDBRANCH   2   3
ENDBRANCH   1   2
BRANCH   1  13
ATOM     13  C   UNL     1      10.969   0.308 200.806  1.00  0.00     0.000 C 
BRANCH  13  14
ATOM     14  C   UNL     1      10.274  -1.037 201.087  1.00  0.00     0.000 C 
BRANCH  14  15
ATOM     15  C   UNL     1      11.057  -2.004 201.995  1.00  0.00     0.000 C 
BRANCH  15  16
ATOM     16  C   UNL     1      11.279  -1.448 203.412  1.00  0.00     0.000 C 
BRANCH  16  17
ATOM     17  C   UNL     1      12.516  -2.058 204.092  1.00  0.00     0.000 C 
BRANCH  17  18
ATOM     18  C   UNL     1      13.810  -1.308 203.730  1.00  0.00     0.000 C 
BRANCH  18  19
ATOM     19  C   UNL     1      14.865  -2.216 203.071  1.00  0.00     0.000 C 
BRANCH  19  20
ATOM     20  C   UNL     1      14.864  -2.208 201.529  1.00  0.00     0.006 C 
BRANCH  20  21
ATOM     21  C   UNL     1      14.131  -3.396 200.885  1.00  0.00     0.053 C 
BRANCH  21  22
ATOM     22  C   UNL     1      14.994  -4.121 199.899  1.00  0.00     0.041 C 
ATOM     23  O   UNL     1      16.237  -4.201 200.084  1.00  0.00    -0.550 OA
ATOM     24  O   UNL     1      14.423  -4.732 198.790  1.00  0.00    -0.550 OA
ENDBRANCH  21  22
ENDBRANCH  20  21
ENDBRANCH  19  20
ENDBRANCH  18  19
ENDBRANCH  17  18
ENDBRANCH  16  17
ENDBRANCH  15  16
ENDBRANCH  14  15
ENDBRANCH  13  14
ENDBRANCH   1  13
TORSDOF 20
ENDMDL
MODEL 7
REMARK VINA RESULT:    -2.660      1.815      3.215
REMARK INTER + INTRA:         -10.087
REMARK INTER:                  -6.831
REMARK INTRA:                  -3.256
REMARK UNBOUND:                -4.318
REMARK SMILES CCCCCCCCCCCCCCCCCCCCCC(=O)[O-]
REMARK SMILES IDX 12 1 11 2 10 3 9 4 8 5 7 6 6 7 5 8 4 9 3 10 2 11 1 12 13 13
REMARK SMILES IDX 14 14 15 15 16 16 17 17 18 18 19 19 20 20 21 21 22 22 23 23
REMARK SMILES IDX 24 24
REMARK H PARENT
REMARK Flexibility Score: inf
ROOT
ATOM      1  C   UNL     1      15.039   1.107 203.026  1.00  0.00     0.000 C 
ENDROOT
BRANCH   1   2
ATOM      2  C   UNL     1      16.260   0.508 203.751  1.00  0.00     0.000 C 
BRANCH   2   3
ATOM      3  C   UNL     1      17.628   0.869 203.141  1.00  0.00     0.000 C 
BRANCH   3   4
ATOM      4  C   UNL     1      18.752  -0.079 203.587  1.00  0.00    -0.000 C 
BRANCH   4   5
ATOM      5  C   UNL     1      19.589  -0.615 202.413  1.00  0.00    -0.000 C 
BRANCH   5   6
ATOM      6  C   UNL     1      19.190  -2.018 201.917  1.00  0.00    -0.000 C 
BRANCH   6   7
ATOM      7  C   UNL     1      17.994  -2.656 202.649  1.00  0.00    -0.000 C 
BRANCH   7   8
ATOM      8  C   UNL     1      16.791  -2.963 201.731  1.00  0.00    -0.000 C 
BRANCH   8   9
ATOM      9  C   UNL     1      16.891  -2.257 200.371  1.00  0.00    -0.000 C 
BRANCH   9  10
ATOM     10  C   UNL     1      15.817  -1.169 200.234  1.00  0.00    -0.000 C 
BRANCH  10  11
ATOM     11  C   UNL     1      16.390   0.164 199.725  1.00  0.00    -0.003 C 
ATOM     12  C   UNL     1      17.807   0.025 199.168  1.00  0.00     0.004 C 
ENDBRANCH  10  11
ENDBRANCH   9  10
ENDBRANCH   8   9
ENDBRANCH   7   8
ENDBRANCH   6   7
ENDBRANCH   5   6
ENDBRANCH   4   5
ENDBRANCH   3   4
ENDBRANCH   2   3
ENDBRANCH   1   2
BRANCH   1  13
ATOM     13  C   UNL     1      13.839   0.147 202.975  1.00  0.00     0.000 C 
BRANCH  13  14
ATOM     14  C   UNL     1      14.087  -1.166 203.739  1.00  0.00     0.000 C 
BRANCH  14  15
ATOM     15  C   UNL     1      12.821  -1.957 204.116  1.00  0.00     0.000 C 
BRANCH  15  16
ATOM     16  C   UNL     1      11.554  -1.427 203.423  1.00  0.00     0.000 C 
BRANCH  16  17
ATOM     17  C   UNL     1      11.141  -2.290 202.219  1.00  0.00     0.000 C 
BRANCH  17  18
ATOM     18  C   UNL     1      11.484  -1.621 200.877  1.00  0.00     0.000 C 
BRANCH  18  19
ATOM     19  C   UNL     1      10.318  -1.658 199.873  1.00  0.00     0.000 C 
BRANCH  19  20
ATOM     20  C   UNL     1       8.994  -1.055 200.385  1.00  0.00     0.006 C 
BRANCH  20  21
ATOM     21  C   UNL     1       8.881   0.469 200.219  1.00  0.00     0.053 C 
BRANCH  21  22
ATOM     22  C   UNL     1       8.433   1.140 201.479  1.00  0.00     0.041 C 
ATOM     23  O   UNL     1       7.342   1.769 201.509  1.00  0.00    -0.550 OA
ATOM     24  O   UNL     1       9.206   1.049 202.630  1.00  0.00    -0.550 OA
ENDBRANCH  21  22
ENDBRANCH  20  21
ENDBRANCH  19  20
ENDBRANCH  18  19
ENDBRANCH  17  18
ENDBRANCH  16  17
ENDBRANCH  15  16
ENDBRANCH  14  15
ENDBRANCH  13  14
ENDBRANCH   1  13
TORSDOF 20
ENDMDL
MODEL 8
REMARK VINA RESULT:    -2.657      2.392      6.389
REMARK INTER + INTRA:         -10.081
REMARK INTER:                  -6.240
REMARK INTRA:                  -3.840
REMARK UNBOUND:                -4.318
REMARK SMILES CCCCCCCCCCCCCCCCCCCCCC(=O)[O-]
REMARK SMILES IDX 12 1 11 2 10 3 9 4 8 5 7 6 6 7 5 8 4 9 3 10 2 11 1 12 13 13
REMARK SMILES IDX 14 14 15 15 16 16 17 17 18 18 19 19 20 20 21 21 22 22 23 23
REMARK SMILES IDX 24 24
REMARK H PARENT
REMARK Flexibility Score: inf
ROOT
ATOM      1  C   UNL     1      13.895   0.159 202.993  1.00  0.00     0.000 C 
ENDROOT
BRANCH   1   2
ATOM      2  C   UNL     1      14.266  -1.091 203.816  1.00  0.00     0.000 C 
BRANCH   2   3
ATOM      3  C   UNL     1      13.300  -2.282 203.670  1.00  0.00     0.000 C 
BRANCH   3   4
ATOM      4  C   UNL     1      11.822  -1.867 203.747  1.00  0.00    -0.000 C 
BRANCH   4   5
ATOM      5  C   UNL     1      11.024  -2.248 202.488  1.00  0.00    -0.000 C 
BRANCH   5   6
ATOM      6  C   UNL     1      11.860  -2.361 201.199  1.00  0.00    -0.000 C 
BRANCH   6   7
ATOM      7  C   UNL     1      11.740  -1.168 200.232  1.00  0.00    -0.000 C 
BRANCH   7   8
ATOM      8  C   UNL     1      10.494  -1.225 199.321  1.00  0.00    -0.000 C 
BRANCH   8   9
ATOM      9  C   UNL     1       9.609   0.023 199.454  1.00  0.00    -0.000 C 
BRANCH   9  10
ATOM     10  C   UNL     1       8.631  -0.116 200.628  1.00  0.00    -0.000 C 
BRANCH  10  11
ATOM     11  C   UNL     1       8.614   1.128 201.531  1.00  0.00    -0.003 C 
ATOM     12  C   UNL     1       9.786   1.165 202.512  1.00  0.00     0.004 C 
ENDBRANCH  10  11
ENDBRANCH   9  10
ENDBRANCH   8   9
ENDBRANCH   7   8
ENDBRANCH   6   7
ENDBRANCH   5   6
ENDBRANCH   4   5
ENDBRANCH   3   4
ENDBRANCH   2   3
ENDBRANCH   1   2
BRANCH   1  13
ATOM     13  C   UNL     1      15.021   1.206 202.948  1.00  0.00     0.000 C 
BRANCH  13  14
ATOM     14  C   UNL     1      16.275   0.773 203.730  1.00  0.00     0.000 C 
BRANCH  14  15
ATOM     15  C   UNL     1      17.595   0.837 202.941  1.00  0.00     0.000 C 
BRANCH  15  16
ATOM     16  C   UNL     1      18.549  -0.324 203.270  1.00  0.00     0.000 C 
BRANCH  16  17
ATOM     17  C   UNL     1      17.923  -1.697 202.975  1.00  0.00     0.000 C 
BRANCH  17  18
ATOM     18  C   UNL     1      17.632  -1.896 201.477  1.00  0.00     0.000 C 
BRANCH  18  19
ATOM     19  C   UNL     1      16.226  -2.462 201.210  1.00  0.00     0.000 C 
BRANCH  19  20
ATOM     20  C   UNL     1      15.458  -1.787 200.055  1.00  0.00     0.006 C 
BRANCH  20  21
ATOM     21  C   UNL     1      15.821  -0.311 199.825  1.00  0.00     0.053 C 
BRANCH  21  22
ATOM     22  C   UNL     1      14.803   0.394 198.983  1.00  0.00     0.041 C 
ATOM     23  O   UNL     1      14.480   1.583 199.244  1.00  0.00    -0.550 OA
ATOM     24  O   UNL     1      14.231  -0.252 197.894  1.00  0.00    -0.550 OA
ENDBRANCH  21  22
ENDBRANCH  20  21
ENDBRANCH  19  20
ENDBRANCH  18  19
ENDBRANCH  17  18
ENDBRANCH  16  17
ENDBRANCH  15  16
ENDBRANCH  14  15
ENDBRANCH  13  14
ENDBRANCH   1  13
TORSDOF 20
ENDMDL
MODEL 9
REMARK VINA RESULT:    -2.639     16.477     18.656
REMARK INTER + INTRA:         -10.042
REMARK INTER:                  -6.292
REMARK INTRA:                  -3.750
REMARK UNBOUND:                -4.318
REMARK SMILES CCCCCCCCCCCCCCCCCCCCCC(=O)[O-]
REMARK SMILES IDX 12 1 11 2 10 3 9 4 8 5 7 6 6 7 5 8 4 9 3 10 2 11 1 12 13 13
REMARK SMILES IDX 14 14 15 15 16 16 17 17 18 18 19 19 20 20 21 21 22 22 23 23
REMARK SMILES IDX 24 24
REMARK H PARENT
REMARK Flexibility Score: inf
ROOT
ATOM      1  C   UNL     1      15.891 -14.008 186.674  1.00  0.00     0.000 C 
ENDROOT
BRANCH   1   2
ATOM      2  C   UNL     1      17.124 -14.916 186.850  1.00  0.00     0.000 C 
BRANCH   2   3
ATOM      3  C   UNL     1      18.482 -14.190 186.820  1.00  0.00     0.000 C 
BRANCH   3   4
ATOM      4  C   UNL     1      18.348 -12.663 186.939  1.00  0.00    -0.000 C 
BRANCH   4   5
ATOM      5  C   UNL     1      19.579 -11.999 187.581  1.00  0.00    -0.000 C 
BRANCH   5   6
ATOM      6  C   UNL     1      19.715 -10.488 187.313  1.00  0.00    -0.000 C 
BRANCH   6   7
ATOM      7  C   UNL     1      19.164  -9.573 188.423  1.00  0.00    -0.000 C 
BRANCH   7   8
ATOM      8  C   UNL     1      18.643  -8.213 187.910  1.00  0.00    -0.000 C 
BRANCH   8   9
ATOM      9  C   UNL     1      18.587  -8.143 186.377  1.00  0.00    -0.000 C 
BRANCH   9  10
ATOM     10  C   UNL     1      18.149  -6.750 185.903  1.00  0.00    -0.000 C 
BRANCH  10  11
ATOM     11  C   UNL     1      16.940  -6.803 184.956  1.00  0.00    -0.003 C 
ATOM     12  C   UNL     1      16.698  -5.480 184.228  1.00  0.00     0.004 C 
ENDBRANCH  10  11
ENDBRANCH   9  10
ENDBRANCH   8   9
ENDBRANCH   7   8
ENDBRANCH   6   7
ENDBRANCH   5   6
ENDBRANCH   4   5
ENDBRANCH   3   4
ENDBRANCH   2   3
ENDBRANCH   1   2
BRANCH   1  13
ATOM     13  C   UNL     1      15.275 -14.096 185.266  1.00  0.00     0.000 C 
BRANCH  13  14
ATOM     14  C   UNL     1      14.943 -12.716 184.670  1.00  0.00     0.000 C 
BRANCH  14  15
ATOM     15  C   UNL     1      16.145 -11.935 184.109  1.00  0.00     0.000 C 
BRANCH  15  16
ATOM     16  C   UNL     1      16.275 -10.522 184.705  1.00  0.00     0.000 C 
BRANCH  16  17
ATOM     17  C   UNL     1      14.909  -9.904 185.046  1.00  0.00     0.000 C 
BRANCH  17  18
ATOM     18  C   UNL     1      14.831  -9.431 186.508  1.00  0.00     0.000 C 
BRANCH  18  19
ATOM     19  C   UNL     1      15.652 -10.310 187.468  1.00  0.00     0.000 C 
BRANCH  19  20
ATOM     20  C   UNL     1      14.834 -11.023 188.564  1.00  0.00     0.006 C 
BRANCH  20  21
ATOM     21  C   UNL     1      13.478 -11.573 188.092  1.00  0.00     0.053 C 
BRANCH  21  22
ATOM     22  C   UNL     1      13.101 -12.831 188.811  1.00  0.00     0.041 C 
ATOM     23  O   UNL     1      12.208 -13.585 188.342  1.00  0.00    -0.550 OA
ATOM     24  O   UNL     1      13.755 -13.187 189.983  1.00  0.00    -0.550 OA
ENDBRANCH  21  22
ENDBRANCH  20  21
ENDBRANCH  19  20
ENDBRANCH  18  19
ENDBRANCH  17  18
ENDBRANCH  16  17
ENDBRANCH  15  16
ENDBRANCH  14  15
ENDBRANCH  13  14
ENDBRANCH   1  13
TORSDOF 20
ENDMDL
