MODEL 1
REMARK VINA RESULT:    -4.390      0.000      0.000
REMARK INTER + INTRA:         -12.898
REMARK INTER:                  -9.522
REMARK INTRA:                  -3.375
REMARK UNBOUND:                -3.375
REMARK SMILES CCCCCCCCCCCCCCCCCCCCCC(=O)[O-]
REMARK SMILES IDX 12 1 11 2 10 3 9 4 8 5 7 6 6 7 5 8 4 9 3 10 2 11 1 12 13 13
REMARK SMILES IDX 14 14 15 15 16 16 17 17 18 18 19 19 20 20 21 21 22 22 23 23
REMARK SMILES IDX 24 24
REMARK H PARENT
REMARK Flexibility Score: inf
ROOT
ATOM      1  C   UNL     1       6.770   5.662  18.856  1.00  0.00     0.000 C 
ENDROOT
BRANCH   1   2
ATOM      2  C   UNL     1       8.038   5.819  19.709  1.00  0.00     0.000 C 
BRANCH   2   3
ATOM      3  C   UNL     1       8.566   4.453  20.164  1.00  0.00     0.000 C 
BRANCH   3   4
ATOM      4  C   UNL     1       8.132   3.344  19.199  1.00  0.00    -0.000 C 
BRANCH   4   5
ATOM      5  C   UNL     1       7.511   2.165  19.962  1.00  0.00    -0.000 C 
BRANCH   5   6
ATOM      6  C   UNL     1       5.976   2.254  20.056  1.00  0.00    -0.000 C 
BRANCH   6   7
ATOM      7  C   UNL     1       5.434   2.776  21.399  1.00  0.00    -0.000 C 
BRANCH   7   8
ATOM      8  C   UNL     1       4.436   3.934  21.232  1.00  0.00    -0.000 C 
BRANCH   8   9
ATOM      9  C   UNL     1       4.929   5.238  21.882  1.00  0.00    -0.000 C 
BRANCH   9  10
ATOM     10  C   UNL     1       6.046   4.998  22.912  1.00  0.00    -0.000 C 
BRANCH  10  11
ATOM     11  C   UNL     1       6.074   6.069  24.014  1.00  0.00    -0.003 C 
ATOM     12  C   UNL     1       7.487   6.554  24.335  1.00  0.00     0.004 C 
ENDBRANCH  10  11
ENDBRANCH   9  10
ENDBRANCH   8   9
ENDBRANCH   7   8
ENDBRANCH   6   7
ENDBRANCH   5   6
ENDBRANCH   4   5
ENDBRANCH   3   4
ENDBRANCH   2   3
ENDBRANCH   1   2
BRANCH   1  13
ATOM     13  C   UNL     1       6.381   6.956  18.120  1.00  0.00     0.000 C 
BRANCH  13  14
ATOM     14  C   UNL     1       6.141   6.797  16.606  1.00  0.00     0.000 C 
BRANCH  14  15
ATOM     15  C   UNL     1       6.318   5.365  16.061  1.00  0.00     0.000 C 
BRANCH  15  16
ATOM     16  C   UNL     1       7.531   5.166  15.133  1.00  0.00     0.000 C 
BRANCH  16  17
ATOM     17  C   UNL     1       8.746   4.564  15.859  1.00  0.00     0.000 C 
BRANCH  17  18
ATOM     18  C   UNL     1       9.736   5.641  16.333  1.00  0.00     0.000 C 
BRANCH  18  19
ATOM     19  C   UNL     1       9.789   6.847  15.379  1.00  0.00     0.000 C 
BRANCH  19  20
ATOM     20  C   UNL     1      10.841   6.681  14.270  1.00  0.00     0.006 C 
BRANCH  20  21
ATOM     21  C   UNL     1      10.254   6.856  12.863  1.00  0.00     0.053 C 
BRANCH  21  22
ATOM     22  C   UNL     1      10.315   5.565  12.109  1.00  0.00     0.041 C 
ATOM     23  O   UNL     1      11.377   5.223  11.525  1.00  0.00    -0.550 OA
ATOM     24  O   UNL     1       9.186   4.760  12.012  1.00  0.00    -0.550 OA
ENDBRANCH  21  22
ENDBRANCH  20  21
ENDBRANCH  19  20
ENDBRANCH  18  19
ENDBRANCH  17  18
ENDBRANCH  16  17
ENDBRANCH  15  16
ENDBRANCH  14  15
ENDBRANCH  13  14
ENDBRANCH   1  13
TORSDOF 20
ENDMDL
MODEL 2
REMARK VINA RESULT:    -4.385      3.317      8.275
REMARK INTER + INTRA:         -12.888
REMARK INTER:                  -9.602
REMARK INTRA:                  -3.286
REMARK UNBOUND:                -3.375
REMARK SMILES CCCCCCCCCCCCCCCCCCCCCC(=O)[O-]
REMARK SMILES IDX 12 1 11 2 10 3 9 4 8 5 7 6 6 7 5 8 4 9 3 10 2 11 1 12 13 13
REMARK SMILES IDX 14 14 15 15 16 16 17 17 18 18 19 19 20 20 21 21 22 22 23 23
REMARK SMILES IDX 24 24
REMARK H PARENT
REMARK Flexibility Score: inf
ROOT
ATOM      1  C   UNL     1       6.309   6.025  18.193  1.00  0.00     0.000 C 
ENDROOT
BRANCH   1   2
ATOM      2  C   UNL     1       6.131   6.414  16.717  1.00  0.00     0.000 C 
BRANCH   2   3
ATOM      3  C   UNL     1       7.437   6.222  15.938  1.00  0.00     0.000 C 
BRANCH   3   4
ATOM      4  C   UNL     1       7.432   4.894  15.171  1.00  0.00    -0.000 C 
BRANCH   4   5
ATOM      5  C   UNL     1       8.731   4.114  15.420  1.00  0.00    -0.000 C 
BRANCH   5   6
ATOM      6  C   UNL     1       9.725   4.874  16.318  1.00  0.00    -0.000 C 
BRANCH   6   7
ATOM      7  C   UNL     1      11.117   5.104  15.701  1.00  0.00    -0.000 C 
BRANCH   7   8
ATOM      8  C   UNL     1      11.407   6.587  15.413  1.00  0.00    -0.000 C 
BRANCH   8   9
ATOM      9  C   UNL     1      10.501   7.163  14.311  1.00  0.00    -0.000 C 
BRANCH   9  10
ATOM     10  C   UNL     1      10.812   6.574  12.925  1.00  0.00    -0.000 C 
BRANCH  10  11
ATOM     11  C   UNL     1       9.575   5.951  12.258  1.00  0.00    -0.003 C 
ATOM     12  C   UNL     1       9.718   4.446  12.031  1.00  0.00     0.004 C 
ENDBRANCH  10  11
ENDBRANCH   9  10
ENDBRANCH   8   9
ENDBRANCH   7   8
ENDBRANCH   6   7
ENDBRANCH   5   6
ENDBRANCH   4   5
ENDBRANCH   3   4
ENDBRANCH   2   3
ENDBRANCH   1   2
BRANCH   1  13
ATOM     13  C   UNL     1       6.175   4.510  18.432  1.00  0.00     0.000 C 
BRANCH  13  14
ATOM     14  C   UNL     1       7.372   3.858  19.153  1.00  0.00     0.000 C 
BRANCH  14  15
ATOM     15  C   UNL     1       7.066   2.518  19.852  1.00  0.00     0.000 C 
BRANCH  15  16
ATOM     16  C   UNL     1       5.654   2.406  20.457  1.00  0.00     0.000 C 
BRANCH  16  17
ATOM     17  C   UNL     1       5.655   2.484  21.993  1.00  0.00     0.000 C 
BRANCH  17  18
ATOM     18  C   UNL     1       4.862   3.693  22.517  1.00  0.00     0.000 C 
BRANCH  18  19
ATOM     19  C   UNL     1       4.268   4.541  21.378  1.00  0.00     0.000 C 
BRANCH  19  20
ATOM     20  C   UNL     1       4.691   6.017  21.457  1.00  0.00     0.006 C 
BRANCH  20  21
ATOM     21  C   UNL     1       6.163   6.193  21.852  1.00  0.00     0.053 C 
BRANCH  21  22
ATOM     22  C   UNL     1       6.510   7.647  21.938  1.00  0.00     0.041 C 
ATOM     23  O   UNL     1       6.343   8.273  23.018  1.00  0.00    -0.550 OA
ATOM     24  O   UNL     1       6.973   8.321  20.816  1.00  0.00    -0.550 OA
ENDBRANCH  21  22
ENDBRANCH  20  21
ENDBRANCH  19  20
ENDBRANCH  18  19
ENDBRANCH  17  18
ENDBRANCH  16  17
ENDBRANCH  15  16
ENDBRANCH  14  15
ENDBRANCH  13  14
ENDBRANCH   1  13
TORSDOF 20
ENDMDL
MODEL 3
REMARK VINA RESULT:    -4.372      4.709      8.354
REMARK INTER + INTRA:         -12.858
REMARK INTER:                 -10.230
REMARK INTRA:                  -2.628
REMARK UNBOUND:                -3.375
REMARK SMILES CCCCCCCCCCCCCCCCCCCCCC(=O)[O-]
REMARK SMILES IDX 12 1 11 2 10 3 9 4 8 5 7 6 6 7 5 8 4 9 3 10 2 11 1 12 13 13
REMARK SMILES IDX 14 14 15 15 16 16 17 17 18 18 19 19 20 20 21 21 22 22 23 23
REMARK SMILES IDX 24 24
REMARK H PARENT
REMARK Flexibility Score: inf
ROOT
ATOM      1  C   UNL     1       5.651   2.572  20.248  1.00  0.00     0.000 C 
ENDROOT
BRANCH   1   2
ATOM      2  C   UNL     1       5.992   3.738  19.308  1.00  0.00     0.000 C 
BRANCH   2   3
ATOM      3  C   UNL     1       7.493   4.048  19.339  1.00  0.00     0.000 C 
BRANCH   3   4
ATOM      4  C   UNL     1       7.754   5.542  19.112  1.00  0.00    -0.000 C 
BRANCH   4   5
ATOM      5  C   UNL     1       6.451   6.279  18.769  1.00  0.00    -0.000 C 
BRANCH   5   6
ATOM      6  C   UNL     1       6.476   6.919  17.368  1.00  0.00    -0.000 C 
BRANCH   6   7
ATOM      7  C   UNL     1       5.847   6.067  16.251  1.00  0.00    -0.000 C 
BRANCH   7   8
ATOM      8  C   UNL     1       6.857   5.122  15.579  1.00  0.00    -0.000 C 
BRANCH   8   9
ATOM      9  C   UNL     1       8.262   5.739  15.470  1.00  0.00    -0.000 C 
BRANCH   9  10
ATOM     10  C   UNL     1       9.040   5.222  14.248  1.00  0.00    -0.000 C 
BRANCH  10  11
ATOM     11  C   UNL     1      10.079   6.235  13.739  1.00  0.00    -0.003 C 
ATOM     12  C   UNL     1      10.632   7.127  14.850  1.00  0.00     0.004 C 
ENDBRANCH  10  11
ENDBRANCH   9  10
ENDBRANCH   8   9
ENDBRANCH   7   8
ENDBRANCH   6   7
ENDBRANCH   5   6
ENDBRANCH   4   5
ENDBRANCH   3   4
ENDBRANCH   2   3
ENDBRANCH   1   2
BRANCH   1  13
ATOM     13  C   UNL     1       4.911   3.025  21.518  1.00  0.00     0.000 C 
BRANCH  13  14
ATOM     14  C   UNL     1       4.563   4.527  21.567  1.00  0.00     0.000 C 
BRANCH  14  15
ATOM     15  C   UNL     1       5.311   5.339  22.643  1.00  0.00     0.000 C 
BRANCH  15  16
ATOM     16  C   UNL     1       5.821   6.717  22.183  1.00  0.00     0.000 C 
BRANCH  16  17
ATOM     17  C   UNL     1       7.163   7.103  22.827  1.00  0.00     0.000 C 
BRANCH  17  18
ATOM     18  C   UNL     1       8.048   7.932  21.881  1.00  0.00     0.000 C 
BRANCH  18  19
ATOM     19  C   UNL     1       7.357   9.226  21.416  1.00  0.00     0.000 C 
BRANCH  19  20
ATOM     20  C   UNL     1       7.129  10.221  22.565  1.00  0.00     0.006 C 
BRANCH  20  21
ATOM     21  C   UNL     1       5.642  10.517  22.809  1.00  0.00     0.053 C 
BRANCH  21  22
ATOM     22  C   UNL     1       5.458  11.936  23.247  1.00  0.00     0.041 C 
ATOM     23  O   UNL     1       5.540  12.872  22.409  1.00  0.00    -0.550 OA
ATOM     24  O   UNL     1       5.240  12.229  24.587  1.00  0.00    -0.550 OA
ENDBRANCH  21  22
ENDBRANCH  20  21
ENDBRANCH  19  20
ENDBRANCH  18  19
ENDBRANCH  17  18
ENDBRANCH  16  17
ENDBRANCH  15  16
ENDBRANCH  14  15
ENDBRANCH  13  14
ENDBRANCH   1  13
TORSDOF 20
ENDMDL
MODEL 4
REMARK VINA RESULT:    -4.320      3.713      7.851
REMARK INTER + INTRA:         -12.746
REMARK INTER:                  -9.516
REMARK INTRA:                  -3.231
REMARK UNBOUND:                -3.375
REMARK SMILES CCCCCCCCCCCCCCCCCCCCCC(=O)[O-]
REMARK SMILES IDX 12 1 11 2 10 3 9 4 8 5 7 6 6 7 5 8 4 9 3 10 2 11 1 12 13 13
REMARK SMILES IDX 14 14 15 15 16 16 17 17 18 18 19 19 20 20 21 21 22 22 23 23
REMARK SMILES IDX 24 24
REMARK H PARENT
REMARK Flexibility Score: inf
ROOT
ATOM      1  C   UNL     1       7.647   3.718  19.454  1.00  0.00     0.000 C 
ENDROOT
BRANCH   1   2
ATOM      2  C   UNL     1       7.675   5.249  19.330  1.00  0.00     0.000 C 
BRANCH   2   3
ATOM      3  C   UNL     1       6.301   5.790  18.916  1.00  0.00     0.000 C 
BRANCH   3   4
ATOM      4  C   UNL     1       6.429   7.159  18.238  1.00  0.00    -0.000 C 
BRANCH   4   5
ATOM      5  C   UNL     1       6.246   7.037  16.718  1.00  0.00    -0.000 C 
BRANCH   5   6
ATOM      6  C   UNL     1       5.861   5.614  16.272  1.00  0.00    -0.000 C 
BRANCH   6   7
ATOM      7  C   UNL     1       6.930   4.879  15.443  1.00  0.00    -0.000 C 
BRANCH   7   8
ATOM      8  C   UNL     1       8.150   5.759  15.123  1.00  0.00    -0.000 C 
BRANCH   8   9
ATOM      9  C   UNL     1       9.381   5.393  15.971  1.00  0.00    -0.000 C 
BRANCH   9  10
ATOM     10  C   UNL     1      10.698   5.868  15.334  1.00  0.00    -0.000 C 
BRANCH  10  11
ATOM     11  C   UNL     1      10.471   6.853  14.175  1.00  0.00    -0.003 C 
ATOM     12  C   UNL     1      11.128   6.398  12.872  1.00  0.00     0.004 C 
ENDBRANCH  10  11
ENDBRANCH   9  10
ENDBRANCH   8   9
ENDBRANCH   7   8
ENDBRANCH   6   7
ENDBRANCH   5   6
ENDBRANCH   4   5
ENDBRANCH   3   4
ENDBRANCH   2   3
ENDBRANCH   1   2
BRANCH   1  13
ATOM     13  C   UNL     1       6.219   3.151  19.544  1.00  0.00     0.000 C 
BRANCH  13  14
ATOM     14  C   UNL     1       5.740   2.821  20.972  1.00  0.00     0.000 C 
BRANCH  14  15
ATOM     15  C   UNL     1       4.487   3.589  21.438  1.00  0.00     0.000 C 
BRANCH  15  16
ATOM     16  C   UNL     1       4.769   4.868  22.247  1.00  0.00     0.000 C 
BRANCH  16  17
ATOM     17  C   UNL     1       6.222   4.951  22.747  1.00  0.00     0.000 C 
BRANCH  17  18
ATOM     18  C   UNL     1       6.769   6.387  22.713  1.00  0.00     0.000 C 
BRANCH  18  19
ATOM     19  C   UNL     1       5.773   7.379  22.088  1.00  0.00     0.000 C 
BRANCH  19  20
ATOM     20  C   UNL     1       6.217   8.843  22.245  1.00  0.00     0.006 C 
BRANCH  20  21
ATOM     21  C   UNL     1       7.402   9.205  21.339  1.00  0.00     0.053 C 
BRANCH  21  22
ATOM     22  C   UNL     1       8.568   9.657  22.162  1.00  0.00     0.041 C 
ATOM     23  O   UNL     1       8.695  10.874  22.464  1.00  0.00    -0.550 OA
ATOM     24  O   UNL     1       9.538   8.745  22.558  1.00  0.00    -0.550 OA
ENDBRANCH  21  22
ENDBRANCH  20  21
ENDBRANCH  19  20
ENDBRANCH  18  19
ENDBRANCH  17  18
ENDBRANCH  16  17
ENDBRANCH  15  16
ENDBRANCH  14  15
ENDBRANCH  13  14
ENDBRANCH   1  13
TORSDOF 20
ENDMDL
MODEL 5
REMARK VINA RESULT:    -4.300      4.294      7.606
REMARK INTER + INTRA:         -12.703
REMARK INTER:                  -9.523
REMARK INTRA:                  -3.180
REMARK UNBOUND:                -3.375
REMARK SMILES CCCCCCCCCCCCCCCCCCCCCC(=O)[O-]
REMARK SMILES IDX 12 1 11 2 10 3 9 4 8 5 7 6 6 7 5 8 4 9 3 10 2 11 1 12 13 13
REMARK SMILES IDX 14 14 15 15 16 16 17 17 18 18 19 19 20 20 21 21 22 22 23 23
REMARK SMILES IDX 24 24
REMARK H PARENT
REMARK Flexibility Score: inf
ROOT
ATOM      1  C   UNL     1       7.535   2.453  19.616  1.00  0.00     0.000 C 
ENDROOT
BRANCH   1   2
ATOM      2  C   UNL     1       8.110   3.808  20.055  1.00  0.00     0.000 C 
BRANCH   2   3
ATOM      3  C   UNL     1       9.116   4.336  19.025  1.00  0.00     0.000 C 
BRANCH   3   4
ATOM      4  C   UNL     1       9.614   3.210  18.112  1.00  0.00    -0.000 C 
BRANCH   4   5
ATOM      5  C   UNL     1      10.006   3.757  16.732  1.00  0.00    -0.000 C 
BRANCH   5   6
ATOM      6  C   UNL     1       9.816   5.281  16.614  1.00  0.00    -0.000 C 
BRANCH   6   7
ATOM      7  C   UNL     1       8.926   5.738  15.444  1.00  0.00    -0.000 C 
BRANCH   7   8
ATOM      8  C   UNL     1       7.798   4.743  15.125  1.00  0.00    -0.000 C 
BRANCH   8   9
ATOM      9  C   UNL     1       6.411   5.271  15.532  1.00  0.00    -0.000 C 
BRANCH   9  10
ATOM     10  C   UNL     1       6.177   5.203  17.051  1.00  0.00    -0.000 C 
BRANCH  10  11
ATOM     11  C   UNL     1       6.401   6.557  17.743  1.00  0.00    -0.003 C 
ATOM     12  C   UNL     1       6.267   7.742  16.786  1.00  0.00     0.004 C 
ENDBRANCH  10  11
ENDBRANCH   9  10
ENDBRANCH   8   9
ENDBRANCH   7   8
ENDBRANCH   6   7
ENDBRANCH   5   6
ENDBRANCH   4   5
ENDBRANCH   3   4
ENDBRANCH   2   3
ENDBRANCH   1   2
BRANCH   1  13
ATOM     13  C   UNL     1       6.069   2.260  20.043  1.00  0.00     0.000 C 
BRANCH  13  14
ATOM     14  C   UNL     1       5.267   3.564  20.225  1.00  0.00     0.000 C 
BRANCH  14  15
ATOM     15  C   UNL     1       4.647   3.765  21.622  1.00  0.00     0.000 C 
BRANCH  15  16
ATOM     16  C   UNL     1       4.691   5.209  22.153  1.00  0.00     0.000 C 
BRANCH  16  17
ATOM     17  C   UNL     1       5.295   6.200  21.144  1.00  0.00     0.000 C 
BRANCH  17  18
ATOM     18  C   UNL     1       6.597   6.836  21.658  1.00  0.00     0.000 C 
BRANCH  18  19
ATOM     19  C   UNL     1       6.910   8.173  20.962  1.00  0.00     0.000 C 
BRANCH  19  20
ATOM     20  C   UNL     1       7.236   9.297  21.959  1.00  0.00     0.006 C 
BRANCH  20  21
ATOM     21  C   UNL     1       6.085   9.579  22.934  1.00  0.00     0.053 C 
BRANCH  21  22
ATOM     22  C   UNL     1       5.745  11.037  22.932  1.00  0.00     0.041 C 
ATOM     23  O   UNL     1       4.721  11.449  23.538  1.00  0.00    -0.550 OA
ATOM     24  O   UNL     1       6.534  11.935  22.224  1.00  0.00    -0.550 OA
ENDBRANCH  21  22
ENDBRANCH  20  21
ENDBRANCH  19  20
ENDBRANCH  18  19
ENDBRANCH  17  18
ENDBRANCH  16  17
ENDBRANCH  15  16
ENDBRANCH  14  15
ENDBRANCH  13  14
ENDBRANCH   1  13
TORSDOF 20
ENDMDL
MODEL 6
REMARK VINA RESULT:    -4.260      1.372      2.186
REMARK INTER + INTRA:         -12.616
REMARK INTER:                  -9.282
REMARK INTRA:                  -3.334
REMARK UNBOUND:                -3.375
REMARK SMILES CCCCCCCCCCCCCCCCCCCCCC(=O)[O-]
REMARK SMILES IDX 12 1 11 2 10 3 9 4 8 5 7 6 6 7 5 8 4 9 3 10 2 11 1 12 13 13
REMARK SMILES IDX 14 14 15 15 16 16 17 17 18 18 19 19 20 20 21 21 22 22 23 23
REMARK SMILES IDX 24 24
REMARK H PARENT
REMARK Flexibility Score: inf
ROOT
ATOM      1  C   UNL     1       7.785   5.436  19.463  1.00  0.00     0.000 C 
ENDROOT
BRANCH   1   2
ATOM      2  C   UNL     1       7.778   4.025  20.071  1.00  0.00     0.000 C 
BRANCH   2   3
ATOM      3  C   UNL     1       6.896   3.078  19.248  1.00  0.00     0.000 C 
BRANCH   3   4
ATOM      4  C   UNL     1       6.025   2.205  20.159  1.00  0.00    -0.000 C 
BRANCH   4   5
ATOM      5  C   UNL     1       5.689   2.940  21.465  1.00  0.00    -0.000 C 
BRANCH   5   6
ATOM      6  C   UNL     1       4.426   3.814  21.353  1.00  0.00    -0.000 C 
BRANCH   6   7
ATOM      7  C   UNL     1       4.577   5.250  21.887  1.00  0.00    -0.000 C 
BRANCH   7   8
ATOM      8  C   UNL     1       5.641   5.369  22.992  1.00  0.00    -0.000 C 
BRANCH   8   9
ATOM      9  C   UNL     1       6.262   6.774  23.065  1.00  0.00    -0.000 C 
BRANCH   9  10
ATOM     10  C   UNL     1       5.789   7.689  21.922  1.00  0.00    -0.000 C 
BRANCH  10  11
ATOM     11  C   UNL     1       6.864   8.699  21.491  1.00  0.00    -0.003 C 
ATOM     12  C   UNL     1       8.282   8.235  21.821  1.00  0.00     0.004 C 
ENDBRANCH  10  11
ENDBRANCH   9  10
ENDBRANCH   8   9
ENDBRANCH   7   8
ENDBRANCH   6   7
ENDBRANCH   5   6
ENDBRANCH   4   5
ENDBRANCH   3   4
ENDBRANCH   2   3
ENDBRANCH   1   2
BRANCH   1  13
ATOM     13  C   UNL     1       6.409   5.861  18.922  1.00  0.00     0.000 C 
BRANCH  13  14
ATOM     14  C   UNL     1       6.396   7.200  18.158  1.00  0.00     0.000 C 
BRANCH  14  15
ATOM     15  C   UNL     1       6.393   7.079  16.621  1.00  0.00     0.000 C 
BRANCH  15  16
ATOM     16  C   UNL     1       6.063   5.676  16.078  1.00  0.00     0.000 C 
BRANCH  16  17
ATOM     17  C   UNL     1       7.185   5.096  15.200  1.00  0.00     0.000 C 
BRANCH  17  18
ATOM     18  C   UNL     1       8.581   5.345  15.796  1.00  0.00     0.000 C 
BRANCH  18  19
ATOM     19  C   UNL     1       9.552   4.184  15.516  1.00  0.00     0.000 C 
BRANCH  19  20
ATOM     20  C   UNL     1      10.635   4.551  14.489  1.00  0.00     0.006 C 
BRANCH  20  21
ATOM     21  C   UNL     1      10.588   6.030  14.079  1.00  0.00     0.053 C 
BRANCH  21  22
ATOM     22  C   UNL     1      10.412   6.155  12.598  1.00  0.00     0.041 C 
ATOM     23  O   UNL     1      11.352   6.597  11.885  1.00  0.00    -0.550 OA
ATOM     24  O   UNL     1       9.197   5.827  12.010  1.00  0.00    -0.550 OA
ENDBRANCH  21  22
ENDBRANCH  20  21
ENDBRANCH  19  20
ENDBRANCH  18  19
ENDBRANCH  17  18
ENDBRANCH  16  17
ENDBRANCH  15  16
ENDBRANCH  14  15
ENDBRANCH  13  14
ENDBRANCH   1  13
TORSDOF 20
ENDMDL
MODEL 7
REMARK VINA RESULT:    -4.250      3.712      8.380
REMARK INTER + INTRA:         -12.595
REMARK INTER:                  -9.108
REMARK INTRA:                  -3.487
REMARK UNBOUND:                -3.375
REMARK SMILES CCCCCCCCCCCCCCCCCCCCCC(=O)[O-]
REMARK SMILES IDX 12 1 11 2 10 3 9 4 8 5 7 6 6 7 5 8 4 9 3 10 2 11 1 12 13 13
REMARK SMILES IDX 14 14 15 15 16 16 17 17 18 18 19 19 20 20 21 21 22 22 23 23
REMARK SMILES IDX 24 24
REMARK H PARENT
REMARK Flexibility Score: inf
ROOT
ATOM      1  C   UNL     1       7.534   5.946  19.868  1.00  0.00     0.000 C 
ENDROOT
BRANCH   1   2
ATOM      2  C   UNL     1       6.317   6.360  19.028  1.00  0.00     0.000 C 
BRANCH   2   3
ATOM      3  C   UNL     1       6.754   7.073  17.742  1.00  0.00     0.000 C 
BRANCH   3   4
ATOM      4  C   UNL     1       5.901   6.628  16.548  1.00  0.00    -0.000 C 
BRANCH   4   5
ATOM      5  C   UNL     1       6.223   5.180  16.154  1.00  0.00    -0.000 C 
BRANCH   5   6
ATOM      6  C   UNL     1       7.510   5.057  15.317  1.00  0.00    -0.000 C 
BRANCH   6   7
ATOM      7  C   UNL     1       8.723   4.476  16.067  1.00  0.00    -0.000 C 
BRANCH   7   8
ATOM      8  C   UNL     1       9.876   5.483  16.212  1.00  0.00    -0.000 C 
BRANCH   8   9
ATOM      9  C   UNL     1       9.617   6.792  15.447  1.00  0.00    -0.000 C 
BRANCH   9  10
ATOM     10  C   UNL     1      10.639   7.029  14.322  1.00  0.00    -0.000 C 
BRANCH  10  11
ATOM     11  C   UNL     1      10.752   5.832  13.365  1.00  0.00    -0.003 C 
ATOM     12  C   UNL     1       9.848   5.964  12.140  1.00  0.00     0.004 C 
ENDBRANCH  10  11
ENDBRANCH   9  10
ENDBRANCH   8   9
ENDBRANCH   7   8
ENDBRANCH   6   7
ENDBRANCH   5   6
ENDBRANCH   4   5
ENDBRANCH   3   4
ENDBRANCH   2   3
ENDBRANCH   1   2
BRANCH   1  13
ATOM     13  C   UNL     1       7.967   4.491  19.616  1.00  0.00     0.000 C 
BRANCH  13  14
ATOM     14  C   UNL     1       6.809   3.502  19.371  1.00  0.00     0.000 C 
BRANCH  14  15
ATOM     15  C   UNL     1       6.646   2.404  20.441  1.00  0.00     0.000 C 
BRANCH  15  16
ATOM     16  C   UNL     1       5.383   2.527  21.314  1.00  0.00     0.000 C 
BRANCH  16  17
ATOM     17  C   UNL     1       4.568   3.796  21.010  1.00  0.00     0.000 C 
BRANCH  17  18
ATOM     18  C   UNL     1       4.565   4.784  22.187  1.00  0.00     0.000 C 
BRANCH  18  19
ATOM     19  C   UNL     1       5.051   4.137  23.496  1.00  0.00     0.000 C 
BRANCH  19  20
ATOM     20  C   UNL     1       6.224   4.899  24.134  1.00  0.00     0.006 C 
BRANCH  20  21
ATOM     21  C   UNL     1       7.534   4.735  23.352  1.00  0.00     0.053 C 
BRANCH  21  22
ATOM     22  C   UNL     1       8.426   3.745  24.032  1.00  0.00     0.041 C 
ATOM     23  O   UNL     1       9.297   4.137  24.854  1.00  0.00    -0.550 OA
ATOM     24  O   UNL     1       8.328   2.393  23.726  1.00  0.00    -0.550 OA
ENDBRANCH  21  22
ENDBRANCH  20  21
ENDBRANCH  19  20
ENDBRANCH  18  19
ENDBRANCH  17  18
ENDBRANCH  16  17
ENDBRANCH  15  16
ENDBRANCH  14  15
ENDBRANCH  13  14
ENDBRANCH   1  13
TORSDOF 20
ENDMDL
MODEL 8
REMARK VINA RESULT:    -4.210      3.103      5.012
REMARK INTER + INTRA:         -12.508
REMARK INTER:                 -10.360
REMARK INTRA:                  -2.148
REMARK UNBOUND:                -3.375
REMARK SMILES CCCCCCCCCCCCCCCCCCCCCC(=O)[O-]
REMARK SMILES IDX 12 1 11 2 10 3 9 4 8 5 7 6 6 7 5 8 4 9 3 10 2 11 1 12 13 13
REMARK SMILES IDX 14 14 15 15 16 16 17 17 18 18 19 19 20 20 21 21 22 22 23 23
REMARK SMILES IDX 24 24
REMARK H PARENT
REMARK Flexibility Score: inf
ROOT
ATOM      1  C   UNL     1       5.457   2.846  21.661  1.00  0.00     0.000 C 
ENDROOT
BRANCH   1   2
ATOM      2  C   UNL     1       4.240   3.750  21.908  1.00  0.00     0.000 C 
BRANCH   2   3
ATOM      3  C   UNL     1       4.545   5.200  21.513  1.00  0.00     0.000 C 
BRANCH   3   4
ATOM      4  C   UNL     1       5.595   5.817  22.445  1.00  0.00    -0.000 C 
BRANCH   4   5
ATOM      5  C   UNL     1       6.686   6.537  21.640  1.00  0.00    -0.000 C 
BRANCH   5   6
ATOM      6  C   UNL     1       6.437   8.051  21.510  1.00  0.00    -0.000 C 
BRANCH   6   7
ATOM      7  C   UNL     1       7.387   8.941  22.333  1.00  0.00    -0.000 C 
BRANCH   7   8
ATOM      8  C   UNL     1       7.596  10.331  21.707  1.00  0.00    -0.000 C 
BRANCH   8   9
ATOM      9  C   UNL     1       8.182  11.345  22.704  1.00  0.00    -0.000 C 
BRANCH   9  10
ATOM     10  C   UNL     1       7.096  12.199  23.382  1.00  0.00    -0.000 C 
BRANCH  10  11
ATOM     11  C   UNL     1       5.828  12.331  22.525  1.00  0.00    -0.003 C 
ATOM     12  C   UNL     1       5.446  13.786  22.250  1.00  0.00     0.004 C 
ENDBRANCH  10  11
ENDBRANCH   9  10
ENDBRANCH   8   9
ENDBRANCH   7   8
ENDBRANCH   6   7
ENDBRANCH   5   6
ENDBRANCH   4   5
ENDBRANCH   3   4
ENDBRANCH   2   3
ENDBRANCH   1   2
BRANCH   1  13
ATOM     13  C   UNL     1       5.758   2.644  20.166  1.00  0.00     0.000 C 
BRANCH  13  14
ATOM     14  C   UNL     1       7.223   2.896  19.757  1.00  0.00     0.000 C 
BRANCH  14  15
ATOM     15  C   UNL     1       7.457   4.154  18.898  1.00  0.00     0.000 C 
BRANCH  15  16
ATOM     16  C   UNL     1       6.180   4.817  18.350  1.00  0.00     0.000 C 
BRANCH  16  17
ATOM     17  C   UNL     1       6.350   6.325  18.097  1.00  0.00     0.000 C 
BRANCH  17  18
ATOM     18  C   UNL     1       6.368   6.666  16.598  1.00  0.00     0.000 C 
BRANCH  18  19
ATOM     19  C   UNL     1       6.470   5.412  15.712  1.00  0.00     0.000 C 
BRANCH  19  20
ATOM     20  C   UNL     1       7.894   5.172  15.186  1.00  0.00     0.006 C 
BRANCH  20  21
ATOM     21  C   UNL     1       8.861   6.306  15.550  1.00  0.00     0.053 C 
BRANCH  21  22
ATOM     22  C   UNL     1       9.982   6.374  14.561  1.00  0.00     0.041 C 
ATOM     23  O   UNL     1       9.801   5.994  13.373  1.00  0.00    -0.550 OA
ATOM     24  O   UNL     1      11.238   6.813  14.959  1.00  0.00    -0.550 OA
ENDBRANCH  21  22
ENDBRANCH  20  21
ENDBRANCH  19  20
ENDBRANCH  18  19
ENDBRANCH  17  18
ENDBRANCH  16  17
ENDBRANCH  15  16
ENDBRANCH  14  15
ENDBRANCH  13  14
ENDBRANCH   1  13
TORSDOF 20
ENDMDL
MODEL 9
REMARK VINA RESULT:    -4.207      5.158      7.971
REMARK INTER + INTRA:         -12.502
REMARK INTER:                  -9.526
REMARK INTRA:                  -2.976
REMARK UNBOUND:                -3.375
REMARK SMILES CCCCCCCCCCCCCCCCCCCCCC(=O)[O-]
REMARK SMILES IDX 12 1 11 2 10 3 9 4 8 5 7 6 6 7 5 8 4 9 3 10 2 11 1 12 13 13
REMARK SMILES IDX 14 14 15 15 16 16 17 17 18 18 19 19 20 20 21 21 22 22 23 23
REMARK SMILES IDX 24 24
REMARK H PARENT
REMARK Flexibility Score: inf
ROOT
ATOM      1  C   UNL     1       4.898   4.000  21.356  1.00  0.00     0.000 C 
ENDROOT
BRANCH   1   2
ATOM      2  C   UNL     1       5.498   3.407  20.072  1.00  0.00     0.000 C 
BRANCH   2   3
ATOM      3  C   UNL     1       6.640   2.437  20.396  1.00  0.00     0.000 C 
BRANCH   3   4
ATOM      4  C   UNL     1       7.477   2.945  21.576  1.00  0.00    -0.000 C 
BRANCH   4   5
ATOM      5  C   UNL     1       8.868   3.396  21.107  1.00  0.00    -0.000 C 
BRANCH   5   6
ATOM      6  C   UNL     1       8.930   4.898  20.773  1.00  0.00    -0.000 C 
BRANCH   6   7
ATOM      7  C   UNL     1       9.541   5.237  19.401  1.00  0.00    -0.000 C 
BRANCH   7   8
ATOM      8  C   UNL     1       8.879   4.468  18.245  1.00  0.00    -0.000 C 
BRANCH   8   9
ATOM      9  C   UNL     1       8.248   5.403  17.199  1.00  0.00    -0.000 C 
BRANCH   9  10
ATOM     10  C   UNL     1       6.725   5.218  17.084  1.00  0.00    -0.000 C 
BRANCH  10  11
ATOM     11  C   UNL     1       6.053   6.339  16.276  1.00  0.00    -0.003 C 
ATOM     12  C   UNL     1       6.422   7.735  16.777  1.00  0.00     0.004 C 
ENDBRANCH  10  11
ENDBRANCH   9  10
ENDBRANCH   8   9
ENDBRANCH   7   8
ENDBRANCH   6   7
ENDBRANCH   5   6
ENDBRANCH   4   5
ENDBRANCH   3   4
ENDBRANCH   2   3
ENDBRANCH   1   2
BRANCH   1  13
ATOM     13  C   UNL     1       4.882   5.539  21.353  1.00  0.00     0.000 C 
BRANCH  13  14
ATOM     14  C   UNL     1       5.651   6.194  20.188  1.00  0.00     0.000 C 
BRANCH  14  15
ATOM     15  C   UNL     1       6.343   7.529  20.527  1.00  0.00     0.000 C 
BRANCH  15  16
ATOM     16  C   UNL     1       6.748   7.697  22.003  1.00  0.00     0.000 C 
BRANCH  16  17
ATOM     17  C   UNL     1       8.140   8.328  22.173  1.00  0.00     0.000 C 
BRANCH  17  18
ATOM     18  C   UNL     1       8.097   9.864  22.115  1.00  0.00     0.000 C 
BRANCH  18  19
ATOM     19  C   UNL     1       7.386  10.476  23.335  1.00  0.00     0.000 C 
BRANCH  19  20
ATOM     20  C   UNL     1       6.052  11.147  22.969  1.00  0.00     0.006 C 
BRANCH  20  21
ATOM     21  C   UNL     1       6.240  12.489  22.250  1.00  0.00     0.053 C 
BRANCH  21  22
ATOM     22  C   UNL     1       5.140  13.436  22.617  1.00  0.00     0.041 C 
ATOM     23  O   UNL     1       4.167  13.037  23.310  1.00  0.00    -0.550 OA
ATOM     24  O   UNL     1       5.166  14.747  22.157  1.00  0.00    -0.550 OA
ENDBRANCH  21  22
ENDBRANCH  20  21
ENDBRANCH  19  20
ENDBRANCH  18  19
ENDBRANCH  17  18
ENDBRANCH  16  17
ENDBRANCH  15  16
ENDBRANCH  14  15
ENDBRANCH  13  14
ENDBRANCH   1  13
TORSDOF 20
ENDMDL
