MODEL 1
REMARK VINA RESULT:    -6.404      0.000      0.000
REMARK INTER + INTRA:          -8.174
REMARK INTER:                  -7.714
REMARK INTRA:                  -0.460
REMARK UNBOUND:                -0.460
REMARK SMILES O=c1c(O)c(-c2ccc(O)cc2O)oc2cc(O)cc(O)c12
REMARK SMILES IDX 5 1 3 2 2 3 1 4 22 5 20 6 19 7 17 8 16 9 15 10 14 11 6 12
REMARK SMILES IDX 8 13 7 14 9 15 11 16 12 17 10 18 13 20 4 22 21 24 18 26
REMARK H PARENT 10 19 13 21 4 23 21 25 18 27
REMARK Flexibility Score: inf
ROOT
ATOM      1  C   UNL     1      17.742  42.275  26.515  1.00  0.00     0.184 A 
ATOM      2  C   UNL     1      18.203  41.327  27.444  1.00  0.00     0.208 A 
ATOM      3  C   UNL     1      19.551  40.940  27.410  1.00  0.00     0.238 A 
ATOM      4  O   UNL     1      19.945  40.049  28.208  1.00  0.00    -0.285 OA
ATOM      5  C   UNL     1      20.427  41.520  26.461  1.00  0.00     0.111 A 
ATOM      6  C   UNL     1      21.822  41.232  26.362  1.00  0.00     0.134 A 
ATOM      7  C   UNL     1      22.564  41.769  25.303  1.00  0.00     0.093 A 
ATOM      8  C   UNL     1      21.979  42.633  24.378  1.00  0.00     0.123 A 
ATOM      9  C   UNL     1      20.630  42.968  24.500  1.00  0.00     0.094 A 
ATOM     10  C   UNL     1      19.854  42.420  25.524  1.00  0.00     0.146 A 
ATOM     11  O   UNL     1      18.572  42.755  25.598  1.00  0.00    -0.451 OA
ENDROOT
BRANCH   1  12
ATOM     12  C   UNL     1      16.337  42.745  26.511  1.00  0.00     0.063 A 
ATOM     13  C   UNL     1      14.618  44.263  27.326  1.00  0.00     0.047 A 
ATOM     14  C   UNL     1      15.936  43.800  27.350  1.00  0.00     0.020 A 
ATOM     15  C   UNL     1      13.686  43.689  26.459  1.00  0.00     0.119 A 
ATOM     16  C   UNL     1      14.077  42.647  25.608  1.00  0.00     0.093 A 
ATOM     17  C   UNL     1      15.397  42.175  25.627  1.00  0.00     0.130 A 
BRANCH  15  18
ATOM     18  O   UNL     1      12.375  44.163  26.447  1.00  0.00    -0.508 OA
ATOM     19  H   UNL     1      11.684  43.790  25.808  1.00  0.00     0.293 HD
ENDBRANCH  15  18
BRANCH  17  20
ATOM     20  O   UNL     1      15.773  41.132  24.781  1.00  0.00    -0.507 OA
ATOM     21  H   UNL     1      16.671  40.671  24.869  1.00  0.00     0.293 HD
ENDBRANCH  17  20
ENDBRANCH   1  12
BRANCH   2  22
ATOM     22  O   UNL     1      17.317  40.757  28.363  1.00  0.00    -0.502 OA
ATOM     23  H   UNL     1      16.442  40.332  28.083  1.00  0.00     0.293 HD
ENDBRANCH   2  22
BRANCH   6  24
ATOM     24  O   UNL     1      22.526  40.454  27.286  1.00  0.00    -0.507 OA
ATOM     25  H   UNL     1      23.531  40.391  27.337  1.00  0.00     0.293 HD
ENDBRANCH   6  24
BRANCH   8  26
ATOM     26  O   UNL     1      22.752  43.161  23.346  1.00  0.00    -0.508 OA
ATOM     27  H   UNL     1      23.327  42.569  22.759  1.00  0.00     0.293 HD
ENDBRANCH   8  26
TORSDOF 6
ENDMDL
MODEL 2
REMARK VINA RESULT:    -6.355      5.193      7.217
REMARK INTER + INTRA:          -8.115
REMARK INTER:                  -7.787
REMARK INTRA:                  -0.328
REMARK UNBOUND:                -0.460
REMARK SMILES O=c1c(O)c(-c2ccc(O)cc2O)oc2cc(O)cc(O)c12
REMARK SMILES IDX 5 1 3 2 2 3 1 4 22 5 20 6 19 7 17 8 16 9 15 10 14 11 6 12
REMARK SMILES IDX 8 13 7 14 9 15 11 16 12 17 10 18 13 20 4 22 21 24 18 26
REMARK H PARENT 10 19 13 21 4 23 21 25 18 27
REMARK Flexibility Score: inf
ROOT
ATOM      1  C   UNL     1      20.997  39.032  22.634  1.00  0.00     0.184 A 
ATOM      2  C   UNL     1      21.253  39.984  21.633  1.00  0.00     0.208 A 
ATOM      3  C   UNL     1      22.071  39.630  20.549  1.00  0.00     0.238 A 
ATOM      4  O   UNL     1      22.341  40.505  19.685  1.00  0.00    -0.285 OA
ATOM      5  C   UNL     1      22.607  38.322  20.470  1.00  0.00     0.111 A 
ATOM      6  C   UNL     1      23.416  37.842  19.396  1.00  0.00     0.134 A 
ATOM      7  C   UNL     1      23.997  36.571  19.484  1.00  0.00     0.093 A 
ATOM      8  C   UNL     1      23.747  35.739  20.575  1.00  0.00     0.123 A 
ATOM      9  C   UNL     1      22.910  36.175  21.602  1.00  0.00     0.094 A 
ATOM     10  C   UNL     1      22.345  37.452  21.560  1.00  0.00     0.146 A 
ATOM     11  O   UNL     1      21.563  37.834  22.563  1.00  0.00    -0.451 OA
ENDROOT
BRANCH   1  12
ATOM     12  C   UNL     1      20.123  39.332  23.793  1.00  0.00     0.063 A 
ATOM     13  C   UNL     1      18.043  38.990  25.010  1.00  0.00     0.047 A 
ATOM     14  C   UNL     1      18.856  38.730  23.905  1.00  0.00     0.020 A 
ATOM     15  C   UNL     1      18.486  39.843  26.024  1.00  0.00     0.119 A 
ATOM     16  C   UNL     1      19.751  40.437  25.931  1.00  0.00     0.093 A 
ATOM     17  C   UNL     1      20.573  40.183  24.823  1.00  0.00     0.130 A 
BRANCH  15  18
ATOM     18  O   UNL     1      17.663  40.092  27.121  1.00  0.00    -0.508 OA
ATOM     19  H   UNL     1      16.814  40.638  27.031  1.00  0.00     0.293 HD
ENDBRANCH  15  18
BRANCH  17  20
ATOM     20  O   UNL     1      21.828  40.786  24.738  1.00  0.00    -0.507 OA
ATOM     21  H   UNL     1      22.209  41.333  25.502  1.00  0.00     0.293 HD
ENDBRANCH  17  20
ENDBRANCH   1  12
BRANCH   2  22
ATOM     22  O   UNL     1      20.723  41.273  21.741  1.00  0.00    -0.502 OA
ATOM     23  H   UNL     1      19.747  41.445  21.950  1.00  0.00     0.293 HD
ENDBRANCH   2  22
BRANCH   6  24
ATOM     24  O   UNL     1      23.656  38.557  18.218  1.00  0.00    -0.507 OA
ATOM     25  H   UNL     1      24.446  39.164  18.065  1.00  0.00     0.293 HD
ENDBRANCH   6  24
BRANCH   8  26
ATOM     26  O   UNL     1      24.329  34.474  20.623  1.00  0.00    -0.508 OA
ATOM     27  H   UNL     1      25.270  34.311  20.285  1.00  0.00     0.293 HD
ENDBRANCH   8  26
TORSDOF 6
ENDMDL
MODEL 3
REMARK VINA RESULT:    -6.336      1.528      1.694
REMARK INTER + INTRA:          -8.092
REMARK INTER:                  -7.715
REMARK INTRA:                  -0.378
REMARK UNBOUND:                -0.460
REMARK SMILES O=c1c(O)c(-c2ccc(O)cc2O)oc2cc(O)cc(O)c12
REMARK SMILES IDX 5 1 3 2 2 3 1 4 22 5 20 6 19 7 17 8 16 9 15 10 14 11 6 12
REMARK SMILES IDX 8 13 7 14 9 15 11 16 12 17 10 18 13 20 4 22 21 24 18 26
REMARK H PARENT 10 19 13 21 4 23 21 25 18 27
REMARK Flexibility Score: inf
ROOT
ATOM      1  C   UNL     1      17.314  42.323  25.471  1.00  0.00     0.184 A 
ATOM      2  C   UNL     1      17.264  41.447  26.568  1.00  0.00     0.208 A 
ATOM      3  C   UNL     1      18.464  40.948  27.097  1.00  0.00     0.238 A 
ATOM      4  O   UNL     1      18.410  40.120  28.043  1.00  0.00    -0.285 OA
ATOM      5  C   UNL     1      19.701  41.347  26.534  1.00  0.00     0.111 A 
ATOM      6  C   UNL     1      20.980  40.935  27.015  1.00  0.00     0.134 A 
ATOM      7  C   UNL     1      22.133  41.290  26.302  1.00  0.00     0.093 A 
ATOM      8  C   UNL     1      22.057  42.094  25.165  1.00  0.00     0.123 A 
ATOM      9  C   UNL     1      20.817  42.551  24.721  1.00  0.00     0.094 A 
ATOM     10  C   UNL     1      19.646  42.184  25.389  1.00  0.00     0.146 A 
ATOM     11  O   UNL     1      18.485  42.631  24.927  1.00  0.00    -0.451 OA
ENDROOT
BRANCH   1  12
ATOM     12  C   UNL     1      16.086  42.905  24.880  1.00  0.00     0.063 A 
ATOM     13  C   UNL     1      14.538  44.769  24.641  1.00  0.00     0.047 A 
ATOM     14  C   UNL     1      15.680  44.209  25.220  1.00  0.00     0.020 A 
ATOM     15  C   UNL     1      13.794  44.043  23.709  1.00  0.00     0.119 A 
ATOM     16  C   UNL     1      14.196  42.750  23.352  1.00  0.00     0.093 A 
ATOM     17  C   UNL     1      15.339  42.179  23.930  1.00  0.00     0.130 A 
BRANCH  15  18
ATOM     18  O   UNL     1      12.657  44.617  23.141  1.00  0.00    -0.508 OA
ATOM     19  H   UNL     1      12.571  44.739  22.139  1.00  0.00     0.293 HD
ENDBRANCH  15  18
BRANCH  17  20
ATOM     20  O   UNL     1      15.726  40.888  23.571  1.00  0.00    -0.507 OA
ATOM     21  H   UNL     1      15.201  40.342  22.897  1.00  0.00     0.293 HD
ENDBRANCH  17  20
ENDBRANCH   1  12
BRANCH   2  22
ATOM     22  O   UNL     1      16.030  41.057  27.098  1.00  0.00    -0.502 OA
ATOM     23  H   UNL     1      15.346  40.539  26.559  1.00  0.00     0.293 HD
ENDBRANCH   2  22
BRANCH   6  24
ATOM     24  O   UNL     1      21.175  40.206  28.192  1.00  0.00    -0.507 OA
ATOM     25  H   UNL     1      20.577  39.460  28.511  1.00  0.00     0.293 HD
ENDBRANCH   6  24
BRANCH   8  26
ATOM     26  O   UNL     1      23.225  42.440  24.490  1.00  0.00    -0.508 OA
ATOM     27  H   UNL     1      24.138  42.170  24.836  1.00  0.00     0.293 HD
ENDBRANCH   8  26
TORSDOF 6
ENDMDL
MODEL 4
REMARK VINA RESULT:    -6.222     15.099     17.651
REMARK INTER + INTRA:          -7.955
REMARK INTER:                  -7.524
REMARK INTRA:                  -0.431
REMARK UNBOUND:                -0.460
REMARK SMILES O=c1c(O)c(-c2ccc(O)cc2O)oc2cc(O)cc(O)c12
REMARK SMILES IDX 5 1 3 2 2 3 1 4 22 5 20 6 19 7 17 8 16 9 15 10 14 11 6 12
REMARK SMILES IDX 8 13 7 14 9 15 11 16 12 17 10 18 13 20 4 22 21 24 18 26
REMARK H PARENT 10 19 13 21 4 23 21 25 18 27
REMARK Flexibility Score: inf
ROOT
ATOM      1  C   UNL     1      13.832  37.794  11.414  1.00  0.00     0.184 A 
ATOM      2  C   UNL     1      13.484  38.326  12.667  1.00  0.00     0.208 A 
ATOM      3  C   UNL     1      12.157  38.212  13.111  1.00  0.00     0.238 A 
ATOM      4  O   UNL     1      11.841  38.740  14.209  1.00  0.00    -0.285 OA
ATOM      5  C   UNL     1      11.199  37.551  12.305  1.00  0.00     0.111 A 
ATOM      6  C   UNL     1       9.836  37.343  12.673  1.00  0.00     0.134 A 
ATOM      7  C   UNL     1       8.947  36.789  11.743  1.00  0.00     0.093 A 
ATOM      8  C   UNL     1       9.384  36.378  10.485  1.00  0.00     0.123 A 
ATOM      9  C   UNL     1      10.727  36.522  10.137  1.00  0.00     0.094 A 
ATOM     10  C   UNL     1      11.631  37.104  11.029  1.00  0.00     0.146 A 
ATOM     11  O   UNL     1      12.898  37.234  10.655  1.00  0.00    -0.451 OA
ENDROOT
BRANCH   1  12
ATOM     12  C   UNL     1      15.218  37.858  10.895  1.00  0.00     0.063 A 
ATOM     13  C   UNL     1      17.556  37.197  11.038  1.00  0.00     0.047 A 
ATOM     14  C   UNL     1      16.254  37.160  11.542  1.00  0.00     0.020 A 
ATOM     15  C   UNL     1      17.841  37.920   9.877  1.00  0.00     0.119 A 
ATOM     16  C   UNL     1      16.815  38.607   9.216  1.00  0.00     0.093 A 
ATOM     17  C   UNL     1      15.505  38.577   9.717  1.00  0.00     0.130 A 
BRANCH  15  18
ATOM     18  O   UNL     1      19.145  37.946   9.387  1.00  0.00    -0.508 OA
ATOM     19  H   UNL     1      19.338  37.909   8.393  1.00  0.00     0.293 HD
ENDBRANCH  15  18
BRANCH  17  20
ATOM     20  O   UNL     1      14.494  39.272   9.054  1.00  0.00    -0.507 OA
ATOM     21  H   UNL     1      14.679  39.809   8.215  1.00  0.00     0.293 HD
ENDBRANCH  17  20
ENDBRANCH   1  12
BRANCH   2  22
ATOM     22  O   UNL     1      14.444  38.986  13.439  1.00  0.00    -0.502 OA
ATOM     23  H   UNL     1      15.436  38.806  13.343  1.00  0.00     0.293 HD
ENDBRANCH   2  22
BRANCH   6  24
ATOM     24  O   UNL     1       9.315  37.635  13.937  1.00  0.00    -0.507 OA
ATOM     25  H   UNL     1       9.869  37.859  14.750  1.00  0.00     0.293 HD
ENDBRANCH   6  24
BRANCH   8  26
ATOM     26  O   UNL     1       8.475  35.817   9.592  1.00  0.00    -0.508 OA
ATOM     27  H   UNL     1       7.553  36.212   9.455  1.00  0.00     0.293 HD
ENDBRANCH   8  26
TORSDOF 6
ENDMDL
MODEL 5
REMARK VINA RESULT:    -6.184      2.485      6.922
REMARK INTER + INTRA:          -7.909
REMARK INTER:                  -7.579
REMARK INTRA:                  -0.330
REMARK UNBOUND:                -0.460
REMARK SMILES O=c1c(O)c(-c2ccc(O)cc2O)oc2cc(O)cc(O)c12
REMARK SMILES IDX 5 1 3 2 2 3 1 4 22 5 20 6 19 7 17 8 16 9 15 10 14 11 6 12
REMARK SMILES IDX 8 13 7 14 9 15 11 16 12 17 10 18 13 20 4 22 21 24 18 26
REMARK H PARENT 10 19 13 21 4 23 21 25 18 27
REMARK Flexibility Score: inf
ROOT
ATOM      1  C   UNL     1      20.316  40.990  23.809  1.00  0.00     0.184 A 
ATOM      2  C   UNL     1      20.749  40.725  25.118  1.00  0.00     0.208 A 
ATOM      3  C   UNL     1      19.807  40.716  26.159  1.00  0.00     0.238 A 
ATOM      4  O   UNL     1      20.209  40.533  27.337  1.00  0.00    -0.285 OA
ATOM      5  C   UNL     1      18.440  40.954  25.873  1.00  0.00     0.111 A 
ATOM      6  C   UNL     1      17.394  40.930  26.844  1.00  0.00     0.134 A 
ATOM      7  C   UNL     1      16.097  41.306  26.470  1.00  0.00     0.093 A 
ATOM      8  C   UNL     1      15.797  41.642  25.150  1.00  0.00     0.123 A 
ATOM      9  C   UNL     1      16.800  41.611  24.182  1.00  0.00     0.094 A 
ATOM     10  C   UNL     1      18.111  41.276  24.531  1.00  0.00     0.146 A 
ATOM     11  O   UNL     1      19.039  41.270  23.582  1.00  0.00    -0.451 OA
ENDROOT
BRANCH   1  12
ATOM     12  C   UNL     1      21.253  40.991  22.661  1.00  0.00     0.063 A 
ATOM     13  C   UNL     1      22.077  39.972  20.610  1.00  0.00     0.047 A 
ATOM     14  C   UNL     1      21.213  39.958  21.707  1.00  0.00     0.020 A 
ATOM     15  C   UNL     1      22.984  41.021  20.442  1.00  0.00     0.119 A 
ATOM     16  C   UNL     1      23.024  42.062  21.378  1.00  0.00     0.093 A 
ATOM     17  C   UNL     1      22.162  42.055  22.484  1.00  0.00     0.130 A 
BRANCH  15  18
ATOM     18  O   UNL     1      23.840  41.020  19.342  1.00  0.00    -0.508 OA
ATOM     19  H   UNL     1      24.781  41.389  19.403  1.00  0.00     0.293 HD
ENDBRANCH  15  18
BRANCH  17  20
ATOM     20  O   UNL     1      22.216  43.094  23.412  1.00  0.00    -0.507 OA
ATOM     21  H   UNL     1      22.216  44.066  23.125  1.00  0.00     0.293 HD
ENDBRANCH  17  20
ENDBRANCH   1  12
BRANCH   2  22
ATOM     22  O   UNL     1      22.105  40.506  25.378  1.00  0.00    -0.502 OA
ATOM     23  H   UNL     1      22.798  41.240  25.303  1.00  0.00     0.293 HD
ENDBRANCH   2  22
BRANCH   6  24
ATOM     24  O   UNL     1      17.567  40.522  28.170  1.00  0.00    -0.507 OA
ATOM     25  H   UNL     1      18.281  40.870  28.790  1.00  0.00     0.293 HD
ENDBRANCH   6  24
BRANCH   8  26
ATOM     26  O   UNL     1      14.493  41.996  24.812  1.00  0.00    -0.508 OA
ATOM     27  H   UNL     1      14.236  42.225  23.859  1.00  0.00     0.293 HD
ENDBRANCH   8  26
TORSDOF 6
ENDMDL
MODEL 6
REMARK VINA RESULT:    -6.139      5.774      6.934
REMARK INTER + INTRA:          -7.855
REMARK INTER:                  -7.430
REMARK INTRA:                  -0.425
REMARK UNBOUND:                -0.460
REMARK SMILES O=c1c(O)c(-c2ccc(O)cc2O)oc2cc(O)cc(O)c12
REMARK SMILES IDX 5 1 3 2 2 3 1 4 22 5 20 6 19 7 17 8 16 9 15 10 14 11 6 12
REMARK SMILES IDX 8 13 7 14 9 15 11 16 12 17 10 18 13 20 4 22 21 24 18 26
REMARK H PARENT 10 19 13 21 4 23 21 25 18 27
REMARK Flexibility Score: inf
ROOT
ATOM      1  C   UNL     1      20.546  37.877  22.652  1.00  0.00     0.184 A 
ATOM      2  C   UNL     1      20.887  36.540  22.912  1.00  0.00     0.208 A 
ATOM      3  C   UNL     1      21.865  35.920  22.118  1.00  0.00     0.238 A 
ATOM      4  O   UNL     1      22.126  34.705  22.320  1.00  0.00    -0.285 OA
ATOM      5  C   UNL     1      22.503  36.651  21.088  1.00  0.00     0.111 A 
ATOM      6  C   UNL     1      23.536  36.135  20.248  1.00  0.00     0.134 A 
ATOM      7  C   UNL     1      24.006  36.907  19.178  1.00  0.00     0.093 A 
ATOM      8  C   UNL     1      23.527  38.198  18.956  1.00  0.00     0.123 A 
ATOM      9  C   UNL     1      22.560  38.734  19.807  1.00  0.00     0.094 A 
ATOM     10  C   UNL     1      22.045  37.975  20.861  1.00  0.00     0.146 A 
ATOM     11  O   UNL     1      21.118  38.518  21.640  1.00  0.00    -0.451 OA
ENDROOT
BRANCH   1  12
ATOM     12  C   UNL     1      19.540  38.599  23.466  1.00  0.00     0.063 A 
ATOM     13  C   UNL     1      17.221  38.987  24.097  1.00  0.00     0.047 A 
ATOM     14  C   UNL     1      18.169  38.327  23.311  1.00  0.00     0.020 A 
ATOM     15  C   UNL     1      17.628  39.918  25.056  1.00  0.00     0.119 A 
ATOM     16  C   UNL     1      18.992  40.187  25.229  1.00  0.00     0.093 A 
ATOM     17  C   UNL     1      19.949  39.531  24.442  1.00  0.00     0.130 A 
BRANCH  15  18
ATOM     18  O   UNL     1      16.671  40.567  25.832  1.00  0.00    -0.508 OA
ATOM     19  H   UNL     1      15.701  40.273  25.831  1.00  0.00     0.293 HD
ENDBRANCH  15  18
BRANCH  17  20
ATOM     20  O   UNL     1      21.304  39.813  24.620  1.00  0.00    -0.507 OA
ATOM     21  H   UNL     1      21.816  39.480  25.429  1.00  0.00     0.293 HD
ENDBRANCH  17  20
ENDBRANCH   1  12
BRANCH   2  22
ATOM     22  O   UNL     1      20.234  35.834  23.926  1.00  0.00    -0.502 OA
ATOM     23  H   UNL     1      20.046  36.238  24.835  1.00  0.00     0.293 HD
ENDBRANCH   2  22
BRANCH   6  24
ATOM     24  O   UNL     1      24.149  34.893  20.437  1.00  0.00    -0.507 OA
ATOM     25  H   UNL     1      25.120  34.762  20.676  1.00  0.00     0.293 HD
ENDBRANCH   6  24
BRANCH   8  26
ATOM     26  O   UNL     1      24.028  38.943  17.892  1.00  0.00    -0.508 OA
ATOM     27  H   UNL     1      23.583  38.935  16.983  1.00  0.00     0.293 HD
ENDBRANCH   8  26
TORSDOF 6
ENDMDL
MODEL 7
REMARK VINA RESULT:    -6.107     12.473     14.052
REMARK INTER + INTRA:          -7.816
REMARK INTER:                  -7.541
REMARK INTRA:                  -0.276
REMARK UNBOUND:                -0.460
REMARK SMILES O=c1c(O)c(-c2ccc(O)cc2O)oc2cc(O)cc(O)c12
REMARK SMILES IDX 5 1 3 2 2 3 1 4 22 5 20 6 19 7 17 8 16 9 15 10 14 11 6 12
REMARK SMILES IDX 8 13 7 14 9 15 11 16 12 17 10 18 13 20 4 22 21 24 18 26
REMARK H PARENT 10 19 13 21 4 23 21 25 18 27
REMARK Flexibility Score: inf
ROOT
ATOM      1  C   UNL     1      12.561  38.566  13.876  1.00  0.00     0.184 A 
ATOM      2  C   UNL     1      12.420  39.141  15.150  1.00  0.00     0.208 A 
ATOM      3  C   UNL     1      13.499  39.084  16.047  1.00  0.00     0.238 A 
ATOM      4  O   UNL     1      13.347  39.552  17.205  1.00  0.00    -0.285 OA
ATOM      5  C   UNL     1      14.711  38.469  15.651  1.00  0.00     0.111 A 
ATOM      6  C   UNL     1      15.882  38.390  16.464  1.00  0.00     0.134 A 
ATOM      7  C   UNL     1      16.983  37.647  16.018  1.00  0.00     0.093 A 
ATOM      8  C   UNL     1      16.979  37.035  14.764  1.00  0.00     0.123 A 
ATOM      9  C   UNL     1      15.862  37.157  13.937  1.00  0.00     0.094 A 
ATOM     10  C   UNL     1      14.735  37.861  14.369  1.00  0.00     0.146 A 
ATOM     11  O   UNL     1      13.689  37.943  13.557  1.00  0.00    -0.451 OA
ENDROOT
BRANCH   1  12
ATOM     12  C   UNL     1      11.471  38.612  12.873  1.00  0.00     0.063 A 
ATOM     13  C   UNL     1      10.617  39.356  10.719  1.00  0.00     0.047 A 
ATOM     14  C   UNL     1      11.633  39.335  11.678  1.00  0.00     0.020 A 
ATOM     15  C   UNL     1       9.433  38.648  10.934  1.00  0.00     0.119 A 
ATOM     16  C   UNL     1       9.266  37.913  12.114  1.00  0.00     0.093 A 
ATOM     17  C   UNL     1      10.280  37.888  13.083  1.00  0.00     0.130 A 
BRANCH  15  18
ATOM     18  O   UNL     1       8.429  38.680   9.967  1.00  0.00    -0.508 OA
ATOM     19  H   UNL     1       8.042  39.555   9.635  1.00  0.00     0.293 HD
ENDBRANCH  15  18
BRANCH  17  20
ATOM     20  O   UNL     1      10.098  37.158  14.257  1.00  0.00    -0.507 OA
ATOM     21  H   UNL     1       9.477  36.358  14.296  1.00  0.00     0.293 HD
ENDBRANCH  17  20
ENDBRANCH   1  12
BRANCH   2  22
ATOM     22  O   UNL     1      11.209  39.731  15.523  1.00  0.00    -0.502 OA
ATOM     23  H   UNL     1      10.836  39.661  16.462  1.00  0.00     0.293 HD
ENDBRANCH   2  22
BRANCH   6  24
ATOM     24  O   UNL     1      16.025  39.039  17.694  1.00  0.00    -0.507 OA
ATOM     25  H   UNL     1      15.611  38.728  18.559  1.00  0.00     0.293 HD
ENDBRANCH   6  24
BRANCH   8  26
ATOM     26  O   UNL     1      18.097  36.317  14.347  1.00  0.00    -0.508 OA
ATOM     27  H   UNL     1      18.828  36.749  13.795  1.00  0.00     0.293 HD
ENDBRANCH   8  26
TORSDOF 6
ENDMDL
MODEL 8
REMARK VINA RESULT:    -6.020     12.323     14.879
REMARK INTER + INTRA:          -7.712
REMARK INTER:                  -7.249
REMARK INTRA:                  -0.463
REMARK UNBOUND:                -0.460
REMARK SMILES O=c1c(O)c(-c2ccc(O)cc2O)oc2cc(O)cc(O)c12
REMARK SMILES IDX 5 1 3 2 2 3 1 4 22 5 20 6 19 7 17 8 16 9 15 10 14 11 6 12
REMARK SMILES IDX 8 13 7 14 9 15 11 16 12 17 10 18 13 20 4 22 21 24 18 26
REMARK H PARENT 10 19 13 21 4 23 21 25 18 27
REMARK Flexibility Score: inf
ROOT
ATOM      1  C   UNL     1      12.340  37.757  15.303  1.00  0.00     0.184 A 
ATOM      2  C   UNL     1      13.300  38.455  14.552  1.00  0.00     0.208 A 
ATOM      3  C   UNL     1      13.034  38.743  13.204  1.00  0.00     0.238 A 
ATOM      4  O   UNL     1      13.923  39.318  12.523  1.00  0.00    -0.285 OA
ATOM      5  C   UNL     1      11.803  38.346  12.629  1.00  0.00     0.111 A 
ATOM      6  C   UNL     1      11.411  38.620  11.284  1.00  0.00     0.134 A 
ATOM      7  C   UNL     1      10.223  38.070  10.786  1.00  0.00     0.093 A 
ATOM      8  C   UNL     1       9.384  37.310  11.600  1.00  0.00     0.123 A 
ATOM      9  C   UNL     1       9.728  37.086  12.933  1.00  0.00     0.094 A 
ATOM     10  C   UNL     1      10.924  37.592  13.450  1.00  0.00     0.146 A 
ATOM     11  O   UNL     1      11.220  37.346  14.720  1.00  0.00    -0.451 OA
ENDROOT
BRANCH   1  12
ATOM     12  C   UNL     1      12.546  37.442  16.736  1.00  0.00     0.063 A 
ATOM     13  C   UNL     1      12.396  38.083  19.079  1.00  0.00     0.047 A 
ATOM     14  C   UNL     1      12.228  38.389  17.727  1.00  0.00     0.020 A 
ATOM     15  C   UNL     1      12.871  36.826  19.463  1.00  0.00     0.119 A 
ATOM     16  C   UNL     1      13.177  35.871  18.486  1.00  0.00     0.093 A 
ATOM     17  C   UNL     1      13.014  36.171  17.125  1.00  0.00     0.130 A 
BRANCH  15  18
ATOM     18  O   UNL     1      13.032  36.537  20.816  1.00  0.00    -0.508 OA
ATOM     19  H   UNL     1      12.361  36.851  21.508  1.00  0.00     0.293 HD
ENDBRANCH  15  18
BRANCH  17  20
ATOM     20  O   UNL     1      13.329  35.213  16.162  1.00  0.00    -0.507 OA
ATOM     21  H   UNL     1      14.240  35.181  15.720  1.00  0.00     0.293 HD
ENDBRANCH  17  20
ENDBRANCH   1  12
BRANCH   2  22
ATOM     22  O   UNL     1      14.515  38.824  15.138  1.00  0.00    -0.502 OA
ATOM     23  H   UNL     1      15.006  39.671  14.882  1.00  0.00     0.293 HD
ENDBRANCH   2  22
BRANCH   6  24
ATOM     24  O   UNL     1      12.131  39.443  10.413  1.00  0.00    -0.507 OA
ATOM     25  H   UNL     1      12.045  40.446  10.366  1.00  0.00     0.293 HD
ENDBRANCH   6  24
BRANCH   8  26
ATOM     26  O   UNL     1       8.203  36.791  11.075  1.00  0.00    -0.508 OA
ATOM     27  H   UNL     1       8.200  35.957  10.501  1.00  0.00     0.293 HD
ENDBRANCH   8  26
TORSDOF 6
ENDMDL
MODEL 9
REMARK VINA RESULT:    -5.982     10.495     12.784
REMARK INTER + INTRA:          -7.667
REMARK INTER:                  -7.188
REMARK INTRA:                  -0.479
REMARK UNBOUND:                -0.460
REMARK SMILES O=c1c(O)c(-c2ccc(O)cc2O)oc2cc(O)cc(O)c12
REMARK SMILES IDX 5 1 3 2 2 3 1 4 22 5 20 6 19 7 17 8 16 9 15 10 14 11 6 12
REMARK SMILES IDX 8 13 7 14 9 15 11 16 12 17 10 18 13 20 4 22 21 24 18 26
REMARK H PARENT 10 19 13 21 4 23 21 25 18 27
REMARK Flexibility Score: inf
ROOT
ATOM      1  C   UNL     1      12.530  36.999  16.526  1.00  0.00     0.184 A 
ATOM      2  C   UNL     1      13.172  35.750  16.569  1.00  0.00     0.208 A 
ATOM      3  C   UNL     1      13.481  35.185  17.816  1.00  0.00     0.238 A 
ATOM      4  O   UNL     1      14.106  34.093  17.847  1.00  0.00    -0.285 OA
ATOM      5  C   UNL     1      13.128  35.868  19.005  1.00  0.00     0.111 A 
ATOM      6  C   UNL     1      13.357  35.371  20.323  1.00  0.00     0.134 A 
ATOM      7  C   UNL     1      13.082  36.188  21.427  1.00  0.00     0.093 A 
ATOM      8  C   UNL     1      12.527  37.457  21.263  1.00  0.00     0.123 A 
ATOM      9  C   UNL     1      12.243  37.929  19.981  1.00  0.00     0.094 A 
ATOM     10  C   UNL     1      12.541  37.152  18.859  1.00  0.00     0.146 A 
ATOM     11  O   UNL     1      12.266  37.642  17.657  1.00  0.00    -0.451 OA
ENDROOT
BRANCH   1  12
ATOM     12  C   UNL     1      12.153  37.640  15.245  1.00  0.00     0.063 A 
ATOM     13  C   UNL     1      10.690  37.777  13.304  1.00  0.00     0.047 A 
ATOM     14  C   UNL     1      11.064  37.155  14.498  1.00  0.00     0.020 A 
ATOM     15  C   UNL     1      11.389  38.895  12.844  1.00  0.00     0.119 A 
ATOM     16  C   UNL     1      12.467  39.395  13.585  1.00  0.00     0.093 A 
ATOM     17  C   UNL     1      12.851  38.776  14.784  1.00  0.00     0.130 A 
BRANCH  15  18
ATOM     18  O   UNL     1      11.004  39.503  11.651  1.00  0.00    -0.508 OA
ATOM     19  H   UNL     1      11.361  40.412  11.381  1.00  0.00     0.293 HD
ENDBRANCH  15  18
BRANCH  17  20
ATOM     20  O   UNL     1      13.930  39.279  15.510  1.00  0.00    -0.507 OA
ATOM     21  H   UNL     1      14.768  39.618  15.052  1.00  0.00     0.293 HD
ENDBRANCH  17  20
ENDBRANCH   1  12
BRANCH   2  22
ATOM     22  O   UNL     1      13.523  35.101  15.381  1.00  0.00    -0.502 OA
ATOM     23  H   UNL     1      14.193  35.488  14.728  1.00  0.00     0.293 HD
ENDBRANCH   2  22
BRANCH   6  24
ATOM     24  O   UNL     1      13.824  34.083  20.603  1.00  0.00    -0.507 OA
ATOM     25  H   UNL     1      14.693  33.875  21.069  1.00  0.00     0.293 HD
ENDBRANCH   6  24
BRANCH   8  26
ATOM     26  O   UNL     1      12.252  38.236  22.384  1.00  0.00    -0.508 OA
ATOM     27  H   UNL     1      11.797  39.138  22.304  1.00  0.00     0.293 HD
ENDBRANCH   8  26
TORSDOF 6
ENDMDL
