MODEL 1
REMARK VINA RESULT:    -3.477      0.000      0.000
REMARK INTER + INTRA:          -8.356
REMARK INTER:                  -6.323
REMARK INTRA:                  -2.033
REMARK UNBOUND:                -2.033
REMARK SMILES CCCCCCCCCCCCCCCC(=O)[O-]
REMARK SMILES IDX 9 1 10 2 11 3 12 4 13 5 14 6 15 7 16 8 17 9 18 10 8 11 7 12
REMARK SMILES IDX 6 13 5 14 4 15 3 16 2 17 1 18
REMARK H PARENT
REMARK Flexibility Score: inf
ROOT
ATOM      1  C   UNL     1     -95.415 148.112 240.245  1.00  0.00     0.000 C 
ENDROOT
BRANCH   1   2
ATOM      2  C   UNL     1     -96.745 148.717 240.726  1.00  0.00     0.000 C 
BRANCH   2   3
ATOM      3  C   UNL     1     -96.814 150.239 240.509  1.00  0.00     0.000 C 
BRANCH   3   4
ATOM      4  C   UNL     1     -98.240 150.801 240.654  1.00  0.00     0.000 C 
BRANCH   4   5
ATOM      5  C   UNL     1     -99.264 149.837 241.281  1.00  0.00     0.000 C 
BRANCH   5   6
ATOM      6  C   UNL     1     -99.811 150.336 242.629  1.00  0.00     0.006 C 
BRANCH   6   7
ATOM      7  C   UNL     1     -98.692 150.609 243.642  1.00  0.00     0.053 C 
BRANCH   7   8
ATOM      8  C   UNL     1     -99.085 151.662 244.634  1.00  0.00     0.041 C 
ATOM      9  O   UNL     1    -100.241 152.163 244.602  1.00  0.00    -0.550 OA
ATOM     10  O   UNL     1     -98.184 152.071 245.608  1.00  0.00    -0.550 OA
ENDBRANCH   7   8
ENDBRANCH   6   7
ENDBRANCH   5   6
ENDBRANCH   4   5
ENDBRANCH   3   4
ENDBRANCH   2   3
ENDBRANCH   1   2
BRANCH   1  11
ATOM     11  C   UNL     1     -94.538 149.134 239.501  1.00  0.00     0.000 C 
BRANCH  11  12
ATOM     12  C   UNL     1     -93.826 148.525 238.282  1.00  0.00    -0.000 C 
BRANCH  12  13
ATOM     13  C   UNL     1     -94.767 148.343 237.078  1.00  0.00    -0.000 C 
BRANCH  13  14
ATOM     14  C   UNL     1     -95.536 149.629 236.723  1.00  0.00    -0.000 C 
BRANCH  14  15
ATOM     15  C   UNL     1     -96.983 149.414 236.235  1.00  0.00    -0.000 C 
BRANCH  15  16
ATOM     16  C   UNL     1     -97.910 148.689 237.233  1.00  0.00    -0.000 C 
BRANCH  16  17
ATOM     17  C   UNL     1     -99.292 149.337 237.418  1.00  0.00    -0.003 C 
ATOM     18  C   UNL     1     -99.289 150.838 237.134  1.00  0.00     0.004 C 
ENDBRANCH  16  17
ENDBRANCH  15  16
ENDBRANCH  14  15
ENDBRANCH  13  14
ENDBRANCH  12  13
ENDBRANCH  11  12
ENDBRANCH   1  11
TORSDOF 14
ENDMDL
MODEL 2
REMARK VINA RESULT:    -3.415      4.316      6.747
REMARK INTER + INTRA:          -8.243
REMARK INTER:                  -6.029
REMARK INTRA:                  -2.213
REMARK UNBOUND:                -2.033
REMARK SMILES CCCCCCCCCCCCCCCC(=O)[O-]
REMARK SMILES IDX 9 1 10 2 11 3 12 4 13 5 14 6 15 7 16 8 17 9 18 10 8 11 7 12
REMARK SMILES IDX 6 13 5 14 4 15 3 16 2 17 1 18
REMARK H PARENT
REMARK Flexibility Score: inf
ROOT
ATOM      1  C   UNL     1     -94.815 149.080 239.730  1.00  0.00     0.000 C 
ENDROOT
BRANCH   1   2
ATOM      2  C   UNL     1     -93.998 149.022 238.429  1.00  0.00     0.000 C 
BRANCH   2   3
ATOM      3  C   UNL     1     -93.735 147.581 237.960  1.00  0.00     0.000 C 
BRANCH   3   4
ATOM      4  C   UNL     1     -94.286 147.299 236.549  1.00  0.00     0.000 C 
BRANCH   4   5
ATOM      5  C   UNL     1     -95.529 148.118 236.156  1.00  0.00     0.000 C 
BRANCH   5   6
ATOM      6  C   UNL     1     -95.296 149.010 234.925  1.00  0.00     0.006 C 
BRANCH   6   7
ATOM      7  C   UNL     1     -95.790 150.445 235.148  1.00  0.00     0.053 C 
BRANCH   7   8
ATOM      8  C   UNL     1     -95.752 151.248 233.884  1.00  0.00     0.041 C 
ATOM      9  O   UNL     1     -95.480 150.692 232.787  1.00  0.00    -0.550 OA
ATOM     10  O   UNL     1     -96.044 152.606 233.913  1.00  0.00    -0.550 OA
ENDBRANCH   7   8
ENDBRANCH   6   7
ENDBRANCH   5   6
ENDBRANCH   4   5
ENDBRANCH   3   4
ENDBRANCH   2   3
ENDBRANCH   1   2
BRANCH   1  11
ATOM     11  C   UNL     1     -95.054 147.686 240.338  1.00  0.00     0.000 C 
BRANCH  11  12
ATOM     12  C   UNL     1     -96.547 147.369 240.521  1.00  0.00    -0.000 C 
BRANCH  12  13
ATOM     13  C   UNL     1     -97.263 147.106 239.184  1.00  0.00    -0.000 C 
BRANCH  13  14
ATOM     14  C   UNL     1     -98.492 148.011 238.978  1.00  0.00    -0.000 C 
BRANCH  14  15
ATOM     15  C   UNL     1     -98.182 149.431 238.466  1.00  0.00    -0.000 C 
BRANCH  15  16
ATOM     16  C   UNL     1     -98.680 150.578 239.369  1.00  0.00    -0.000 C 
BRANCH  16  17
ATOM     17  C   UNL     1     -97.800 150.861 240.598  1.00  0.00    -0.003 C 
ATOM     18  C   UNL     1     -98.401 150.324 241.897  1.00  0.00     0.004 C 
ENDBRANCH  16  17
ENDBRANCH  15  16
ENDBRANCH  14  15
ENDBRANCH  13  14
ENDBRANCH  12  13
ENDBRANCH  11  12
ENDBRANCH   1  11
TORSDOF 14
ENDMDL
MODEL 3
REMARK VINA RESULT:    -3.392      1.675      3.053
REMARK INTER + INTRA:          -8.201
REMARK INTER:                  -5.840
REMARK INTRA:                  -2.361
REMARK UNBOUND:                -2.033
REMARK SMILES CCCCCCCCCCCCCCCC(=O)[O-]
REMARK SMILES IDX 9 1 10 2 11 3 12 4 13 5 14 6 15 7 16 8 17 9 18 10 8 11 7 12
REMARK SMILES IDX 6 13 5 14 4 15 3 16 2 17 1 18
REMARK H PARENT
REMARK Flexibility Score: inf
ROOT
ATOM      1  C   UNL     1     -93.754 147.702 237.671  1.00  0.00     0.000 C 
ENDROOT
BRANCH   1   2
ATOM      2  C   UNL     1     -94.277 149.115 237.981  1.00  0.00     0.000 C 
BRANCH   2   3
ATOM      3  C   UNL     1     -94.475 149.355 239.487  1.00  0.00     0.000 C 
BRANCH   3   4
ATOM      4  C   UNL     1     -95.348 148.277 240.157  1.00  0.00     0.000 C 
BRANCH   4   5
ATOM      5  C   UNL     1     -96.677 148.784 240.746  1.00  0.00     0.000 C 
BRANCH   5   6
ATOM      6  C   UNL     1     -96.852 150.306 240.611  1.00  0.00     0.006 C 
BRANCH   6   7
ATOM      7  C   UNL     1     -98.327 150.712 240.501  1.00  0.00     0.053 C 
BRANCH   7   8
ATOM      8  C   UNL     1     -99.104 150.319 241.720  1.00  0.00     0.041 C 
ATOM      9  O   UNL     1    -100.134 149.602 241.613  1.00  0.00    -0.550 OA
ATOM     10  O   UNL     1     -98.676 150.724 242.978  1.00  0.00    -0.550 OA
ENDBRANCH   7   8
ENDBRANCH   6   7
ENDBRANCH   5   6
ENDBRANCH   4   5
ENDBRANCH   3   4
ENDBRANCH   2   3
ENDBRANCH   1   2
BRANCH   1  11
ATOM     11  C   UNL     1     -94.644 146.952 236.665  1.00  0.00     0.000 C 
BRANCH  11  12
ATOM     12  C   UNL     1     -94.247 147.228 235.205  1.00  0.00    -0.000 C 
BRANCH  12  13
ATOM     13  C   UNL     1     -95.382 147.883 234.399  1.00  0.00    -0.000 C 
BRANCH  13  14
ATOM     14  C   UNL     1     -95.227 149.411 234.285  1.00  0.00    -0.000 C 
BRANCH  14  15
ATOM     15  C   UNL     1     -96.262 150.235 235.077  1.00  0.00    -0.000 C 
BRANCH  15  16
ATOM     16  C   UNL     1     -97.519 149.458 235.519  1.00  0.00    -0.000 C 
BRANCH  16  17
ATOM     17  C   UNL     1     -97.737 149.393 237.040  1.00  0.00    -0.003 C 
ATOM     18  C   UNL     1     -98.103 147.992 237.529  1.00  0.00     0.004 C 
ENDBRANCH  16  17
ENDBRANCH  15  16
ENDBRANCH  14  15
ENDBRANCH  13  14
ENDBRANCH  12  13
ENDBRANCH  11  12
ENDBRANCH   1  11
TORSDOF 14
ENDMDL
MODEL 4
REMARK VINA RESULT:    -3.383      4.632      7.137
REMARK INTER + INTRA:          -8.186
REMARK INTER:                  -6.918
REMARK INTRA:                  -1.268
REMARK UNBOUND:                -2.033
REMARK SMILES CCCCCCCCCCCCCCCC(=O)[O-]
REMARK SMILES IDX 9 1 10 2 11 3 12 4 13 5 14 6 15 7 16 8 17 9 18 10 8 11 7 12
REMARK SMILES IDX 6 13 5 14 4 15 3 16 2 17 1 18
REMARK H PARENT
REMARK Flexibility Score: inf
ROOT
ATOM      1  C   UNL     1     -96.692 149.855 235.607  1.00  0.00     0.000 C 
ENDROOT
BRANCH   1   2
ATOM      2  C   UNL     1     -95.496 150.377 234.793  1.00  0.00     0.000 C 
BRANCH   2   3
ATOM      3  C   UNL     1     -95.897 150.825 233.377  1.00  0.00     0.000 C 
BRANCH   3   4
ATOM      4  C   UNL     1     -96.132 152.344 233.271  1.00  0.00     0.000 C 
BRANCH   4   5
ATOM      5  C   UNL     1     -97.600 152.768 233.086  1.00  0.00     0.000 C 
BRANCH   5   6
ATOM      6  C   UNL     1     -98.176 153.490 234.316  1.00  0.00     0.006 C 
BRANCH   6   7
ATOM      7  C   UNL     1     -97.332 154.705 234.722  1.00  0.00     0.053 C 
BRANCH   7   8
ATOM      8  C   UNL     1     -98.089 155.987 234.558  1.00  0.00     0.041 C 
ATOM      9  O   UNL     1     -97.479 157.053 234.280  1.00  0.00    -0.550 OA
ATOM     10  O   UNL     1     -99.472 156.000 234.686  1.00  0.00    -0.550 OA
ENDBRANCH   7   8
ENDBRANCH   6   7
ENDBRANCH   5   6
ENDBRANCH   4   5
ENDBRANCH   3   4
ENDBRANCH   2   3
ENDBRANCH   1   2
BRANCH   1  11
ATOM     11  C   UNL     1     -96.273 149.309 236.984  1.00  0.00     0.000 C 
BRANCH  11  12
ATOM     12  C   UNL     1     -94.784 149.547 237.286  1.00  0.00    -0.000 C 
BRANCH  12  13
ATOM     13  C   UNL     1     -94.255 148.633 238.405  1.00  0.00    -0.000 C 
BRANCH  13  14
ATOM     14  C   UNL     1     -94.707 149.084 239.806  1.00  0.00    -0.000 C 
BRANCH  14  15
ATOM     15  C   UNL     1     -95.756 148.175 240.480  1.00  0.00    -0.000 C 
BRANCH  15  16
ATOM     16  C   UNL     1     -97.138 148.822 240.701  1.00  0.00    -0.000 C 
BRANCH  16  17
ATOM     17  C   UNL     1     -97.141 150.360 240.692  1.00  0.00    -0.003 C 
ATOM     18  C   UNL     1     -98.308 150.948 239.900  1.00  0.00     0.004 C 
ENDBRANCH  16  17
ENDBRANCH  15  16
ENDBRANCH  14  15
ENDBRANCH  13  14
ENDBRANCH  12  13
ENDBRANCH  11  12
ENDBRANCH   1  11
TORSDOF 14
ENDMDL
MODEL 5
REMARK VINA RESULT:    -3.346      4.693      7.456
REMARK INTER + INTRA:          -8.118
REMARK INTER:                  -6.387
REMARK INTRA:                  -1.731
REMARK UNBOUND:                -2.033
REMARK SMILES CCCCCCCCCCCCCCCC(=O)[O-]
REMARK SMILES IDX 9 1 10 2 11 3 12 4 13 5 14 6 15 7 16 8 17 9 18 10 8 11 7 12
REMARK SMILES IDX 6 13 5 14 4 15 3 16 2 17 1 18
REMARK H PARENT
REMARK Flexibility Score: inf
ROOT
ATOM      1  C   UNL     1     -95.617 148.659 236.410  1.00  0.00     0.000 C 
ENDROOT
BRANCH   1   2
ATOM      2  C   UNL     1     -94.971 147.352 235.923  1.00  0.00     0.000 C 
BRANCH   2   3
ATOM      3  C   UNL     1     -93.882 147.591 234.863  1.00  0.00     0.000 C 
BRANCH   3   4
ATOM      4  C   UNL     1     -94.455 147.783 233.446  1.00  0.00     0.000 C 
BRANCH   4   5
ATOM      5  C   UNL     1     -94.364 149.216 232.892  1.00  0.00     0.000 C 
BRANCH   5   6
ATOM      6  C   UNL     1     -95.696 149.981 232.983  1.00  0.00     0.006 C 
BRANCH   6   7
ATOM      7  C   UNL     1     -95.590 151.223 233.876  1.00  0.00     0.053 C 
BRANCH   7   8
ATOM      8  C   UNL     1     -96.131 152.444 233.196  1.00  0.00     0.041 C 
ATOM      9  O   UNL     1     -96.052 152.560 231.944  1.00  0.00    -0.550 OA
ATOM     10  O   UNL     1     -96.744 153.442 233.942  1.00  0.00    -0.550 OA
ENDBRANCH   7   8
ENDBRANCH   6   7
ENDBRANCH   5   6
ENDBRANCH   4   5
ENDBRANCH   3   4
ENDBRANCH   2   3
ENDBRANCH   1   2
BRANCH   1  11
ATOM     11  C   UNL     1     -94.782 149.360 237.496  1.00  0.00     0.000 C 
BRANCH  11  12
ATOM     12  C   UNL     1     -94.337 148.400 238.610  1.00  0.00    -0.000 C 
BRANCH  12  13
ATOM     13  C   UNL     1     -95.010 148.708 239.959  1.00  0.00    -0.000 C 
BRANCH  13  14
ATOM     14  C   UNL     1     -95.707 150.082 239.978  1.00  0.00    -0.000 C 
BRANCH  14  15
ATOM     15  C   UNL     1     -97.035 150.132 240.758  1.00  0.00    -0.000 C 
BRANCH  15  16
ATOM     16  C   UNL     1     -98.242 150.670 239.964  1.00  0.00    -0.000 C 
BRANCH  16  17
ATOM     17  C   UNL     1     -98.406 150.074 238.555  1.00  0.00    -0.003 C 
ATOM     18  C   UNL     1     -98.796 148.597 238.576  1.00  0.00     0.004 C 
ENDBRANCH  16  17
ENDBRANCH  15  16
ENDBRANCH  14  15
ENDBRANCH  13  14
ENDBRANCH  12  13
ENDBRANCH  11  12
ENDBRANCH   1  11
TORSDOF 14
ENDMDL
MODEL 6
REMARK VINA RESULT:    -3.338      4.015      6.659
REMARK INTER + INTRA:          -8.104
REMARK INTER:                  -6.494
REMARK INTRA:                  -1.610
REMARK UNBOUND:                -2.033
REMARK SMILES CCCCCCCCCCCCCCCC(=O)[O-]
REMARK SMILES IDX 9 1 10 2 11 3 12 4 13 5 14 6 15 7 16 8 17 9 18 10 8 11 7 12
REMARK SMILES IDX 6 13 5 14 4 15 3 16 2 17 1 18
REMARK H PARENT
REMARK Flexibility Score: inf
ROOT
ATOM      1  C   UNL     1     -95.339 148.919 236.220  1.00  0.00     0.000 C 
ENDROOT
BRANCH   1   2
ATOM      2  C   UNL     1     -96.222 149.944 235.490  1.00  0.00     0.000 C 
BRANCH   2   3
ATOM      3  C   UNL     1     -95.645 150.354 234.124  1.00  0.00     0.000 C 
BRANCH   3   4
ATOM      4  C   UNL     1     -95.775 151.863 233.845  1.00  0.00     0.000 C 
BRANCH   4   5
ATOM      5  C   UNL     1     -96.699 152.235 232.672  1.00  0.00     0.000 C 
BRANCH   5   6
ATOM      6  C   UNL     1     -97.496 153.527 232.922  1.00  0.00     0.006 C 
BRANCH   6   7
ATOM      7  C   UNL     1     -97.517 153.916 234.406  1.00  0.00     0.053 C 
BRANCH   7   8
ATOM      8  C   UNL     1     -98.805 153.528 235.064  1.00  0.00     0.041 C 
ATOM      9  O   UNL     1     -98.961 152.362 235.517  1.00  0.00    -0.550 OA
ATOM     10  O   UNL     1     -99.825 154.461 235.203  1.00  0.00    -0.550 OA
ENDBRANCH   7   8
ENDBRANCH   6   7
ENDBRANCH   5   6
ENDBRANCH   4   5
ENDBRANCH   3   4
ENDBRANCH   2   3
ENDBRANCH   1   2
BRANCH   1  11
ATOM     11  C   UNL     1     -94.807 149.451 237.563  1.00  0.00     0.000 C 
BRANCH  11  12
ATOM     12  C   UNL     1     -94.618 148.337 238.606  1.00  0.00    -0.000 C 
BRANCH  12  13
ATOM     13  C   UNL     1     -95.240 148.692 239.968  1.00  0.00    -0.000 C 
BRANCH  13  14
ATOM     14  C   UNL     1     -95.842 150.109 239.998  1.00  0.00    -0.000 C 
BRANCH  14  15
ATOM     15  C   UNL     1     -97.168 150.242 240.771  1.00  0.00    -0.000 C 
BRANCH  15  16
ATOM     16  C   UNL     1     -98.387 150.648 239.918  1.00  0.00    -0.000 C 
BRANCH  16  17
ATOM     17  C   UNL     1     -98.415 150.047 238.503  1.00  0.00    -0.003 C 
ATOM     18  C   UNL     1     -98.842 148.579 238.488  1.00  0.00     0.004 C 
ENDBRANCH  16  17
ENDBRANCH  15  16
ENDBRANCH  14  15
ENDBRANCH  13  14
ENDBRANCH  12  13
ENDBRANCH  11  12
ENDBRANCH   1  11
TORSDOF 14
ENDMDL
MODEL 7
REMARK VINA RESULT:    -3.319      3.948      6.449
REMARK INTER + INTRA:          -8.068
REMARK INTER:                  -6.086
REMARK INTRA:                  -1.981
REMARK UNBOUND:                -2.033
REMARK SMILES CCCCCCCCCCCCCCCC(=O)[O-]
REMARK SMILES IDX 9 1 10 2 11 3 12 4 13 5 14 6 15 7 16 8 17 9 18 10 8 11 7 12
REMARK SMILES IDX 6 13 5 14 4 15 3 16 2 17 1 18
REMARK H PARENT
REMARK Flexibility Score: inf
ROOT
ATOM      1  C   UNL     1     -94.581 149.107 239.403  1.00  0.00     0.000 C 
ENDROOT
BRANCH   1   2
ATOM      2  C   UNL     1     -94.297 148.784 237.927  1.00  0.00     0.000 C 
BRANCH   2   3
ATOM      3  C   UNL     1     -95.028 149.734 236.963  1.00  0.00     0.000 C 
BRANCH   3   4
ATOM      4  C   UNL     1     -95.884 148.990 235.921  1.00  0.00     0.000 C 
BRANCH   4   5
ATOM      5  C   UNL     1     -96.446 149.867 234.788  1.00  0.00     0.000 C 
BRANCH   5   6
ATOM      6  C   UNL     1     -95.720 151.217 234.658  1.00  0.00     0.006 C 
BRANCH   6   7
ATOM      7  C   UNL     1     -96.345 152.109 233.578  1.00  0.00     0.053 C 
BRANCH   7   8
ATOM      8  C   UNL     1     -97.372 153.039 234.151  1.00  0.00     0.041 C 
ATOM      9  O   UNL     1     -98.577 152.680 234.232  1.00  0.00    -0.550 OA
ATOM     10  O   UNL     1     -96.993 154.290 234.619  1.00  0.00    -0.550 OA
ENDBRANCH   7   8
ENDBRANCH   6   7
ENDBRANCH   5   6
ENDBRANCH   4   5
ENDBRANCH   3   4
ENDBRANCH   2   3
ENDBRANCH   1   2
BRANCH   1  11
ATOM     11  C   UNL     1     -95.556 148.105 240.048  1.00  0.00     0.000 C 
BRANCH  11  12
ATOM     12  C   UNL     1     -96.712 148.798 240.787  1.00  0.00    -0.000 C 
BRANCH  12  13
ATOM     13  C   UNL     1     -96.851 150.282 240.405  1.00  0.00    -0.000 C 
BRANCH  13  14
ATOM     14  C   UNL     1     -98.271 150.829 240.647  1.00  0.00    -0.000 C 
BRANCH  14  15
ATOM     15  C   UNL     1     -99.245 150.668 239.464  1.00  0.00    -0.000 C 
BRANCH  15  16
ATOM     16  C   UNL     1     -98.600 150.205 238.142  1.00  0.00    -0.000 C 
BRANCH  16  17
ATOM     17  C   UNL     1     -99.288 149.002 237.474  1.00  0.00    -0.003 C 
ATOM     18  C   UNL     1     -98.693 147.662 237.906  1.00  0.00     0.004 C 
ENDBRANCH  16  17
ENDBRANCH  15  16
ENDBRANCH  14  15
ENDBRANCH  13  14
ENDBRANCH  12  13
ENDBRANCH  11  12
ENDBRANCH   1  11
TORSDOF 14
ENDMDL
MODEL 8
REMARK VINA RESULT:    -3.315      1.259      2.066
REMARK INTER + INTRA:          -8.061
REMARK INTER:                  -6.397
REMARK INTRA:                  -1.663
REMARK UNBOUND:                -2.033
REMARK SMILES CCCCCCCCCCCCCCCC(=O)[O-]
REMARK SMILES IDX 9 1 10 2 11 3 12 4 13 5 14 6 15 7 16 8 17 9 18 10 8 11 7 12
REMARK SMILES IDX 6 13 5 14 4 15 3 16 2 17 1 18
REMARK H PARENT
REMARK Flexibility Score: inf
ROOT
ATOM      1  C   UNL     1     -95.957 149.923 239.990  1.00  0.00     0.000 C 
ENDROOT
BRANCH   1   2
ATOM      2  C   UNL     1     -97.161 150.583 240.681  1.00  0.00     0.000 C 
BRANCH   2   3
ATOM      3  C   UNL     1     -98.168 149.554 241.224  1.00  0.00     0.000 C 
BRANCH   3   4
ATOM      4  C   UNL     1     -98.322 149.615 242.755  1.00  0.00     0.000 C 
BRANCH   4   5
ATOM      5  C   UNL     1     -99.774 149.651 243.267  1.00  0.00     0.000 C 
BRANCH   5   6
ATOM      6  C   UNL     1    -100.164 151.012 243.868  1.00  0.00     0.006 C 
BRANCH   6   7
ATOM      7  C   UNL     1     -98.967 151.730 244.503  1.00  0.00     0.053 C 
BRANCH   7   8
ATOM      8  C   UNL     1     -99.154 151.927 245.977  1.00  0.00     0.041 C 
ATOM      9  O   UNL     1     -99.060 153.078 246.479  1.00  0.00    -0.550 OA
ATOM     10  O   UNL     1     -99.460 150.844 246.790  1.00  0.00    -0.550 OA
ENDBRANCH   7   8
ENDBRANCH   6   7
ENDBRANCH   5   6
ENDBRANCH   4   5
ENDBRANCH   3   4
ENDBRANCH   2   3
ENDBRANCH   1   2
BRANCH   1  11
ATOM     11  C   UNL     1     -95.820 148.431 240.343  1.00  0.00     0.000 C 
BRANCH  11  12
ATOM     12  C   UNL     1     -94.662 147.751 239.595  1.00  0.00    -0.000 C 
BRANCH  12  13
ATOM     13  C   UNL     1     -94.082 148.634 238.476  1.00  0.00    -0.000 C 
BRANCH  13  14
ATOM     14  C   UNL     1     -93.965 147.893 237.131  1.00  0.00    -0.000 C 
BRANCH  14  15
ATOM     15  C   UNL     1     -95.010 148.292 236.071  1.00  0.00    -0.000 C 
BRANCH  15  16
ATOM     16  C   UNL     1     -95.713 149.643 236.318  1.00  0.00    -0.000 C 
BRANCH  16  17
ATOM     17  C   UNL     1     -97.236 149.552 236.512  1.00  0.00    -0.003 C 
ATOM     18  C   UNL     1     -97.682 148.219 237.112  1.00  0.00     0.004 C 
ENDBRANCH  16  17
ENDBRANCH  15  16
ENDBRANCH  14  15
ENDBRANCH  13  14
ENDBRANCH  12  13
ENDBRANCH  11  12
ENDBRANCH   1  11
TORSDOF 14
ENDMDL
MODEL 9
REMARK VINA RESULT:    -3.179      4.551      7.180
REMARK INTER + INTRA:          -7.813
REMARK INTER:                  -5.600
REMARK INTRA:                  -2.213
REMARK UNBOUND:                -2.033
REMARK SMILES CCCCCCCCCCCCCCCC(=O)[O-]
REMARK SMILES IDX 9 1 10 2 11 3 12 4 13 5 14 6 15 7 16 8 17 9 18 10 8 11 7 12
REMARK SMILES IDX 6 13 5 14 4 15 3 16 2 17 1 18
REMARK H PARENT
REMARK Flexibility Score: inf
ROOT
ATOM      1  C   UNL     1     -94.953 149.509 239.474  1.00  0.00     0.000 C 
ENDROOT
BRANCH   1   2
ATOM      2  C   UNL     1     -94.340 149.160 238.108  1.00  0.00     0.000 C 
BRANCH   2   3
ATOM      3  C   UNL     1     -93.872 147.697 238.027  1.00  0.00     0.000 C 
BRANCH   3   4
ATOM      4  C   UNL     1     -94.432 146.954 236.800  1.00  0.00     0.000 C 
BRANCH   4   5
ATOM      5  C   UNL     1     -94.012 147.533 235.436  1.00  0.00     0.000 C 
BRANCH   5   6
ATOM      6  C   UNL     1     -95.211 147.922 234.555  1.00  0.00     0.006 C 
BRANCH   6   7
ATOM      7  C   UNL     1     -95.457 149.437 234.548  1.00  0.00     0.053 C 
BRANCH   7   8
ATOM      8  C   UNL     1     -95.774 149.942 233.173  1.00  0.00     0.041 C 
ATOM      9  O   UNL     1     -95.049 149.617 232.195  1.00  0.00    -0.550 OA
ATOM     10  O   UNL     1     -96.884 150.750 232.967  1.00  0.00    -0.550 OA
ENDBRANCH   7   8
ENDBRANCH   6   7
ENDBRANCH   5   6
ENDBRANCH   4   5
ENDBRANCH   3   4
ENDBRANCH   2   3
ENDBRANCH   1   2
BRANCH   1  11
ATOM     11  C   UNL     1     -95.762 148.344 240.072  1.00  0.00     0.000 C 
BRANCH  11  12
ATOM     12  C   UNL     1     -96.908 148.824 240.977  1.00  0.00    -0.000 C 
BRANCH  12  13
ATOM     13  C   UNL     1     -97.273 150.300 240.736  1.00  0.00    -0.000 C 
BRANCH  13  14
ATOM     14  C   UNL     1     -98.752 150.492 240.351  1.00  0.00    -0.000 C 
BRANCH  14  15
ATOM     15  C   UNL     1     -98.991 151.084 238.947  1.00  0.00    -0.000 C 
BRANCH  15  16
ATOM     16  C   UNL     1     -99.232 150.046 237.831  1.00  0.00    -0.000 C 
BRANCH  16  17
ATOM     17  C   UNL     1     -97.954 149.457 237.210  1.00  0.00    -0.003 C 
ATOM     18  C   UNL     1     -97.945 147.928 237.206  1.00  0.00     0.004 C 
ENDBRANCH  16  17
ENDBRANCH  15  16
ENDBRANCH  14  15
ENDBRANCH  13  14
ENDBRANCH  12  13
ENDBRANCH  11  12
ENDBRANCH   1  11
TORSDOF 14
ENDMDL
