MODEL 1
REMARK VINA RESULT:    -3.309      0.000      0.000
REMARK INTER + INTRA:          -7.316
REMARK INTER:                  -5.630
REMARK INTRA:                  -1.687
REMARK UNBOUND:                -1.687
REMARK SMILES CCCCCCCCCCCCCC(=O)[O-]
REMARK SMILES IDX 8 1 9 2 10 3 11 4 12 5 13 6 14 7 15 8 16 9 7 10 6 11 5 12
REMARK SMILES IDX 4 13 3 14 2 15 1 16
REMARK H PARENT
REMARK Flexibility Score: inf
ROOT
ATOM      1  C   UNL     1      57.343  25.418  51.675  1.00  0.00     0.000 C 
ENDROOT
BRANCH   1   2
ATOM      2  C   UNL     1      56.080  25.290  50.807  1.00  0.00     0.000 C 
BRANCH   2   3
ATOM      3  C   UNL     1      55.473  26.654  50.429  1.00  0.00     0.000 C 
BRANCH   3   4
ATOM      4  C   UNL     1      53.939  26.668  50.261  1.00  0.00     0.000 C 
BRANCH   4   5
ATOM      5  C   UNL     1      53.309  28.067  50.135  1.00  0.00     0.006 C 
BRANCH   5   6
ATOM      6  C   UNL     1      54.208  29.177  50.693  1.00  0.00     0.053 C 
BRANCH   6   7
ATOM      7  C   UNL     1      53.693  29.650  52.015  1.00  0.00     0.041 C 
ATOM      8  O   UNL     1      53.329  30.847  52.161  1.00  0.00    -0.550 OA
ATOM      9  O   UNL     1      53.663  28.784  53.100  1.00  0.00    -0.550 OA
ENDBRANCH   6   7
ENDBRANCH   5   6
ENDBRANCH   4   5
ENDBRANCH   3   4
ENDBRANCH   2   3
ENDBRANCH   1   2
BRANCH   1  10
ATOM     10  C   UNL     1      58.571  24.755  51.030  1.00  0.00     0.000 C 
BRANCH  10  11
ATOM     11  C   UNL     1      59.076  25.518  49.792  1.00  0.00    -0.000 C 
BRANCH  11  12
ATOM     12  C   UNL     1      59.880  26.776  50.160  1.00  0.00    -0.000 C 
BRANCH  12  13
ATOM     13  C   UNL     1      59.353  28.038  49.457  1.00  0.00    -0.000 C 
BRANCH  13  14
ATOM     14  C   UNL     1      58.285  28.781  50.279  1.00  0.00    -0.000 C 
BRANCH  14  15
ATOM     15  C   UNL     1      58.616  28.950  51.773  1.00  0.00    -0.003 C 
ATOM     16  C   UNL     1      57.373  29.103  52.648  1.00  0.00     0.004 C 
ENDBRANCH  14  15
ENDBRANCH  13  14
ENDBRANCH  12  13
ENDBRANCH  11  12
ENDBRANCH  10  11
ENDBRANCH   1  10
TORSDOF 12
ENDMDL
MODEL 2
REMARK VINA RESULT:    -3.227     11.324     13.607
REMARK INTER + INTRA:          -7.177
REMARK INTER:                  -5.413
REMARK INTRA:                  -1.764
REMARK UNBOUND:                -1.687
REMARK SMILES CCCCCCCCCCCCCC(=O)[O-]
REMARK SMILES IDX 8 1 9 2 10 3 11 4 12 5 13 6 14 7 15 8 16 9 7 10 6 11 5 12
REMARK SMILES IDX 4 13 3 14 2 15 1 16
REMARK H PARENT
REMARK Flexibility Score: inf
ROOT
ATOM      1  C   UNL     1      63.638  35.138  60.438  1.00  0.00     0.000 C 
ENDROOT
BRANCH   1   2
ATOM      2  C   UNL     1      64.481  34.253  61.371  1.00  0.00     0.000 C 
BRANCH   2   3
ATOM      3  C   UNL     1      64.420  32.761  60.997  1.00  0.00     0.000 C 
BRANCH   3   4
ATOM      4  C   UNL     1      64.764  32.436  59.529  1.00  0.00     0.000 C 
BRANCH   4   5
ATOM      5  C   UNL     1      65.405  31.055  59.299  1.00  0.00     0.006 C 
BRANCH   5   6
ATOM      6  C   UNL     1      65.193  30.097  60.478  1.00  0.00     0.053 C 
BRANCH   6   7
ATOM      7  C   UNL     1      64.394  28.908  60.048  1.00  0.00     0.041 C 
ATOM      8  O   UNL     1      64.150  28.717  58.827  1.00  0.00    -0.550 OA
ATOM      9  O   UNL     1      63.874  28.039  60.999  1.00  0.00    -0.550 OA
ENDBRANCH   6   7
ENDBRANCH   5   6
ENDBRANCH   4   5
ENDBRANCH   3   4
ENDBRANCH   2   3
ENDBRANCH   1   2
BRANCH   1  10
ATOM     10  C   UNL     1      62.540  35.910  61.190  1.00  0.00     0.000 C 
BRANCH  10  11
ATOM     11  C   UNL     1      61.122  35.486  60.767  1.00  0.00    -0.000 C 
BRANCH  11  12
ATOM     12  C   UNL     1      61.127  34.323  59.762  1.00  0.00    -0.000 C 
BRANCH  12  13
ATOM     13  C   UNL     1      60.694  32.991  60.398  1.00  0.00    -0.000 C 
BRANCH  13  14
ATOM     14  C   UNL     1      61.213  31.763  59.629  1.00  0.00    -0.000 C 
BRANCH  14  15
ATOM     15  C   UNL     1      61.066  30.422  60.370  1.00  0.00    -0.003 C 
ATOM     16  C   UNL     1      61.484  30.499  61.838  1.00  0.00     0.004 C 
ENDBRANCH  14  15
ENDBRANCH  13  14
ENDBRANCH  12  13
ENDBRANCH  11  12
ENDBRANCH  10  11
ENDBRANCH   1  10
TORSDOF 12
ENDMDL
MODEL 3
REMARK VINA RESULT:    -3.218      3.080      5.682
REMARK INTER + INTRA:          -7.161
REMARK INTER:                  -5.326
REMARK INTRA:                  -1.836
REMARK UNBOUND:                -1.687
REMARK SMILES CCCCCCCCCCCCCC(=O)[O-]
REMARK SMILES IDX 8 1 9 2 10 3 11 4 12 5 13 6 14 7 15 8 16 9 7 10 6 11 5 12
REMARK SMILES IDX 4 13 3 14 2 15 1 16
REMARK H PARENT
REMARK Flexibility Score: inf
ROOT
ATOM      1  C   UNL     1      57.639  27.725  52.878  1.00  0.00     0.000 C 
ENDROOT
BRANCH   1   2
ATOM      2  C   UNL     1      57.630  28.835  51.814  1.00  0.00     0.000 C 
BRANCH   2   3
ATOM      3  C   UNL     1      57.555  28.287  50.377  1.00  0.00     0.000 C 
BRANCH   3   4
ATOM      4  C   UNL     1      58.898  28.248  49.617  1.00  0.00     0.000 C 
BRANCH   4   5
ATOM      5  C   UNL     1      59.665  26.917  49.715  1.00  0.00     0.006 C 
BRANCH   5   6
ATOM      6  C   UNL     1      58.743  25.715  49.953  1.00  0.00     0.053 C 
BRANCH   6   7
ATOM      7  C   UNL     1      59.493  24.605  50.619  1.00  0.00     0.041 C 
ATOM      8  O   UNL     1      58.927  23.889  51.486  1.00  0.00    -0.550 OA
ATOM      9  O   UNL     1      60.833  24.394  50.320  1.00  0.00    -0.550 OA
ENDBRANCH   6   7
ENDBRANCH   5   6
ENDBRANCH   4   5
ENDBRANCH   3   4
ENDBRANCH   2   3
ENDBRANCH   1   2
BRANCH   1  10
ATOM     10  C   UNL     1      56.243  27.124  53.115  1.00  0.00     0.000 C 
BRANCH  10  11
ATOM     11  C   UNL     1      56.175  25.627  52.765  1.00  0.00    -0.000 C 
BRANCH  11  12
ATOM     12  C   UNL     1      54.893  25.254  52.003  1.00  0.00    -0.000 C 
BRANCH  12  13
ATOM     13  C   UNL     1      55.090  25.262  50.478  1.00  0.00    -0.000 C 
BRANCH  13  14
ATOM     14  C   UNL     1      54.056  26.135  49.744  1.00  0.00    -0.000 C 
BRANCH  14  15
ATOM     15  C   UNL     1      53.353  27.186  50.621  1.00  0.00    -0.003 C 
ATOM     16  C   UNL     1      53.911  28.596  50.430  1.00  0.00     0.004 C 
ENDBRANCH  14  15
ENDBRANCH  13  14
ENDBRANCH  12  13
ENDBRANCH  11  12
ENDBRANCH  10  11
ENDBRANCH   1  10
TORSDOF 12
ENDMDL
MODEL 4
REMARK VINA RESULT:    -3.200      3.202      6.219
REMARK INTER + INTRA:          -7.132
REMARK INTER:                  -5.634
REMARK INTRA:                  -1.498
REMARK UNBOUND:                -1.687
REMARK SMILES CCCCCCCCCCCCCC(=O)[O-]
REMARK SMILES IDX 8 1 9 2 10 3 11 4 12 5 13 6 14 7 15 8 16 9 7 10 6 11 5 12
REMARK SMILES IDX 4 13 3 14 2 15 1 16
REMARK H PARENT
REMARK Flexibility Score: inf
ROOT
ATOM      1  C   UNL     1      56.818  28.184  51.834  1.00  0.00     0.000 C 
ENDROOT
BRANCH   1   2
ATOM      2  C   UNL     1      57.183  28.030  50.348  1.00  0.00     0.000 C 
BRANCH   2   3
ATOM      3  C   UNL     1      58.605  28.524  50.027  1.00  0.00     0.000 C 
BRANCH   3   4
ATOM      4  C   UNL     1      59.586  27.437  49.539  1.00  0.00     0.000 C 
BRANCH   4   5
ATOM      5  C   UNL     1      59.156  25.989  49.838  1.00  0.00     0.006 C 
BRANCH   5   6
ATOM      6  C   UNL     1      59.819  25.420  51.099  1.00  0.00     0.053 C 
BRANCH   6   7
ATOM      7  C   UNL     1      59.639  23.936  51.159  1.00  0.00     0.041 C 
ATOM      8  O   UNL     1      60.214  23.194  50.320  1.00  0.00    -0.550 OA
ATOM      9  O   UNL     1      58.796  23.376  52.110  1.00  0.00    -0.550 OA
ENDBRANCH   6   7
ENDBRANCH   5   6
ENDBRANCH   4   5
ENDBRANCH   3   4
ENDBRANCH   2   3
ENDBRANCH   1   2
BRANCH   1  10
ATOM     10  C   UNL     1      55.530  28.998  52.044  1.00  0.00     0.000 C 
BRANCH  10  11
ATOM     11  C   UNL     1      54.632  29.019  50.794  1.00  0.00    -0.000 C 
BRANCH  11  12
ATOM     12  C   UNL     1      53.214  28.496  51.075  1.00  0.00    -0.000 C 
BRANCH  12  13
ATOM     13  C   UNL     1      53.145  26.960  51.095  1.00  0.00    -0.000 C 
BRANCH  13  14
ATOM     14  C   UNL     1      53.540  26.325  49.749  1.00  0.00    -0.000 C 
BRANCH  14  15
ATOM     15  C   UNL     1      54.689  25.304  49.825  1.00  0.00    -0.003 C 
ATOM     16  C   UNL     1      55.176  25.053  51.252  1.00  0.00     0.004 C 
ENDBRANCH  14  15
ENDBRANCH  13  14
ENDBRANCH  12  13
ENDBRANCH  11  12
ENDBRANCH  10  11
ENDBRANCH   1  10
TORSDOF 12
ENDMDL
MODEL 5
REMARK VINA RESULT:    -3.169      3.527      5.793
REMARK INTER + INTRA:          -7.079
REMARK INTER:                  -5.436
REMARK INTRA:                  -1.642
REMARK UNBOUND:                -1.687
REMARK SMILES CCCCCCCCCCCCCC(=O)[O-]
REMARK SMILES IDX 8 1 9 2 10 3 11 4 12 5 13 6 14 7 15 8 16 9 7 10 6 11 5 12
REMARK SMILES IDX 4 13 3 14 2 15 1 16
REMARK H PARENT
REMARK Flexibility Score: inf
ROOT
ATOM      1  C   UNL     1      53.673  26.547  50.750  1.00  0.00     0.000 C 
ENDROOT
BRANCH   1   2
ATOM      2  C   UNL     1      54.805  25.830  49.996  1.00  0.00     0.000 C 
BRANCH   2   3
ATOM      3  C   UNL     1      55.859  25.219  50.938  1.00  0.00     0.000 C 
BRANCH   3   4
ATOM      4  C   UNL     1      57.306  25.230  50.402  1.00  0.00     0.000 C 
BRANCH   4   5
ATOM      5  C   UNL     1      58.402  25.203  51.483  1.00  0.00     0.006 C 
BRANCH   5   6
ATOM      6  C   UNL     1      59.787  24.867  50.918  1.00  0.00     0.053 C 
BRANCH   6   7
ATOM      7  C   UNL     1      60.084  23.412  51.095  1.00  0.00     0.041 C 
ATOM      8  O   UNL     1      60.355  22.694  50.095  1.00  0.00    -0.550 OA
ATOM      9  O   UNL     1      60.013  22.836  52.356  1.00  0.00    -0.550 OA
ENDBRANCH   6   7
ENDBRANCH   5   6
ENDBRANCH   4   5
ENDBRANCH   3   4
ENDBRANCH   2   3
ENDBRANCH   1   2
BRANCH   1  10
ATOM     10  C   UNL     1      53.351  27.928  50.156  1.00  0.00     0.000 C 
BRANCH  10  11
ATOM     11  C   UNL     1      54.316  29.023  50.644  1.00  0.00    -0.000 C 
BRANCH  11  12
ATOM     12  C   UNL     1      54.860  28.747  52.055  1.00  0.00    -0.000 C 
BRANCH  12  13
ATOM     13  C   UNL     1      56.397  28.729  52.102  1.00  0.00    -0.000 C 
BRANCH  13  14
ATOM     14  C   UNL     1      57.039  28.702  50.702  1.00  0.00    -0.000 C 
BRANCH  14  15
ATOM     15  C   UNL     1      58.575  28.803  50.689  1.00  0.00    -0.003 C 
ATOM     16  C   UNL     1      59.201  28.242  49.413  1.00  0.00     0.004 C 
ENDBRANCH  14  15
ENDBRANCH  13  14
ENDBRANCH  12  13
ENDBRANCH  11  12
ENDBRANCH  10  11
ENDBRANCH   1  10
TORSDOF 12
ENDMDL
MODEL 6
REMARK VINA RESULT:    -3.159      2.969      5.409
REMARK INTER + INTRA:          -7.062
REMARK INTER:                  -5.115
REMARK INTRA:                  -1.947
REMARK UNBOUND:                -1.687
REMARK SMILES CCCCCCCCCCCCCC(=O)[O-]
REMARK SMILES IDX 8 1 9 2 10 3 11 4 12 5 13 6 14 7 15 8 16 9 7 10 6 11 5 12
REMARK SMILES IDX 4 13 3 14 2 15 1 16
REMARK H PARENT
REMARK Flexibility Score: inf
ROOT
ATOM      1  C   UNL     1      53.269  26.644  50.300  1.00  0.00     0.000 C 
ENDROOT
BRANCH   1   2
ATOM      2  C   UNL     1      54.658  26.066  49.982  1.00  0.00     0.000 C 
BRANCH   2   3
ATOM      3  C   UNL     1      55.215  25.187  51.116  1.00  0.00     0.000 C 
BRANCH   3   4
ATOM      4  C   UNL     1      56.706  25.409  51.450  1.00  0.00     0.000 C 
BRANCH   4   5
ATOM      5  C   UNL     1      57.394  26.528  50.646  1.00  0.00     0.006 C 
BRANCH   5   6
ATOM      6  C   UNL     1      58.746  26.096  50.065  1.00  0.00     0.053 C 
BRANCH   6   7
ATOM      7  C   UNL     1      59.504  27.287  49.568  1.00  0.00     0.041 C 
ATOM      8  O   UNL     1      60.758  27.236  49.451  1.00  0.00    -0.550 OA
ATOM      9  O   UNL     1      58.834  28.469  49.283  1.00  0.00    -0.550 OA
ENDBRANCH   6   7
ENDBRANCH   5   6
ENDBRANCH   4   5
ENDBRANCH   3   4
ENDBRANCH   2   3
ENDBRANCH   1   2
BRANCH   1  10
ATOM     10  C   UNL     1      53.191  28.160  50.057  1.00  0.00     0.000 C 
BRANCH  10  11
ATOM     11  C   UNL     1      54.397  28.917  50.641  1.00  0.00    -0.000 C 
BRANCH  11  12
ATOM     12  C   UNL     1      53.983  30.012  51.638  1.00  0.00    -0.000 C 
BRANCH  12  13
ATOM     13  C   UNL     1      54.513  29.748  53.057  1.00  0.00    -0.000 C 
BRANCH  13  14
ATOM     14  C   UNL     1      55.467  28.542  53.127  1.00  0.00    -0.000 C 
BRANCH  14  15
ATOM     15  C   UNL     1      55.052  27.441  54.120  1.00  0.00    -0.003 C 
ATOM     16  C   UNL     1      53.588  27.028  53.980  1.00  0.00     0.004 C 
ENDBRANCH  14  15
ENDBRANCH  13  14
ENDBRANCH  12  13
ENDBRANCH  11  12
ENDBRANCH  10  11
ENDBRANCH   1  10
TORSDOF 12
ENDMDL
MODEL 7
REMARK VINA RESULT:    -3.134      3.278      5.375
REMARK INTER + INTRA:          -7.020
REMARK INTER:                  -5.519
REMARK INTRA:                  -1.501
REMARK UNBOUND:                -1.687
REMARK SMILES CCCCCCCCCCCCCC(=O)[O-]
REMARK SMILES IDX 8 1 9 2 10 3 11 4 12 5 13 6 14 7 15 8 16 9 7 10 6 11 5 12
REMARK SMILES IDX 4 13 3 14 2 15 1 16
REMARK H PARENT
REMARK Flexibility Score: inf
ROOT
ATOM      1  C   UNL     1      56.750  25.859  52.163  1.00  0.00     0.000 C 
ENDROOT
BRANCH   1   2
ATOM      2  C   UNL     1      57.871  26.887  52.385  1.00  0.00     0.000 C 
BRANCH   2   3
ATOM      3  C   UNL     1      57.470  28.312  51.961  1.00  0.00     0.000 C 
BRANCH   3   4
ATOM      4  C   UNL     1      57.598  28.611  50.453  1.00  0.00     0.000 C 
BRANCH   4   5
ATOM      5  C   UNL     1      59.040  28.785  49.942  1.00  0.00     0.006 C 
BRANCH   5   6
ATOM      6  C   UNL     1      59.607  27.507  49.313  1.00  0.00     0.053 C 
BRANCH   6   7
ATOM      7  C   UNL     1      60.860  27.090  50.016  1.00  0.00     0.041 C 
ATOM      8  O   UNL     1      61.701  27.955  50.376  1.00  0.00    -0.550 OA
ATOM      9  O   UNL     1      61.124  25.743  50.227  1.00  0.00    -0.550 OA
ENDBRANCH   6   7
ENDBRANCH   5   6
ENDBRANCH   4   5
ENDBRANCH   3   4
ENDBRANCH   2   3
ENDBRANCH   1   2
BRANCH   1  10
ATOM     10  C   UNL     1      56.712  25.328  50.721  1.00  0.00     0.000 C 
BRANCH  10  11
ATOM     11  C   UNL     1      55.341  25.528  50.051  1.00  0.00    -0.000 C 
BRANCH  11  12
ATOM     12  C   UNL     1      54.368  26.338  50.923  1.00  0.00    -0.000 C 
BRANCH  12  13
ATOM     13  C   UNL     1      53.563  27.365  50.110  1.00  0.00    -0.000 C 
BRANCH  13  14
ATOM     14  C   UNL     1      53.931  28.821  50.452  1.00  0.00    -0.000 C 
BRANCH  14  15
ATOM     15  C   UNL     1      53.931  29.156  51.954  1.00  0.00    -0.003 C 
ATOM     16  C   UNL     1      53.337  30.530  52.261  1.00  0.00     0.004 C 
ENDBRANCH  14  15
ENDBRANCH  13  14
ENDBRANCH  12  13
ENDBRANCH  11  12
ENDBRANCH  10  11
ENDBRANCH   1  10
TORSDOF 12
ENDMDL
MODEL 8
REMARK VINA RESULT:    -3.124      3.743      6.249
REMARK INTER + INTRA:          -7.003
REMARK INTER:                  -5.132
REMARK INTRA:                  -1.871
REMARK UNBOUND:                -1.687
REMARK SMILES CCCCCCCCCCCCCC(=O)[O-]
REMARK SMILES IDX 8 1 9 2 10 3 11 4 12 5 13 6 14 7 15 8 16 9 7 10 6 11 5 12
REMARK SMILES IDX 4 13 3 14 2 15 1 16
REMARK H PARENT
REMARK Flexibility Score: inf
ROOT
ATOM      1  C   UNL     1      56.862  28.555  52.534  1.00  0.00     0.000 C 
ENDROOT
BRANCH   1   2
ATOM      2  C   UNL     1      58.043  29.000  51.655  1.00  0.00     0.000 C 
BRANCH   2   3
ATOM      3  C   UNL     1      57.890  28.570  50.184  1.00  0.00     0.000 C 
BRANCH   3   4
ATOM      4  C   UNL     1      59.212  28.283  49.441  1.00  0.00     0.000 C 
BRANCH   4   5
ATOM      5  C   UNL     1      59.773  26.862  49.633  1.00  0.00     0.006 C 
BRANCH   5   6
ATOM      6  C   UNL     1      60.898  26.803  50.674  1.00  0.00     0.053 C 
BRANCH   6   7
ATOM      7  C   UNL     1      62.210  26.530  50.010  1.00  0.00     0.041 C 
ATOM      8  O   UNL     1      62.715  27.380  49.230  1.00  0.00    -0.550 OA
ATOM      9  O   UNL     1      62.852  25.315  50.211  1.00  0.00    -0.550 OA
ENDBRANCH   6   7
ENDBRANCH   5   6
ENDBRANCH   4   5
ENDBRANCH   3   4
ENDBRANCH   2   3
ENDBRANCH   1   2
BRANCH   1  10
ATOM     10  C   UNL     1      55.499  28.881  51.901  1.00  0.00     0.000 C 
BRANCH  10  11
ATOM     11  C   UNL     1      54.568  27.658  51.834  1.00  0.00    -0.000 C 
BRANCH  11  12
ATOM     12  C   UNL     1      54.393  27.125  50.402  1.00  0.00    -0.000 C 
BRANCH  12  13
ATOM     13  C   UNL     1      55.298  25.917  50.108  1.00  0.00    -0.000 C 
BRANCH  13  14
ATOM     14  C   UNL     1      55.840  25.249  51.385  1.00  0.00    -0.000 C 
BRANCH  14  15
ATOM     15  C   UNL     1      57.343  24.919  51.358  1.00  0.00    -0.003 C 
ATOM     16  C   UNL     1      58.042  25.200  52.689  1.00  0.00     0.004 C 
ENDBRANCH  14  15
ENDBRANCH  13  14
ENDBRANCH  12  13
ENDBRANCH  11  12
ENDBRANCH  10  11
ENDBRANCH   1  10
TORSDOF 12
ENDMDL
MODEL 9
REMARK VINA RESULT:    -3.103     11.481     13.267
REMARK INTER + INTRA:          -6.967
REMARK INTER:                  -5.272
REMARK INTRA:                  -1.696
REMARK UNBOUND:                -1.687
REMARK SMILES CCCCCCCCCCCCCC(=O)[O-]
REMARK SMILES IDX 8 1 9 2 10 3 11 4 12 5 13 6 14 7 15 8 16 9 7 10 6 11 5 12
REMARK SMILES IDX 4 13 3 14 2 15 1 16
REMARK H PARENT
REMARK Flexibility Score: inf
ROOT
ATOM      1  C   UNL     1      61.106  34.197  59.816  1.00  0.00     0.000 C 
ENDROOT
BRANCH   1   2
ATOM      2  C   UNL     1      60.395  33.025  60.512  1.00  0.00     0.000 C 
BRANCH   2   3
ATOM      3  C   UNL     1      61.176  31.702  60.405  1.00  0.00     0.000 C 
BRANCH   3   4
ATOM      4  C   UNL     1      61.276  30.889  61.713  1.00  0.00     0.000 C 
BRANCH   4   5
ATOM      5  C   UNL     1      62.290  29.731  61.685  1.00  0.00     0.006 C 
BRANCH   5   6
ATOM      6  C   UNL     1      63.724  30.201  61.410  1.00  0.00     0.053 C 
BRANCH   6   7
ATOM      7  C   UNL     1      64.547  29.077  60.868  1.00  0.00     0.041 C 
ATOM      8  O   UNL     1      65.805  29.149  60.881  1.00  0.00    -0.550 OA
ATOM      9  O   UNL     1      63.927  27.972  60.300  1.00  0.00    -0.550 OA
ENDBRANCH   6   7
ENDBRANCH   5   6
ENDBRANCH   4   5
ENDBRANCH   3   4
ENDBRANCH   2   3
ENDBRANCH   1   2
BRANCH   1  10
ATOM     10  C   UNL     1      61.645  35.237  60.812  1.00  0.00     0.000 C 
BRANCH  10  11
ATOM     11  C   UNL     1      63.173  35.401  60.729  1.00  0.00    -0.000 C 
BRANCH  11  12
ATOM     12  C   UNL     1      63.930  34.136  61.165  1.00  0.00    -0.000 C 
BRANCH  12  13
ATOM     13  C   UNL     1      64.750  33.516  60.022  1.00  0.00    -0.000 C 
BRANCH  13  14
ATOM     14  C   UNL     1      64.632  34.303  58.704  1.00  0.00    -0.000 C 
BRANCH  14  15
ATOM     15  C   UNL     1      64.342  33.445  57.459  1.00  0.00    -0.003 C 
ATOM     16  C   UNL     1      63.628  32.134  57.787  1.00  0.00     0.004 C 
ENDBRANCH  14  15
ENDBRANCH  13  14
ENDBRANCH  12  13
ENDBRANCH  11  12
ENDBRANCH  10  11
ENDBRANCH   1  10
TORSDOF 12
ENDMDL
