MODEL 1
REMARK VINA RESULT:    -2.717      0.000      0.000
REMARK INTER + INTRA:          -7.099
REMARK INTER:                  -5.100
REMARK INTRA:                  -1.999
REMARK UNBOUND:                -1.999
REMARK SMILES CCCCCCCCC=CCCCCCCCC(=O)[O-]
REMARK SMILES IDX 10 1 9 2 11 3 12 4 13 5 14 6 15 7 16 8 17 9 18 10 19 11
REMARK SMILES IDX 20 12 8 13 7 14 6 15 5 16 4 17 3 18 2 19 1 20
REMARK H PARENT
REMARK Flexibility Score: inf
ROOT
ATOM      1  C   UNL     1       7.829 -15.543 -21.658  1.00  0.00    -0.031 C 
ATOM      2  C   UNL     1       7.381 -14.539 -22.436  1.00  0.00    -0.031 C 
ENDROOT
BRANCH   1   3
ATOM      3  C   UNL     1       8.219 -15.392 -20.210  1.00  0.00     0.027 C 
BRANCH   3   4
ATOM      4  C   UNL     1       8.369 -16.767 -19.544  1.00  0.00     0.004 C 
BRANCH   4   5
ATOM      5  C   UNL     1       7.016 -17.393 -19.172  1.00  0.00     0.000 C 
BRANCH   5   6
ATOM      6  C   UNL     1       6.875 -18.837 -19.682  1.00  0.00     0.000 C 
BRANCH   6   7
ATOM      7  C   UNL     1       8.223 -19.463 -20.078  1.00  0.00     0.000 C 
BRANCH   7   8
ATOM      8  C   UNL     1       8.298 -19.879 -21.564  1.00  0.00     0.006 C 
BRANCH   8   9
ATOM      9  C   UNL     1       7.357 -19.070 -22.471  1.00  0.00     0.053 C 
BRANCH   9  10
ATOM     10  C   UNL     1       7.865 -19.006 -23.879  1.00  0.00     0.041 C 
ATOM     11  O   UNL     1       8.913 -18.362 -24.148  1.00  0.00    -0.550 OA
ATOM     12  O   UNL     1       7.192 -19.679 -24.891  1.00  0.00    -0.550 OA
ENDBRANCH   9  10
ENDBRANCH   8   9
ENDBRANCH   7   8
ENDBRANCH   6   7
ENDBRANCH   5   6
ENDBRANCH   4   5
ENDBRANCH   3   4
ENDBRANCH   1   3
BRANCH   2  13
ATOM     13  C   UNL     1       7.116 -13.133 -21.954  1.00  0.00     0.027 C 
BRANCH  13  14
ATOM     14  C   UNL     1       7.526 -12.081 -22.996  1.00  0.00     0.004 C 
BRANCH  14  15
ATOM     15  C   UNL     1       8.867 -11.413 -22.646  1.00  0.00     0.000 C 
BRANCH  15  16
ATOM     16  C   UNL     1       9.347 -11.756 -21.227  1.00  0.00     0.000 C 
BRANCH  16  17
ATOM     17  C   UNL     1      10.873 -11.637 -21.071  1.00  0.00    -0.000 C 
BRANCH  17  18
ATOM     18  C   UNL     1      11.621 -12.803 -21.752  1.00  0.00    -0.000 C 
BRANCH  18  19
ATOM     19  C   UNL     1      11.277 -14.181 -21.163  1.00  0.00    -0.003 C 
ATOM     20  C   UNL     1      12.503 -14.938 -20.658  1.00  0.00     0.004 C 
ENDBRANCH  18  19
ENDBRANCH  17  18
ENDBRANCH  16  17
ENDBRANCH  15  16
ENDBRANCH  14  15
ENDBRANCH  13  14
ENDBRANCH   2  13
TORSDOF 15
ENDMDL
MODEL 2
REMARK VINA RESULT:    -1.989      2.558      7.095
REMARK INTER + INTRA:          -5.733
REMARK INTER:                  -4.627
REMARK INTRA:                  -1.106
REMARK UNBOUND:                -1.999
REMARK SMILES CCCCCCCCC=CCCCCCCCC(=O)[O-]
REMARK SMILES IDX 10 1 9 2 11 3 12 4 13 5 14 6 15 7 16 8 17 9 18 10 19 11
REMARK SMILES IDX 20 12 8 13 7 14 6 15 5 16 4 17 3 18 2 19 1 20
REMARK H PARENT
REMARK Flexibility Score: inf
ROOT
ATOM      1  C   UNL     1       8.228 -15.771 -19.406  1.00  0.00    -0.031 C 
ATOM      2  C   UNL     1       7.438 -16.677 -18.799  1.00  0.00    -0.031 C 
ENDROOT
BRANCH   1   3
ATOM      3  C   UNL     1       8.773 -15.913 -20.805  1.00  0.00     0.027 C 
BRANCH   3   4
ATOM      4  C   UNL     1       7.663 -15.693 -21.843  1.00  0.00     0.004 C 
BRANCH   4   5
ATOM      5  C   UNL     1       6.966 -14.334 -21.680  1.00  0.00     0.000 C 
BRANCH   5   6
ATOM      6  C   UNL     1       6.887 -13.551 -23.002  1.00  0.00     0.000 C 
BRANCH   6   7
ATOM      7  C   UNL     1       7.674 -12.230 -22.958  1.00  0.00     0.000 C 
BRANCH   7   8
ATOM      8  C   UNL     1       8.692 -12.155 -21.799  1.00  0.00     0.006 C 
BRANCH   8   9
ATOM      9  C   UNL     1      10.079 -11.655 -22.238  1.00  0.00     0.053 C 
BRANCH   9  10
ATOM     10  C   UNL     1      11.166 -12.203 -21.365  1.00  0.00     0.041 C 
ATOM     11  O   UNL     1      11.837 -11.433 -20.628  1.00  0.00    -0.550 OA
ATOM     12  O   UNL     1      11.423 -13.568 -21.349  1.00  0.00    -0.550 OA
ENDBRANCH   9  10
ENDBRANCH   8   9
ENDBRANCH   7   8
ENDBRANCH   6   7
ENDBRANCH   5   6
ENDBRANCH   4   5
ENDBRANCH   3   4
ENDBRANCH   1   3
BRANCH   2  13
ATOM     13  C   UNL     1       6.905 -17.928 -19.457  1.00  0.00     0.027 C 
BRANCH  13  14
ATOM     14  C   UNL     1       8.033 -18.882 -19.875  1.00  0.00     0.004 C 
BRANCH  14  15
ATOM     15  C   UNL     1       7.494 -20.250 -20.331  1.00  0.00     0.000 C 
BRANCH  15  16
ATOM     16  C   UNL     1       6.875 -20.202 -21.737  1.00  0.00     0.000 C 
BRANCH  16  17
ATOM     17  C   UNL     1       7.697 -19.349 -22.720  1.00  0.00    -0.000 C 
BRANCH  17  18
ATOM     18  C   UNL     1       6.992 -19.193 -24.084  1.00  0.00    -0.000 C 
BRANCH  18  19
ATOM     19  C   UNL     1       7.869 -19.601 -25.279  1.00  0.00    -0.003 C 
ATOM     20  C   UNL     1       7.182 -20.592 -26.216  1.00  0.00     0.004 C 
ENDBRANCH  18  19
ENDBRANCH  17  18
ENDBRANCH  16  17
ENDBRANCH  15  16
ENDBRANCH  14  15
ENDBRANCH  13  14
ENDBRANCH   2  13
TORSDOF 15
ENDMDL
MODEL 3
REMARK VINA RESULT:    -1.814      1.025      2.900
REMARK INTER + INTRA:          -5.405
REMARK INTER:                  -3.664
REMARK INTRA:                  -1.740
REMARK UNBOUND:                -1.999
REMARK SMILES CCCCCCCCC=CCCCCCCCC(=O)[O-]
REMARK SMILES IDX 10 1 9 2 11 3 12 4 13 5 14 6 15 7 16 8 17 9 18 10 19 11
REMARK SMILES IDX 20 12 8 13 7 14 6 15 5 16 4 17 3 18 2 19 1 20
REMARK H PARENT
REMARK Flexibility Score: inf
ROOT
ATOM      1  C   UNL     1       9.590 -15.307 -21.092  1.00  0.00    -0.031 C 
ATOM      2  C   UNL     1      10.819 -14.788 -21.270  1.00  0.00    -0.031 C 
ENDROOT
BRANCH   1   3
ATOM      3  C   UNL     1       8.486 -14.638 -20.312  1.00  0.00     0.027 C 
BRANCH   3   4
ATOM      4  C   UNL     1       7.324 -15.613 -20.074  1.00  0.00     0.004 C 
BRANCH   4   5
ATOM      5  C   UNL     1       7.750 -16.849 -19.268  1.00  0.00     0.000 C 
BRANCH   5   6
ATOM      6  C   UNL     1       7.041 -18.131 -19.738  1.00  0.00     0.000 C 
BRANCH   6   7
ATOM      7  C   UNL     1       7.971 -19.357 -19.745  1.00  0.00     0.000 C 
BRANCH   7   8
ATOM      8  C   UNL     1       8.182 -19.964 -21.150  1.00  0.00     0.006 C 
BRANCH   8   9
ATOM      9  C   UNL     1       7.052 -19.622 -22.136  1.00  0.00     0.053 C 
BRANCH   9  10
ATOM     10  C   UNL     1       7.553 -18.804 -23.288  1.00  0.00     0.041 C 
ATOM     11  O   UNL     1       8.127 -17.702 -23.081  1.00  0.00    -0.550 OA
ATOM     12  O   UNL     1       7.405 -19.270 -24.588  1.00  0.00    -0.550 OA
ENDBRANCH   9  10
ENDBRANCH   8   9
ENDBRANCH   7   8
ENDBRANCH   6   7
ENDBRANCH   5   6
ENDBRANCH   4   5
ENDBRANCH   3   4
ENDBRANCH   1   3
BRANCH   2  13
ATOM     13  C   UNL     1      11.252 -13.421 -20.796  1.00  0.00     0.027 C 
BRANCH  13  14
ATOM     14  C   UNL     1      11.160 -12.370 -21.912  1.00  0.00     0.004 C 
BRANCH  14  15
ATOM     15  C   UNL     1      10.144 -11.263 -21.582  1.00  0.00     0.000 C 
BRANCH  15  16
ATOM     16  C   UNL     1       8.690 -11.710 -21.798  1.00  0.00     0.000 C 
BRANCH  16  17
ATOM     17  C   UNL     1       7.998 -10.950 -22.944  1.00  0.00    -0.000 C 
BRANCH  17  18
ATOM     18  C   UNL     1       7.200 -11.894 -23.869  1.00  0.00    -0.000 C 
BRANCH  18  19
ATOM     19  C   UNL     1       6.947 -13.283 -23.260  1.00  0.00    -0.003 C 
ATOM     20  C   UNL     1       6.875 -14.391 -24.308  1.00  0.00     0.004 C 
ENDBRANCH  18  19
ENDBRANCH  17  18
ENDBRANCH  16  17
ENDBRANCH  15  16
ENDBRANCH  14  15
ENDBRANCH  13  14
ENDBRANCH   2  13
TORSDOF 15
ENDMDL
MODEL 4
REMARK VINA RESULT:    -1.659      3.076      7.753
REMARK INTER + INTRA:          -5.112
REMARK INTER:                  -5.542
REMARK INTRA:                   0.430
REMARK UNBOUND:                -1.999
REMARK SMILES CCCCCCCCC=CCCCCCCCC(=O)[O-]
REMARK SMILES IDX 10 1 9 2 11 3 12 4 13 5 14 6 15 7 16 8 17 9 18 10 19 11
REMARK SMILES IDX 20 12 8 13 7 14 6 15 5 16 4 17 3 18 2 19 1 20
REMARK H PARENT
REMARK Flexibility Score: inf
ROOT
ATOM      1  C   UNL     1       7.927 -16.486 -19.659  1.00  0.00    -0.031 C 
ATOM      2  C   UNL     1       7.258 -17.648 -19.779  1.00  0.00    -0.031 C 
ENDROOT
BRANCH   1   3
ATOM      3  C   UNL     1       8.485 -15.698 -20.817  1.00  0.00     0.027 C 
BRANCH   3   4
ATOM      4  C   UNL     1       7.352 -15.053 -21.628  1.00  0.00     0.004 C 
BRANCH   4   5
ATOM      5  C   UNL     1       7.227 -13.544 -21.368  1.00  0.00     0.000 C 
BRANCH   5   6
ATOM      6  C   UNL     1       6.940 -12.747 -22.653  1.00  0.00     0.000 C 
BRANCH   6   7
ATOM      7  C   UNL     1       8.216 -12.182 -23.300  1.00  0.00     0.000 C 
BRANCH   7   8
ATOM      8  C   UNL     1       9.093 -11.364 -22.325  1.00  0.00     0.006 C 
BRANCH   8   9
ATOM      9  C   UNL     1       9.628 -12.194 -21.146  1.00  0.00     0.053 C 
BRANCH   9  10
ATOM     10  C   UNL     1      11.115 -12.369 -21.223  1.00  0.00     0.041 C 
ATOM     11  O   UNL     1      11.873 -11.364 -21.229  1.00  0.00    -0.550 OA
ATOM     12  O   UNL     1      11.663 -13.644 -21.263  1.00  0.00    -0.550 OA
ENDBRANCH   9  10
ENDBRANCH   8   9
ENDBRANCH   7   8
ENDBRANCH   6   7
ENDBRANCH   5   6
ENDBRANCH   4   5
ENDBRANCH   3   4
ENDBRANCH   1   3
BRANCH   2  13
ATOM     13  C   UNL     1       6.886 -18.292 -21.093  1.00  0.00     0.027 C 
BRANCH  13  14
ATOM     14  C   UNL     1       7.993 -19.221 -21.611  1.00  0.00     0.004 C 
BRANCH  14  15
ATOM     15  C   UNL     1       7.894 -20.633 -21.006  1.00  0.00     0.000 C 
BRANCH  15  16
ATOM     16  C   UNL     1       7.296 -20.629 -19.591  1.00  0.00     0.000 C 
BRANCH  16  17
ATOM     17  C   UNL     1       6.876 -22.033 -19.120  1.00  0.00    -0.000 C 
BRANCH  17  18
ATOM     18  C   UNL     1       6.891 -22.159 -17.582  1.00  0.00    -0.000 C 
BRANCH  18  19
ATOM     19  C   UNL     1       7.658 -23.391 -17.073  1.00  0.00    -0.003 C 
ATOM     20  C   UNL     1       9.148 -23.127 -16.870  1.00  0.00     0.004 C 
ENDBRANCH  18  19
ENDBRANCH  17  18
ENDBRANCH  16  17
ENDBRANCH  15  16
ENDBRANCH  14  15
ENDBRANCH  13  14
ENDBRANCH   2  13
TORSDOF 15
ENDMDL
MODEL 5
REMARK VINA RESULT:    -1.551      2.156      6.479
REMARK INTER + INTRA:          -4.910
REMARK INTER:                  -5.129
REMARK INTRA:                   0.219
REMARK UNBOUND:                -1.999
REMARK SMILES CCCCCCCCC=CCCCCCCCC(=O)[O-]
REMARK SMILES IDX 10 1 9 2 11 3 12 4 13 5 14 6 15 7 16 8 17 9 18 10 19 11
REMARK SMILES IDX 20 12 8 13 7 14 6 15 5 16 4 17 3 18 2 19 1 20
REMARK H PARENT
REMARK Flexibility Score: inf
ROOT
ATOM      1  C   UNL     1       7.367 -15.474 -19.644  1.00  0.00    -0.031 C 
ATOM      2  C   UNL     1       7.476 -16.538 -20.463  1.00  0.00    -0.031 C 
ENDROOT
BRANCH   1   3
ATOM      3  C   UNL     1       6.875 -14.114 -20.071  1.00  0.00     0.027 C 
BRANCH   3   4
ATOM      4  C   UNL     1       7.985 -13.341 -20.798  1.00  0.00     0.004 C 
BRANCH   4   5
ATOM      5  C   UNL     1       7.443 -12.464 -21.937  1.00  0.00     0.000 C 
BRANCH   5   6
ATOM      6  C   UNL     1       8.565 -11.820 -22.768  1.00  0.00     0.000 C 
BRANCH   6   7
ATOM      7  C   UNL     1       9.734 -11.319 -21.903  1.00  0.00     0.000 C 
BRANCH   7   8
ATOM      8  C   UNL     1      10.291 -12.390 -20.937  1.00  0.00     0.006 C 
BRANCH   8   9
ATOM      9  C   UNL     1      11.637 -12.979 -21.393  1.00  0.00     0.053 C 
BRANCH   9  10
ATOM     10  C   UNL     1      11.742 -14.437 -21.062  1.00  0.00     0.041 C 
ATOM     11  O   UNL     1      12.866 -14.957 -20.836  1.00  0.00    -0.550 OA
ATOM     12  O   UNL     1      10.595 -15.216 -20.980  1.00  0.00    -0.550 OA
ENDBRANCH   9  10
ENDBRANCH   8   9
ENDBRANCH   7   8
ENDBRANCH   6   7
ENDBRANCH   5   6
ENDBRANCH   4   5
ENDBRANCH   3   4
ENDBRANCH   1   3
BRANCH   2  13
ATOM     13  C   UNL     1       7.039 -16.556 -21.909  1.00  0.00     0.027 C 
BRANCH  13  14
ATOM     14  C   UNL     1       8.225 -16.751 -22.865  1.00  0.00     0.004 C 
BRANCH  14  15
ATOM     15  C   UNL     1       8.203 -18.132 -23.542  1.00  0.00     0.000 C 
BRANCH  15  16
ATOM     16  C   UNL     1       6.883 -18.883 -23.309  1.00  0.00     0.000 C 
BRANCH  16  17
ATOM     17  C   UNL     1       6.914 -19.763 -22.046  1.00  0.00    -0.000 C 
BRANCH  17  18
ATOM     18  C   UNL     1       8.330 -19.866 -21.444  1.00  0.00    -0.000 C 
BRANCH  18  19
ATOM     19  C   UNL     1       8.339 -20.234 -19.951  1.00  0.00    -0.003 C 
ATOM     20  C   UNL     1       7.066 -20.948 -19.503  1.00  0.00     0.004 C 
ENDBRANCH  18  19
ENDBRANCH  17  18
ENDBRANCH  16  17
ENDBRANCH  15  16
ENDBRANCH  14  15
ENDBRANCH  13  14
ENDBRANCH   2  13
TORSDOF 15
ENDMDL
MODEL 6
REMARK VINA RESULT:    -1.146      2.009      3.846
REMARK INTER + INTRA:          -4.150
REMARK INTER:                  -3.155
REMARK INTRA:                  -0.995
REMARK UNBOUND:                -1.999
REMARK SMILES CCCCCCCCC=CCCCCCCCC(=O)[O-]
REMARK SMILES IDX 10 1 9 2 11 3 12 4 13 5 14 6 15 7 16 8 17 9 18 10 19 11
REMARK SMILES IDX 20 12 8 13 7 14 6 15 5 16 4 17 3 18 2 19 1 20
REMARK H PARENT
REMARK Flexibility Score: inf
ROOT
ATOM      1  C   UNL     1      10.377 -15.211 -21.159  1.00  0.00    -0.031 C 
ATOM      2  C   UNL     1      11.383 -14.321 -21.256  1.00  0.00    -0.031 C 
ENDROOT
BRANCH   1   3
ATOM      3  C   UNL     1       9.014 -14.901 -20.591  1.00  0.00     0.027 C 
BRANCH   3   4
ATOM      4  C   UNL     1       7.985 -15.941 -21.056  1.00  0.00     0.004 C 
BRANCH   4   5
ATOM      5  C   UNL     1       8.327 -16.534 -22.432  1.00  0.00     0.000 C 
BRANCH   5   6
ATOM      6  C   UNL     1       7.112 -17.189 -23.109  1.00  0.00     0.000 C 
BRANCH   6   7
ATOM      7  C   UNL     1       7.258 -18.714 -23.247  1.00  0.00     0.000 C 
BRANCH   7   8
ATOM      8  C   UNL     1       8.290 -19.327 -22.273  1.00  0.00     0.006 C 
BRANCH   8   9
ATOM      9  C   UNL     1       7.702 -20.432 -21.380  1.00  0.00     0.053 C 
BRANCH   9  10
ATOM     10  C   UNL     1       7.720 -20.043 -19.934  1.00  0.00     0.041 C 
ATOM     11  O   UNL     1       7.456 -18.860 -19.591  1.00  0.00    -0.550 OA
ATOM     12  O   UNL     1       8.004 -20.993 -18.961  1.00  0.00    -0.550 OA
ENDBRANCH   9  10
ENDBRANCH   8   9
ENDBRANCH   7   8
ENDBRANCH   6   7
ENDBRANCH   5   6
ENDBRANCH   4   5
ENDBRANCH   3   4
ENDBRANCH   1   3
BRANCH   2  13
ATOM     13  C   UNL     1      11.273 -12.859 -20.897  1.00  0.00     0.027 C 
BRANCH  13  14
ATOM     14  C   UNL     1      10.821 -12.007 -22.092  1.00  0.00     0.004 C 
BRANCH  14  15
ATOM     15  C   UNL     1       9.486 -11.291 -21.820  1.00  0.00     0.000 C 
BRANCH  15  16
ATOM     16  C   UNL     1       8.501 -12.159 -21.023  1.00  0.00     0.000 C 
BRANCH  16  17
ATOM     17  C   UNL     1       7.048 -12.006 -21.507  1.00  0.00    -0.000 C 
BRANCH  17  18
ATOM     18  C   UNL     1       6.952 -11.187 -22.812  1.00  0.00    -0.000 C 
BRANCH  18  19
ATOM     19  C   UNL     1       7.099 -12.038 -24.084  1.00  0.00    -0.003 C 
ATOM     20  C   UNL     1       6.875 -13.528 -23.837  1.00  0.00     0.004 C 
ENDBRANCH  18  19
ENDBRANCH  17  18
ENDBRANCH  16  17
ENDBRANCH  15  16
ENDBRANCH  14  15
ENDBRANCH  13  14
ENDBRANCH   2  13
TORSDOF 15
ENDMDL
MODEL 7
REMARK VINA RESULT:    -1.068      3.229      3.881
REMARK INTER + INTRA:          -4.004
REMARK INTER:                  -3.593
REMARK INTRA:                  -0.411
REMARK UNBOUND:                -1.999
REMARK SMILES CCCCCCCCC=CCCCCCCCC(=O)[O-]
REMARK SMILES IDX 10 1 9 2 11 3 12 4 13 5 14 6 15 7 16 8 17 9 18 10 19 11
REMARK SMILES IDX 20 12 8 13 7 14 6 15 5 16 4 17 3 18 2 19 1 20
REMARK H PARENT
REMARK Flexibility Score: inf
ROOT
ATOM      1  C   UNL     1       8.414 -15.718 -20.792  1.00  0.00    -0.031 C 
ATOM      2  C   UNL     1       7.703 -14.595 -20.573  1.00  0.00    -0.031 C 
ENDROOT
BRANCH   1   3
ATOM      3  C   UNL     1       8.420 -16.485 -22.091  1.00  0.00     0.027 C 
BRANCH   3   4
ATOM      4  C   UNL     1       7.052 -17.135 -22.342  1.00  0.00     0.004 C 
BRANCH   4   5
ATOM      5  C   UNL     1       7.069 -18.653 -22.107  1.00  0.00     0.000 C 
BRANCH   5   6
ATOM      6  C   UNL     1       7.023 -19.018 -20.613  1.00  0.00     0.000 C 
BRANCH   6   7
ATOM      7  C   UNL     1       7.301 -20.509 -20.357  1.00  0.00     0.000 C 
BRANCH   7   8
ATOM      8  C   UNL     1       6.879 -20.982 -18.947  1.00  0.00     0.006 C 
BRANCH   8   9
ATOM      9  C   UNL     1       7.923 -21.889 -18.273  1.00  0.00     0.053 C 
BRANCH   9  10
ATOM     10  C   UNL     1       7.290 -22.817 -17.282  1.00  0.00     0.041 C 
ATOM     11  O   UNL     1       6.880 -23.951 -17.646  1.00  0.00    -0.550 OA
ATOM     12  O   UNL     1       7.175 -22.439 -15.950  1.00  0.00    -0.550 OA
ENDBRANCH   9  10
ENDBRANCH   8   9
ENDBRANCH   7   8
ENDBRANCH   6   7
ENDBRANCH   5   6
ENDBRANCH   4   5
ENDBRANCH   3   4
ENDBRANCH   1   3
BRANCH   2  13
ATOM     13  C   UNL     1       6.878 -13.884 -21.619  1.00  0.00     0.027 C 
BRANCH  13  14
ATOM     14  C   UNL     1       7.750 -13.302 -22.741  1.00  0.00     0.004 C 
BRANCH  14  15
ATOM     15  C   UNL     1       7.730 -11.764 -22.750  1.00  0.00     0.000 C 
BRANCH  15  16
ATOM     16  C   UNL     1       8.795 -11.153 -21.826  1.00  0.00     0.000 C 
BRANCH  16  17
ATOM     17  C   UNL     1      10.209 -11.692 -22.111  1.00  0.00    -0.000 C 
BRANCH  17  18
ATOM     18  C   UNL     1      10.517 -12.973 -21.308  1.00  0.00    -0.000 C 
BRANCH  18  19
ATOM     19  C   UNL     1      12.019 -13.221 -21.096  1.00  0.00    -0.003 C 
ATOM     20  C   UNL     1      12.362 -14.697 -20.910  1.00  0.00     0.004 C 
ENDBRANCH  18  19
ENDBRANCH  17  18
ENDBRANCH  16  17
ENDBRANCH  15  16
ENDBRANCH  14  15
ENDBRANCH  13  14
ENDBRANCH   2  13
TORSDOF 15
ENDMDL
MODEL 8
REMARK VINA RESULT:    -0.783      3.255      7.953
REMARK INTER + INTRA:          -3.469
REMARK INTER:                  -2.518
REMARK INTRA:                  -0.951
REMARK UNBOUND:                -1.999
REMARK SMILES CCCCCCCCC=CCCCCCCCC(=O)[O-]
REMARK SMILES IDX 10 1 9 2 11 3 12 4 13 5 14 6 15 7 16 8 17 9 18 10 19 11
REMARK SMILES IDX 20 12 8 13 7 14 6 15 5 16 4 17 3 18 2 19 1 20
REMARK H PARENT
REMARK Flexibility Score: inf
ROOT
ATOM      1  C   UNL     1       8.586 -16.994 -23.357  1.00  0.00    -0.031 C 
ATOM      2  C   UNL     1       8.177 -18.241 -23.056  1.00  0.00    -0.031 C 
ENDROOT
BRANCH   1   3
ATOM      3  C   UNL     1       7.766 -15.749 -23.133  1.00  0.00     0.027 C 
BRANCH   3   4
ATOM      4  C   UNL     1       8.227 -15.018 -21.865  1.00  0.00     0.004 C 
BRANCH   4   5
ATOM      5  C   UNL     1       7.350 -13.801 -21.535  1.00  0.00     0.000 C 
BRANCH   5   6
ATOM      6  C   UNL     1       7.169 -12.861 -22.740  1.00  0.00     0.000 C 
BRANCH   6   7
ATOM      7  C   UNL     1       7.471 -11.392 -22.399  1.00  0.00     0.000 C 
BRANCH   7   8
ATOM      8  C   UNL     1       8.748 -11.204 -21.550  1.00  0.00     0.006 C 
BRANCH   8   9
ATOM      9  C   UNL     1      10.044 -11.459 -22.337  1.00  0.00     0.053 C 
BRANCH   9  10
ATOM     10  C   UNL     1      11.068 -12.167 -21.503  1.00  0.00     0.041 C 
ATOM     11  O   UNL     1      10.998 -13.413 -21.334  1.00  0.00    -0.550 OA
ATOM     12  O   UNL     1      12.113 -11.454 -20.930  1.00  0.00    -0.550 OA
ENDBRANCH   9  10
ENDBRANCH   8   9
ENDBRANCH   7   8
ENDBRANCH   6   7
ENDBRANCH   5   6
ENDBRANCH   4   5
ENDBRANCH   3   4
ENDBRANCH   1   3
BRANCH   2  13
ATOM     13  C   UNL     1       6.876 -18.575 -22.366  1.00  0.00     0.027 C 
BRANCH  13  14
ATOM     14  C   UNL     1       7.085 -18.940 -20.889  1.00  0.00     0.004 C 
BRANCH  14  15
ATOM     15  C   UNL     1       6.915 -20.448 -20.636  1.00  0.00     0.000 C 
BRANCH  15  16
ATOM     16  C   UNL     1       7.469 -20.885 -19.272  1.00  0.00     0.000 C 
BRANCH  16  17
ATOM     17  C   UNL     1       6.914 -22.246 -18.813  1.00  0.00    -0.000 C 
BRANCH  17  18
ATOM     18  C   UNL     1       6.900 -22.379 -17.275  1.00  0.00    -0.000 C 
BRANCH  18  19
ATOM     19  C   UNL     1       7.754 -23.546 -16.752  1.00  0.00    -0.003 C 
ATOM     20  C   UNL     1       9.189 -23.139 -16.427  1.00  0.00     0.004 C 
ENDBRANCH  18  19
ENDBRANCH  17  18
ENDBRANCH  16  17
ENDBRANCH  15  16
ENDBRANCH  14  15
ENDBRANCH  13  14
ENDBRANCH   2  13
TORSDOF 15
ENDMDL
MODEL 9
REMARK VINA RESULT:    -0.147      2.357      6.645
REMARK INTER + INTRA:          -2.275
REMARK INTER:                  -1.658
REMARK INTRA:                  -0.617
REMARK UNBOUND:                -1.999
REMARK SMILES CCCCCCCCC=CCCCCCCCC(=O)[O-]
REMARK SMILES IDX 10 1 9 2 11 3 12 4 13 5 14 6 15 7 16 8 17 9 18 10 19 11
REMARK SMILES IDX 20 12 8 13 7 14 6 15 5 16 4 17 3 18 2 19 1 20
REMARK H PARENT
REMARK Flexibility Score: inf
ROOT
ATOM      1  C   UNL     1       7.465 -15.587 -20.353  1.00  0.00    -0.031 C 
ATOM      2  C   UNL     1       6.919 -16.211 -21.414  1.00  0.00    -0.031 C 
ENDROOT
BRANCH   1   3
ATOM      3  C   UNL     1       8.750 -14.800 -20.394  1.00  0.00     0.027 C 
BRANCH   3   4
ATOM      4  C   UNL     1       9.729 -15.414 -21.405  1.00  0.00     0.004 C 
BRANCH   4   5
ATOM      5  C   UNL     1      10.994 -14.562 -21.591  1.00  0.00     0.000 C 
BRANCH   5   6
ATOM      6  C   UNL     1      10.921 -13.226 -20.832  1.00  0.00     0.000 C 
BRANCH   6   7
ATOM      7  C   UNL     1      10.889 -12.009 -21.772  1.00  0.00     0.000 C 
BRANCH   7   8
ATOM      8  C   UNL     1       9.534 -11.265 -21.774  1.00  0.00     0.006 C 
BRANCH   8   9
ATOM      9  C   UNL     1       8.704 -11.517 -23.043  1.00  0.00     0.053 C 
BRANCH   9  10
ATOM     10  C   UNL     1       7.457 -12.293 -22.743  1.00  0.00     0.041 C 
ATOM     11  O   UNL     1       6.875 -12.937 -23.655  1.00  0.00    -0.550 OA
ATOM     12  O   UNL     1       6.952 -12.323 -21.449  1.00  0.00    -0.550 OA
ENDBRANCH   9  10
ENDBRANCH   8   9
ENDBRANCH   7   8
ENDBRANCH   6   7
ENDBRANCH   5   6
ENDBRANCH   4   5
ENDBRANCH   3   4
ENDBRANCH   1   3
BRANCH   2  13
ATOM     13  C   UNL     1       7.459 -16.143 -22.822  1.00  0.00     0.027 C 
BRANCH  13  14
ATOM     14  C   UNL     1       8.001 -17.499 -23.296  1.00  0.00     0.004 C 
BRANCH  14  15
ATOM     15  C   UNL     1       6.935 -18.607 -23.220  1.00  0.00     0.000 C 
BRANCH  15  16
ATOM     16  C   UNL     1       7.282 -19.691 -22.188  1.00  0.00     0.000 C 
BRANCH  16  17
ATOM     17  C   UNL     1       8.300 -19.209 -21.138  1.00  0.00    -0.000 C 
BRANCH  17  18
ATOM     18  C   UNL     1       8.229 -20.035 -19.837  1.00  0.00    -0.000 C 
BRANCH  18  19
ATOM     19  C   UNL     1       7.054 -21.026 -19.801  1.00  0.00    -0.003 C 
ATOM     20  C   UNL     1       6.875 -21.692 -18.438  1.00  0.00     0.004 C 
ENDBRANCH  18  19
ENDBRANCH  17  18
ENDBRANCH  16  17
ENDBRANCH  15  16
ENDBRANCH  14  15
ENDBRANCH  13  14
ENDBRANCH   2  13
TORSDOF 15
ENDMDL
