MODEL 1
REMARK VINA RESULT:    -3.666      0.000      0.000
REMARK INTER + INTRA:         -14.154
REMARK INTER:                  -9.238
REMARK INTRA:                  -4.915
REMARK UNBOUND:                -4.915
REMARK SMILES CCCCCCCCCCCCCCCCCCCCCCCCCCCC(=O)[O-]
REMARK SMILES IDX 15 1 16 2 17 3 18 4 19 5 20 6 21 7 22 8 23 9 24 10 25 11
REMARK SMILES IDX 26 12 27 13 28 14 29 15 30 16 14 17 13 18 12 19 11 20 10 21
REMARK SMILES IDX 9 22 8 23 7 24 6 25 5 26 4 27 3 28 2 29 1 30
REMARK H PARENT
REMARK Flexibility Score: inf
ROOT
ATOM      1  C   UNL     1      44.417  30.570  92.249  1.00  0.00     0.000 C 
ENDROOT
BRANCH   1   2
ATOM      2  C   UNL     1      44.975  31.383  91.066  1.00  0.00     0.000 C 
BRANCH   2   3
ATOM      3  C   UNL     1      46.386  30.934  90.642  1.00  0.00     0.000 C 
BRANCH   3   4
ATOM      4  C   UNL     1      46.982  31.696  89.443  1.00  0.00     0.000 C 
BRANCH   4   5
ATOM      5  C   UNL     1      47.438  30.766  88.305  1.00  0.00     0.000 C 
BRANCH   5   6
ATOM      6  C   UNL     1      47.655  31.524  86.983  1.00  0.00     0.000 C 
BRANCH   6   7
ATOM      7  C   UNL     1      48.387  32.860  87.201  1.00  0.00     0.000 C 
BRANCH   7   8
ATOM      8  C   UNL     1      49.803  32.867  86.598  1.00  0.00     0.000 C 
BRANCH   8   9
ATOM      9  C   UNL     1      50.916  33.205  87.614  1.00  0.00     0.000 C 
BRANCH   9  10
ATOM     10  C   UNL     1      51.860  32.029  87.918  1.00  0.00     0.000 C 
BRANCH  10  11
ATOM     11  C   UNL     1      51.110  30.743  88.289  1.00  0.00     0.000 C 
BRANCH  11  12
ATOM     12  C   UNL     1      51.354  30.363  89.758  1.00  0.00     0.006 C 
BRANCH  12  13
ATOM     13  C   UNL     1      50.527  31.222  90.723  1.00  0.00     0.053 C 
BRANCH  13  14
ATOM     14  C   UNL     1      51.399  31.999  91.662  1.00  0.00     0.041 C 
ATOM     15  O   UNL     1      52.539  32.386  91.294  1.00  0.00    -0.550 OA
ATOM     16  O   UNL     1      50.934  32.328  92.929  1.00  0.00    -0.550 OA
ENDBRANCH  13  14
ENDBRANCH  12  13
ENDBRANCH  11  12
ENDBRANCH  10  11
ENDBRANCH   9  10
ENDBRANCH   8   9
ENDBRANCH   7   8
ENDBRANCH   6   7
ENDBRANCH   5   6
ENDBRANCH   4   5
ENDBRANCH   3   4
ENDBRANCH   2   3
ENDBRANCH   1   2
BRANCH   1  17
ATOM     17  C   UNL     1      43.318  29.582  91.818  1.00  0.00     0.000 C 
BRANCH  17  18
ATOM     18  C   UNL     1      43.887  28.279  91.233  1.00  0.00     0.000 C 
BRANCH  18  19
ATOM     19  C   UNL     1      42.920  27.600  90.246  1.00  0.00     0.000 C 
BRANCH  19  20
ATOM     20  C   UNL     1      43.379  27.613  88.773  1.00  0.00     0.000 C 
BRANCH  20  21
ATOM     21  C   UNL     1      44.404  28.707  88.418  1.00  0.00     0.000 C 
BRANCH  21  22
ATOM     22  C   UNL     1      43.868  29.841  87.520  1.00  0.00    -0.000 C 
BRANCH  22  23
ATOM     23  C   UNL     1      43.039  30.914  88.247  1.00  0.00    -0.000 C 
BRANCH  23  24
ATOM     24  C   UNL     1      41.907  31.484  87.376  1.00  0.00    -0.000 C 
BRANCH  24  25
ATOM     25  C   UNL     1      40.514  31.073  87.877  1.00  0.00    -0.000 C 
BRANCH  25  26
ATOM     26  C   UNL     1      40.575  30.117  89.081  1.00  0.00    -0.000 C 
BRANCH  26  27
ATOM     27  C   UNL     1      39.732  28.845  88.878  1.00  0.00    -0.000 C 
BRANCH  27  28
ATOM     28  C   UNL     1      39.402  28.517  87.410  1.00  0.00    -0.000 C 
BRANCH  28  29
ATOM     29  C   UNL     1      40.412  27.555  86.767  1.00  0.00    -0.003 C 
ATOM     30  C   UNL     1      41.149  28.228  85.611  1.00  0.00     0.004 C 
ENDBRANCH  28  29
ENDBRANCH  27  28
ENDBRANCH  26  27
ENDBRANCH  25  26
ENDBRANCH  24  25
ENDBRANCH  23  24
ENDBRANCH  22  23
ENDBRANCH  21  22
ENDBRANCH  20  21
ENDBRANCH  19  20
ENDBRANCH  18  19
ENDBRANCH  17  18
ENDBRANCH   1  17
TORSDOF 26
ENDMDL
MODEL 2
REMARK VINA RESULT:    -3.442      2.487      4.905
REMARK INTER + INTRA:         -13.590
REMARK INTER:                  -7.645
REMARK INTRA:                  -5.945
REMARK UNBOUND:                -4.915
REMARK SMILES CCCCCCCCCCCCCCCCCCCCCCCCCCCC(=O)[O-]
REMARK SMILES IDX 15 1 16 2 17 3 18 4 19 5 20 6 21 7 22 8 23 9 24 10 25 11
REMARK SMILES IDX 26 12 27 13 28 14 29 15 30 16 14 17 13 18 12 19 11 20 10 21
REMARK SMILES IDX 9 22 8 23 7 24 6 25 5 26 4 27 3 28 2 29 1 30
REMARK H PARENT
REMARK Flexibility Score: inf
ROOT
ATOM      1  C   UNL     1      44.337  26.789  86.683  1.00  0.00     0.000 C 
ENDROOT
BRANCH   1   2
ATOM      2  C   UNL     1      45.426  27.641  87.361  1.00  0.00     0.000 C 
BRANCH   2   3
ATOM      3  C   UNL     1      44.974  28.227  88.712  1.00  0.00     0.000 C 
BRANCH   3   4
ATOM      4  C   UNL     1      45.536  27.511  89.955  1.00  0.00     0.000 C 
BRANCH   4   5
ATOM      5  C   UNL     1      44.649  27.684  91.201  1.00  0.00     0.000 C 
BRANCH   5   6
ATOM      6  C   UNL     1      45.161  28.796  92.134  1.00  0.00     0.000 C 
BRANCH   6   7
ATOM      7  C   UNL     1      44.166  29.965  92.232  1.00  0.00     0.000 C 
BRANCH   7   8
ATOM      8  C   UNL     1      44.746  31.286  91.694  1.00  0.00     0.000 C 
BRANCH   8   9
ATOM      9  C   UNL     1      44.645  31.437  90.161  1.00  0.00     0.000 C 
BRANCH   9  10
ATOM     10  C   UNL     1      46.001  31.645  89.464  1.00  0.00     0.000 C 
BRANCH  10  11
ATOM     11  C   UNL     1      47.190  31.223  90.337  1.00  0.00     0.000 C 
BRANCH  11  12
ATOM     12  C   UNL     1      48.180  30.356  89.544  1.00  0.00     0.006 C 
BRANCH  12  13
ATOM     13  C   UNL     1      47.891  30.377  88.038  1.00  0.00     0.053 C 
BRANCH  13  14
ATOM     14  C   UNL     1      48.891  29.569  87.269  1.00  0.00     0.041 C 
ATOM     15  O   UNL     1      48.557  29.005  86.194  1.00  0.00    -0.550 OA
ATOM     16  O   UNL     1      50.201  29.473  87.720  1.00  0.00    -0.550 OA
ENDBRANCH  13  14
ENDBRANCH  12  13
ENDBRANCH  11  12
ENDBRANCH  10  11
ENDBRANCH   9  10
ENDBRANCH   8   9
ENDBRANCH   7   8
ENDBRANCH   6   7
ENDBRANCH   5   6
ENDBRANCH   4   5
ENDBRANCH   3   4
ENDBRANCH   2   3
ENDBRANCH   1   2
BRANCH   1  17
ATOM     17  C   UNL     1      42.921  27.149  87.167  1.00  0.00     0.000 C 
BRANCH  17  18
ATOM     18  C   UNL     1      41.958  27.458  86.009  1.00  0.00     0.000 C 
BRANCH  18  19
ATOM     19  C   UNL     1      41.510  28.931  85.986  1.00  0.00     0.000 C 
BRANCH  19  20
ATOM     20  C   UNL     1      42.575  29.943  86.458  1.00  0.00     0.000 C 
BRANCH  20  21
ATOM     21  C   UNL     1      42.099  30.938  87.535  1.00  0.00     0.000 C 
BRANCH  21  22
ATOM     22  C   UNL     1      40.596  30.866  87.873  1.00  0.00    -0.000 C 
BRANCH  22  23
ATOM     23  C   UNL     1      40.261  30.231  89.235  1.00  0.00    -0.000 C 
BRANCH  23  24
ATOM     24  C   UNL     1      41.466  29.521  89.872  1.00  0.00    -0.000 C 
BRANCH  24  25
ATOM     25  C   UNL     1      41.176  28.049  90.201  1.00  0.00    -0.000 C 
BRANCH  25  26
ATOM     26  C   UNL     1      39.731  27.639  89.865  1.00  0.00    -0.000 C 
BRANCH  26  27
ATOM     27  C   UNL     1      39.658  26.498  88.835  1.00  0.00    -0.000 C 
BRANCH  27  28
ATOM     28  C   UNL     1      38.736  26.772  87.633  1.00  0.00    -0.000 C 
BRANCH  28  29
ATOM     29  C   UNL     1      37.512  27.628  87.994  1.00  0.00    -0.003 C 
ATOM     30  C   UNL     1      37.467  28.901  87.152  1.00  0.00     0.004 C 
ENDBRANCH  28  29
ENDBRANCH  27  28
ENDBRANCH  26  27
ENDBRANCH  25  26
ENDBRANCH  24  25
ENDBRANCH  23  24
ENDBRANCH  22  23
ENDBRANCH  21  22
ENDBRANCH  20  21
ENDBRANCH  19  20
ENDBRANCH  18  19
ENDBRANCH  17  18
ENDBRANCH   1  17
TORSDOF 26
ENDMDL
MODEL 3
REMARK VINA RESULT:    -3.434      3.574      6.374
REMARK INTER + INTRA:         -13.568
REMARK INTER:                  -9.151
REMARK INTRA:                  -4.417
REMARK UNBOUND:                -4.915
REMARK SMILES CCCCCCCCCCCCCCCCCCCCCCCCCCCC(=O)[O-]
REMARK SMILES IDX 15 1 16 2 17 3 18 4 19 5 20 6 21 7 22 8 23 9 24 10 25 11
REMARK SMILES IDX 26 12 27 13 28 14 29 15 30 16 14 17 13 18 12 19 11 20 10 21
REMARK SMILES IDX 9 22 8 23 7 24 6 25 5 26 4 27 3 28 2 29 1 30
REMARK H PARENT
REMARK Flexibility Score: inf
ROOT
ATOM      1  C   UNL     1      49.140  31.101  86.468  1.00  0.00     0.000 C 
ENDROOT
BRANCH   1   2
ATOM      2  C   UNL     1      48.595  32.485  86.067  1.00  0.00     0.000 C 
BRANCH   2   3
ATOM      3  C   UNL     1      48.944  33.585  87.087  1.00  0.00     0.000 C 
BRANCH   3   4
ATOM      4  C   UNL     1      49.198  34.979  86.484  1.00  0.00     0.000 C 
BRANCH   4   5
ATOM      5  C   UNL     1      50.481  35.641  87.017  1.00  0.00     0.000 C 
BRANCH   5   6
ATOM      6  C   UNL     1      51.578  34.612  87.344  1.00  0.00     0.000 C 
BRANCH   6   7
ATOM      7  C   UNL     1      52.811  34.779  86.440  1.00  0.00     0.000 C 
BRANCH   7   8
ATOM      8  C   UNL     1      52.871  33.729  85.316  1.00  0.00     0.000 C 
BRANCH   8   9
ATOM      9  C   UNL     1      52.817  34.328  83.894  1.00  0.00     0.000 C 
BRANCH   9  10
ATOM     10  C   UNL     1      51.402  34.379  83.293  1.00  0.00     0.000 C 
BRANCH  10  11
ATOM     11  C   UNL     1      50.689  33.021  83.329  1.00  0.00     0.000 C 
BRANCH  11  12
ATOM     12  C   UNL     1      49.396  33.051  82.499  1.00  0.00     0.006 C 
BRANCH  12  13
ATOM     13  C   UNL     1      48.742  31.668  82.396  1.00  0.00     0.053 C 
BRANCH  13  14
ATOM     14  C   UNL     1      47.263  31.733  82.625  1.00  0.00     0.041 C 
ATOM     15  O   UNL     1      46.719  30.976  83.471  1.00  0.00    -0.550 OA
ATOM     16  O   UNL     1      46.494  32.660  81.933  1.00  0.00    -0.550 OA
ENDBRANCH  13  14
ENDBRANCH  12  13
ENDBRANCH  11  12
ENDBRANCH  10  11
ENDBRANCH   9  10
ENDBRANCH   8   9
ENDBRANCH   7   8
ENDBRANCH   6   7
ENDBRANCH   5   6
ENDBRANCH   4   5
ENDBRANCH   3   4
ENDBRANCH   2   3
ENDBRANCH   1   2
BRANCH   1  17
ATOM     17  C   UNL     1      50.638  31.137  86.820  1.00  0.00     0.000 C 
BRANCH  17  18
ATOM     18  C   UNL     1      50.951  30.438  88.153  1.00  0.00     0.000 C 
BRANCH  18  19
ATOM     19  C   UNL     1      50.826  31.383  89.362  1.00  0.00     0.000 C 
BRANCH  19  20
ATOM     20  C   UNL     1      49.899  30.879  90.488  1.00  0.00     0.000 C 
BRANCH  20  21
ATOM     21  C   UNL     1      48.532  30.345  90.018  1.00  0.00     0.000 C 
BRANCH  21  22
ATOM     22  C   UNL     1      47.331  31.267  90.316  1.00  0.00    -0.000 C 
BRANCH  22  23
ATOM     23  C   UNL     1      46.519  31.701  89.083  1.00  0.00    -0.000 C 
BRANCH  23  24
ATOM     24  C   UNL     1      45.074  31.177  89.107  1.00  0.00    -0.000 C 
BRANCH  24  25
ATOM     25  C   UNL     1      44.627  30.744  90.511  1.00  0.00    -0.000 C 
BRANCH  25  26
ATOM     26  C   UNL     1      43.212  30.138  90.523  1.00  0.00    -0.000 C 
BRANCH  26  27
ATOM     27  C   UNL     1      43.055  28.969  89.535  1.00  0.00    -0.000 C 
BRANCH  27  28
ATOM     28  C   UNL     1      42.007  29.194  88.429  1.00  0.00    -0.000 C 
BRANCH  28  29
ATOM     29  C   UNL     1      41.371  30.591  88.478  1.00  0.00    -0.003 C 
ATOM     30  C   UNL     1      41.745  31.407  87.243  1.00  0.00     0.004 C 
ENDBRANCH  28  29
ENDBRANCH  27  28
ENDBRANCH  26  27
ENDBRANCH  25  26
ENDBRANCH  24  25
ENDBRANCH  23  24
ENDBRANCH  22  23
ENDBRANCH  21  22
ENDBRANCH  20  21
ENDBRANCH  19  20
ENDBRANCH  18  19
ENDBRANCH  17  18
ENDBRANCH   1  17
TORSDOF 26
ENDMDL
MODEL 4
REMARK VINA RESULT:    -3.386      2.989      4.906
REMARK INTER + INTRA:         -13.448
REMARK INTER:                  -7.807
REMARK INTRA:                  -5.641
REMARK UNBOUND:                -4.915
REMARK SMILES CCCCCCCCCCCCCCCCCCCCCCCCCCCC(=O)[O-]
REMARK SMILES IDX 15 1 16 2 17 3 18 4 19 5 20 6 21 7 22 8 23 9 24 10 25 11
REMARK SMILES IDX 26 12 27 13 28 14 29 15 30 16 14 17 13 18 12 19 11 20 10 21
REMARK SMILES IDX 9 22 8 23 7 24 6 25 5 26 4 27 3 28 2 29 1 30
REMARK H PARENT
REMARK Flexibility Score: inf
ROOT
ATOM      1  C   UNL     1      40.677  28.617  89.833  1.00  0.00     0.000 C 
ENDROOT
BRANCH   1   2
ATOM      2  C   UNL     1      41.984  28.292  90.579  1.00  0.00     0.000 C 
BRANCH   2   3
ATOM      3  C   UNL     1      42.608  29.524  91.261  1.00  0.00     0.000 C 
BRANCH   3   4
ATOM      4  C   UNL     1      43.817  29.228  92.167  1.00  0.00     0.000 C 
BRANCH   4   5
ATOM      5  C   UNL     1      45.036  30.115  91.855  1.00  0.00     0.000 C 
BRANCH   5   6
ATOM      6  C   UNL     1      44.711  31.211  90.824  1.00  0.00     0.000 C 
BRANCH   6   7
ATOM      7  C   UNL     1      45.894  31.476  89.876  1.00  0.00     0.000 C 
BRANCH   7   8
ATOM      8  C   UNL     1      47.182  30.758  90.318  1.00  0.00     0.000 C 
BRANCH   8   9
ATOM      9  C   UNL     1      47.769  29.809  89.250  1.00  0.00     0.000 C 
BRANCH   9  10
ATOM     10  C   UNL     1      46.789  29.465  88.115  1.00  0.00     0.000 C 
BRANCH  10  11
ATOM     11  C   UNL     1      46.394  27.983  88.097  1.00  0.00     0.000 C 
BRANCH  11  12
ATOM     12  C   UNL     1      45.332  27.679  89.166  1.00  0.00     0.006 C 
BRANCH  12  13
ATOM     13  C   UNL     1      45.622  26.373  89.915  1.00  0.00     0.053 C 
BRANCH  13  14
ATOM     14  C   UNL     1      46.926  26.431  90.651  1.00  0.00     0.041 C 
ATOM     15  O   UNL     1      47.886  25.697  90.297  1.00  0.00    -0.550 OA
ATOM     16  O   UNL     1      47.092  27.326  91.700  1.00  0.00    -0.550 OA
ENDBRANCH  13  14
ENDBRANCH  12  13
ENDBRANCH  11  12
ENDBRANCH  10  11
ENDBRANCH   9  10
ENDBRANCH   8   9
ENDBRANCH   7   8
ENDBRANCH   6   7
ENDBRANCH   5   6
ENDBRANCH   4   5
ENDBRANCH   3   4
ENDBRANCH   2   3
ENDBRANCH   1   2
BRANCH   1  17
ATOM     17  C   UNL     1      40.467  30.130  89.644  1.00  0.00     0.000 C 
BRANCH  17  18
ATOM     18  C   UNL     1      40.025  30.494  88.218  1.00  0.00     0.000 C 
BRANCH  18  19
ATOM     19  C   UNL     1      41.053  31.376  87.485  1.00  0.00     0.000 C 
BRANCH  19  20
ATOM     20  C   UNL     1      42.517  31.176  87.929  1.00  0.00     0.000 C 
BRANCH  20  21
ATOM     21  C   UNL     1      43.198  29.907  87.381  1.00  0.00     0.000 C 
BRANCH  21  22
ATOM     22  C   UNL     1      43.020  29.670  85.868  1.00  0.00    -0.000 C 
BRANCH  22  23
ATOM     23  C   UNL     1      42.201  28.422  85.493  1.00  0.00    -0.000 C 
BRANCH  23  24
ATOM     24  C   UNL     1      42.168  27.372  86.615  1.00  0.00    -0.000 C 
BRANCH  24  25
ATOM     25  C   UNL     1      40.791  26.707  86.760  1.00  0.00    -0.000 C 
BRANCH  25  26
ATOM     26  C   UNL     1      39.649  27.585  86.218  1.00  0.00    -0.000 C 
BRANCH  26  27
ATOM     27  C   UNL     1      38.399  26.771  85.838  1.00  0.00    -0.000 C 
BRANCH  27  28
ATOM     28  C   UNL     1      37.216  26.911  86.814  1.00  0.00    -0.000 C 
BRANCH  28  29
ATOM     29  C   UNL     1      37.128  28.303  87.458  1.00  0.00    -0.003 C 
ATOM     30  C   UNL     1      36.262  29.240  86.620  1.00  0.00     0.004 C 
ENDBRANCH  28  29
ENDBRANCH  27  28
ENDBRANCH  26  27
ENDBRANCH  25  26
ENDBRANCH  24  25
ENDBRANCH  23  24
ENDBRANCH  22  23
ENDBRANCH  21  22
ENDBRANCH  20  21
ENDBRANCH  19  20
ENDBRANCH  18  19
ENDBRANCH  17  18
ENDBRANCH   1  17
TORSDOF 26
ENDMDL
MODEL 5
REMARK VINA RESULT:    -3.386      4.204      7.705
REMARK INTER + INTRA:         -13.447
REMARK INTER:                  -8.724
REMARK INTRA:                  -4.724
REMARK UNBOUND:                -4.915
REMARK SMILES CCCCCCCCCCCCCCCCCCCCCCCCCCCC(=O)[O-]
REMARK SMILES IDX 15 1 16 2 17 3 18 4 19 5 20 6 21 7 22 8 23 9 24 10 25 11
REMARK SMILES IDX 26 12 27 13 28 14 29 15 30 16 14 17 13 18 12 19 11 20 10 21
REMARK SMILES IDX 9 22 8 23 7 24 6 25 5 26 4 27 3 28 2 29 1 30
REMARK H PARENT
REMARK Flexibility Score: inf
ROOT
ATOM      1  C   UNL     1      51.833  30.362  86.636  1.00  0.00     0.000 C 
ENDROOT
BRANCH   1   2
ATOM      2  C   UNL     1      50.930  30.691  85.433  1.00  0.00     0.000 C 
BRANCH   2   3
ATOM      3  C   UNL     1      49.544  31.218  85.850  1.00  0.00     0.000 C 
BRANCH   3   4
ATOM      4  C   UNL     1      49.178  32.608  85.295  1.00  0.00     0.000 C 
BRANCH   4   5
ATOM      5  C   UNL     1      49.107  33.692  86.385  1.00  0.00     0.000 C 
BRANCH   5   6
ATOM      6  C   UNL     1      49.962  34.925  86.041  1.00  0.00     0.000 C 
BRANCH   6   7
ATOM      7  C   UNL     1      50.856  35.350  87.218  1.00  0.00     0.000 C 
BRANCH   7   8
ATOM      8  C   UNL     1      52.348  35.067  86.964  1.00  0.00     0.000 C 
BRANCH   8   9
ATOM      9  C   UNL     1      52.707  34.888  85.473  1.00  0.00     0.000 C 
BRANCH   9  10
ATOM     10  C   UNL     1      53.342  33.525  85.143  1.00  0.00     0.000 C 
BRANCH  10  11
ATOM     11  C   UNL     1      53.119  33.101  83.686  1.00  0.00     0.000 C 
BRANCH  11  12
ATOM     12  C   UNL     1      52.301  34.153  82.921  1.00  0.00     0.006 C 
BRANCH  12  13
ATOM     13  C   UNL     1      51.064  33.547  82.246  1.00  0.00     0.053 C 
BRANCH  13  14
ATOM     14  C   UNL     1      50.058  34.596  81.885  1.00  0.00     0.041 C 
ATOM     15  O   UNL     1      50.029  35.072  80.720  1.00  0.00    -0.550 OA
ATOM     16  O   UNL     1      49.125  35.016  82.825  1.00  0.00    -0.550 OA
ENDBRANCH  13  14
ENDBRANCH  12  13
ENDBRANCH  11  12
ENDBRANCH  10  11
ENDBRANCH   9  10
ENDBRANCH   8   9
ENDBRANCH   7   8
ENDBRANCH   6   7
ENDBRANCH   5   6
ENDBRANCH   4   5
ENDBRANCH   3   4
ENDBRANCH   2   3
ENDBRANCH   1   2
BRANCH   1  17
ATOM     17  C   UNL     1      51.704  31.396  87.769  1.00  0.00     0.000 C 
BRANCH  17  18
ATOM     18  C   UNL     1      53.049  31.704  88.447  1.00  0.00     0.000 C 
BRANCH  18  19
ATOM     19  C   UNL     1      52.898  32.608  89.684  1.00  0.00     0.000 C 
BRANCH  19  20
ATOM     20  C   UNL     1      52.874  31.863  91.035  1.00  0.00     0.000 C 
BRANCH  20  21
ATOM     21  C   UNL     1      51.475  31.436  91.522  1.00  0.00     0.000 C 
BRANCH  21  22
ATOM     22  C   UNL     1      51.096  29.972  91.221  1.00  0.00    -0.000 C 
BRANCH  22  23
ATOM     23  C   UNL     1      49.786  29.784  90.436  1.00  0.00    -0.000 C 
BRANCH  23  24
ATOM     24  C   UNL     1      48.866  31.013  90.509  1.00  0.00    -0.000 C 
BRANCH  24  25
ATOM     25  C   UNL     1      48.211  31.341  89.159  1.00  0.00    -0.000 C 
BRANCH  25  26
ATOM     26  C   UNL     1      46.684  31.503  89.264  1.00  0.00    -0.000 C 
BRANCH  26  27
ATOM     27  C   UNL     1      46.086  30.756  90.469  1.00  0.00    -0.000 C 
BRANCH  27  28
ATOM     28  C   UNL     1      44.882  31.454  91.128  1.00  0.00    -0.000 C 
BRANCH  28  29
ATOM     29  C   UNL     1      43.917  30.473  91.811  1.00  0.00    -0.003 C 
ATOM     30  C   UNL     1      44.666  29.257  92.353  1.00  0.00     0.004 C 
ENDBRANCH  28  29
ENDBRANCH  27  28
ENDBRANCH  26  27
ENDBRANCH  25  26
ENDBRANCH  24  25
ENDBRANCH  23  24
ENDBRANCH  22  23
ENDBRANCH  21  22
ENDBRANCH  20  21
ENDBRANCH  19  20
ENDBRANCH  18  19
ENDBRANCH  17  18
ENDBRANCH   1  17
TORSDOF 26
ENDMDL
MODEL 6
REMARK VINA RESULT:    -3.334      3.480      8.908
REMARK INTER + INTRA:         -13.316
REMARK INTER:                  -8.451
REMARK INTRA:                  -4.864
REMARK UNBOUND:                -4.915
REMARK SMILES CCCCCCCCCCCCCCCCCCCCCCCCCCCC(=O)[O-]
REMARK SMILES IDX 15 1 16 2 17 3 18 4 19 5 20 6 21 7 22 8 23 9 24 10 25 11
REMARK SMILES IDX 26 12 27 13 28 14 29 15 30 16 14 17 13 18 12 19 11 20 10 21
REMARK SMILES IDX 9 22 8 23 7 24 6 25 5 26 4 27 3 28 2 29 1 30
REMARK H PARENT
REMARK Flexibility Score: inf
ROOT
ATOM      1  C   UNL     1      46.170  29.866  87.139  1.00  0.00     0.000 C 
ENDROOT
BRANCH   1   2
ATOM      2  C   UNL     1      45.430  28.769  87.927  1.00  0.00     0.000 C 
BRANCH   2   3
ATOM      3  C   UNL     1      46.372  27.924  88.806  1.00  0.00     0.000 C 
BRANCH   3   4
ATOM      4  C   UNL     1      45.795  27.512  90.174  1.00  0.00     0.000 C 
BRANCH   4   5
ATOM      5  C   UNL     1      46.306  28.387  91.332  1.00  0.00     0.000 C 
BRANCH   5   6
ATOM      6  C   UNL     1      45.164  29.127  92.052  1.00  0.00     0.000 C 
BRANCH   6   7
ATOM      7  C   UNL     1      44.894  30.509  91.432  1.00  0.00     0.000 C 
BRANCH   7   8
ATOM      8  C   UNL     1      43.618  30.535  90.572  1.00  0.00     0.000 C 
BRANCH   8   9
ATOM      9  C   UNL     1      42.620  29.402  90.896  1.00  0.00     0.000 C 
BRANCH   9  10
ATOM     10  C   UNL     1      41.654  29.074  89.744  1.00  0.00     0.000 C 
BRANCH  10  11
ATOM     11  C   UNL     1      40.675  30.217  89.445  1.00  0.00     0.000 C 
BRANCH  11  12
ATOM     12  C   UNL     1      40.582  30.486  87.935  1.00  0.00     0.006 C 
BRANCH  12  13
ATOM     13  C   UNL     1      41.961  30.507  87.264  1.00  0.00     0.053 C 
BRANCH  13  14
ATOM     14  C   UNL     1      42.052  29.512  86.148  1.00  0.00     0.041 C 
ATOM     15  O   UNL     1      41.104  28.711  85.934  1.00  0.00    -0.550 OA
ATOM     16  O   UNL     1      43.168  29.497  85.320  1.00  0.00    -0.550 OA
ENDBRANCH  13  14
ENDBRANCH  12  13
ENDBRANCH  11  12
ENDBRANCH  10  11
ENDBRANCH   9  10
ENDBRANCH   8   9
ENDBRANCH   7   8
ENDBRANCH   6   7
ENDBRANCH   5   6
ENDBRANCH   4   5
ENDBRANCH   3   4
ENDBRANCH   2   3
ENDBRANCH   1   2
BRANCH   1  17
ATOM     17  C   UNL     1      47.497  30.274  87.802  1.00  0.00     0.000 C 
BRANCH  17  18
ATOM     18  C   UNL     1      47.356  31.516  88.696  1.00  0.00     0.000 C 
BRANCH  18  19
ATOM     19  C   UNL     1      48.058  31.351  90.057  1.00  0.00     0.000 C 
BRANCH  19  20
ATOM     20  C   UNL     1      49.121  30.234  90.110  1.00  0.00     0.000 C 
BRANCH  20  21
ATOM     21  C   UNL     1      50.501  30.670  90.638  1.00  0.00     0.000 C 
BRANCH  21  22
ATOM     22  C   UNL     1      51.346  31.504  89.652  1.00  0.00    -0.000 C 
BRANCH  22  23
ATOM     23  C   UNL     1      51.485  30.904  88.242  1.00  0.00    -0.000 C 
BRANCH  23  24
ATOM     24  C   UNL     1      50.912  31.819  87.147  1.00  0.00    -0.000 C 
BRANCH  24  25
ATOM     25  C   UNL     1      50.849  33.291  87.582  1.00  0.00    -0.000 C 
BRANCH  25  26
ATOM     26  C   UNL     1      49.595  34.012  87.055  1.00  0.00    -0.000 C 
BRANCH  26  27
ATOM     27  C   UNL     1      49.180  33.539  85.651  1.00  0.00    -0.000 C 
BRANCH  27  28
ATOM     28  C   UNL     1      49.511  34.523  84.514  1.00  0.00    -0.000 C 
BRANCH  28  29
ATOM     29  C   UNL     1      50.712  34.080  83.664  1.00  0.00    -0.003 C 
ATOM     30  C   UNL     1      52.028  34.391  84.373  1.00  0.00     0.004 C 
ENDBRANCH  28  29
ENDBRANCH  27  28
ENDBRANCH  26  27
ENDBRANCH  25  26
ENDBRANCH  24  25
ENDBRANCH  23  24
ENDBRANCH  22  23
ENDBRANCH  21  22
ENDBRANCH  20  21
ENDBRANCH  19  20
ENDBRANCH  18  19
ENDBRANCH  17  18
ENDBRANCH   1  17
TORSDOF 26
ENDMDL
MODEL 7
REMARK VINA RESULT:    -3.325      1.789      2.809
REMARK INTER + INTRA:         -13.295
REMARK INTER:                  -9.233
REMARK INTRA:                  -4.062
REMARK UNBOUND:                -4.915
REMARK SMILES CCCCCCCCCCCCCCCCCCCCCCCCCCCC(=O)[O-]
REMARK SMILES IDX 15 1 16 2 17 3 18 4 19 5 20 6 21 7 22 8 23 9 24 10 25 11
REMARK SMILES IDX 26 12 27 13 28 14 29 15 30 16 14 17 13 18 12 19 11 20 10 21
REMARK SMILES IDX 9 22 8 23 7 24 6 25 5 26 4 27 3 28 2 29 1 30
REMARK H PARENT
REMARK Flexibility Score: inf
ROOT
ATOM      1  C   UNL     1      46.984  27.818  89.926  1.00  0.00     0.000 C 
ENDROOT
BRANCH   1   2
ATOM      2  C   UNL     1      47.880  28.651  90.861  1.00  0.00     0.000 C 
BRANCH   2   3
ATOM      3  C   UNL     1      48.961  29.445  90.105  1.00  0.00     0.000 C 
BRANCH   3   4
ATOM      4  C   UNL     1      48.585  30.899  89.760  1.00  0.00     0.000 C 
BRANCH   4   5
ATOM      5  C   UNL     1      48.646  31.195  88.251  1.00  0.00     0.000 C 
BRANCH   5   6
ATOM      6  C   UNL     1      47.851  32.457  87.871  1.00  0.00     0.000 C 
BRANCH   6   7
ATOM      7  C   UNL     1      48.732  33.495  87.154  1.00  0.00     0.000 C 
BRANCH   7   8
ATOM      8  C   UNL     1      49.759  32.849  86.206  1.00  0.00     0.000 C 
BRANCH   8   9
ATOM      9  C   UNL     1      51.152  33.514  86.243  1.00  0.00     0.000 C 
BRANCH   9  10
ATOM     10  C   UNL     1      51.736  33.659  87.659  1.00  0.00     0.000 C 
BRANCH  10  11
ATOM     11  C   UNL     1      52.201  32.322  88.251  1.00  0.00     0.000 C 
BRANCH  11  12
ATOM     12  C   UNL     1      52.061  32.314  89.781  1.00  0.00     0.006 C 
BRANCH  12  13
ATOM     13  C   UNL     1      53.378  31.958  90.482  1.00  0.00     0.053 C 
BRANCH  13  14
ATOM     14  C   UNL     1      54.474  32.914  90.124  1.00  0.00     0.041 C 
ATOM     15  O   UNL     1      55.508  32.500  89.537  1.00  0.00    -0.550 OA
ATOM     16  O   UNL     1      54.334  34.267  90.403  1.00  0.00    -0.550 OA
ENDBRANCH  13  14
ENDBRANCH  12  13
ENDBRANCH  11  12
ENDBRANCH  10  11
ENDBRANCH   9  10
ENDBRANCH   8   9
ENDBRANCH   7   8
ENDBRANCH   6   7
ENDBRANCH   5   6
ENDBRANCH   4   5
ENDBRANCH   3   4
ENDBRANCH   2   3
ENDBRANCH   1   2
BRANCH   1  17
ATOM     17  C   UNL     1      45.550  27.667  90.464  1.00  0.00     0.000 C 
BRANCH  17  18
ATOM     18  C   UNL     1      45.373  28.280  91.862  1.00  0.00     0.000 C 
BRANCH  18  19
ATOM     19  C   UNL     1      44.079  29.105  91.990  1.00  0.00     0.000 C 
BRANCH  19  20
ATOM     20  C   UNL     1      44.291  30.616  92.217  1.00  0.00     0.000 C 
BRANCH  20  21
ATOM     21  C   UNL     1      45.208  31.309  91.191  1.00  0.00     0.000 C 
BRANCH  21  22
ATOM     22  C   UNL     1      44.553  31.612  89.827  1.00  0.00    -0.000 C 
BRANCH  22  23
ATOM     23  C   UNL     1      44.944  30.655  88.687  1.00  0.00    -0.000 C 
BRANCH  23  24
ATOM     24  C   UNL     1      43.751  30.270  87.798  1.00  0.00    -0.000 C 
BRANCH  24  25
ATOM     25  C   UNL     1      42.600  31.283  87.883  1.00  0.00    -0.000 C 
BRANCH  25  26
ATOM     26  C   UNL     1      41.247  30.681  87.463  1.00  0.00    -0.000 C 
BRANCH  26  27
ATOM     27  C   UNL     1      40.267  30.536  88.641  1.00  0.00    -0.000 C 
BRANCH  27  28
ATOM     28  C   UNL     1      40.805  29.725  89.833  1.00  0.00    -0.000 C 
BRANCH  28  29
ATOM     29  C   UNL     1      40.432  28.236  89.767  1.00  0.00    -0.003 C 
ATOM     30  C   UNL     1      39.359  27.987  88.710  1.00  0.00     0.004 C 
ENDBRANCH  28  29
ENDBRANCH  27  28
ENDBRANCH  26  27
ENDBRANCH  25  26
ENDBRANCH  24  25
ENDBRANCH  23  24
ENDBRANCH  22  23
ENDBRANCH  21  22
ENDBRANCH  20  21
ENDBRANCH  19  20
ENDBRANCH  18  19
ENDBRANCH  17  18
ENDBRANCH   1  17
TORSDOF 26
ENDMDL
MODEL 8
REMARK VINA RESULT:    -3.312      2.635      3.946
REMARK INTER + INTRA:         -13.261
REMARK INTER:                  -8.280
REMARK INTRA:                  -4.981
REMARK UNBOUND:                -4.915
REMARK SMILES CCCCCCCCCCCCCCCCCCCCCCCCCCCC(=O)[O-]
REMARK SMILES IDX 15 1 16 2 17 3 18 4 19 5 20 6 21 7 22 8 23 9 24 10 25 11
REMARK SMILES IDX 26 12 27 13 28 14 29 15 30 16 14 17 13 18 12 19 11 20 10 21
REMARK SMILES IDX 9 22 8 23 7 24 6 25 5 26 4 27 3 28 2 29 1 30
REMARK H PARENT
REMARK Flexibility Score: inf
ROOT
ATOM      1  C   UNL     1      43.425  27.128  90.615  1.00  0.00     0.000 C 
ENDROOT
BRANCH   1   2
ATOM      2  C   UNL     1      43.227  28.045  91.835  1.00  0.00     0.000 C 
BRANCH   2   3
ATOM      3  C   UNL     1      44.357  29.080  91.998  1.00  0.00     0.000 C 
BRANCH   3   4
ATOM      4  C   UNL     1      43.889  30.529  92.230  1.00  0.00     0.000 C 
BRANCH   4   5
ATOM      5  C   UNL     1      44.838  31.574  91.617  1.00  0.00     0.000 C 
BRANCH   5   6
ATOM      6  C   UNL     1      45.080  31.334  90.116  1.00  0.00     0.000 C 
BRANCH   6   7
ATOM      7  C   UNL     1      46.569  31.457  89.749  1.00  0.00     0.000 C 
BRANCH   7   8
ATOM      8  C   UNL     1      47.156  30.146  89.196  1.00  0.00     0.000 C 
BRANCH   8   9
ATOM      9  C   UNL     1      46.670  29.791  87.774  1.00  0.00     0.000 C 
BRANCH   9  10
ATOM     10  C   UNL     1      47.165  30.760  86.686  1.00  0.00     0.000 C 
BRANCH  10  11
ATOM     11  C   UNL     1      48.640  31.144  86.857  1.00  0.00     0.000 C 
BRANCH  11  12
ATOM     12  C   UNL     1      48.952  32.474  86.154  1.00  0.00     0.006 C 
BRANCH  12  13
ATOM     13  C   UNL     1      48.875  33.668  87.114  1.00  0.00     0.053 C 
BRANCH  13  14
ATOM     14  C   UNL     1      49.108  34.967  86.406  1.00  0.00     0.041 C 
ATOM     15  O   UNL     1      48.811  36.056  86.965  1.00  0.00    -0.550 OA
ATOM     16  O   UNL     1      49.692  34.976  85.145  1.00  0.00    -0.550 OA
ENDBRANCH  13  14
ENDBRANCH  12  13
ENDBRANCH  11  12
ENDBRANCH  10  11
ENDBRANCH   9  10
ENDBRANCH   8   9
ENDBRANCH   7   8
ENDBRANCH   6   7
ENDBRANCH   5   6
ENDBRANCH   4   5
ENDBRANCH   3   4
ENDBRANCH   2   3
ENDBRANCH   1   2
BRANCH   1  17
ATOM     17  C   UNL     1      44.191  27.822  89.474  1.00  0.00     0.000 C 
BRANCH  17  18
ATOM     18  C   UNL     1      44.126  27.039  88.153  1.00  0.00     0.000 C 
BRANCH  18  19
ATOM     19  C   UNL     1      42.710  27.008  87.549  1.00  0.00     0.000 C 
BRANCH  19  20
ATOM     20  C   UNL     1      42.614  27.499  86.089  1.00  0.00     0.000 C 
BRANCH  20  21
ATOM     21  C   UNL     1      41.946  28.875  85.906  1.00  0.00     0.000 C 
BRANCH  21  22
ATOM     22  C   UNL     1      42.716  30.064  86.516  1.00  0.00    -0.000 C 
BRANCH  22  23
ATOM     23  C   UNL     1      41.880  30.992  87.415  1.00  0.00    -0.000 C 
BRANCH  23  24
ATOM     24  C   UNL     1      41.818  30.511  88.874  1.00  0.00    -0.000 C 
BRANCH  24  25
ATOM     25  C   UNL     1      40.388  30.178  89.325  1.00  0.00    -0.000 C 
BRANCH  25  26
ATOM     26  C   UNL     1      40.215  28.697  89.705  1.00  0.00    -0.000 C 
BRANCH  26  27
ATOM     27  C   UNL     1      39.341  27.921  88.704  1.00  0.00    -0.000 C 
BRANCH  27  28
ATOM     28  C   UNL     1      38.692  28.786  87.608  1.00  0.00    -0.000 C 
BRANCH  28  29
ATOM     29  C   UNL     1      38.324  27.987  86.349  1.00  0.00    -0.003 C 
ATOM     30  C   UNL     1      38.956  26.597  86.379  1.00  0.00     0.004 C 
ENDBRANCH  28  29
ENDBRANCH  27  28
ENDBRANCH  26  27
ENDBRANCH  25  26
ENDBRANCH  24  25
ENDBRANCH  23  24
ENDBRANCH  22  23
ENDBRANCH  21  22
ENDBRANCH  20  21
ENDBRANCH  19  20
ENDBRANCH  18  19
ENDBRANCH  17  18
ENDBRANCH   1  17
TORSDOF 26
ENDMDL
MODEL 9
REMARK VINA RESULT:    -3.289      2.358      5.022
REMARK INTER + INTRA:         -13.205
REMARK INTER:                  -7.745
REMARK INTRA:                  -5.460
REMARK UNBOUND:                -4.915
REMARK SMILES CCCCCCCCCCCCCCCCCCCCCCCCCCCC(=O)[O-]
REMARK SMILES IDX 15 1 16 2 17 3 18 4 19 5 20 6 21 7 22 8 23 9 24 10 25 11
REMARK SMILES IDX 26 12 27 13 28 14 29 15 30 16 14 17 13 18 12 19 11 20 10 21
REMARK SMILES IDX 9 22 8 23 7 24 6 25 5 26 4 27 3 28 2 29 1 30
REMARK H PARENT
REMARK Flexibility Score: inf
ROOT
ATOM      1  C   UNL     1      43.976  30.096  87.874  1.00  0.00     0.000 C 
ENDROOT
BRANCH   1   2
ATOM      2  C   UNL     1      45.442  30.438  88.194  1.00  0.00     0.000 C 
BRANCH   2   3
ATOM      3  C   UNL     1      45.581  31.589  89.208  1.00  0.00     0.000 C 
BRANCH   3   4
ATOM      4  C   UNL     1      45.921  31.155  90.647  1.00  0.00     0.000 C 
BRANCH   4   5
ATOM      5  C   UNL     1      44.841  31.557  91.667  1.00  0.00     0.000 C 
BRANCH   5   6
ATOM      6  C   UNL     1      43.898  30.390  92.009  1.00  0.00     0.000 C 
BRANCH   6   7
ATOM      7  C   UNL     1      44.628  29.035  91.985  1.00  0.00     0.000 C 
BRANCH   7   8
ATOM      8  C   UNL     1      43.950  28.011  91.058  1.00  0.00     0.000 C 
BRANCH   8   9
ATOM      9  C   UNL     1      44.877  26.861  90.609  1.00  0.00     0.000 C 
BRANCH   9  10
ATOM     10  C   UNL     1      45.138  26.825  89.093  1.00  0.00     0.000 C 
BRANCH  10  11
ATOM     11  C   UNL     1      46.632  26.796  88.746  1.00  0.00     0.000 C 
BRANCH  11  12
ATOM     12  C   UNL     1      47.426  27.767  89.633  1.00  0.00     0.006 C 
BRANCH  12  13
ATOM     13  C   UNL     1      48.526  28.497  88.852  1.00  0.00     0.053 C 
BRANCH  13  14
ATOM     14  C   UNL     1      49.145  29.596  89.660  1.00  0.00     0.041 C 
ATOM     15  O   UNL     1      49.674  29.343  90.774  1.00  0.00    -0.550 OA
ATOM     16  O   UNL     1      49.174  30.893  89.163  1.00  0.00    -0.550 OA
ENDBRANCH  13  14
ENDBRANCH  12  13
ENDBRANCH  11  12
ENDBRANCH  10  11
ENDBRANCH   9  10
ENDBRANCH   8   9
ENDBRANCH   7   8
ENDBRANCH   6   7
ENDBRANCH   5   6
ENDBRANCH   4   5
ENDBRANCH   3   4
ENDBRANCH   2   3
ENDBRANCH   1   2
BRANCH   1  17
ATOM     17  C   UNL     1      42.994  31.155  88.405  1.00  0.00     0.000 C 
BRANCH  17  18
ATOM     18  C   UNL     1      41.720  31.264  87.552  1.00  0.00     0.000 C 
BRANCH  18  19
ATOM     19  C   UNL     1      40.493  30.628  88.232  1.00  0.00     0.000 C 
BRANCH  19  20
ATOM     20  C   UNL     1      40.741  30.104  89.662  1.00  0.00     0.000 C 
BRANCH  20  21
ATOM     21  C   UNL     1      40.652  28.574  89.822  1.00  0.00     0.000 C 
BRANCH  21  22
ATOM     22  C   UNL     1      39.987  27.830  88.646  1.00  0.00    -0.000 C 
BRANCH  22  23
ATOM     23  C   UNL     1      40.879  26.795  87.938  1.00  0.00    -0.000 C 
BRANCH  23  24
ATOM     24  C   UNL     1      41.738  27.413  86.822  1.00  0.00    -0.000 C 
BRANCH  24  25
ATOM     25  C   UNL     1      40.890  28.067  85.720  1.00  0.00    -0.000 C 
BRANCH  25  26
ATOM     26  C   UNL     1      39.864  27.097  85.107  1.00  0.00    -0.000 C 
BRANCH  26  27
ATOM     27  C   UNL     1      38.434  27.665  85.102  1.00  0.00    -0.000 C 
BRANCH  27  28
ATOM     28  C   UNL     1      37.398  26.812  85.857  1.00  0.00    -0.000 C 
BRANCH  28  29
ATOM     29  C   UNL     1      36.743  27.558  87.029  1.00  0.00    -0.003 C 
ATOM     30  C   UNL     1      36.970  29.063  86.916  1.00  0.00     0.004 C 
ENDBRANCH  28  29
ENDBRANCH  27  28
ENDBRANCH  26  27
ENDBRANCH  25  26
ENDBRANCH  24  25
ENDBRANCH  23  24
ENDBRANCH  22  23
ENDBRANCH  21  22
ENDBRANCH  20  21
ENDBRANCH  19  20
ENDBRANCH  18  19
ENDBRANCH  17  18
ENDBRANCH   1  17
TORSDOF 26
ENDMDL
