MODEL 1
REMARK VINA RESULT:    -3.095      0.000      0.000
REMARK INTER + INTRA:          -3.095
REMARK INTER:                  -3.095
REMARK INTRA:                   0.000
REMARK UNBOUND:                 0.000
REMARK SMILES CC1(C)O[C@]2(C)CC[C@H]1CC2
REMARK SMILES IDX 1 1 2 2 9 3 10 4 11 5 5 6 4 7 7 8 8 9 6 10 3 11
REMARK H PARENT
REMARK Flexibility Score: inf
ROOT
ATOM      1  C   UNL     1      -7.959  23.472  14.417  1.00  0.00     0.042 C 
ATOM      2  C   UNL     1      -8.970  22.465  13.825  1.00  0.00     0.066 C 
ATOM      3  C   UNL     1      -8.284  21.068  13.574  1.00  0.00     0.021 C 
ATOM      4  C   UNL     1      -9.325  20.118  12.935  1.00  0.00     0.009 C 
ATOM      5  C   UNL     1      -9.964  20.815  11.709  1.00  0.00     0.035 C 
ATOM      6  C   UNL     1      -9.283  22.194  11.473  1.00  0.00     0.066 C 
ATOM      7  O   UNL     1      -9.499  23.025  12.614  1.00  0.00    -0.369 OA
ATOM      8  C   UNL     1      -7.754  21.978  11.281  1.00  0.00     0.035 C 
ATOM      9  C   UNL     1      -7.168  21.254  12.517  1.00  0.00     0.009 C 
ATOM     10  C   UNL     1      -9.883  22.880  10.241  1.00  0.00     0.042 C 
ATOM     11  C   UNL     1     -10.129  22.330  14.837  1.00  0.00     0.042 C 
ENDROOT
TORSDOF 0
ENDMDL
MODEL 2
REMARK VINA RESULT:    -3.074      3.371      5.072
REMARK INTER + INTRA:          -3.074
REMARK INTER:                  -3.074
REMARK INTRA:                   0.000
REMARK UNBOUND:                 0.000
REMARK SMILES CC1(C)O[C@]2(C)CC[C@H]1CC2
REMARK SMILES IDX 1 1 2 2 9 3 10 4 11 5 5 6 4 7 7 8 8 9 6 10 3 11
REMARK H PARENT
REMARK Flexibility Score: inf
ROOT
ATOM      1  C   UNL     1      -4.154  25.276  11.467  1.00  0.00     0.042 C 
ATOM      2  C   UNL     1      -4.667  24.112  10.590  1.00  0.00     0.066 C 
ATOM      3  C   UNL     1      -5.897  24.572   9.717  1.00  0.00     0.021 C 
ATOM      4  C   UNL     1      -6.399  23.357   8.901  1.00  0.00     0.009 C 
ATOM      5  C   UNL     1      -6.628  22.161   9.858  1.00  0.00     0.035 C 
ATOM      6  C   UNL     1      -6.366  22.604  11.326  1.00  0.00     0.066 C 
ATOM      7  O   UNL     1      -5.006  23.019  11.456  1.00  0.00    -0.369 OA
ATOM      8  C   UNL     1      -7.300  23.802  11.667  1.00  0.00     0.035 C 
ATOM      9  C   UNL     1      -7.055  24.958  10.668  1.00  0.00     0.009 C 
ATOM     10  C   UNL     1      -6.622  21.439  12.288  1.00  0.00     0.042 C 
ATOM     11  C   UNL     1      -3.494  23.665   9.690  1.00  0.00     0.042 C 
ENDROOT
TORSDOF 0
ENDMDL
MODEL 3
REMARK VINA RESULT:    -2.971      1.339      2.247
REMARK INTER + INTRA:          -2.971
REMARK INTER:                  -2.971
REMARK INTRA:                   0.000
REMARK UNBOUND:                 0.000
REMARK SMILES CC1(C)O[C@]2(C)CC[C@H]1CC2
REMARK SMILES IDX 1 1 2 2 9 3 10 4 11 5 5 6 4 7 7 8 8 9 6 10 3 11
REMARK H PARENT
REMARK Flexibility Score: inf
ROOT
ATOM      1  C   UNL     1      -8.376  23.164  14.807  1.00  0.00     0.042 C 
ATOM      2  C   UNL     1      -8.660  23.192  13.290  1.00  0.00     0.066 C 
ATOM      3  C   UNL     1      -9.229  21.804  12.803  1.00  0.00     0.021 C 
ATOM      4  C   UNL     1      -9.445  21.872  11.272  1.00  0.00     0.009 C 
ATOM      5  C   UNL     1      -8.144  22.371  10.597  1.00  0.00     0.035 C 
ATOM      6  C   UNL     1      -7.029  22.548  11.668  1.00  0.00     0.066 C 
ATOM      7  O   UNL     1      -7.440  23.535  12.615  1.00  0.00    -0.369 OA
ATOM      8  C   UNL     1      -6.814  21.193  12.403  1.00  0.00     0.035 C 
ATOM      9  C   UNL     1      -8.146  20.723  13.035  1.00  0.00     0.009 C 
ATOM     10  C   UNL     1      -5.725  23.009  11.008  1.00  0.00     0.042 C 
ATOM     11  C   UNL     1      -9.682  24.321  13.034  1.00  0.00     0.042 C 
ENDROOT
TORSDOF 0
ENDMDL
MODEL 4
REMARK VINA RESULT:    -2.966      5.828      7.555
REMARK INTER + INTRA:          -2.966
REMARK INTER:                  -2.966
REMARK INTRA:                   0.000
REMARK UNBOUND:                 0.000
REMARK SMILES CC1(C)O[C@]2(C)CC[C@H]1CC2
REMARK SMILES IDX 1 1 2 2 9 3 10 4 11 5 5 6 4 7 7 8 8 9 6 10 3 11
REMARK H PARENT
REMARK Flexibility Score: inf
ROOT
ATOM      1  C   UNL     1      -3.262  26.074   7.565  1.00  0.00     0.042 C 
ATOM      2  C   UNL     1      -3.451  24.837   8.471  1.00  0.00     0.066 C 
ATOM      3  C   UNL     1      -4.866  24.866   9.165  1.00  0.00     0.021 C 
ATOM      4  C   UNL     1      -4.981  23.635  10.097  1.00  0.00     0.009 C 
ATOM      5  C   UNL     1      -3.745  23.586  11.028  1.00  0.00     0.035 C 
ATOM      6  C   UNL     1      -2.850  24.835  10.782  1.00  0.00     0.066 C 
ATOM      7  O   UNL     1      -2.385  24.821   9.432  1.00  0.00    -0.369 OA
ATOM      8  C   UNL     1      -3.698  26.118  11.017  1.00  0.00     0.035 C 
ATOM      9  C   UNL     1      -4.934  26.108  10.086  1.00  0.00     0.009 C 
ATOM     10  C   UNL     1      -1.640  24.816  11.722  1.00  0.00     0.042 C 
ATOM     11  C   UNL     1      -3.308  23.586   7.575  1.00  0.00     0.042 C 
ENDROOT
TORSDOF 0
ENDMDL
MODEL 5
REMARK VINA RESULT:    -2.938      1.155      3.165
REMARK INTER + INTRA:          -2.938
REMARK INTER:                  -2.938
REMARK INTRA:                   0.000
REMARK UNBOUND:                 0.000
REMARK SMILES CC1(C)O[C@]2(C)CC[C@H]1CC2
REMARK SMILES IDX 1 1 2 2 9 3 10 4 11 5 5 6 4 7 7 8 8 9 6 10 3 11
REMARK H PARENT
REMARK Flexibility Score: inf
ROOT
ATOM      1  C   UNL     1      -8.355  22.895  10.814  1.00  0.00     0.042 C 
ATOM      2  C   UNL     1      -8.178  22.120  12.139  1.00  0.00     0.066 C 
ATOM      3  C   UNL     1      -9.208  20.931  12.231  1.00  0.00     0.021 C 
ATOM      4  C   UNL     1      -9.020  20.224  13.596  1.00  0.00     0.009 C 
ATOM      5  C   UNL     1      -9.068  21.281  14.726  1.00  0.00     0.035 C 
ATOM      6  C   UNL     1      -9.380  22.682  14.125  1.00  0.00     0.066 C 
ATOM      7  O   UNL     1      -8.335  23.049  13.222  1.00  0.00    -0.369 OA
ATOM      8  C   UNL     1     -10.725  22.610  13.346  1.00  0.00     0.035 C 
ATOM      9  C   UNL     1     -10.638  21.522  12.249  1.00  0.00     0.009 C 
ATOM     10  C   UNL     1      -9.463  23.732  15.237  1.00  0.00     0.042 C 
ATOM     11  C   UNL     1      -6.727  21.590  12.169  1.00  0.00     0.042 C 
ENDROOT
TORSDOF 0
ENDMDL
MODEL 6
REMARK VINA RESULT:    -2.917      1.026      2.207
REMARK INTER + INTRA:          -2.917
REMARK INTER:                  -2.917
REMARK INTRA:                   0.000
REMARK UNBOUND:                 0.000
REMARK SMILES CC1(C)O[C@]2(C)CC[C@H]1CC2
REMARK SMILES IDX 1 1 2 2 9 3 10 4 11 5 5 6 4 7 7 8 8 9 6 10 3 11
REMARK H PARENT
REMARK Flexibility Score: inf
ROOT
ATOM      1  C   UNL     1      -6.836  21.548  12.319  1.00  0.00     0.042 C 
ATOM      2  C   UNL     1      -8.085  22.154  12.996  1.00  0.00     0.066 C 
ATOM      3  C   UNL     1      -8.676  21.159  14.068  1.00  0.00     0.021 C 
ATOM      4  C   UNL     1      -9.951  21.793  14.675  1.00  0.00     0.009 C 
ATOM      5  C   UNL     1     -10.896  22.230  13.530  1.00  0.00     0.035 C 
ATOM      6  C   UNL     1     -10.294  21.805  12.159  1.00  0.00     0.066 C 
ATOM      7  O   UNL     1      -9.041  22.464  11.972  1.00  0.00    -0.369 OA
ATOM      8  C   UNL     1     -10.067  20.266  12.162  1.00  0.00     0.035 C 
ATOM      9  C   UNL     1      -9.141  19.875  13.339  1.00  0.00     0.009 C 
ATOM     10  C   UNL     1     -11.237  22.203  11.018  1.00  0.00     0.042 C 
ATOM     11  C   UNL     1      -7.650  23.477  13.662  1.00  0.00     0.042 C 
ENDROOT
TORSDOF 0
ENDMDL
MODEL 7
REMARK VINA RESULT:    -2.895      0.936      3.287
REMARK INTER + INTRA:          -2.895
REMARK INTER:                  -2.895
REMARK INTRA:                   0.000
REMARK UNBOUND:                 0.000
REMARK SMILES CC1(C)O[C@]2(C)CC[C@H]1CC2
REMARK SMILES IDX 1 1 2 2 9 3 10 4 11 5 5 6 4 7 7 8 8 9 6 10 3 11
REMARK H PARENT
REMARK Flexibility Score: inf
ROOT
ATOM      1  C   UNL     1     -10.359  20.669  11.165  1.00  0.00     0.042 C 
ATOM      2  C   UNL     1      -9.316  21.713  11.622  1.00  0.00     0.066 C 
ATOM      3  C   UNL     1      -8.103  21.010  12.344  1.00  0.00     0.021 C 
ATOM      4  C   UNL     1      -7.119  22.103  12.824  1.00  0.00     0.009 C 
ATOM      5  C   UNL     1      -7.896  23.167  13.637  1.00  0.00     0.035 C 
ATOM      6  C   UNL     1      -9.385  22.736  13.779  1.00  0.00     0.066 C 
ATOM      7  O   UNL     1      -9.976  22.655  12.481  1.00  0.00    -0.369 OA
ATOM      8  C   UNL     1      -9.445  21.336  14.456  1.00  0.00     0.035 C 
ATOM      9  C   UNL     1      -8.631  20.317  13.623  1.00  0.00     0.009 C 
ATOM     10  C   UNL     1     -10.160  23.764  14.610  1.00  0.00     0.042 C 
ATOM     11  C   UNL     1      -8.839  22.466  10.361  1.00  0.00     0.042 C 
ENDROOT
TORSDOF 0
ENDMDL
MODEL 8
REMARK VINA RESULT:    -2.853      1.190      2.448
REMARK INTER + INTRA:          -2.853
REMARK INTER:                  -2.853
REMARK INTRA:                   0.000
REMARK UNBOUND:                 0.000
REMARK SMILES CC1(C)O[C@]2(C)CC[C@H]1CC2
REMARK SMILES IDX 1 1 2 2 9 3 10 4 11 5 5 6 4 7 7 8 8 9 6 10 3 11
REMARK H PARENT
REMARK Flexibility Score: inf
ROOT
ATOM      1  C   UNL     1      -9.307  24.571  12.088  1.00  0.00     0.042 C 
ATOM      2  C   UNL     1      -8.682  23.350  12.797  1.00  0.00     0.066 C 
ATOM      3  C   UNL     1      -7.713  22.575  11.824  1.00  0.00     0.021 C 
ATOM      4  C   UNL     1      -7.158  21.337  12.567  1.00  0.00     0.009 C 
ATOM      5  C   UNL     1      -8.337  20.533  13.166  1.00  0.00     0.035 C 
ATOM      6  C   UNL     1      -9.687  21.183  12.745  1.00  0.00     0.066 C 
ATOM      7  O   UNL     1      -9.749  22.512  13.266  1.00  0.00    -0.369 OA
ATOM      8  C   UNL     1      -9.758  21.240  11.192  1.00  0.00     0.035 C 
ATOM      9  C   UNL     1      -8.545  22.027  10.639  1.00  0.00     0.009 C 
ATOM     10  C   UNL     1     -10.864  20.378  13.304  1.00  0.00     0.042 C 
ATOM     11  C   UNL     1      -7.912  23.877  14.028  1.00  0.00     0.042 C 
ENDROOT
TORSDOF 0
ENDMDL
MODEL 9
REMARK VINA RESULT:    -2.807      1.231      2.847
REMARK INTER + INTRA:          -2.807
REMARK INTER:                  -2.807
REMARK INTRA:                   0.000
REMARK UNBOUND:                 0.000
REMARK SMILES CC1(C)O[C@]2(C)CC[C@H]1CC2
REMARK SMILES IDX 1 1 2 2 9 3 10 4 11 5 5 6 4 7 7 8 8 9 6 10 3 11
REMARK H PARENT
REMARK Flexibility Score: inf
ROOT
ATOM      1  C   UNL     1     -10.597  23.338  11.615  1.00  0.00     0.042 C 
ATOM      2  C   UNL     1      -9.539  22.215  11.677  1.00  0.00     0.066 C 
ATOM      3  C   UNL     1      -9.312  21.743  13.164  1.00  0.00     0.021 C 
ATOM      4  C   UNL     1      -8.209  20.657  13.172  1.00  0.00     0.009 C 
ATOM      5  C   UNL     1      -6.971  21.185  12.409  1.00  0.00     0.035 C 
ATOM      6  C   UNL     1      -7.211  22.659  11.970  1.00  0.00     0.066 C 
ATOM      7  O   UNL     1      -8.329  22.709  11.083  1.00  0.00    -0.369 OA
ATOM      8  C   UNL     1      -7.520  23.518  13.231  1.00  0.00     0.035 C 
ATOM      9  C   UNL     1      -8.746  22.935  13.974  1.00  0.00     0.009 C 
ATOM     10  C   UNL     1      -5.978  23.206  11.242  1.00  0.00     0.042 C 
ATOM     11  C   UNL     1     -10.057  21.048  10.808  1.00  0.00     0.042 C 
ENDROOT
TORSDOF 0
ENDMDL
