MODEL 1
REMARK VINA RESULT:    -6.825      0.000      0.000
REMARK INTER + INTRA:          -8.275
REMARK INTER:                  -8.022
REMARK INTRA:                  -0.253
REMARK UNBOUND:                -0.253
REMARK SMILES O=c1c(O)c(-c2ccc(O)cc2)oc2cc(O)cc(O)c12
REMARK SMILES IDX 5 1 3 2 2 3 1 4 21 5 19 6 18 7 16 8 15 9 14 10 13 11 6 12
REMARK SMILES IDX 7 13 8 14 9 15 12 16 11 17 10 18 4 20 20 22 17 24
REMARK H PARENT 10 19 4 21 20 23 17 25
REMARK Flexibility Score: inf
ROOT
ATOM      1  C   UNL     1       9.937 -13.212 -23.410  1.00  0.00     0.180 A 
ATOM      2  C   UNL     1       9.952 -13.484 -22.030  1.00  0.00     0.208 A 
ATOM      3  C   UNL     1      10.292 -14.775 -21.595  1.00  0.00     0.238 A 
ATOM      4  O   UNL     1      10.356 -14.998 -20.358  1.00  0.00    -0.285 OA
ATOM      5  C   UNL     1      10.596 -15.781 -22.543  1.00  0.00     0.111 A 
ATOM      6  C   UNL     1      10.914 -17.134 -22.216  1.00  0.00     0.134 A 
ATOM      7  C   UNL     1      11.326 -18.010 -23.227  1.00  0.00     0.093 A 
ATOM      8  C   UNL     1      11.369 -17.604 -24.559  1.00  0.00     0.123 A 
ATOM      9  C   UNL     1      11.002 -16.300 -24.899  1.00  0.00     0.094 A 
ATOM     10  C   UNL     1      10.622 -15.392 -23.907  1.00  0.00     0.146 A 
ATOM     11  O   UNL     1      10.290 -14.159 -24.271  1.00  0.00    -0.452 OA
ENDROOT
BRANCH   1  12
ATOM     12  C   UNL     1       9.565 -11.884 -23.947  1.00  0.00     0.021 A 
ATOM     13  C   UNL     1      10.471 -10.807 -23.934  1.00  0.00     0.016 A 
ATOM     14  C   UNL     1      10.090  -9.555 -24.426  1.00  0.00     0.047 A 
ATOM     15  C   UNL     1       8.795  -9.359 -24.923  1.00  0.00     0.115 A 
ATOM     16  C   UNL     1       8.263 -11.672 -24.428  1.00  0.00     0.016 A 
ATOM     17  C   UNL     1       7.883 -10.419 -24.920  1.00  0.00     0.047 A 
BRANCH  15  18
ATOM     18  O   UNL     1       8.403  -8.116 -25.416  1.00  0.00    -0.508 OA
ATOM     19  H   UNL     1       8.353  -7.301 -24.817  1.00  0.00     0.293 HD
ENDBRANCH  15  18
ENDBRANCH   1  12
BRANCH   2  20
ATOM     20  O   UNL     1       9.670 -12.470 -21.111  1.00  0.00    -0.502 OA
ATOM     21  H   UNL     1      10.384 -12.057 -20.522  1.00  0.00     0.293 HD
ENDBRANCH   2  20
BRANCH   6  22
ATOM     22  O   UNL     1      10.816 -17.669 -20.927  1.00  0.00    -0.507 OA
ATOM     23  H   UNL     1      11.561 -18.150 -20.447  1.00  0.00     0.293 HD
ENDBRANCH   6  22
BRANCH   8  24
ATOM     24  O   UNL     1      11.768 -18.508 -25.542  1.00  0.00    -0.508 OA
ATOM     25  H   UNL     1      12.486 -19.201 -25.364  1.00  0.00     0.293 HD
ENDBRANCH   8  24
TORSDOF 5
ENDMDL
MODEL 2
REMARK VINA RESULT:    -6.400      1.918      3.604
REMARK INTER + INTRA:          -7.775
REMARK INTER:                  -8.142
REMARK INTRA:                   0.366
REMARK UNBOUND:                -0.253
REMARK SMILES O=c1c(O)c(-c2ccc(O)cc2)oc2cc(O)cc(O)c12
REMARK SMILES IDX 5 1 3 2 2 3 1 4 21 5 19 6 18 7 16 8 15 9 14 10 13 11 6 12
REMARK SMILES IDX 7 13 8 14 9 15 12 16 11 17 10 18 4 20 20 22 17 24
REMARK H PARENT 10 19 4 21 20 23 17 25
REMARK Flexibility Score: inf
ROOT
ATOM      1  C   UNL     1       9.084 -12.010 -24.266  1.00  0.00     0.180 A 
ATOM      2  C   UNL     1       8.770 -13.195 -24.953  1.00  0.00     0.208 A 
ATOM      3  C   UNL     1       8.975 -14.428 -24.312  1.00  0.00     0.238 A 
ATOM      4  O   UNL     1       8.641 -15.483 -24.911  1.00  0.00    -0.285 OA
ATOM      5  C   UNL     1       9.507 -14.460 -23.001  1.00  0.00     0.111 A 
ATOM      6  C   UNL     1       9.794 -15.654 -22.272  1.00  0.00     0.134 A 
ATOM      7  C   UNL     1      10.195 -15.565 -20.933  1.00  0.00     0.093 A 
ATOM      8  C   UNL     1      10.383 -14.330 -20.318  1.00  0.00     0.123 A 
ATOM      9  C   UNL     1      10.164 -13.155 -21.039  1.00  0.00     0.094 A 
ATOM     10  C   UNL     1       9.728 -13.211 -22.366  1.00  0.00     0.146 A 
ATOM     11  O   UNL     1       9.521 -12.070 -23.013  1.00  0.00    -0.452 OA
ENDROOT
BRANCH   1  12
ATOM     12  C   UNL     1       8.920 -10.674 -24.883  1.00  0.00     0.021 A 
ATOM     13  C   UNL     1       7.997 -10.455 -25.923  1.00  0.00     0.016 A 
ATOM     14  C   UNL     1       7.875  -9.190 -26.506  1.00  0.00     0.047 A 
ATOM     15  C   UNL     1       8.683  -8.133 -26.069  1.00  0.00     0.115 A 
ATOM     16  C   UNL     1       9.739  -9.613 -24.465  1.00  0.00     0.016 A 
ATOM     17  C   UNL     1       9.615  -8.348 -25.049  1.00  0.00     0.047 A 
BRANCH  15  18
ATOM     18  O   UNL     1       8.570  -6.868 -26.642  1.00  0.00    -0.508 OA
ATOM     19  H   UNL     1       8.244  -6.072 -26.107  1.00  0.00     0.293 HD
ENDBRANCH  15  18
ENDBRANCH   1  12
BRANCH   2  20
ATOM     20  O   UNL     1       8.225 -13.139 -26.238  1.00  0.00    -0.502 OA
ATOM     21  H   UNL     1       7.450 -13.725 -26.526  1.00  0.00     0.293 HD
ENDBRANCH   2  20
BRANCH   6  22
ATOM     22  O   UNL     1       9.727 -16.939 -22.820  1.00  0.00    -0.507 OA
ATOM     23  H   UNL     1       9.903 -17.791 -22.311  1.00  0.00     0.293 HD
ENDBRANCH   6  22
BRANCH   8  24
ATOM     24  O   UNL     1      10.799 -14.279 -18.989  1.00  0.00    -0.508 OA
ATOM     25  H   UNL     1      10.332 -14.815 -18.266  1.00  0.00     0.293 HD
ENDBRANCH   8  24
TORSDOF 5
ENDMDL
MODEL 3
REMARK VINA RESULT:    -6.261      2.687      5.943
REMARK INTER + INTRA:          -7.611
REMARK INTER:                  -7.354
REMARK INTRA:                  -0.257
REMARK UNBOUND:                -0.253
REMARK SMILES O=c1c(O)c(-c2ccc(O)cc2)oc2cc(O)cc(O)c12
REMARK SMILES IDX 5 1 3 2 2 3 1 4 21 5 19 6 18 7 16 8 15 9 14 10 13 11 6 12
REMARK SMILES IDX 7 13 8 14 9 15 12 16 11 17 10 18 4 20 20 22 17 24
REMARK H PARENT 10 19 4 21 20 23 17 25
REMARK Flexibility Score: inf
ROOT
ATOM      1  C   UNL     1      10.419 -16.597 -24.829  1.00  0.00     0.180 A 
ATOM      2  C   UNL     1       9.866 -17.476 -23.882  1.00  0.00     0.208 A 
ATOM      3  C   UNL     1       9.662 -17.022 -22.570  1.00  0.00     0.238 A 
ATOM      4  O   UNL     1       9.117 -17.796 -21.740  1.00  0.00    -0.285 OA
ATOM      5  C   UNL     1      10.029 -15.701 -22.216  1.00  0.00     0.111 A 
ATOM      6  C   UNL     1       9.906 -15.149 -20.905  1.00  0.00     0.134 A 
ATOM      7  C   UNL     1      10.178 -13.791 -20.700  1.00  0.00     0.093 A 
ATOM      8  C   UNL     1      10.631 -12.982 -21.740  1.00  0.00     0.123 A 
ATOM      9  C   UNL     1      10.813 -13.525 -23.013  1.00  0.00     0.094 A 
ATOM     10  C   UNL     1      10.515 -14.869 -23.257  1.00  0.00     0.146 A 
ATOM     11  O   UNL     1      10.693 -15.344 -24.484  1.00  0.00    -0.452 OA
ENDROOT
BRANCH   1  12
ATOM     12  C   UNL     1      10.687 -17.009 -26.226  1.00  0.00     0.021 A 
ATOM     13  C   UNL     1      11.986 -17.336 -26.658  1.00  0.00     0.016 A 
ATOM     14  C   UNL     1      12.219 -17.700 -27.988  1.00  0.00     0.047 A 
ATOM     15  C   UNL     1      11.161 -17.729 -28.905  1.00  0.00     0.115 A 
ATOM     16  C   UNL     1       9.636 -17.021 -27.157  1.00  0.00     0.016 A 
ATOM     17  C   UNL     1       9.871 -17.387 -28.487  1.00  0.00     0.047 A 
BRANCH  15  18
ATOM     18  O   UNL     1      11.380 -18.092 -30.232  1.00  0.00    -0.508 OA
ATOM     19  H   UNL     1      10.672 -18.572 -30.774  1.00  0.00     0.293 HD
ENDBRANCH  15  18
ENDBRANCH   1  12
BRANCH   2  20
ATOM     20  O   UNL     1       9.490 -18.768 -24.259  1.00  0.00    -0.502 OA
ATOM     21  H   UNL     1       9.887 -19.236 -25.066  1.00  0.00     0.293 HD
ENDBRANCH   2  20
BRANCH   6  22
ATOM     22  O   UNL     1       9.548 -15.892 -19.776  1.00  0.00    -0.507 OA
ATOM     23  H   UNL     1       8.932 -15.569 -19.047  1.00  0.00     0.293 HD
ENDBRANCH   6  22
BRANCH   8  24
ATOM     24  O   UNL     1      10.907 -11.638 -21.496  1.00  0.00    -0.508 OA
ATOM     25  H   UNL     1      11.857 -11.308 -21.365  1.00  0.00     0.293 HD
ENDBRANCH   8  24
TORSDOF 5
ENDMDL
MODEL 4
REMARK VINA RESULT:    -5.965      1.988      3.008
REMARK INTER + INTRA:          -7.264
REMARK INTER:                  -7.093
REMARK INTRA:                  -0.171
REMARK UNBOUND:                -0.253
REMARK SMILES O=c1c(O)c(-c2ccc(O)cc2)oc2cc(O)cc(O)c12
REMARK SMILES IDX 5 1 3 2 2 3 1 4 21 5 19 6 18 7 16 8 15 9 14 10 13 11 6 12
REMARK SMILES IDX 7 13 8 14 9 15 12 16 11 17 10 18 4 20 20 22 17 24
REMARK H PARENT 10 19 4 21 20 23 17 25
REMARK Flexibility Score: inf
ROOT
ATOM      1  C   UNL     1       9.887 -15.703 -23.571  1.00  0.00     0.180 A 
ATOM      2  C   UNL     1       9.427 -16.366 -22.420  1.00  0.00     0.208 A 
ATOM      3  C   UNL     1       9.407 -17.770 -22.406  1.00  0.00     0.238 A 
ATOM      4  O   UNL     1       9.046 -18.359 -21.354  1.00  0.00    -0.285 OA
ATOM      5  C   UNL     1       9.830 -18.493 -23.547  1.00  0.00     0.111 A 
ATOM      6  C   UNL     1       9.814 -19.916 -23.658  1.00  0.00     0.134 A 
ATOM      7  C   UNL     1      10.378 -20.527 -24.784  1.00  0.00     0.093 A 
ATOM      8  C   UNL     1      10.898 -19.769 -25.831  1.00  0.00     0.123 A 
ATOM      9  C   UNL     1      10.865 -18.375 -25.761  1.00  0.00     0.094 A 
ATOM     10  C   UNL     1      10.341 -17.736 -24.634  1.00  0.00     0.146 A 
ATOM     11  O   UNL     1      10.338 -16.409 -24.601  1.00  0.00    -0.452 OA
ENDROOT
BRANCH   1  12
ATOM     12  C   UNL     1       9.914 -14.226 -23.672  1.00  0.00     0.021 A 
ATOM     13  C   UNL     1       9.059 -13.535 -24.550  1.00  0.00     0.016 A 
ATOM     14  C   UNL     1       9.119 -12.141 -24.645  1.00  0.00     0.047 A 
ATOM     15  C   UNL     1      10.042 -11.422 -23.876  1.00  0.00     0.115 A 
ATOM     16  C   UNL     1      10.851 -13.499 -22.920  1.00  0.00     0.016 A 
ATOM     17  C   UNL     1      10.909 -12.105 -23.016  1.00  0.00     0.047 A 
BRANCH  15  18
ATOM     18  O   UNL     1      10.111 -10.033 -23.962  1.00  0.00    -0.508 OA
ATOM     19  H   UNL     1       9.300  -9.478 -24.206  1.00  0.00     0.293 HD
ENDBRANCH  15  18
ENDBRANCH   1  12
BRANCH   2  20
ATOM     20  O   UNL     1       9.035 -15.634 -21.296  1.00  0.00    -0.502 OA
ATOM     21  H   UNL     1       9.702 -15.180 -20.684  1.00  0.00     0.293 HD
ENDBRANCH   2  20
BRANCH   6  22
ATOM     22  O   UNL     1       9.235 -20.766 -22.710  1.00  0.00    -0.507 OA
ATOM     23  H   UNL     1       8.699 -21.591 -22.929  1.00  0.00     0.293 HD
ENDBRANCH   6  22
BRANCH   8  24
ATOM     24  O   UNL     1      11.437 -20.411 -26.944  1.00  0.00    -0.508 OA
ATOM     25  H   UNL     1      10.896 -21.075 -27.487  1.00  0.00     0.293 HD
ENDBRANCH   8  24
TORSDOF 5
ENDMDL
MODEL 5
REMARK VINA RESULT:    -5.843     16.204     18.555
REMARK INTER + INTRA:          -7.121
REMARK INTER:                  -6.841
REMARK INTRA:                  -0.280
REMARK UNBOUND:                -0.253
REMARK SMILES O=c1c(O)c(-c2ccc(O)cc2)oc2cc(O)cc(O)c12
REMARK SMILES IDX 5 1 3 2 2 3 1 4 21 5 19 6 18 7 16 8 15 9 14 10 13 11 6 12
REMARK SMILES IDX 7 13 8 14 9 15 12 16 11 17 10 18 4 20 20 22 17 24
REMARK H PARENT 10 19 4 21 20 23 17 25
REMARK Flexibility Score: inf
ROOT
ATOM      1  C   UNL     1      24.252  -3.211 -28.264  1.00  0.00     0.180 A 
ATOM      2  C   UNL     1      23.485  -2.252 -28.947  1.00  0.00     0.208 A 
ATOM      3  C   UNL     1      22.557  -2.683 -29.910  1.00  0.00     0.238 A 
ATOM      4  O   UNL     1      21.835  -1.824 -30.479  1.00  0.00    -0.285 OA
ATOM      5  C   UNL     1      22.421  -4.064 -30.189  1.00  0.00     0.111 A 
ATOM      6  C   UNL     1      21.542  -4.610 -31.173  1.00  0.00     0.134 A 
ATOM      7  C   UNL     1      21.394  -5.998 -31.272  1.00  0.00     0.093 A 
ATOM      8  C   UNL     1      22.139  -6.861 -30.471  1.00  0.00     0.123 A 
ATOM      9  C   UNL     1      23.046  -6.340 -29.546  1.00  0.00     0.094 A 
ATOM     10  C   UNL     1      23.190  -4.958 -29.399  1.00  0.00     0.146 A 
ATOM     11  O   UNL     1      24.056  -4.503 -28.501  1.00  0.00    -0.452 OA
ENDROOT
BRANCH   1  12
ATOM     12  C   UNL     1      25.268  -2.834 -27.254  1.00  0.00     0.021 A 
ATOM     13  C   UNL     1      26.552  -2.401 -27.632  1.00  0.00     0.016 A 
ATOM     14  C   UNL     1      27.502  -2.073 -26.660  1.00  0.00     0.047 A 
ATOM     15  C   UNL     1      27.187  -2.186 -25.301  1.00  0.00     0.115 A 
ATOM     16  C   UNL     1      24.967  -2.964 -25.889  1.00  0.00     0.016 A 
ATOM     17  C   UNL     1      25.918  -2.635 -24.918  1.00  0.00     0.047 A 
BRANCH  15  18
ATOM     18  O   UNL     1      28.125  -1.861 -24.323  1.00  0.00    -0.508 OA
ATOM     19  H   UNL     1      28.103  -0.968 -23.845  1.00  0.00     0.293 HD
ENDBRANCH  15  18
ENDBRANCH   1  12
BRANCH   2  20
ATOM     20  O   UNL     1      23.620  -0.895 -28.640  1.00  0.00    -0.502 OA
ATOM     21  H   UNL     1      23.659  -0.556 -27.686  1.00  0.00     0.293 HD
ENDBRANCH   2  20
BRANCH   6  22
ATOM     22  O   UNL     1      20.819  -3.837 -32.087  1.00  0.00    -0.507 OA
ATOM     23  H   UNL     1      19.819  -3.708 -32.066  1.00  0.00     0.293 HD
ENDBRANCH   6  22
BRANCH   8  24
ATOM     24  O   UNL     1      21.978  -8.239 -30.608  1.00  0.00    -0.508 OA
ATOM     25  H   UNL     1      22.763  -8.846 -30.815  1.00  0.00     0.293 HD
ENDBRANCH   8  24
TORSDOF 5
ENDMDL
MODEL 6
REMARK VINA RESULT:    -5.657      2.915      4.514
REMARK INTER + INTRA:          -6.902
REMARK INTER:                  -7.073
REMARK INTRA:                   0.171
REMARK UNBOUND:                -0.253
REMARK SMILES O=c1c(O)c(-c2ccc(O)cc2)oc2cc(O)cc(O)c12
REMARK SMILES IDX 5 1 3 2 2 3 1 4 21 5 19 6 18 7 16 8 15 9 14 10 13 11 6 12
REMARK SMILES IDX 7 13 8 14 9 15 12 16 11 17 10 18 4 20 20 22 17 24
REMARK H PARENT 10 19 4 21 20 23 17 25
REMARK Flexibility Score: inf
ROOT
ATOM      1  C   UNL     1      10.363 -16.599 -22.800  1.00  0.00     0.180 A 
ATOM      2  C   UNL     1       9.799 -17.798 -22.331  1.00  0.00     0.208 A 
ATOM      3  C   UNL     1       9.806 -18.926 -23.168  1.00  0.00     0.238 A 
ATOM      4  O   UNL     1       9.349 -20.011 -22.724  1.00  0.00    -0.285 OA
ATOM      5  C   UNL     1      10.361 -18.836 -24.467  1.00  0.00     0.111 A 
ATOM      6  C   UNL     1      10.385 -19.904 -25.415  1.00  0.00     0.134 A 
ATOM      7  C   UNL     1      11.076 -19.741 -26.621  1.00  0.00     0.093 A 
ATOM      8  C   UNL     1      11.687 -18.532 -26.944  1.00  0.00     0.123 A 
ATOM      9  C   UNL     1      11.619 -17.460 -26.051  1.00  0.00     0.094 A 
ATOM     10  C   UNL     1      10.967 -17.603 -24.823  1.00  0.00     0.146 A 
ATOM     11  O   UNL     1      10.934 -16.564 -23.998  1.00  0.00    -0.452 OA
ENDROOT
BRANCH   1  12
ATOM     12  C   UNL     1      10.372 -15.361 -21.987  1.00  0.00     0.021 A 
ATOM     13  C   UNL     1      10.642 -15.392 -20.606  1.00  0.00     0.016 A 
ATOM     14  C   UNL     1      10.622 -14.213 -19.855  1.00  0.00     0.047 A 
ATOM     15  C   UNL     1      10.316 -12.993 -20.469  1.00  0.00     0.115 A 
ATOM     16  C   UNL     1      10.047 -14.135 -22.590  1.00  0.00     0.016 A 
ATOM     17  C   UNL     1      10.027 -12.957 -21.837  1.00  0.00     0.047 A 
BRANCH  15  18
ATOM     18  O   UNL     1      10.293 -11.811 -19.730  1.00  0.00    -0.508 OA
ATOM     19  H   UNL     1       9.840 -10.976 -20.081  1.00  0.00     0.293 HD
ENDBRANCH  15  18
ENDBRANCH   1  12
BRANCH   2  20
ATOM     20  O   UNL     1       9.277 -17.870 -21.037  1.00  0.00    -0.502 OA
ATOM     21  H   UNL     1       8.371 -17.486 -20.795  1.00  0.00     0.293 HD
ENDBRANCH   2  20
BRANCH   6  22
ATOM     22  O   UNL     1       9.727 -21.125 -25.230  1.00  0.00    -0.507 OA
ATOM     23  H   UNL     1       9.573 -21.809 -25.955  1.00  0.00     0.293 HD
ENDBRANCH   6  22
BRANCH   8  24
ATOM     24  O   UNL     1      12.352 -18.400 -28.161  1.00  0.00    -0.508 OA
ATOM     25  H   UNL     1      11.943 -17.890 -28.936  1.00  0.00     0.293 HD
ENDBRANCH   8  24
TORSDOF 5
ENDMDL
MODEL 7
REMARK VINA RESULT:    -5.656      1.830      6.531
REMARK INTER + INTRA:          -6.901
REMARK INTER:                  -6.619
REMARK INTRA:                  -0.282
REMARK UNBOUND:                -0.253
REMARK SMILES O=c1c(O)c(-c2ccc(O)cc2)oc2cc(O)cc(O)c12
REMARK SMILES IDX 5 1 3 2 2 3 1 4 21 5 19 6 18 7 16 8 15 9 14 10 13 11 6 12
REMARK SMILES IDX 7 13 8 14 9 15 12 16 11 17 10 18 4 20 20 22 17 24
REMARK H PARENT 10 19 4 21 20 23 17 25
REMARK Flexibility Score: inf
ROOT
ATOM      1  C   UNL     1       9.992 -14.997 -23.431  1.00  0.00     0.180 A 
ATOM      2  C   UNL     1      10.505 -14.120 -22.459  1.00  0.00     0.208 A 
ATOM      3  C   UNL     1      10.439 -12.737 -22.688  1.00  0.00     0.238 A 
ATOM      4  O   UNL     1      10.850 -11.955 -21.791  1.00  0.00    -0.285 OA
ATOM      5  C   UNL     1       9.878 -12.247 -23.892  1.00  0.00     0.111 A 
ATOM      6  C   UNL     1       9.796 -10.867 -24.246  1.00  0.00     0.134 A 
ATOM      7  C   UNL     1       9.103 -10.491 -25.403  1.00  0.00     0.093 A 
ATOM      8  C   UNL     1       8.545 -11.445 -26.251  1.00  0.00     0.123 A 
ATOM      9  C   UNL     1       8.670 -12.802 -25.945  1.00  0.00     0.094 A 
ATOM     10  C   UNL     1       9.325 -13.206 -24.779  1.00  0.00     0.146 A 
ATOM     11  O   UNL     1       9.413 -14.506 -24.520  1.00  0.00    -0.452 OA
ENDROOT
BRANCH   1  12
ATOM     12  C   UNL     1      10.048 -16.468 -23.274  1.00  0.00     0.021 A 
ATOM     13  C   UNL     1      11.082 -17.229 -23.851  1.00  0.00     0.016 A 
ATOM     14  C   UNL     1      11.101 -18.619 -23.709  1.00  0.00     0.047 A 
ATOM     15  C   UNL     1      10.082 -19.269 -23.002  1.00  0.00     0.115 A 
ATOM     16  C   UNL     1       9.019 -17.129 -22.584  1.00  0.00     0.016 A 
ATOM     17  C   UNL     1       9.041 -18.521 -22.443  1.00  0.00     0.047 A 
BRANCH  15  18
ATOM     18  O   UNL     1      10.091 -20.654 -22.853  1.00  0.00    -0.508 OA
ATOM     19  H   UNL     1      10.798 -21.229 -23.294  1.00  0.00     0.293 HD
ENDBRANCH  15  18
ENDBRANCH   1  12
BRANCH   2  20
ATOM     20  O   UNL     1      11.035 -14.624 -21.268  1.00  0.00    -0.502 OA
ATOM     21  H   UNL     1      11.757 -15.335 -21.253  1.00  0.00     0.293 HD
ENDBRANCH   2  20
BRANCH   6  22
ATOM     22  O   UNL     1      10.399  -9.837 -23.516  1.00  0.00    -0.507 OA
ATOM     23  H   UNL     1      11.271  -9.921 -23.017  1.00  0.00     0.293 HD
ENDBRANCH   6  22
BRANCH   8  24
ATOM     24  O   UNL     1       7.875 -11.035 -27.402  1.00  0.00    -0.508 OA
ATOM     25  H   UNL     1       6.867 -10.929 -27.420  1.00  0.00     0.293 HD
ENDBRANCH   8  24
TORSDOF 5
ENDMDL
MODEL 8
REMARK VINA RESULT:    -5.398      2.720      4.899
REMARK INTER + INTRA:          -6.597
REMARK INTER:                  -6.790
REMARK INTRA:                   0.193
REMARK UNBOUND:                -0.253
REMARK SMILES O=c1c(O)c(-c2ccc(O)cc2)oc2cc(O)cc(O)c12
REMARK SMILES IDX 5 1 3 2 2 3 1 4 21 5 19 6 18 7 16 8 15 9 14 10 13 11 6 12
REMARK SMILES IDX 7 13 8 14 9 15 12 16 11 17 10 18 4 20 20 22 17 24
REMARK H PARENT 10 19 4 21 20 23 17 25
REMARK Flexibility Score: inf
ROOT
ATOM      1  C   UNL     1      10.707 -16.565 -23.989  1.00  0.00     0.180 A 
ATOM      2  C   UNL     1      11.023 -17.864 -23.553  1.00  0.00     0.208 A 
ATOM      3  C   UNL     1      11.183 -18.882 -24.508  1.00  0.00     0.238 A 
ATOM      4  O   UNL     1      11.518 -20.030 -24.116  1.00  0.00    -0.285 OA
ATOM      5  C   UNL     1      11.009 -18.592 -25.882  1.00  0.00     0.111 A 
ATOM      6  C   UNL     1      11.108 -19.554 -26.933  1.00  0.00     0.134 A 
ATOM      7  C   UNL     1      11.047 -19.130 -28.266  1.00  0.00     0.093 A 
ATOM      8  C   UNL     1      10.827 -17.793 -28.587  1.00  0.00     0.123 A 
ATOM      9  C   UNL     1      10.669 -16.852 -27.567  1.00  0.00     0.094 A 
ATOM     10  C   UNL     1      10.761 -17.238 -26.228  1.00  0.00     0.146 A 
ATOM     11  O   UNL     1      10.615 -16.311 -25.289  1.00  0.00    -0.452 OA
ENDROOT
BRANCH   1  12
ATOM     12  C   UNL     1      10.498 -15.446 -23.043  1.00  0.00     0.021 A 
ATOM     13  C   UNL     1       9.880 -15.647 -21.794  1.00  0.00     0.016 A 
ATOM     14  C   UNL     1       9.672 -14.570 -20.927  1.00  0.00     0.047 A 
ATOM     15  C   UNL     1      10.065 -13.279 -21.300  1.00  0.00     0.115 A 
ATOM     16  C   UNL     1      10.871 -14.145 -23.417  1.00  0.00     0.016 A 
ATOM     17  C   UNL     1      10.662 -13.070 -22.548  1.00  0.00     0.047 A 
BRANCH  15  18
ATOM     18  O   UNL     1       9.864 -12.198 -20.444  1.00  0.00    -0.508 OA
ATOM     19  H   UNL     1      10.412 -11.350 -20.524  1.00  0.00     0.293 HD
ENDBRANCH  15  18
ENDBRANCH   1  12
BRANCH   2  20
ATOM     20  O   UNL     1      11.211 -18.123 -22.193  1.00  0.00    -0.502 OA
ATOM     21  H   UNL     1      10.437 -18.269 -21.556  1.00  0.00     0.293 HD
ENDBRANCH   2  20
BRANCH   6  22
ATOM     22  O   UNL     1      11.237 -20.931 -26.720  1.00  0.00    -0.507 OA
ATOM     23  H   UNL     1      10.475 -21.591 -26.750  1.00  0.00     0.293 HD
ENDBRANCH   6  22
BRANCH   8  24
ATOM     24  O   UNL     1      10.755 -17.409 -29.924  1.00  0.00    -0.508 OA
ATOM     25  H   UNL     1      10.114 -17.856 -30.570  1.00  0.00     0.293 HD
ENDBRANCH   8  24
TORSDOF 5
ENDMDL
MODEL 9
REMARK VINA RESULT:    -5.363      2.284      3.166
REMARK INTER + INTRA:          -6.557
REMARK INTER:                  -6.887
REMARK INTRA:                   0.331
REMARK UNBOUND:                -0.253
REMARK SMILES O=c1c(O)c(-c2ccc(O)cc2)oc2cc(O)cc(O)c12
REMARK SMILES IDX 5 1 3 2 2 3 1 4 21 5 19 6 18 7 16 8 15 9 14 10 13 11 6 12
REMARK SMILES IDX 7 13 8 14 9 15 12 16 11 17 10 18 4 20 20 22 17 24
REMARK H PARENT 10 19 4 21 20 23 17 25
REMARK Flexibility Score: inf
ROOT
ATOM      1  C   UNL     1       9.148 -11.301 -25.124  1.00  0.00     0.180 A 
ATOM      2  C   UNL     1       9.833 -11.149 -23.905  1.00  0.00     0.208 A 
ATOM      3  C   UNL     1       9.961 -12.259 -23.054  1.00  0.00     0.238 A 
ATOM      4  O   UNL     1      10.621 -12.131 -21.990  1.00  0.00    -0.285 OA
ATOM      5  C   UNL     1       9.389 -13.500 -23.424  1.00  0.00     0.111 A 
ATOM      6  C   UNL     1       9.422 -14.679 -22.620  1.00  0.00     0.134 A 
ATOM      7  C   UNL     1       8.939 -15.885 -23.143  1.00  0.00     0.093 A 
ATOM      8  C   UNL     1       8.364 -15.941 -24.411  1.00  0.00     0.123 A 
ATOM      9  C   UNL     1       8.272 -14.781 -25.183  1.00  0.00     0.094 A 
ATOM     10  C   UNL     1       8.778 -13.571 -24.703  1.00  0.00     0.146 A 
ATOM     11  O   UNL     1       8.680 -12.493 -25.472  1.00  0.00    -0.452 OA
ENDROOT
BRANCH   1  12
ATOM     12  C   UNL     1       8.950 -10.172 -26.062  1.00  0.00     0.021 A 
ATOM     13  C   UNL     1       8.951  -8.838 -25.615  1.00  0.00     0.016 A 
ATOM     14  C   UNL     1       8.739  -7.790 -26.516  1.00  0.00     0.047 A 
ATOM     15  C   UNL     1       8.509  -8.062 -27.870  1.00  0.00     0.115 A 
ATOM     16  C   UNL     1       8.699 -10.436 -27.418  1.00  0.00     0.016 A 
ATOM     17  C   UNL     1       8.488  -9.386 -28.318  1.00  0.00     0.047 A 
BRANCH  15  18
ATOM     18  O   UNL     1       8.297  -7.025 -28.777  1.00  0.00    -0.508 OA
ATOM     19  H   UNL     1       8.371  -6.054 -28.498  1.00  0.00     0.293 HD
ENDBRANCH  15  18
ENDBRANCH   1  12
BRANCH   2  20
ATOM     20  O   UNL     1      10.408  -9.921 -23.571  1.00  0.00    -0.502 OA
ATOM     21  H   UNL     1      10.062  -9.041 -23.936  1.00  0.00     0.293 HD
ENDBRANCH   2  20
BRANCH   6  22
ATOM     22  O   UNL     1       9.892 -14.713 -21.303  1.00  0.00    -0.507 OA
ATOM     23  H   UNL     1      10.306 -13.931 -20.821  1.00  0.00     0.293 HD
ENDBRANCH   6  22
BRANCH   8  24
ATOM     24  O   UNL     1       7.878 -17.155 -24.893  1.00  0.00    -0.508 OA
ATOM     25  H   UNL     1       8.017 -18.021 -24.384  1.00  0.00     0.293 HD
ENDBRANCH   8  24
TORSDOF 5
ENDMDL
