MODEL 1
REMARK VINA RESULT:    -4.997      0.000      0.000
REMARK INTER + INTRA:         -15.204
REMARK INTER:                 -12.592
REMARK INTRA:                  -2.612
REMARK UNBOUND:                -2.612
REMARK SMILES CCCCCCCCCCCCCCCCCCCCCCCCCCCC(=O)[O-]
REMARK SMILES IDX 15 1 16 2 17 3 18 4 19 5 20 6 21 7 22 8 23 9 24 10 25 11
REMARK SMILES IDX 26 12 27 13 28 14 29 15 30 16 14 17 13 18 12 19 11 20 10 21
REMARK SMILES IDX 9 22 8 23 7 24 6 25 5 26 4 27 3 28 2 29 1 30
REMARK H PARENT
REMARK Flexibility Score: inf
ROOT
ATOM      1  C   UNL     1      -1.899  35.241  17.162  1.00  0.00     0.000 C 
ENDROOT
BRANCH   1   2
ATOM      2  C   UNL     1      -0.437  34.826  16.934  1.00  0.00     0.000 C 
BRANCH   2   3
ATOM      3  C   UNL     1      -0.285  33.326  16.630  1.00  0.00     0.000 C 
BRANCH   3   4
ATOM      4  C   UNL     1      -0.816  32.441  17.769  1.00  0.00     0.000 C 
BRANCH   4   5
ATOM      5  C   UNL     1      -0.527  30.946  17.541  1.00  0.00     0.000 C 
BRANCH   5   6
ATOM      6  C   UNL     1       0.790  30.708  16.782  1.00  0.00     0.000 C 
BRANCH   6   7
ATOM      7  C   UNL     1       1.050  29.216  16.514  1.00  0.00     0.000 C 
BRANCH   7   8
ATOM      8  C   UNL     1      -0.054  28.303  17.079  1.00  0.00     0.000 C 
BRANCH   8   9
ATOM      9  C   UNL     1      -0.573  27.224  16.112  1.00  0.00     0.000 C 
BRANCH   9  10
ATOM     10  C   UNL     1      -0.061  25.812  16.452  1.00  0.00     0.000 C 
BRANCH  10  11
ATOM     11  C   UNL     1       0.532  25.733  17.868  1.00  0.00     0.000 C 
BRANCH  11  12
ATOM     12  C   UNL     1      -0.459  25.149  18.889  1.00  0.00     0.006 C 
BRANCH  12  13
ATOM     13  C   UNL     1      -0.454  25.927  20.210  1.00  0.00     0.053 C 
BRANCH  13  14
ATOM     14  C   UNL     1      -1.207  25.204  21.284  1.00  0.00     0.041 C 
ATOM     15  O   UNL     1      -1.197  23.944  21.329  1.00  0.00    -0.550 OA
ATOM     16  O   UNL     1      -1.951  25.919  22.214  1.00  0.00    -0.550 OA
ENDBRANCH  13  14
ENDBRANCH  12  13
ENDBRANCH  11  12
ENDBRANCH  10  11
ENDBRANCH   9  10
ENDBRANCH   8   9
ENDBRANCH   7   8
ENDBRANCH   6   7
ENDBRANCH   5   6
ENDBRANCH   4   5
ENDBRANCH   3   4
ENDBRANCH   2   3
ENDBRANCH   1   2
BRANCH   1  17
ATOM     17  C   UNL     1      -2.537  35.877  15.914  1.00  0.00     0.000 C 
BRANCH  17  18
ATOM     18  C   UNL     1      -3.609  36.925  16.261  1.00  0.00     0.000 C 
BRANCH  18  19
ATOM     19  C   UNL     1      -3.253  38.379  15.894  1.00  0.00     0.000 C 
BRANCH  19  20
ATOM     20  C   UNL     1      -1.738  38.673  15.875  1.00  0.00     0.000 C 
BRANCH  20  21
ATOM     21  C   UNL     1      -1.383  39.981  16.605  1.00  0.00     0.000 C 
BRANCH  21  22
ATOM     22  C   UNL     1      -0.656  39.739  17.937  1.00  0.00    -0.000 C 
BRANCH  22  23
ATOM     23  C   UNL     1      -1.511  38.954  18.948  1.00  0.00    -0.000 C 
BRANCH  23  24
ATOM     24  C   UNL     1      -2.404  39.867  19.803  1.00  0.00    -0.000 C 
BRANCH  24  25
ATOM     25  C   UNL     1      -3.890  39.768  19.423  1.00  0.00    -0.000 C 
BRANCH  25  26
ATOM     26  C   UNL     1      -4.385  38.317  19.516  1.00  0.00    -0.000 C 
BRANCH  26  27
ATOM     27  C   UNL     1      -5.846  38.156  19.063  1.00  0.00    -0.000 C 
BRANCH  27  28
ATOM     28  C   UNL     1      -6.735  37.522  20.147  1.00  0.00    -0.000 C 
BRANCH  28  29
ATOM     29  C   UNL     1      -6.021  37.420  21.504  1.00  0.00    -0.003 C 
ATOM     30  C   UNL     1      -6.744  38.183  22.613  1.00  0.00     0.004 C 
ENDBRANCH  28  29
ENDBRANCH  27  28
ENDBRANCH  26  27
ENDBRANCH  25  26
ENDBRANCH  24  25
ENDBRANCH  23  24
ENDBRANCH  22  23
ENDBRANCH  21  22
ENDBRANCH  20  21
ENDBRANCH  19  20
ENDBRANCH  18  19
ENDBRANCH  17  18
ENDBRANCH   1  17
TORSDOF 26
ENDMDL
MODEL 2
REMARK VINA RESULT:    -4.974      1.234      2.681
REMARK INTER + INTRA:         -15.146
REMARK INTER:                 -12.920
REMARK INTRA:                  -2.225
REMARK UNBOUND:                -2.612
REMARK SMILES CCCCCCCCCCCCCCCCCCCCCCCCCCCC(=O)[O-]
REMARK SMILES IDX 15 1 16 2 17 3 18 4 19 5 20 6 21 7 22 8 23 9 24 10 25 11
REMARK SMILES IDX 26 12 27 13 28 14 29 15 30 16 14 17 13 18 12 19 11 20 10 21
REMARK SMILES IDX 9 22 8 23 7 24 6 25 5 26 4 27 3 28 2 29 1 30
REMARK H PARENT
REMARK Flexibility Score: inf
ROOT
ATOM      1  C   UNL     1      -2.609  35.795  16.136  1.00  0.00     0.000 C 
ENDROOT
BRANCH   1   2
ATOM      2  C   UNL     1      -2.086  35.037  17.367  1.00  0.00     0.000 C 
BRANCH   2   3
ATOM      3  C   UNL     1      -0.606  34.638  17.235  1.00  0.00     0.000 C 
BRANCH   3   4
ATOM      4  C   UNL     1      -0.428  33.260  16.578  1.00  0.00     0.000 C 
BRANCH   4   5
ATOM      5  C   UNL     1      -0.574  32.102  17.582  1.00  0.00     0.000 C 
BRANCH   5   6
ATOM      6  C   UNL     1       0.471  30.994  17.361  1.00  0.00     0.000 C 
BRANCH   6   7
ATOM      7  C   UNL     1      -0.108  29.786  16.605  1.00  0.00     0.000 C 
BRANCH   7   8
ATOM      8  C   UNL     1       0.696  28.494  16.833  1.00  0.00     0.000 C 
BRANCH   8   9
ATOM      9  C   UNL     1      -0.075  27.187  16.577  1.00  0.00     0.000 C 
BRANCH   9  10
ATOM     10  C   UNL     1      -0.412  26.422  17.871  1.00  0.00     0.000 C 
BRANCH  10  11
ATOM     11  C   UNL     1       0.754  25.541  18.348  1.00  0.00     0.000 C 
BRANCH  11  12
ATOM     12  C   UNL     1       0.731  25.309  19.868  1.00  0.00     0.006 C 
BRANCH  12  13
ATOM     13  C   UNL     1      -0.363  26.130  20.562  1.00  0.00     0.053 C 
BRANCH  13  14
ATOM     14  C   UNL     1      -1.189  25.287  21.484  1.00  0.00     0.041 C 
ATOM     15  O   UNL     1      -1.939  25.828  22.340  1.00  0.00    -0.550 OA
ATOM     16  O   UNL     1      -1.104  23.901  21.424  1.00  0.00    -0.550 OA
ENDBRANCH  13  14
ENDBRANCH  12  13
ENDBRANCH  11  12
ENDBRANCH  10  11
ENDBRANCH   9  10
ENDBRANCH   8   9
ENDBRANCH   7   8
ENDBRANCH   6   7
ENDBRANCH   5   6
ENDBRANCH   4   5
ENDBRANCH   3   4
ENDBRANCH   2   3
ENDBRANCH   1   2
BRANCH   1  17
ATOM     17  C   UNL     1      -2.120  37.253  16.085  1.00  0.00     0.000 C 
BRANCH  17  18
ATOM     18  C   UNL     1      -3.265  38.260  15.879  1.00  0.00     0.000 C 
BRANCH  18  19
ATOM     19  C   UNL     1      -3.366  39.371  16.942  1.00  0.00     0.000 C 
BRANCH  19  20
ATOM     20  C   UNL     1      -3.125  38.885  18.387  1.00  0.00     0.000 C 
BRANCH  20  21
ATOM     21  C   UNL     1      -4.383  39.006  19.267  1.00  0.00     0.000 C 
BRANCH  21  22
ATOM     22  C   UNL     1      -5.516  38.073  18.813  1.00  0.00    -0.000 C 
BRANCH  22  23
ATOM     23  C   UNL     1      -6.911  38.594  19.208  1.00  0.00    -0.000 C 
BRANCH  23  24
ATOM     24  C   UNL     1      -6.869  39.542  20.416  1.00  0.00    -0.000 C 
BRANCH  24  25
ATOM     25  C   UNL     1      -7.680  39.017  21.611  1.00  0.00    -0.000 C 
BRANCH  25  26
ATOM     26  C   UNL     1      -6.752  38.453  22.699  1.00  0.00    -0.000 C 
BRANCH  26  27
ATOM     27  C   UNL     1      -6.344  36.994  22.437  1.00  0.00    -0.000 C 
BRANCH  27  28
ATOM     28  C   UNL     1      -4.821  36.818  22.313  1.00  0.00    -0.000 C 
BRANCH  28  29
ATOM     29  C   UNL     1      -4.069  38.156  22.398  1.00  0.00    -0.003 C 
ATOM     30  C   UNL     1      -3.009  38.170  23.499  1.00  0.00     0.004 C 
ENDBRANCH  28  29
ENDBRANCH  27  28
ENDBRANCH  26  27
ENDBRANCH  25  26
ENDBRANCH  24  25
ENDBRANCH  23  24
ENDBRANCH  22  23
ENDBRANCH  21  22
ENDBRANCH  20  21
ENDBRANCH  19  20
ENDBRANCH  18  19
ENDBRANCH  17  18
ENDBRANCH   1  17
TORSDOF 26
ENDMDL
MODEL 3
REMARK VINA RESULT:    -4.910      3.146     11.072
REMARK INTER + INTRA:         -14.985
REMARK INTER:                 -12.284
REMARK INTRA:                  -2.702
REMARK UNBOUND:                -2.612
REMARK SMILES CCCCCCCCCCCCCCCCCCCCCCCCCCCC(=O)[O-]
REMARK SMILES IDX 15 1 16 2 17 3 18 4 19 5 20 6 21 7 22 8 23 9 24 10 25 11
REMARK SMILES IDX 26 12 27 13 28 14 29 15 30 16 14 17 13 18 12 19 11 20 10 21
REMARK SMILES IDX 9 22 8 23 7 24 6 25 5 26 4 27 3 28 2 29 1 30
REMARK H PARENT
REMARK Flexibility Score: inf
ROOT
ATOM      1  C   UNL     1      -2.016  36.251  17.656  1.00  0.00     0.000 C 
ENDROOT
BRANCH   1   2
ATOM      2  C   UNL     1      -3.053  36.974  16.782  1.00  0.00     0.000 C 
BRANCH   2   3
ATOM      3  C   UNL     1      -2.426  38.060  15.891  1.00  0.00     0.000 C 
BRANCH   3   4
ATOM      4  C   UNL     1      -2.811  39.479  16.339  1.00  0.00     0.000 C 
BRANCH   4   5
ATOM      5  C   UNL     1      -1.663  40.201  17.069  1.00  0.00     0.000 C 
BRANCH   5   6
ATOM      6  C   UNL     1      -2.070  40.690  18.470  1.00  0.00     0.000 C 
BRANCH   6   7
ATOM      7  C   UNL     1      -2.516  39.538  19.386  1.00  0.00     0.000 C 
BRANCH   7   8
ATOM      8  C   UNL     1      -3.905  39.768  20.008  1.00  0.00     0.000 C 
BRANCH   8   9
ATOM      9  C   UNL     1      -5.076  39.098  19.268  1.00  0.00     0.000 C 
BRANCH   9  10
ATOM     10  C   UNL     1      -6.295  38.844  20.173  1.00  0.00     0.000 C 
BRANCH  10  11
ATOM     11  C   UNL     1      -6.021  39.218  21.638  1.00  0.00     0.000 C 
BRANCH  11  12
ATOM     12  C   UNL     1      -6.550  38.162  22.623  1.00  0.00     0.006 C 
BRANCH  12  13
ATOM     13  C   UNL     1      -5.970  36.770  22.345  1.00  0.00     0.053 C 
BRANCH  13  14
ATOM     14  C   UNL     1      -4.479  36.808  22.202  1.00  0.00     0.041 C 
ATOM     15  O   UNL     1      -3.765  37.297  23.118  1.00  0.00    -0.550 OA
ATOM     16  O   UNL     1      -3.880  36.337  21.041  1.00  0.00    -0.550 OA
ENDBRANCH  13  14
ENDBRANCH  12  13
ENDBRANCH  11  12
ENDBRANCH  10  11
ENDBRANCH   9  10
ENDBRANCH   8   9
ENDBRANCH   7   8
ENDBRANCH   6   7
ENDBRANCH   5   6
ENDBRANCH   4   5
ENDBRANCH   3   4
ENDBRANCH   2   3
ENDBRANCH   1   2
BRANCH   1  17
ATOM     17  C   UNL     1      -0.627  36.182  16.994  1.00  0.00     0.000 C 
BRANCH  17  18
ATOM     18  C   UNL     1      -0.254  34.760  16.540  1.00  0.00     0.000 C 
BRANCH  18  19
ATOM     19  C   UNL     1      -1.129  33.631  17.120  1.00  0.00     0.000 C 
BRANCH  19  20
ATOM     20  C   UNL     1      -0.335  32.541  17.870  1.00  0.00     0.000 C 
BRANCH  20  21
ATOM     21  C   UNL     1      -0.432  31.165  17.185  1.00  0.00     0.000 C 
BRANCH  21  22
ATOM     22  C   UNL     1       0.924  30.668  16.659  1.00  0.00    -0.000 C 
BRANCH  22  23
ATOM     23  C   UNL     1       0.996  29.134  16.554  1.00  0.00    -0.000 C 
BRANCH  23  24
ATOM     24  C   UNL     1      -0.184  28.436  17.248  1.00  0.00    -0.000 C 
BRANCH  24  25
ATOM     25  C   UNL     1      -0.547  27.093  16.595  1.00  0.00    -0.000 C 
BRANCH  25  26
ATOM     26  C   UNL     1       0.423  25.987  17.037  1.00  0.00    -0.000 C 
BRANCH  26  27
ATOM     27  C   UNL     1      -0.295  24.679  17.411  1.00  0.00    -0.000 C 
BRANCH  27  28
ATOM     28  C   UNL     1      -0.943  24.737  18.804  1.00  0.00    -0.000 C 
BRANCH  28  29
ATOM     29  C   UNL     1       0.001  25.326  19.865  1.00  0.00    -0.003 C 
ATOM     30  C   UNL     1      -0.661  26.416  20.707  1.00  0.00     0.004 C 
ENDBRANCH  28  29
ENDBRANCH  27  28
ENDBRANCH  26  27
ENDBRANCH  25  26
ENDBRANCH  24  25
ENDBRANCH  23  24
ENDBRANCH  22  23
ENDBRANCH  21  22
ENDBRANCH  20  21
ENDBRANCH  19  20
ENDBRANCH  18  19
ENDBRANCH  17  18
ENDBRANCH   1  17
TORSDOF 26
ENDMDL
MODEL 4
REMARK VINA RESULT:    -4.906      3.834     11.498
REMARK INTER + INTRA:         -14.974
REMARK INTER:                 -12.486
REMARK INTRA:                  -2.488
REMARK UNBOUND:                -2.612
REMARK SMILES CCCCCCCCCCCCCCCCCCCCCCCCCCCC(=O)[O-]
REMARK SMILES IDX 15 1 16 2 17 3 18 4 19 5 20 6 21 7 22 8 23 9 24 10 25 11
REMARK SMILES IDX 26 12 27 13 28 14 29 15 30 16 14 17 13 18 12 19 11 20 10 21
REMARK SMILES IDX 9 22 8 23 7 24 6 25 5 26 4 27 3 28 2 29 1 30
REMARK H PARENT
REMARK Flexibility Score: inf
ROOT
ATOM      1  C   UNL     1      -2.251  35.900  17.296  1.00  0.00     0.000 C 
ENDROOT
BRANCH   1   2
ATOM      2  C   UNL     1      -2.912  36.738  16.189  1.00  0.00     0.000 C 
BRANCH   2   3
ATOM      3  C   UNL     1      -2.434  38.200  16.186  1.00  0.00     0.000 C 
BRANCH   3   4
ATOM      4  C   UNL     1      -3.417  39.138  16.905  1.00  0.00     0.000 C 
BRANCH   4   5
ATOM      5  C   UNL     1      -3.064  39.339  18.390  1.00  0.00     0.000 C 
BRANCH   5   6
ATOM      6  C   UNL     1      -4.278  39.150  19.316  1.00  0.00     0.000 C 
BRANCH   6   7
ATOM      7  C   UNL     1      -5.087  37.888  18.972  1.00  0.00     0.000 C 
BRANCH   7   8
ATOM      8  C   UNL     1      -6.465  37.852  19.658  1.00  0.00     0.000 C 
BRANCH   8   9
ATOM      9  C   UNL     1      -7.004  39.216  20.122  1.00  0.00     0.000 C 
BRANCH   9  10
ATOM     10  C   UNL     1      -7.705  39.154  21.492  1.00  0.00     0.000 C 
BRANCH  10  11
ATOM     11  C   UNL     1      -6.882  38.377  22.533  1.00  0.00     0.000 C 
BRANCH  11  12
ATOM     12  C   UNL     1      -5.672  39.179  23.042  1.00  0.00     0.006 C 
BRANCH  12  13
ATOM     13  C   UNL     1      -4.362  38.390  22.920  1.00  0.00     0.053 C 
BRANCH  13  14
ATOM     14  C   UNL     1      -3.234  39.075  23.628  1.00  0.00     0.041 C 
ATOM     15  O   UNL     1      -2.088  39.118  23.106  1.00  0.00    -0.550 OA
ATOM     16  O   UNL     1      -3.438  39.634  24.884  1.00  0.00    -0.550 OA
ENDBRANCH  13  14
ENDBRANCH  12  13
ENDBRANCH  11  12
ENDBRANCH  10  11
ENDBRANCH   9  10
ENDBRANCH   8   9
ENDBRANCH   7   8
ENDBRANCH   6   7
ENDBRANCH   5   6
ENDBRANCH   4   5
ENDBRANCH   3   4
ENDBRANCH   2   3
ENDBRANCH   1   2
BRANCH   1  17
ATOM     17  C   UNL     1      -0.714  35.925  17.221  1.00  0.00     0.000 C 
BRANCH  17  18
ATOM     18  C   UNL     1      -0.117  34.576  16.783  1.00  0.00     0.000 C 
BRANCH  18  19
ATOM     19  C   UNL     1      -1.012  33.346  17.032  1.00  0.00     0.000 C 
BRANCH  19  20
ATOM     20  C   UNL     1      -0.394  32.299  17.982  1.00  0.00     0.000 C 
BRANCH  20  21
ATOM     21  C   UNL     1      -0.472  30.869  17.414  1.00  0.00     0.000 C 
BRANCH  21  22
ATOM     22  C   UNL     1       0.854  30.405  16.793  1.00  0.00    -0.000 C 
BRANCH  22  23
ATOM     23  C   UNL     1       0.935  28.875  16.637  1.00  0.00    -0.000 C 
BRANCH  23  24
ATOM     24  C   UNL     1      -0.398  28.253  16.193  1.00  0.00    -0.000 C 
BRANCH  24  25
ATOM     25  C   UNL     1      -0.558  26.798  16.659  1.00  0.00    -0.000 C 
BRANCH  25  26
ATOM     26  C   UNL     1       0.709  26.308  17.377  1.00  0.00    -0.000 C 
BRANCH  26  27
ATOM     27  C   UNL     1       0.461  25.056  18.235  1.00  0.00    -0.000 C 
BRANCH  27  28
ATOM     28  C   UNL     1      -0.818  25.163  19.083  1.00  0.00    -0.000 C 
BRANCH  28  29
ATOM     29  C   UNL     1      -0.598  25.967  20.375  1.00  0.00    -0.003 C 
ATOM     30  C   UNL     1       0.660  25.541  21.131  1.00  0.00     0.004 C 
ENDBRANCH  28  29
ENDBRANCH  27  28
ENDBRANCH  26  27
ENDBRANCH  25  26
ENDBRANCH  24  25
ENDBRANCH  23  24
ENDBRANCH  22  23
ENDBRANCH  21  22
ENDBRANCH  20  21
ENDBRANCH  19  20
ENDBRANCH  18  19
ENDBRANCH  17  18
ENDBRANCH   1  17
TORSDOF 26
ENDMDL
MODEL 5
REMARK VINA RESULT:    -4.821      4.087     10.105
REMARK INTER + INTRA:         -14.761
REMARK INTER:                 -10.679
REMARK INTRA:                  -4.083
REMARK UNBOUND:                -2.612
REMARK SMILES CCCCCCCCCCCCCCCCCCCCCCCCCCCC(=O)[O-]
REMARK SMILES IDX 15 1 16 2 17 3 18 4 19 5 20 6 21 7 22 8 23 9 24 10 25 11
REMARK SMILES IDX 26 12 27 13 28 14 29 15 30 16 14 17 13 18 12 19 11 20 10 21
REMARK SMILES IDX 9 22 8 23 7 24 6 25 5 26 4 27 3 28 2 29 1 30
REMARK H PARENT
REMARK Flexibility Score: inf
ROOT
ATOM      1  C   UNL     1      -1.972  39.795  21.837  1.00  0.00     0.000 C 
ENDROOT
BRANCH   1   2
ATOM      2  C   UNL     1      -2.127  40.024  23.349  1.00  0.00     0.000 C 
BRANCH   2   3
ATOM      3  C   UNL     1      -3.221  41.051  23.686  1.00  0.00     0.000 C 
BRANCH   3   4
ATOM      4  C   UNL     1      -4.406  40.418  24.434  1.00  0.00     0.000 C 
BRANCH   4   5
ATOM      5  C   UNL     1      -5.538  39.981  23.486  1.00  0.00     0.000 C 
BRANCH   5   6
ATOM      6  C   UNL     1      -5.571  40.803  22.186  1.00  0.00     0.000 C 
BRANCH   6   7
ATOM      7  C   UNL     1      -6.868  40.585  21.388  1.00  0.00     0.000 C 
BRANCH   7   8
ATOM      8  C   UNL     1      -7.480  39.190  21.606  1.00  0.00     0.000 C 
BRANCH   8   9
ATOM      9  C   UNL     1      -7.555  38.301  20.353  1.00  0.00     0.000 C 
BRANCH   9  10
ATOM     10  C   UNL     1      -6.600  38.755  19.233  1.00  0.00     0.000 C 
BRANCH  10  11
ATOM     11  C   UNL     1      -5.435  37.774  19.027  1.00  0.00     0.000 C 
BRANCH  11  12
ATOM     12  C   UNL     1      -4.356  37.905  20.115  1.00  0.00     0.006 C 
BRANCH  12  13
ATOM     13  C   UNL     1      -4.090  36.575  20.830  1.00  0.00     0.053 C 
BRANCH  13  14
ATOM     14  C   UNL     1      -4.479  36.633  22.275  1.00  0.00     0.041 C 
ATOM     15  O   UNL     1      -3.633  36.960  23.149  1.00  0.00    -0.550 OA
ATOM     16  O   UNL     1      -5.769  36.291  22.662  1.00  0.00    -0.550 OA
ENDBRANCH  13  14
ENDBRANCH  12  13
ENDBRANCH  11  12
ENDBRANCH  10  11
ENDBRANCH   9  10
ENDBRANCH   8   9
ENDBRANCH   7   8
ENDBRANCH   6   7
ENDBRANCH   5   6
ENDBRANCH   4   5
ENDBRANCH   3   4
ENDBRANCH   2   3
ENDBRANCH   1   2
BRANCH   1  17
ATOM     17  C   UNL     1      -2.106  41.094  21.023  1.00  0.00     0.000 C 
BRANCH  17  18
ATOM     18  C   UNL     1      -2.212  40.841  19.510  1.00  0.00     0.000 C 
BRANCH  18  19
ATOM     19  C   UNL     1      -1.015  40.104  18.878  1.00  0.00     0.000 C 
BRANCH  19  20
ATOM     20  C   UNL     1      -1.408  38.886  18.016  1.00  0.00     0.000 C 
BRANCH  20  21
ATOM     21  C   UNL     1      -2.586  39.187  17.071  1.00  0.00     0.000 C 
BRANCH  21  22
ATOM     22  C   UNL     1      -2.958  37.988  16.185  1.00  0.00    -0.000 C 
BRANCH  22  23
ATOM     23  C   UNL     1      -2.872  36.645  16.934  1.00  0.00    -0.000 C 
BRANCH  23  24
ATOM     24  C   UNL     1      -2.030  35.601  16.183  1.00  0.00    -0.000 C 
BRANCH  24  25
ATOM     25  C   UNL     1      -0.843  35.088  17.014  1.00  0.00    -0.000 C 
BRANCH  25  26
ATOM     26  C   UNL     1      -0.466  33.655  16.607  1.00  0.00    -0.000 C 
BRANCH  26  27
ATOM     27  C   UNL     1      -0.173  32.750  17.814  1.00  0.00    -0.000 C 
BRANCH  27  28
ATOM     28  C   UNL     1      -0.854  31.375  17.703  1.00  0.00    -0.000 C 
BRANCH  28  29
ATOM     29  C   UNL     1      -0.166  30.463  16.675  1.00  0.00    -0.003 C 
ATOM     30  C   UNL     1       1.355  30.435  16.831  1.00  0.00     0.004 C 
ENDBRANCH  28  29
ENDBRANCH  27  28
ENDBRANCH  26  27
ENDBRANCH  25  26
ENDBRANCH  24  25
ENDBRANCH  23  24
ENDBRANCH  22  23
ENDBRANCH  21  22
ENDBRANCH  20  21
ENDBRANCH  19  20
ENDBRANCH  18  19
ENDBRANCH  17  18
ENDBRANCH   1  17
TORSDOF 26
ENDMDL
MODEL 6
REMARK VINA RESULT:    -4.700      4.077     11.265
REMARK INTER + INTRA:         -14.457
REMARK INTER:                 -12.196
REMARK INTRA:                  -2.261
REMARK UNBOUND:                -2.612
REMARK SMILES CCCCCCCCCCCCCCCCCCCCCCCCCCCC(=O)[O-]
REMARK SMILES IDX 15 1 16 2 17 3 18 4 19 5 20 6 21 7 22 8 23 9 24 10 25 11
REMARK SMILES IDX 26 12 27 13 28 14 29 15 30 16 14 17 13 18 12 19 11 20 10 21
REMARK SMILES IDX 9 22 8 23 7 24 6 25 5 26 4 27 3 28 2 29 1 30
REMARK H PARENT
REMARK Flexibility Score: inf
ROOT
ATOM      1  C   UNL     1      -1.418  36.342  17.520  1.00  0.00     0.000 C 
ENDROOT
BRANCH   1   2
ATOM      2  C   UNL     1      -2.670  37.038  16.962  1.00  0.00     0.000 C 
BRANCH   2   3
ATOM      3  C   UNL     1      -2.334  38.126  15.928  1.00  0.00     0.000 C 
BRANCH   3   4
ATOM      4  C   UNL     1      -2.569  39.544  16.473  1.00  0.00     0.000 C 
BRANCH   4   5
ATOM      5  C   UNL     1      -3.374  39.547  17.786  1.00  0.00     0.000 C 
BRANCH   5   6
ATOM      6  C   UNL     1      -2.701  40.382  18.889  1.00  0.00     0.000 C 
BRANCH   6   7
ATOM      7  C   UNL     1      -1.529  39.638  19.554  1.00  0.00     0.000 C 
BRANCH   7   8
ATOM      8  C   UNL     1      -1.984  38.666  20.657  1.00  0.00     0.000 C 
BRANCH   8   9
ATOM      9  C   UNL     1      -1.975  39.241  22.084  1.00  0.00     0.000 C 
BRANCH   9  10
ATOM     10  C   UNL     1      -3.230  38.864  22.894  1.00  0.00     0.000 C 
BRANCH  10  11
ATOM     11  C   UNL     1      -3.920  37.604  22.346  1.00  0.00     0.000 C 
BRANCH  11  12
ATOM     12  C   UNL     1      -5.453  37.725  22.350  1.00  0.00     0.006 C 
BRANCH  12  13
ATOM     13  C   UNL     1      -6.059  37.434  20.972  1.00  0.00     0.053 C 
BRANCH  13  14
ATOM     14  C   UNL     1      -7.001  38.515  20.540  1.00  0.00     0.041 C 
ATOM     15  O   UNL     1      -7.071  38.851  19.328  1.00  0.00    -0.550 OA
ATOM     16  O   UNL     1      -7.778  39.179  21.482  1.00  0.00    -0.550 OA
ENDBRANCH  13  14
ENDBRANCH  12  13
ENDBRANCH  11  12
ENDBRANCH  10  11
ENDBRANCH   9  10
ENDBRANCH   8   9
ENDBRANCH   7   8
ENDBRANCH   6   7
ENDBRANCH   5   6
ENDBRANCH   4   5
ENDBRANCH   3   4
ENDBRANCH   2   3
ENDBRANCH   1   2
BRANCH   1  17
ATOM     17  C   UNL     1      -0.454  35.879  16.413  1.00  0.00     0.000 C 
BRANCH  17  18
ATOM     18  C   UNL     1      -0.341  34.347  16.324  1.00  0.00     0.000 C 
BRANCH  18  19
ATOM     19  C   UNL     1      -1.136  33.564  17.387  1.00  0.00     0.000 C 
BRANCH  19  20
ATOM     20  C   UNL     1      -0.381  32.353  17.975  1.00  0.00     0.000 C 
BRANCH  20  21
ATOM     21  C   UNL     1      -0.351  31.153  17.010  1.00  0.00     0.000 C 
BRANCH  21  22
ATOM     22  C   UNL     1       1.070  30.619  16.773  1.00  0.00    -0.000 C 
BRANCH  22  23
ATOM     23  C   UNL     1       1.104  29.095  16.549  1.00  0.00    -0.000 C 
BRANCH  23  24
ATOM     24  C   UNL     1      -0.104  28.378  17.172  1.00  0.00    -0.000 C 
BRANCH  24  25
ATOM     25  C   UNL     1      -0.289  26.951  16.632  1.00  0.00    -0.000 C 
BRANCH  25  26
ATOM     26  C   UNL     1       0.306  25.916  17.599  1.00  0.00    -0.000 C 
BRANCH  26  27
ATOM     27  C   UNL     1      -0.625  24.715  17.833  1.00  0.00    -0.000 C 
BRANCH  27  28
ATOM     28  C   UNL     1      -1.139  24.638  19.281  1.00  0.00    -0.000 C 
BRANCH  28  29
ATOM     29  C   UNL     1      -0.187  25.320  20.277  1.00  0.00    -0.003 C 
ATOM     30  C   UNL     1      -0.749  26.629  20.832  1.00  0.00     0.004 C 
ENDBRANCH  28  29
ENDBRANCH  27  28
ENDBRANCH  26  27
ENDBRANCH  25  26
ENDBRANCH  24  25
ENDBRANCH  23  24
ENDBRANCH  22  23
ENDBRANCH  21  22
ENDBRANCH  20  21
ENDBRANCH  19  20
ENDBRANCH  18  19
ENDBRANCH  17  18
ENDBRANCH   1  17
TORSDOF 26
ENDMDL
MODEL 7
REMARK VINA RESULT:    -4.683      1.157      1.943
REMARK INTER + INTRA:         -14.413
REMARK INTER:                 -11.907
REMARK INTRA:                  -2.505
REMARK UNBOUND:                -2.612
REMARK SMILES CCCCCCCCCCCCCCCCCCCCCCCCCCCC(=O)[O-]
REMARK SMILES IDX 15 1 16 2 17 3 18 4 19 5 20 6 21 7 22 8 23 9 24 10 25 11
REMARK SMILES IDX 26 12 27 13 28 14 29 15 30 16 14 17 13 18 12 19 11 20 10 21
REMARK SMILES IDX 9 22 8 23 7 24 6 25 5 26 4 27 3 28 2 29 1 30
REMARK H PARENT
REMARK Flexibility Score: inf
ROOT
ATOM      1  C   UNL     1      -0.362  37.097  16.513  1.00  0.00     0.000 C 
ENDROOT
BRANCH   1   2
ATOM      2  C   UNL     1      -0.096  35.686  17.061  1.00  0.00     0.000 C 
BRANCH   2   3
ATOM      3  C   UNL     1      -1.333  34.775  16.982  1.00  0.00     0.000 C 
BRANCH   3   4
ATOM      4  C   UNL     1      -1.058  33.366  17.531  1.00  0.00     0.000 C 
BRANCH   4   5
ATOM      5  C   UNL     1      -0.282  32.483  16.536  1.00  0.00     0.000 C 
BRANCH   5   6
ATOM      6  C   UNL     1      -0.329  30.992  16.909  1.00  0.00     0.000 C 
BRANCH   6   7
ATOM      7  C   UNL     1       0.987  30.265  16.582  1.00  0.00     0.000 C 
BRANCH   7   8
ATOM      8  C   UNL     1       0.926  28.753  16.866  1.00  0.00     0.000 C 
BRANCH   8   9
ATOM      9  C   UNL     1      -0.336  28.039  16.351  1.00  0.00     0.000 C 
BRANCH   9  10
ATOM     10  C   UNL     1      -0.228  26.504  16.412  1.00  0.00     0.000 C 
BRANCH  10  11
ATOM     11  C   UNL     1       0.447  26.019  17.705  1.00  0.00     0.000 C 
BRANCH  11  12
ATOM     12  C   UNL     1      -0.570  25.522  18.747  1.00  0.00     0.006 C 
BRANCH  12  13
ATOM     13  C   UNL     1       0.101  25.134  20.070  1.00  0.00     0.053 C 
BRANCH  13  14
ATOM     14  C   UNL     1      -0.907  24.863  21.145  1.00  0.00     0.041 C 
ATOM     15  O   UNL     1      -1.019  23.708  21.636  1.00  0.00    -0.550 OA
ATOM     16  O   UNL     1      -1.749  25.879  21.581  1.00  0.00    -0.550 OA
ENDBRANCH  13  14
ENDBRANCH  12  13
ENDBRANCH  11  12
ENDBRANCH  10  11
ENDBRANCH   9  10
ENDBRANCH   8   9
ENDBRANCH   7   8
ENDBRANCH   6   7
ENDBRANCH   5   6
ENDBRANCH   4   5
ENDBRANCH   3   4
ENDBRANCH   2   3
ENDBRANCH   1   2
BRANCH   1  17
ATOM     17  C   UNL     1       0.751  38.095  16.880  1.00  0.00     0.000 C 
BRANCH  17  18
ATOM     18  C   UNL     1       0.419  39.538  16.463  1.00  0.00     0.000 C 
BRANCH  18  19
ATOM     19  C   UNL     1      -1.083  39.883  16.420  1.00  0.00     0.000 C 
BRANCH  19  20
ATOM     20  C   UNL     1      -1.506  40.982  17.417  1.00  0.00     0.000 C 
BRANCH  20  21
ATOM     21  C   UNL     1      -1.186  40.610  18.877  1.00  0.00     0.000 C 
BRANCH  21  22
ATOM     22  C   UNL     1      -2.433  40.605  19.775  1.00  0.00    -0.000 C 
BRANCH  22  23
ATOM     23  C   UNL     1      -2.659  39.251  20.472  1.00  0.00    -0.000 C 
BRANCH  23  24
ATOM     24  C   UNL     1      -2.361  38.055  19.554  1.00  0.00    -0.000 C 
BRANCH  24  25
ATOM     25  C   UNL     1      -3.520  37.737  18.597  1.00  0.00    -0.000 C 
BRANCH  25  26
ATOM     26  C   UNL     1      -4.826  38.383  19.083  1.00  0.00    -0.000 C 
BRANCH  26  27
ATOM     27  C   UNL     1      -5.782  37.374  19.741  1.00  0.00    -0.000 C 
BRANCH  27  28
ATOM     28  C   UNL     1      -6.341  37.877  21.083  1.00  0.00    -0.000 C 
BRANCH  28  29
ATOM     29  C   UNL     1      -5.942  36.972  22.259  1.00  0.00    -0.003 C 
ATOM     30  C   UNL     1      -4.519  36.428  22.131  1.00  0.00     0.004 C 
ENDBRANCH  28  29
ENDBRANCH  27  28
ENDBRANCH  26  27
ENDBRANCH  25  26
ENDBRANCH  24  25
ENDBRANCH  23  24
ENDBRANCH  22  23
ENDBRANCH  21  22
ENDBRANCH  20  21
ENDBRANCH  19  20
ENDBRANCH  18  19
ENDBRANCH  17  18
ENDBRANCH   1  17
TORSDOF 26
ENDMDL
MODEL 8
REMARK VINA RESULT:    -4.674      1.383      2.537
REMARK INTER + INTRA:         -14.390
REMARK INTER:                 -11.873
REMARK INTRA:                  -2.518
REMARK UNBOUND:                -2.612
REMARK SMILES CCCCCCCCCCCCCCCCCCCCCCCCCCCC(=O)[O-]
REMARK SMILES IDX 15 1 16 2 17 3 18 4 19 5 20 6 21 7 22 8 23 9 24 10 25 11
REMARK SMILES IDX 26 12 27 13 28 14 29 15 30 16 14 17 13 18 12 19 11 20 10 21
REMARK SMILES IDX 9 22 8 23 7 24 6 25 5 26 4 27 3 28 2 29 1 30
REMARK H PARENT
REMARK Flexibility Score: inf
ROOT
ATOM      1  C   UNL     1      -1.395  36.342  16.025  1.00  0.00     0.000 C 
ENDROOT
BRANCH   1   2
ATOM      2  C   UNL     1      -1.000  35.614  17.319  1.00  0.00     0.000 C 
BRANCH   2   3
ATOM      3  C   UNL     1      -1.490  34.156  17.354  1.00  0.00     0.000 C 
BRANCH   3   4
ATOM      4  C   UNL     1      -0.633  33.230  16.476  1.00  0.00     0.000 C 
BRANCH   4   5
ATOM      5  C   UNL     1      -0.644  31.770  16.968  1.00  0.00     0.000 C 
BRANCH   5   6
ATOM      6  C   UNL     1       0.760  31.260  17.336  1.00  0.00     0.000 C 
BRANCH   6   7
ATOM      7  C   UNL     1       1.102  29.934  16.636  1.00  0.00     0.000 C 
BRANCH   7   8
ATOM      8  C   UNL     1      -0.099  28.976  16.541  1.00  0.00     0.000 C 
BRANCH   8   9
ATOM      9  C   UNL     1       0.061  27.644  17.296  1.00  0.00     0.000 C 
BRANCH   9  10
ATOM     10  C   UNL     1      -0.521  26.443  16.528  1.00  0.00     0.000 C 
BRANCH  10  11
ATOM     11  C   UNL     1      -0.288  25.113  17.264  1.00  0.00     0.000 C 
BRANCH  11  12
ATOM     12  C   UNL     1       0.144  25.319  18.726  1.00  0.00     0.006 C 
BRANCH  12  13
ATOM     13  C   UNL     1      -0.963  24.934  19.715  1.00  0.00     0.053 C 
BRANCH  13  14
ATOM     14  C   UNL     1      -1.041  25.894  20.862  1.00  0.00     0.041 C 
ATOM     15  O   UNL     1      -0.621  27.075  20.733  1.00  0.00    -0.550 OA
ATOM     16  O   UNL     1      -1.545  25.474  22.087  1.00  0.00    -0.550 OA
ENDBRANCH  13  14
ENDBRANCH  12  13
ENDBRANCH  11  12
ENDBRANCH  10  11
ENDBRANCH   9  10
ENDBRANCH   8   9
ENDBRANCH   7   8
ENDBRANCH   6   7
ENDBRANCH   5   6
ENDBRANCH   4   5
ENDBRANCH   3   4
ENDBRANCH   2   3
ENDBRANCH   1   2
BRANCH   1  17
ATOM     17  C   UNL     1      -2.261  37.588  16.286  1.00  0.00     0.000 C 
BRANCH  17  18
ATOM     18  C   UNL     1      -3.205  37.415  17.489  1.00  0.00     0.000 C 
BRANCH  18  19
ATOM     19  C   UNL     1      -2.867  38.277  18.721  1.00  0.00     0.000 C 
BRANCH  19  20
ATOM     20  C   UNL     1      -3.500  39.684  18.701  1.00  0.00     0.000 C 
BRANCH  20  21
ATOM     21  C   UNL     1      -3.381  40.404  20.057  1.00  0.00     0.000 C 
BRANCH  21  22
ATOM     22  C   UNL     1      -3.261  39.428  21.238  1.00  0.00    -0.000 C 
BRANCH  22  23
ATOM     23  C   UNL     1      -3.333  40.134  22.605  1.00  0.00    -0.000 C 
BRANCH  23  24
ATOM     24  C   UNL     1      -4.220  39.386  23.612  1.00  0.00    -0.000 C 
BRANCH  24  25
ATOM     25  C   UNL     1      -5.261  38.485  22.931  1.00  0.00    -0.000 C 
BRANCH  25  26
ATOM     26  C   UNL     1      -6.686  38.995  23.194  1.00  0.00    -0.000 C 
BRANCH  26  27
ATOM     27  C   UNL     1      -7.578  38.946  21.942  1.00  0.00    -0.000 C 
BRANCH  27  28
ATOM     28  C   UNL     1      -6.921  39.612  20.721  1.00  0.00    -0.000 C 
BRANCH  28  29
ATOM     29  C   UNL     1      -7.049  38.759  19.449  1.00  0.00    -0.003 C 
ATOM     30  C   UNL     1      -6.506  37.341  19.629  1.00  0.00     0.004 C 
ENDBRANCH  28  29
ENDBRANCH  27  28
ENDBRANCH  26  27
ENDBRANCH  25  26
ENDBRANCH  24  25
ENDBRANCH  23  24
ENDBRANCH  22  23
ENDBRANCH  21  22
ENDBRANCH  20  21
ENDBRANCH  19  20
ENDBRANCH  18  19
ENDBRANCH  17  18
ENDBRANCH   1  17
TORSDOF 26
ENDMDL
MODEL 9
REMARK VINA RESULT:    -4.622      5.292     11.311
REMARK INTER + INTRA:         -14.260
REMARK INTER:                 -11.053
REMARK INTRA:                  -3.207
REMARK UNBOUND:                -2.612
REMARK SMILES CCCCCCCCCCCCCCCCCCCCCCCCCCCC(=O)[O-]
REMARK SMILES IDX 15 1 16 2 17 3 18 4 19 5 20 6 21 7 22 8 23 9 24 10 25 11
REMARK SMILES IDX 26 12 27 13 28 14 29 15 30 16 14 17 13 18 12 19 11 20 10 21
REMARK SMILES IDX 9 22 8 23 7 24 6 25 5 26 4 27 3 28 2 29 1 30
REMARK H PARENT
REMARK Flexibility Score: inf
ROOT
ATOM      1  C   UNL     1      -6.439  37.593  22.627  1.00  0.00     0.000 C 
ENDROOT
BRANCH   1   2
ATOM      2  C   UNL     1      -7.177  38.940  22.601  1.00  0.00     0.000 C 
BRANCH   2   3
ATOM      3  C   UNL     1      -7.153  39.605  21.214  1.00  0.00     0.000 C 
BRANCH   3   4
ATOM      4  C   UNL     1      -6.046  40.664  21.092  1.00  0.00     0.000 C 
BRANCH   4   5
ATOM      5  C   UNL     1      -5.397  41.000  22.447  1.00  0.00     0.000 C 
BRANCH   5   6
ATOM      6  C   UNL     1      -3.913  40.599  22.507  1.00  0.00     0.000 C 
BRANCH   6   7
ATOM      7  C   UNL     1      -3.574  39.796  23.774  1.00  0.00     0.000 C 
BRANCH   7   8
ATOM      8  C   UNL     1      -4.329  40.294  25.020  1.00  0.00     0.000 C 
BRANCH   8   9
ATOM      9  C   UNL     1      -3.440  40.679  26.216  1.00  0.00     0.000 C 
BRANCH   9  10
ATOM     10  C   UNL     1      -3.730  39.843  27.477  1.00  0.00     0.000 C 
BRANCH  10  11
ATOM     11  C   UNL     1      -3.093  40.450  28.737  1.00  0.00     0.000 C 
BRANCH  11  12
ATOM     12  C   UNL     1      -1.881  39.641  29.231  1.00  0.00     0.006 C 
BRANCH  12  13
ATOM     13  C   UNL     1      -2.055  39.166  30.678  1.00  0.00     0.053 C 
BRANCH  13  14
ATOM     14  C   UNL     1      -2.322  37.694  30.751  1.00  0.00     0.041 C 
ATOM     15  O   UNL     1      -2.958  37.210  31.726  1.00  0.00    -0.550 OA
ATOM     16  O   UNL     1      -1.839  36.849  29.759  1.00  0.00    -0.550 OA
ENDBRANCH  13  14
ENDBRANCH  12  13
ENDBRANCH  11  12
ENDBRANCH  10  11
ENDBRANCH   9  10
ENDBRANCH   8   9
ENDBRANCH   7   8
ENDBRANCH   6   7
ENDBRANCH   5   6
ENDBRANCH   4   5
ENDBRANCH   3   4
ENDBRANCH   2   3
ENDBRANCH   1   2
BRANCH   1  17
ATOM     17  C   UNL     1      -5.923  37.172  21.239  1.00  0.00     0.000 C 
BRANCH  17  18
ATOM     18  C   UNL     1      -4.483  36.633  21.277  1.00  0.00     0.000 C 
BRANCH  18  19
ATOM     19  C   UNL     1      -3.423  37.536  20.615  1.00  0.00     0.000 C 
BRANCH  19  20
ATOM     20  C   UNL     1      -3.937  38.312  19.383  1.00  0.00     0.000 C 
BRANCH  20  21
ATOM     21  C   UNL     1      -2.969  39.426  18.943  1.00  0.00     0.000 C 
BRANCH  21  22
ATOM     22  C   UNL     1      -1.495  39.006  19.045  1.00  0.00    -0.000 C 
BRANCH  22  23
ATOM     23  C   UNL     1      -0.747  39.126  17.704  1.00  0.00    -0.000 C 
BRANCH  23  24
ATOM     24  C   UNL     1      -1.029  37.946  16.760  1.00  0.00    -0.000 C 
BRANCH  24  25
ATOM     25  C   UNL     1      -0.651  36.591  17.377  1.00  0.00    -0.000 C 
BRANCH  25  26
ATOM     26  C   UNL     1      -1.904  35.749  17.664  1.00  0.00    -0.000 C 
BRANCH  26  27
ATOM     27  C   UNL     1      -1.785  34.306  17.146  1.00  0.00    -0.000 C 
BRANCH  27  28
ATOM     28  C   UNL     1      -0.390  33.704  17.388  1.00  0.00    -0.000 C 
BRANCH  28  29
ATOM     29  C   UNL     1      -0.457  32.236  17.838  1.00  0.00    -0.003 C 
ATOM     30  C   UNL     1       0.074  31.267  16.782  1.00  0.00     0.004 C 
ENDBRANCH  28  29
ENDBRANCH  27  28
ENDBRANCH  26  27
ENDBRANCH  25  26
ENDBRANCH  24  25
ENDBRANCH  23  24
ENDBRANCH  22  23
ENDBRANCH  21  22
ENDBRANCH  20  21
ENDBRANCH  19  20
ENDBRANCH  18  19
ENDBRANCH  17  18
ENDBRANCH   1  17
TORSDOF 26
ENDMDL
