MODEL 1
REMARK VINA RESULT:    -3.657      0.000      0.000
REMARK INTER + INTRA:         -12.854
REMARK INTER:                  -9.643
REMARK INTRA:                  -3.211
REMARK UNBOUND:                -3.211
REMARK SMILES CCCCCCCCCCCCCCCCCCCCCCCCCCCCCC(=O)[O-]
REMARK SMILES IDX 16 1 17 2 18 3 19 4 20 5 21 6 22 7 23 8 24 9 25 10 26 11
REMARK SMILES IDX 27 12 28 13 29 14 30 15 31 16 32 17 15 18 14 19 13 20 12 21
REMARK SMILES IDX 11 22 10 23 9 24 8 25 7 26 6 27 5 28 4 29 3 30 2 31 1 32
REMARK H PARENT
REMARK Flexibility Score: inf
ROOT
ATOM      1  C   UNL     1      82.215 123.335 130.318  1.00  0.00     0.000 C 
ENDROOT
BRANCH   1   2
ATOM      2  C   UNL     1      81.878 123.872 131.717  1.00  0.00     0.000 C 
BRANCH   2   3
ATOM      3  C   UNL     1      82.940 123.509 132.771  1.00  0.00     0.000 C 
BRANCH   3   4
ATOM      4  C   UNL     1      84.209 124.375 132.661  1.00  0.00     0.000 C 
BRANCH   4   5
ATOM      5  C   UNL     1      85.514 123.671 133.084  1.00  0.00     0.000 C 
BRANCH   5   6
ATOM      6  C   UNL     1      85.830 122.372 132.316  1.00  0.00     0.000 C 
BRANCH   6   7
ATOM      7  C   UNL     1      86.534 122.574 130.961  1.00  0.00     0.000 C 
BRANCH   7   8
ATOM      8  C   UNL     1      87.379 121.379 130.480  1.00  0.00     0.000 C 
BRANCH   8   9
ATOM      9  C   UNL     1      86.716 120.502 129.399  1.00  0.00     0.000 C 
BRANCH   9  10
ATOM     10  C   UNL     1      85.601 119.565 129.908  1.00  0.00     0.000 C 
BRANCH  10  11
ATOM     11  C   UNL     1      84.323 119.547 129.050  1.00  0.00     0.000 C 
BRANCH  11  12
ATOM     12  C   UNL     1      84.239 120.740 128.085  1.00  0.00     0.000 C 
BRANCH  12  13
ATOM     13  C   UNL     1      84.097 120.310 126.612  1.00  0.00     0.006 C 
BRANCH  13  14
ATOM     14  C   UNL     1      84.422 121.411 125.589  1.00  0.00     0.053 C 
BRANCH  14  15
ATOM     15  C   UNL     1      83.327 121.588 124.582  1.00  0.00     0.041 C 
ATOM     16  O   UNL     1      82.616 122.629 124.596  1.00  0.00    -0.550 OA
ATOM     17  O   UNL     1      83.128 120.631 123.595  1.00  0.00    -0.550 OA
ENDBRANCH  14  15
ENDBRANCH  13  14
ENDBRANCH  12  13
ENDBRANCH  11  12
ENDBRANCH  10  11
ENDBRANCH   9  10
ENDBRANCH   8   9
ENDBRANCH   7   8
ENDBRANCH   6   7
ENDBRANCH   5   6
ENDBRANCH   4   5
ENDBRANCH   3   4
ENDBRANCH   2   3
ENDBRANCH   1   2
BRANCH   1  18
ATOM     18  C   UNL     1      82.114 124.418 129.227  1.00  0.00     0.000 C 
BRANCH  18  19
ATOM     19  C   UNL     1      82.601 123.928 127.847  1.00  0.00     0.000 C 
BRANCH  19  20
ATOM     20  C   UNL     1      83.803 124.713 127.284  1.00  0.00     0.000 C 
BRANCH  20  21
ATOM     21  C   UNL     1      85.179 124.304 127.836  1.00  0.00     0.000 C 
BRANCH  21  22
ATOM     22  C   UNL     1      85.800 125.283 128.853  1.00  0.00     0.000 C 
BRANCH  22  23
ATOM     23  C   UNL     1      85.124 126.672 128.884  1.00  0.00     0.000 C 
BRANCH  23  24
ATOM     24  C   UNL     1      83.870 126.765 129.776  1.00  0.00    -0.000 C 
BRANCH  24  25
ATOM     25  C   UNL     1      84.105 127.323 131.197  1.00  0.00    -0.000 C 
BRANCH  25  26
ATOM     26  C   UNL     1      83.576 128.748 131.437  1.00  0.00    -0.000 C 
BRANCH  26  27
ATOM     27  C   UNL     1      83.151 128.988 132.895  1.00  0.00    -0.000 C 
BRANCH  27  28
ATOM     28  C   UNL     1      82.571 130.396 133.125  1.00  0.00    -0.000 C 
BRANCH  28  29
ATOM     29  C   UNL     1      83.609 131.536 133.125  1.00  0.00    -0.000 C 
BRANCH  29  30
ATOM     30  C   UNL     1      83.128 132.854 132.494  1.00  0.00    -0.000 C 
BRANCH  30  31
ATOM     31  C   UNL     1      82.598 132.675 131.065  1.00  0.00    -0.003 C 
ATOM     32  C   UNL     1      82.759 133.960 130.258  1.00  0.00     0.004 C 
ENDBRANCH  30  31
ENDBRANCH  29  30
ENDBRANCH  28  29
ENDBRANCH  27  28
ENDBRANCH  26  27
ENDBRANCH  25  26
ENDBRANCH  24  25
ENDBRANCH  23  24
ENDBRANCH  22  23
ENDBRANCH  21  22
ENDBRANCH  20  21
ENDBRANCH  19  20
ENDBRANCH  18  19
ENDBRANCH   1  18
TORSDOF 28
ENDMDL
MODEL 2
REMARK VINA RESULT:    -3.141     13.126     17.261
REMARK INTER + INTRA:         -11.493
REMARK INTER:                  -9.879
REMARK INTRA:                  -1.614
REMARK UNBOUND:                -3.211
REMARK SMILES CCCCCCCCCCCCCCCCCCCCCCCCCCCCCC(=O)[O-]
REMARK SMILES IDX 16 1 17 2 18 3 19 4 20 5 21 6 22 7 23 8 24 9 25 10 26 11
REMARK SMILES IDX 27 12 28 13 29 14 30 15 31 16 32 17 15 18 14 19 13 20 12 21
REMARK SMILES IDX 11 22 10 23 9 24 8 25 7 26 6 27 5 28 4 29 3 30 2 31 1 32
REMARK H PARENT
REMARK Flexibility Score: inf
ROOT
ATOM      1  C   UNL     1      97.561 125.859 125.131  1.00  0.00     0.000 C 
ENDROOT
BRANCH   1   2
ATOM      2  C   UNL     1      97.623 127.344 125.516  1.00  0.00     0.000 C 
BRANCH   2   3
ATOM      3  C   UNL     1      97.239 127.600 126.985  1.00  0.00     0.000 C 
BRANCH   3   4
ATOM      4  C   UNL     1      97.277 129.092 127.361  1.00  0.00     0.000 C 
BRANCH   4   5
ATOM      5  C   UNL     1      96.077 129.582 128.196  1.00  0.00     0.000 C 
BRANCH   5   6
ATOM      6  C   UNL     1      96.061 131.096 128.486  1.00  0.00     0.000 C 
BRANCH   6   7
ATOM      7  C   UNL     1      94.980 131.890 127.727  1.00  0.00     0.000 C 
BRANCH   7   8
ATOM      8  C   UNL     1      95.517 132.915 126.709  1.00  0.00     0.000 C 
BRANCH   8   9
ATOM      9  C   UNL     1      94.663 133.081 125.436  1.00  0.00     0.000 C 
BRANCH   9  10
ATOM     10  C   UNL     1      94.965 134.344 124.605  1.00  0.00     0.000 C 
BRANCH  10  11
ATOM     11  C   UNL     1      96.419 134.469 124.113  1.00  0.00     0.000 C 
BRANCH  11  12
ATOM     12  C   UNL     1      96.677 135.779 123.351  1.00  0.00     0.000 C 
BRANCH  12  13
ATOM     13  C   UNL     1      96.745 135.581 121.825  1.00  0.00     0.006 C 
BRANCH  13  14
ATOM     14  C   UNL     1      97.645 136.587 121.088  1.00  0.00     0.053 C 
BRANCH  14  15
ATOM     15  C   UNL     1      96.901 137.337 120.025  1.00  0.00     0.041 C 
ATOM     16  O   UNL     1      96.791 136.854 118.867  1.00  0.00    -0.550 OA
ATOM     17  O   UNL     1      96.281 138.542 120.330  1.00  0.00    -0.550 OA
ENDBRANCH  14  15
ENDBRANCH  13  14
ENDBRANCH  12  13
ENDBRANCH  11  12
ENDBRANCH  10  11
ENDBRANCH   9  10
ENDBRANCH   8   9
ENDBRANCH   7   8
ENDBRANCH   6   7
ENDBRANCH   5   6
ENDBRANCH   4   5
ENDBRANCH   3   4
ENDBRANCH   2   3
ENDBRANCH   1   2
BRANCH   1  18
ATOM     18  C   UNL     1      97.614 124.927 126.357  1.00  0.00     0.000 C 
BRANCH  18  19
ATOM     19  C   UNL     1      97.413 123.441 125.990  1.00  0.00     0.000 C 
BRANCH  19  20
ATOM     20  C   UNL     1      96.467 123.206 124.795  1.00  0.00     0.000 C 
BRANCH  20  21
ATOM     21  C   UNL     1      94.965 123.252 125.120  1.00  0.00     0.000 C 
BRANCH  21  22
ATOM     22  C   UNL     1      94.157 124.323 124.360  1.00  0.00     0.000 C 
BRANCH  22  23
ATOM     23  C   UNL     1      92.928 123.768 123.605  1.00  0.00     0.000 C 
BRANCH  23  24
ATOM     24  C   UNL     1      93.097 122.340 123.049  1.00  0.00    -0.000 C 
BRANCH  24  25
ATOM     25  C   UNL     1      93.184 122.233 121.511  1.00  0.00    -0.000 C 
BRANCH  25  26
ATOM     26  C   UNL     1      94.609 122.287 120.931  1.00  0.00    -0.000 C 
BRANCH  26  27
ATOM     27  C   UNL     1      94.865 121.197 119.877  1.00  0.00    -0.000 C 
BRANCH  27  28
ATOM     28  C   UNL     1      94.324 121.571 118.485  1.00  0.00    -0.000 C 
BRANCH  28  29
ATOM     29  C   UNL     1      92.970 120.930 118.119  1.00  0.00    -0.000 C 
BRANCH  29  30
ATOM     30  C   UNL     1      91.977 121.865 117.409  1.00  0.00    -0.000 C 
BRANCH  30  31
ATOM     31  C   UNL     1      92.351 122.134 115.945  1.00  0.00    -0.003 C 
ATOM     32  C   UNL     1      92.716 120.838 115.228  1.00  0.00     0.004 C 
ENDBRANCH  30  31
ENDBRANCH  29  30
ENDBRANCH  28  29
ENDBRANCH  27  28
ENDBRANCH  26  27
ENDBRANCH  25  26
ENDBRANCH  24  25
ENDBRANCH  23  24
ENDBRANCH  22  23
ENDBRANCH  21  22
ENDBRANCH  20  21
ENDBRANCH  19  20
ENDBRANCH  18  19
ENDBRANCH   1  18
TORSDOF 28
ENDMDL
MODEL 3
REMARK VINA RESULT:    -2.814     12.899     14.600
REMARK INTER + INTRA:         -10.630
REMARK INTER:                  -9.338
REMARK INTRA:                  -1.292
REMARK UNBOUND:                -3.211
REMARK SMILES CCCCCCCCCCCCCCCCCCCCCCCCCCCCCC(=O)[O-]
REMARK SMILES IDX 16 1 17 2 18 3 19 4 20 5 21 6 22 7 23 8 24 9 25 10 26 11
REMARK SMILES IDX 27 12 28 13 29 14 30 15 31 16 32 17 15 18 14 19 13 20 12 21
REMARK SMILES IDX 11 22 10 23 9 24 8 25 7 26 6 27 5 28 4 29 3 30 2 31 1 32
REMARK H PARENT
REMARK Flexibility Score: inf
ROOT
ATOM      1  C   UNL     1      97.713 127.435 125.653  1.00  0.00     0.000 C 
ENDROOT
BRANCH   1   2
ATOM      2  C   UNL     1      97.550 125.967 125.232  1.00  0.00     0.000 C 
BRANCH   2   3
ATOM      3  C   UNL     1      97.370 125.017 126.430  1.00  0.00     0.000 C 
BRANCH   3   4
ATOM      4  C   UNL     1      96.930 123.602 126.008  1.00  0.00     0.000 C 
BRANCH   4   5
ATOM      5  C   UNL     1      96.461 123.477 124.545  1.00  0.00     0.000 C 
BRANCH   5   6
ATOM      6  C   UNL     1      95.030 123.982 124.276  1.00  0.00     0.000 C 
BRANCH   6   7
ATOM      7  C   UNL     1      93.909 123.013 124.700  1.00  0.00     0.000 C 
BRANCH   7   8
ATOM      8  C   UNL     1      92.734 122.902 123.710  1.00  0.00     0.000 C 
BRANCH   8   9
ATOM      9  C   UNL     1      92.947 121.906 122.552  1.00  0.00     0.000 C 
BRANCH   9  10
ATOM     10  C   UNL     1      93.102 122.546 121.158  1.00  0.00     0.000 C 
BRANCH  10  11
ATOM     11  C   UNL     1      94.451 122.281 120.464  1.00  0.00     0.000 C 
BRANCH  11  12
ATOM     12  C   UNL     1      94.467 120.957 119.685  1.00  0.00     0.000 C 
BRANCH  12  13
ATOM     13  C   UNL     1      94.230 121.147 118.175  1.00  0.00     0.006 C 
BRANCH  13  14
ATOM     14  C   UNL     1      92.759 121.043 117.739  1.00  0.00     0.053 C 
BRANCH  14  15
ATOM     15  C   UNL     1      92.520 121.675 116.402  1.00  0.00     0.041 C 
ATOM     16  O   UNL     1      91.926 122.784 116.321  1.00  0.00    -0.550 OA
ATOM     17  O   UNL     1      93.003 121.068 115.250  1.00  0.00    -0.550 OA
ENDBRANCH  14  15
ENDBRANCH  13  14
ENDBRANCH  12  13
ENDBRANCH  11  12
ENDBRANCH  10  11
ENDBRANCH   9  10
ENDBRANCH   8   9
ENDBRANCH   7   8
ENDBRANCH   6   7
ENDBRANCH   5   6
ENDBRANCH   4   5
ENDBRANCH   3   4
ENDBRANCH   2   3
ENDBRANCH   1   2
BRANCH   1  18
ATOM     18  C   UNL     1      97.120 127.721 127.047  1.00  0.00     0.000 C 
BRANCH  18  19
ATOM     19  C   UNL     1      97.320 129.184 127.495  1.00  0.00     0.000 C 
BRANCH  19  20
ATOM     20  C   UNL     1      96.222 129.713 128.441  1.00  0.00     0.000 C 
BRANCH  20  21
ATOM     21  C   UNL     1      95.939 131.221 128.347  1.00  0.00     0.000 C 
BRANCH  21  22
ATOM     22  C   UNL     1      95.114 131.664 127.121  1.00  0.00     0.000 C 
BRANCH  22  23
ATOM     23  C   UNL     1      95.373 133.121 126.679  1.00  0.00     0.000 C 
BRANCH  23  24
ATOM     24  C   UNL     1      94.981 133.439 125.222  1.00  0.00    -0.000 C 
BRANCH  24  25
ATOM     25  C   UNL     1      95.088 134.925 124.815  1.00  0.00    -0.000 C 
BRANCH  25  26
ATOM     26  C   UNL     1      96.469 135.361 124.293  1.00  0.00    -0.000 C 
BRANCH  26  27
ATOM     27  C   UNL     1      96.758 134.848 122.872  1.00  0.00    -0.000 C 
BRANCH  27  28
ATOM     28  C   UNL     1      96.492 135.908 121.787  1.00  0.00    -0.000 C 
BRANCH  28  29
ATOM     29  C   UNL     1      97.573 136.004 120.692  1.00  0.00    -0.000 C 
BRANCH  29  30
ATOM     30  C   UNL     1      98.044 137.431 120.364  1.00  0.00    -0.000 C 
BRANCH  30  31
ATOM     31  C   UNL     1      96.885 138.432 120.251  1.00  0.00    -0.003 C 
ATOM     32  C   UNL     1      96.501 138.659 118.792  1.00  0.00     0.004 C 
ENDBRANCH  30  31
ENDBRANCH  29  30
ENDBRANCH  28  29
ENDBRANCH  27  28
ENDBRANCH  26  27
ENDBRANCH  25  26
ENDBRANCH  24  25
ENDBRANCH  23  24
ENDBRANCH  22  23
ENDBRANCH  21  22
ENDBRANCH  20  21
ENDBRANCH  19  20
ENDBRANCH  18  19
ENDBRANCH   1  18
TORSDOF 28
ENDMDL
MODEL 4
REMARK VINA RESULT:    -2.489     11.997     16.117
REMARK INTER + INTRA:          -9.773
REMARK INTER:                  -7.345
REMARK INTRA:                  -2.428
REMARK UNBOUND:                -3.211
REMARK SMILES CCCCCCCCCCCCCCCCCCCCCCCCCCCCCC(=O)[O-]
REMARK SMILES IDX 16 1 17 2 18 3 19 4 20 5 21 6 22 7 23 8 24 9 25 10 26 11
REMARK SMILES IDX 27 12 28 13 29 14 30 15 31 16 32 17 15 18 14 19 13 20 12 21
REMARK SMILES IDX 11 22 10 23 9 24 8 25 7 26 6 27 5 28 4 29 3 30 2 31 1 32
REMARK H PARENT
REMARK Flexibility Score: inf
ROOT
ATOM      1  C   UNL     1      95.276 123.279 125.177  1.00  0.00     0.000 C 
ENDROOT
BRANCH   1   2
ATOM      2  C   UNL     1      96.757 123.116 124.804  1.00  0.00     0.000 C 
BRANCH   2   3
ATOM      3  C   UNL     1      97.676 123.002 126.034  1.00  0.00     0.000 C 
BRANCH   3   4
ATOM      4  C   UNL     1      98.361 124.333 126.392  1.00  0.00     0.000 C 
BRANCH   4   5
ATOM      5  C   UNL     1      97.574 125.597 125.993  1.00  0.00     0.000 C 
BRANCH   5   6
ATOM      6  C   UNL     1      97.318 126.594 127.140  1.00  0.00     0.000 C 
BRANCH   6   7
ATOM      7  C   UNL     1      97.603 128.068 126.795  1.00  0.00     0.000 C 
BRANCH   7   8
ATOM      8  C   UNL     1      96.805 129.097 127.620  1.00  0.00     0.000 C 
BRANCH   8   9
ATOM      9  C   UNL     1      97.655 129.999 128.538  1.00  0.00     0.000 C 
BRANCH   9  10
ATOM     10  C   UNL     1      96.966 131.299 129.000  1.00  0.00     0.000 C 
BRANCH  10  11
ATOM     11  C   UNL     1      95.443 131.193 129.203  1.00  0.00     0.000 C 
BRANCH  11  12
ATOM     12  C   UNL     1      94.646 131.938 128.121  1.00  0.00     0.000 C 
BRANCH  12  13
ATOM     13  C   UNL     1      95.543 132.529 127.017  1.00  0.00     0.006 C 
BRANCH  13  14
ATOM     14  C   UNL     1      94.807 132.887 125.715  1.00  0.00     0.053 C 
BRANCH  14  15
ATOM     15  C   UNL     1      95.248 134.207 125.160  1.00  0.00     0.041 C 
ATOM     16  O   UNL     1      96.362 134.311 124.580  1.00  0.00    -0.550 OA
ATOM     17  O   UNL     1      94.404 135.308 125.234  1.00  0.00    -0.550 OA
ENDBRANCH  14  15
ENDBRANCH  13  14
ENDBRANCH  12  13
ENDBRANCH  11  12
ENDBRANCH  10  11
ENDBRANCH   9  10
ENDBRANCH   8   9
ENDBRANCH   7   8
ENDBRANCH   6   7
ENDBRANCH   5   6
ENDBRANCH   4   5
ENDBRANCH   3   4
ENDBRANCH   2   3
ENDBRANCH   1   2
BRANCH   1  18
ATOM     18  C   UNL     1      94.521 124.213 124.211  1.00  0.00     0.000 C 
BRANCH  18  19
ATOM     19  C   UNL     1      93.120 123.683 123.837  1.00  0.00     0.000 C 
BRANCH  19  20
ATOM     20  C   UNL     1      93.101 122.209 123.382  1.00  0.00     0.000 C 
BRANCH  20  21
ATOM     21  C   UNL     1      92.559 121.961 121.965  1.00  0.00     0.000 C 
BRANCH  21  22
ATOM     22  C   UNL     1      93.255 122.758 120.843  1.00  0.00     0.000 C 
BRANCH  22  23
ATOM     23  C   UNL     1      94.628 122.186 120.422  1.00  0.00     0.000 C 
BRANCH  23  24
ATOM     24  C   UNL     1      94.699 120.647 120.356  1.00  0.00    -0.000 C 
BRANCH  24  25
ATOM     25  C   UNL     1      94.928 120.053 118.950  1.00  0.00    -0.000 C 
BRANCH  25  26
ATOM     26  C   UNL     1      94.792 121.052 117.787  1.00  0.00    -0.000 C 
BRANCH  26  27
ATOM     27  C   UNL     1      93.743 120.619 116.749  1.00  0.00    -0.000 C 
BRANCH  27  28
ATOM     28  C   UNL     1      92.327 120.503 117.342  1.00  0.00    -0.000 C 
BRANCH  28  29
ATOM     29  C   UNL     1      91.689 121.839 117.773  1.00  0.00    -0.000 C 
BRANCH  29  30
ATOM     30  C   UNL     1      92.073 123.052 116.908  1.00  0.00    -0.000 C 
BRANCH  30  31
ATOM     31  C   UNL     1      92.881 124.105 117.679  1.00  0.00    -0.003 C 
ATOM     32  C   UNL     1      93.284 125.260 116.766  1.00  0.00     0.004 C 
ENDBRANCH  30  31
ENDBRANCH  29  30
ENDBRANCH  28  29
ENDBRANCH  27  28
ENDBRANCH  26  27
ENDBRANCH  25  26
ENDBRANCH  24  25
ENDBRANCH  23  24
ENDBRANCH  22  23
ENDBRANCH  21  22
ENDBRANCH  20  21
ENDBRANCH  19  20
ENDBRANCH  18  19
ENDBRANCH   1  18
TORSDOF 28
ENDMDL
MODEL 5
REMARK VINA RESULT:    -2.104     13.032     14.690
REMARK INTER + INTRA:          -8.759
REMARK INTER:                  -7.541
REMARK INTRA:                  -1.218
REMARK UNBOUND:                -3.211
REMARK SMILES CCCCCCCCCCCCCCCCCCCCCCCCCCCCCC(=O)[O-]
REMARK SMILES IDX 16 1 17 2 18 3 19 4 20 5 21 6 22 7 23 8 24 9 25 10 26 11
REMARK SMILES IDX 27 12 28 13 29 14 30 15 31 16 32 17 15 18 14 19 13 20 12 21
REMARK SMILES IDX 11 22 10 23 9 24 8 25 7 26 6 27 5 28 4 29 3 30 2 31 1 32
REMARK H PARENT
REMARK Flexibility Score: inf
ROOT
ATOM      1  C   UNL     1      96.534 128.691 127.898  1.00  0.00     0.000 C 
ENDROOT
BRANCH   1   2
ATOM      2  C   UNL     1      97.424 128.150 126.770  1.00  0.00     0.000 C 
BRANCH   2   3
ATOM      3  C   UNL     1      97.417 126.613 126.685  1.00  0.00     0.000 C 
BRANCH   3   4
ATOM      4  C   UNL     1      97.638 126.093 125.252  1.00  0.00     0.000 C 
BRANCH   4   5
ATOM      5  C   UNL     1      96.733 124.915 124.841  1.00  0.00     0.000 C 
BRANCH   5   6
ATOM      6  C   UNL     1      96.776 123.700 125.788  1.00  0.00     0.000 C 
BRANCH   6   7
ATOM      7  C   UNL     1      95.429 122.977 125.978  1.00  0.00     0.000 C 
BRANCH   7   8
ATOM      8  C   UNL     1      94.672 122.657 124.674  1.00  0.00     0.000 C 
BRANCH   8   9
ATOM      9  C   UNL     1      93.959 123.858 124.021  1.00  0.00     0.000 C 
BRANCH   9  10
ATOM     10  C   UNL     1      93.020 123.505 122.850  1.00  0.00     0.000 C 
BRANCH  10  11
ATOM     11  C   UNL     1      92.812 121.998 122.612  1.00  0.00     0.000 C 
BRANCH  11  12
ATOM     12  C   UNL     1      93.221 121.558 121.198  1.00  0.00     0.000 C 
BRANCH  12  13
ATOM     13  C   UNL     1      92.795 122.563 120.111  1.00  0.00     0.006 C 
BRANCH  13  14
ATOM     14  C   UNL     1      93.609 122.483 118.808  1.00  0.00     0.053 C 
BRANCH  14  15
ATOM     15  C   UNL     1      92.743 122.207 117.617  1.00  0.00     0.041 C 
ATOM     16  O   UNL     1      92.314 123.158 116.911  1.00  0.00    -0.550 OA
ATOM     17  O   UNL     1      92.458 120.897 117.254  1.00  0.00    -0.550 OA
ENDBRANCH  14  15
ENDBRANCH  13  14
ENDBRANCH  12  13
ENDBRANCH  11  12
ENDBRANCH  10  11
ENDBRANCH   9  10
ENDBRANCH   8   9
ENDBRANCH   7   8
ENDBRANCH   6   7
ENDBRANCH   5   6
ENDBRANCH   4   5
ENDBRANCH   3   4
ENDBRANCH   2   3
ENDBRANCH   1   2
BRANCH   1  18
ATOM     18  C   UNL     1      96.568 130.229 127.995  1.00  0.00     0.000 C 
BRANCH  18  19
ATOM     19  C   UNL     1      95.253 130.825 128.539  1.00  0.00     0.000 C 
BRANCH  19  20
ATOM     20  C   UNL     1      95.005 132.291 128.130  1.00  0.00     0.000 C 
BRANCH  20  21
ATOM     21  C   UNL     1      95.721 132.751 126.849  1.00  0.00     0.000 C 
BRANCH  21  22
ATOM     22  C   UNL     1      94.966 132.469 125.533  1.00  0.00     0.000 C 
BRANCH  22  23
ATOM     23  C   UNL     1      94.421 133.735 124.836  1.00  0.00     0.000 C 
BRANCH  23  24
ATOM     24  C   UNL     1      95.401 134.925 124.788  1.00  0.00    -0.000 C 
BRANCH  24  25
ATOM     25  C   UNL     1      96.542 134.803 123.754  1.00  0.00    -0.000 C 
BRANCH  25  26
ATOM     26  C   UNL     1      96.551 135.885 122.659  1.00  0.00    -0.000 C 
BRANCH  26  27
ATOM     27  C   UNL     1      96.911 135.325 121.272  1.00  0.00    -0.000 C 
BRANCH  27  28
ATOM     28  C   UNL     1      97.846 136.255 120.477  1.00  0.00    -0.000 C 
BRANCH  28  29
ATOM     29  C   UNL     1      98.131 137.617 121.143  1.00  0.00    -0.000 C 
BRANCH  29  30
ATOM     30  C   UNL     1      97.660 138.843 120.344  1.00  0.00    -0.000 C 
BRANCH  30  31
ATOM     31  C   UNL     1      96.345 138.598 119.591  1.00  0.00    -0.003 C 
ATOM     32  C   UNL     1      96.508 138.880 118.101  1.00  0.00     0.004 C 
ENDBRANCH  30  31
ENDBRANCH  29  30
ENDBRANCH  28  29
ENDBRANCH  27  28
ENDBRANCH  26  27
ENDBRANCH  25  26
ENDBRANCH  24  25
ENDBRANCH  23  24
ENDBRANCH  22  23
ENDBRANCH  21  22
ENDBRANCH  20  21
ENDBRANCH  19  20
ENDBRANCH  18  19
ENDBRANCH   1  18
TORSDOF 28
ENDMDL
MODEL 6
REMARK VINA RESULT:    -1.846      1.411      1.947
REMARK INTER + INTRA:          -8.080
REMARK INTER:                  -7.940
REMARK INTRA:                  -0.140
REMARK UNBOUND:                -3.211
REMARK SMILES CCCCCCCCCCCCCCCCCCCCCCCCCCCCCC(=O)[O-]
REMARK SMILES IDX 16 1 17 2 18 3 19 4 20 5 21 6 22 7 23 8 24 9 25 10 26 11
REMARK SMILES IDX 27 12 28 13 29 14 30 15 31 16 32 17 15 18 14 19 13 20 12 21
REMARK SMILES IDX 11 22 10 23 9 24 8 25 7 26 6 27 5 28 4 29 3 30 2 31 1 32
REMARK H PARENT
REMARK Flexibility Score: inf
ROOT
ATOM      1  C   UNL     1      82.460 123.905 130.352  1.00  0.00     0.000 C 
ENDROOT
BRANCH   1   2
ATOM      2  C   UNL     1      82.165 124.408 131.773  1.00  0.00     0.000 C 
BRANCH   2   3
ATOM      3  C   UNL     1      83.299 124.095 132.767  1.00  0.00     0.000 C 
BRANCH   3   4
ATOM      4  C   UNL     1      84.523 125.011 132.583  1.00  0.00     0.000 C 
BRANCH   4   5
ATOM      5  C   UNL     1      85.882 124.283 132.566  1.00  0.00     0.000 C 
BRANCH   5   6
ATOM      6  C   UNL     1      85.856 122.869 131.953  1.00  0.00     0.000 C 
BRANCH   6   7
ATOM      7  C   UNL     1      86.655 122.715 130.645  1.00  0.00     0.000 C 
BRANCH   7   8
ATOM      8  C   UNL     1      87.268 121.319 130.417  1.00  0.00     0.000 C 
BRANCH   8   9
ATOM      9  C   UNL     1      86.254 120.208 130.077  1.00  0.00     0.000 C 
BRANCH   9  10
ATOM     10  C   UNL     1      85.786 119.359 131.276  1.00  0.00     0.000 C 
BRANCH  10  11
ATOM     11  C   UNL     1      84.279 119.043 131.303  1.00  0.00     0.000 C 
BRANCH  11  12
ATOM     12  C   UNL     1      83.421 120.198 130.762  1.00  0.00     0.000 C 
BRANCH  12  13
ATOM     13  C   UNL     1      82.716 119.851 129.438  1.00  0.00     0.006 C 
BRANCH  13  14
ATOM     14  C   UNL     1      83.651 119.350 128.325  1.00  0.00     0.053 C 
BRANCH  14  15
ATOM     15  C   UNL     1      83.886 120.390 127.272  1.00  0.00     0.041 C 
ATOM     16  O   UNL     1      84.681 120.162 126.322  1.00  0.00    -0.550 OA
ATOM     17  O   UNL     1      83.184 121.588 127.311  1.00  0.00    -0.550 OA
ENDBRANCH  14  15
ENDBRANCH  13  14
ENDBRANCH  12  13
ENDBRANCH  11  12
ENDBRANCH  10  11
ENDBRANCH   9  10
ENDBRANCH   8   9
ENDBRANCH   7   8
ENDBRANCH   6   7
ENDBRANCH   5   6
ENDBRANCH   4   5
ENDBRANCH   3   4
ENDBRANCH   2   3
ENDBRANCH   1   2
BRANCH   1  18
ATOM     18  C   UNL     1      82.036 124.914 129.267  1.00  0.00     0.000 C 
BRANCH  18  19
ATOM     19  C   UNL     1      82.082 124.318 127.844  1.00  0.00     0.000 C 
BRANCH  19  20
ATOM     20  C   UNL     1      83.152 124.947 126.928  1.00  0.00     0.000 C 
BRANCH  20  21
ATOM     21  C   UNL     1      84.581 124.412 127.117  1.00  0.00     0.000 C 
BRANCH  21  22
ATOM     22  C   UNL     1      85.471 125.229 128.077  1.00  0.00     0.000 C 
BRANCH  22  23
ATOM     23  C   UNL     1      84.904 126.623 128.429  1.00  0.00     0.000 C 
BRANCH  23  24
ATOM     24  C   UNL     1      83.797 126.623 129.503  1.00  0.00    -0.000 C 
BRANCH  24  25
ATOM     25  C   UNL     1      84.085 127.480 130.754  1.00  0.00    -0.000 C 
BRANCH  25  26
ATOM     26  C   UNL     1      83.732 128.972 130.621  1.00  0.00    -0.000 C 
BRANCH  26  27
ATOM     27  C   UNL     1      82.218 129.233 130.676  1.00  0.00    -0.000 C 
BRANCH  27  28
ATOM     28  C   UNL     1      81.875 130.704 130.978  1.00  0.00    -0.000 C 
BRANCH  28  29
ATOM     29  C   UNL     1      81.879 131.079 132.473  1.00  0.00    -0.000 C 
BRANCH  29  30
ATOM     30  C   UNL     1      82.418 132.485 132.790  1.00  0.00    -0.000 C 
BRANCH  30  31
ATOM     31  C   UNL     1      83.951 132.541 132.836  1.00  0.00    -0.003 C 
ATOM     32  C   UNL     1      84.548 131.137 132.874  1.00  0.00     0.004 C 
ENDBRANCH  30  31
ENDBRANCH  29  30
ENDBRANCH  28  29
ENDBRANCH  27  28
ENDBRANCH  26  27
ENDBRANCH  25  26
ENDBRANCH  24  25
ENDBRANCH  23  24
ENDBRANCH  22  23
ENDBRANCH  21  22
ENDBRANCH  20  21
ENDBRANCH  19  20
ENDBRANCH  18  19
ENDBRANCH   1  18
TORSDOF 28
ENDMDL
MODEL 7
REMARK VINA RESULT:    -1.468     11.850     13.533
REMARK INTER + INTRA:          -7.083
REMARK INTER:                  -5.376
REMARK INTRA:                  -1.707
REMARK UNBOUND:                -3.211
REMARK SMILES CCCCCCCCCCCCCCCCCCCCCCCCCCCCCC(=O)[O-]
REMARK SMILES IDX 16 1 17 2 18 3 19 4 20 5 21 6 22 7 23 8 24 9 25 10 26 11
REMARK SMILES IDX 27 12 28 13 29 14 30 15 31 16 32 17 15 18 14 19 13 20 12 21
REMARK SMILES IDX 11 22 10 23 9 24 8 25 7 26 6 27 5 28 4 29 3 30 2 31 1 32
REMARK H PARENT
REMARK Flexibility Score: inf
ROOT
ATOM      1  C   UNL     1      97.527 127.080 125.106  1.00  0.00     0.000 C 
ENDROOT
BRANCH   1   2
ATOM      2  C   UNL     1      97.299 125.591 124.808  1.00  0.00     0.000 C 
BRANCH   2   3
ATOM      3  C   UNL     1      97.144 124.742 126.083  1.00  0.00     0.000 C 
BRANCH   3   4
ATOM      4  C   UNL     1      96.859 123.259 125.782  1.00  0.00     0.000 C 
BRANCH   4   5
ATOM      5  C   UNL     1      95.783 123.010 124.706  1.00  0.00     0.000 C 
BRANCH   5   6
ATOM      6  C   UNL     1      94.350 122.838 125.247  1.00  0.00     0.000 C 
BRANCH   6   7
ATOM      7  C   UNL     1      93.237 123.339 124.306  1.00  0.00     0.000 C 
BRANCH   7   8
ATOM      8  C   UNL     1      92.746 122.308 123.271  1.00  0.00     0.000 C 
BRANCH   8   9
ATOM      9  C   UNL     1      92.996 122.691 121.799  1.00  0.00     0.000 C 
BRANCH   9  10
ATOM     10  C   UNL     1      93.928 121.738 121.023  1.00  0.00     0.000 C 
BRANCH  10  11
ATOM     11  C   UNL     1      95.103 122.421 120.299  1.00  0.00     0.000 C 
BRANCH  11  12
ATOM     12  C   UNL     1      95.084 122.183 118.781  1.00  0.00     0.000 C 
BRANCH  12  13
ATOM     13  C   UNL     1      94.286 120.928 118.382  1.00  0.00     0.006 C 
BRANCH  13  14
ATOM     14  C   UNL     1      93.504 121.058 117.064  1.00  0.00     0.053 C 
BRANCH  14  15
ATOM     15  C   UNL     1      92.260 121.877 117.224  1.00  0.00     0.041 C 
ATOM     16  O   UNL     1      91.844 122.590 116.271  1.00  0.00    -0.550 OA
ATOM     17  O   UNL     1      91.530 121.809 118.403  1.00  0.00    -0.550 OA
ENDBRANCH  14  15
ENDBRANCH  13  14
ENDBRANCH  12  13
ENDBRANCH  11  12
ENDBRANCH  10  11
ENDBRANCH   9  10
ENDBRANCH   8   9
ENDBRANCH   7   8
ENDBRANCH   6   7
ENDBRANCH   5   6
ENDBRANCH   4   5
ENDBRANCH   3   4
ENDBRANCH   2   3
ENDBRANCH   1   2
BRANCH   1  18
ATOM     18  C   UNL     1      97.274 127.434 126.584  1.00  0.00     0.000 C 
BRANCH  18  19
ATOM     19  C   UNL     1      97.233 128.956 126.838  1.00  0.00     0.000 C 
BRANCH  19  20
ATOM     20  C   UNL     1      97.397 129.356 128.319  1.00  0.00     0.000 C 
BRANCH  20  21
ATOM     21  C   UNL     1      98.653 130.180 128.647  1.00  0.00     0.000 C 
BRANCH  21  22
ATOM     22  C   UNL     1      98.398 131.499 129.404  1.00  0.00     0.000 C 
BRANCH  22  23
ATOM     23  C   UNL     1      97.570 131.334 130.698  1.00  0.00     0.000 C 
BRANCH  23  24
ATOM     24  C   UNL     1      96.075 131.690 130.563  1.00  0.00    -0.000 C 
BRANCH  24  25
ATOM     25  C   UNL     1      95.278 130.837 129.553  1.00  0.00    -0.000 C 
BRANCH  25  26
ATOM     26  C   UNL     1      94.506 131.636 128.488  1.00  0.00    -0.000 C 
BRANCH  26  27
ATOM     27  C   UNL     1      95.409 132.591 127.689  1.00  0.00    -0.000 C 
BRANCH  27  28
ATOM     28  C   UNL     1      95.338 132.350 126.170  1.00  0.00    -0.000 C 
BRANCH  28  29
ATOM     29  C   UNL     1      94.416 133.317 125.400  1.00  0.00    -0.000 C 
BRANCH  29  30
ATOM     30  C   UNL     1      94.946 134.755 125.267  1.00  0.00    -0.000 C 
BRANCH  30  31
ATOM     31  C   UNL     1      96.428 134.813 124.872  1.00  0.00    -0.003 C 
ATOM     32  C   UNL     1      96.604 135.469 123.505  1.00  0.00     0.004 C 
ENDBRANCH  30  31
ENDBRANCH  29  30
ENDBRANCH  28  29
ENDBRANCH  27  28
ENDBRANCH  26  27
ENDBRANCH  25  26
ENDBRANCH  24  25
ENDBRANCH  23  24
ENDBRANCH  22  23
ENDBRANCH  21  22
ENDBRANCH  20  21
ENDBRANCH  19  20
ENDBRANCH  18  19
ENDBRANCH   1  18
TORSDOF 28
ENDMDL
MODEL 8
REMARK VINA RESULT:    -0.792     12.071     16.228
REMARK INTER + INTRA:          -5.300
REMARK INTER:                  -3.080
REMARK INTRA:                  -2.220
REMARK UNBOUND:                -3.211
REMARK SMILES CCCCCCCCCCCCCCCCCCCCCCCCCCCCCC(=O)[O-]
REMARK SMILES IDX 16 1 17 2 18 3 19 4 20 5 21 6 22 7 23 8 24 9 25 10 26 11
REMARK SMILES IDX 27 12 28 13 29 14 30 15 31 16 32 17 15 18 14 19 13 20 12 21
REMARK SMILES IDX 11 22 10 23 9 24 8 25 7 26 6 27 5 28 4 29 3 30 2 31 1 32
REMARK H PARENT
REMARK Flexibility Score: inf
ROOT
ATOM      1  C   UNL     1      94.275 123.110 123.101  1.00  0.00     0.000 C 
ENDROOT
BRANCH   1   2
ATOM      2  C   UNL     1      94.164 123.614 124.548  1.00  0.00     0.000 C 
BRANCH   2   3
ATOM      3  C   UNL     1      94.830 122.668 125.565  1.00  0.00     0.000 C 
BRANCH   3   4
ATOM      4  C   UNL     1      96.255 123.111 125.946  1.00  0.00     0.000 C 
BRANCH   4   5
ATOM      5  C   UNL     1      96.728 124.420 125.283  1.00  0.00     0.000 C 
BRANCH   5   6
ATOM      6  C   UNL     1      97.728 125.246 126.116  1.00  0.00     0.000 C 
BRANCH   6   7
ATOM      7  C   UNL     1      98.170 126.573 125.469  1.00  0.00     0.000 C 
BRANCH   7   8
ATOM      8  C   UNL     1      97.245 127.774 125.748  1.00  0.00     0.000 C 
BRANCH   8   9
ATOM      9  C   UNL     1      97.452 128.454 127.116  1.00  0.00     0.000 C 
BRANCH   9  10
ATOM     10  C   UNL     1      96.367 129.477 127.510  1.00  0.00     0.000 C 
BRANCH  10  11
ATOM     11  C   UNL     1      96.716 130.365 128.718  1.00  0.00     0.000 C 
BRANCH  11  12
ATOM     12  C   UNL     1      95.895 131.664 128.757  1.00  0.00     0.000 C 
BRANCH  12  13
ATOM     13  C   UNL     1      96.091 132.535 127.502  1.00  0.00     0.006 C 
BRANCH  13  14
ATOM     14  C   UNL     1      94.803 132.822 126.713  1.00  0.00     0.053 C 
BRANCH  14  15
ATOM     15  C   UNL     1      95.085 133.400 125.360  1.00  0.00     0.041 C 
ATOM     16  O   UNL     1      94.263 133.240 124.418  1.00  0.00    -0.550 OA
ATOM     17  O   UNL     1      96.228 134.164 125.155  1.00  0.00    -0.550 OA
ENDBRANCH  14  15
ENDBRANCH  13  14
ENDBRANCH  12  13
ENDBRANCH  11  12
ENDBRANCH  10  11
ENDBRANCH   9  10
ENDBRANCH   8   9
ENDBRANCH   7   8
ENDBRANCH   6   7
ENDBRANCH   5   6
ENDBRANCH   4   5
ENDBRANCH   3   4
ENDBRANCH   2   3
ENDBRANCH   1   2
BRANCH   1  18
ATOM     18  C   UNL     1      93.086 122.218 122.692  1.00  0.00     0.000 C 
BRANCH  18  19
ATOM     19  C   UNL     1      92.553 122.540 121.280  1.00  0.00     0.000 C 
BRANCH  19  20
ATOM     20  C   UNL     1      92.612 121.355 120.295  1.00  0.00     0.000 C 
BRANCH  20  21
ATOM     21  C   UNL     1      93.756 120.355 120.530  1.00  0.00     0.000 C 
BRANCH  21  22
ATOM     22  C   UNL     1      95.088 120.700 119.835  1.00  0.00     0.000 C 
BRANCH  22  23
ATOM     23  C   UNL     1      94.941 121.650 118.625  1.00  0.00     0.000 C 
BRANCH  23  24
ATOM     24  C   UNL     1      95.361 123.110 118.889  1.00  0.00    -0.000 C 
BRANCH  24  25
ATOM     25  C   UNL     1      94.716 124.164 117.964  1.00  0.00    -0.000 C 
BRANCH  25  26
ATOM     26  C   UNL     1      93.179 124.212 117.998  1.00  0.00    -0.000 C 
BRANCH  26  27
ATOM     27  C   UNL     1      92.556 124.376 116.601  1.00  0.00    -0.000 C 
BRANCH  27  28
ATOM     28  C   UNL     1      91.837 123.105 116.113  1.00  0.00    -0.000 C 
BRANCH  28  29
ATOM     29  C   UNL     1      91.613 122.029 117.194  1.00  0.00    -0.000 C 
BRANCH  29  30
ATOM     30  C   UNL     1      92.436 120.742 117.013  1.00  0.00    -0.000 C 
BRANCH  30  31
ATOM     31  C   UNL     1      93.104 120.649 115.634  1.00  0.00    -0.003 C 
ATOM     32  C   UNL     1      92.315 119.730 114.706  1.00  0.00     0.004 C 
ENDBRANCH  30  31
ENDBRANCH  29  30
ENDBRANCH  28  29
ENDBRANCH  27  28
ENDBRANCH  26  27
ENDBRANCH  25  26
ENDBRANCH  24  25
ENDBRANCH  23  24
ENDBRANCH  22  23
ENDBRANCH  21  22
ENDBRANCH  20  21
ENDBRANCH  19  20
ENDBRANCH  18  19
ENDBRANCH   1  18
TORSDOF 28
ENDMDL
