MODEL 1
REMARK VINA RESULT:    -3.354      0.000      0.000
REMARK INTER + INTRA:          -9.155
REMARK INTER:                  -7.667
REMARK INTRA:                  -1.488
REMARK UNBOUND:                -1.488
REMARK SMILES CCCCCCCCCCCCCCCCCCCCCCCC(=O)[O-]
REMARK SMILES IDX 13 1 14 2 15 3 16 4 17 5 18 6 19 7 20 8 21 9 22 10 23 11
REMARK SMILES IDX 24 12 25 13 26 14 12 15 11 16 10 17 9 18 8 19 7 20 6 21 5 22
REMARK SMILES IDX 4 23 3 24 2 25 1 26
REMARK H PARENT
REMARK Flexibility Score: inf
ROOT
ATOM      1  C   UNL     1      32.817  26.828  70.705  1.00  0.00     0.000 C 
ENDROOT
BRANCH   1   2
ATOM      2  C   UNL     1      31.854  26.570  71.874  1.00  0.00     0.000 C 
BRANCH   2   3
ATOM      3  C   UNL     1      31.430  25.098  71.980  1.00  0.00     0.000 C 
BRANCH   3   4
ATOM      4  C   UNL     1      31.704  24.360  70.664  1.00  0.00     0.000 C 
BRANCH   4   5
ATOM      5  C   UNL     1      30.529  24.520  69.686  1.00  0.00     0.000 C 
BRANCH   5   6
ATOM      6  C   UNL     1      30.803  23.875  68.317  1.00  0.00     0.000 C 
BRANCH   6   7
ATOM      7  C   UNL     1      31.441  24.809  67.268  1.00  0.00     0.000 C 
BRANCH   7   8
ATOM      8  C   UNL     1      32.779  24.292  66.700  1.00  0.00     0.000 C 
BRANCH   8   9
ATOM      9  C   UNL     1      32.694  23.961  65.199  1.00  0.00     0.000 C 
BRANCH   9  10
ATOM     10  C   UNL     1      31.265  24.097  64.650  1.00  0.00     0.006 C 
BRANCH  10  11
ATOM     11  C   UNL     1      31.181  25.082  63.478  1.00  0.00     0.053 C 
BRANCH  11  12
ATOM     12  C   UNL     1      29.756  25.322  63.086  1.00  0.00     0.041 C 
ATOM     13  O   UNL     1      29.101  26.262  63.615  1.00  0.00    -0.550 OA
ATOM     14  O   UNL     1      29.156  24.523  62.120  1.00  0.00    -0.550 OA
ENDBRANCH  11  12
ENDBRANCH  10  11
ENDBRANCH   9  10
ENDBRANCH   8   9
ENDBRANCH   7   8
ENDBRANCH   6   7
ENDBRANCH   5   6
ENDBRANCH   4   5
ENDBRANCH   3   4
ENDBRANCH   2   3
ENDBRANCH   1   2
BRANCH   1  15
ATOM     15  C   UNL     1      34.209  27.284  71.176  1.00  0.00     0.000 C 
BRANCH  15  16
ATOM     16  C   UNL     1      35.126  26.102  71.535  1.00  0.00     0.000 C 
BRANCH  16  17
ATOM     17  C   UNL     1      35.024  24.953  70.515  1.00  0.00     0.000 C 
BRANCH  17  18
ATOM     18  C   UNL     1      36.384  24.582  69.895  1.00  0.00    -0.000 C 
BRANCH  18  19
ATOM     19  C   UNL     1      37.368  23.880  70.848  1.00  0.00    -0.000 C 
BRANCH  19  20
ATOM     20  C   UNL     1      38.839  24.174  70.510  1.00  0.00    -0.000 C 
BRANCH  20  21
ATOM     21  C   UNL     1      39.746  24.234  71.754  1.00  0.00    -0.000 C 
BRANCH  21  22
ATOM     22  C   UNL     1      39.118  24.885  73.002  1.00  0.00    -0.000 C 
BRANCH  22  23
ATOM     23  C   UNL     1      40.153  25.580  73.905  1.00  0.00    -0.000 C 
BRANCH  23  24
ATOM     24  C   UNL     1      39.509  26.349  75.073  1.00  0.00    -0.000 C 
BRANCH  24  25
ATOM     25  C   UNL     1      40.226  27.651  75.470  1.00  0.00    -0.003 C 
ATOM     26  C   UNL     1      39.424  28.502  76.454  1.00  0.00     0.004 C 
ENDBRANCH  24  25
ENDBRANCH  23  24
ENDBRANCH  22  23
ENDBRANCH  21  22
ENDBRANCH  20  21
ENDBRANCH  19  20
ENDBRANCH  18  19
ENDBRANCH  17  18
ENDBRANCH  16  17
ENDBRANCH  15  16
ENDBRANCH   1  15
TORSDOF 22
ENDMDL
MODEL 2
REMARK VINA RESULT:    -3.063      4.553     12.178
REMARK INTER + INTRA:          -8.490
REMARK INTER:                  -6.592
REMARK INTRA:                  -1.898
REMARK UNBOUND:                -1.488
REMARK SMILES CCCCCCCCCCCCCCCCCCCCCCCC(=O)[O-]
REMARK SMILES IDX 13 1 14 2 15 3 16 4 17 5 18 6 19 7 20 8 21 9 22 10 23 11
REMARK SMILES IDX 24 12 25 13 26 14 12 15 11 16 10 17 9 18 8 19 7 20 6 21 5 22
REMARK SMILES IDX 4 23 3 24 2 25 1 26
REMARK H PARENT
REMARK Flexibility Score: inf
ROOT
ATOM      1  C   UNL     1      32.473  27.150  62.740  1.00  0.00     0.000 C 
ENDROOT
BRANCH   1   2
ATOM      2  C   UNL     1      32.804  25.824  62.040  1.00  0.00     0.000 C 
BRANCH   2   3
ATOM      3  C   UNL     1      32.434  24.597  62.887  1.00  0.00     0.000 C 
BRANCH   3   4
ATOM      4  C   UNL     1      33.218  24.593  64.205  1.00  0.00     0.000 C 
BRANCH   4   5
ATOM      5  C   UNL     1      32.432  23.875  65.313  1.00  0.00     0.000 C 
BRANCH   5   6
ATOM      6  C   UNL     1      30.957  24.309  65.372  1.00  0.00     0.000 C 
BRANCH   6   7
ATOM      7  C   UNL     1      30.303  24.220  66.766  1.00  0.00     0.000 C 
BRANCH   7   8
ATOM      8  C   UNL     1      31.315  24.128  67.929  1.00  0.00     0.000 C 
BRANCH   8   9
ATOM      9  C   UNL     1      30.639  24.227  69.308  1.00  0.00     0.000 C 
BRANCH   9  10
ATOM     10  C   UNL     1      31.658  24.348  70.451  1.00  0.00     0.006 C 
BRANCH  10  11
ATOM     11  C   UNL     1      32.474  25.644  70.373  1.00  0.00     0.053 C 
BRANCH  11  12
ATOM     12  C   UNL     1      33.938  25.346  70.277  1.00  0.00     0.041 C 
ATOM     13  O   UNL     1      34.669  25.414  71.303  1.00  0.00    -0.550 OA
ATOM     14  O   UNL     1      34.492  24.968  69.059  1.00  0.00    -0.550 OA
ENDBRANCH  11  12
ENDBRANCH  10  11
ENDBRANCH   9  10
ENDBRANCH   8   9
ENDBRANCH   7   8
ENDBRANCH   6   7
ENDBRANCH   5   6
ENDBRANCH   4   5
ENDBRANCH   3   4
ENDBRANCH   2   3
ENDBRANCH   1   2
BRANCH   1  15
ATOM     15  C   UNL     1      31.101  27.122  63.437  1.00  0.00     0.000 C 
BRANCH  15  16
ATOM     16  C   UNL     1      30.119  28.147  62.846  1.00  0.00     0.000 C 
BRANCH  16  17
ATOM     17  C   UNL     1      28.650  27.729  63.041  1.00  0.00     0.000 C 
BRANCH  17  18
ATOM     18  C   UNL     1      28.488  26.221  63.305  1.00  0.00    -0.000 C 
BRANCH  18  19
ATOM     19  C   UNL     1      28.544  25.327  62.053  1.00  0.00    -0.000 C 
BRANCH  19  20
ATOM     20  C   UNL     1      27.822  23.983  62.246  1.00  0.00    -0.000 C 
BRANCH  20  21
ATOM     21  C   UNL     1      26.508  23.881  61.448  1.00  0.00    -0.000 C 
BRANCH  21  22
ATOM     22  C   UNL     1      25.276  24.523  62.115  1.00  0.00    -0.000 C 
BRANCH  22  23
ATOM     23  C   UNL     1      25.031  25.972  61.660  1.00  0.00    -0.000 C 
BRANCH  23  24
ATOM     24  C   UNL     1      23.985  26.080  60.536  1.00  0.00    -0.000 C 
BRANCH  24  25
ATOM     25  C   UNL     1      24.377  26.999  59.366  1.00  0.00    -0.003 C 
ATOM     26  C   UNL     1      24.067  28.473  59.630  1.00  0.00     0.004 C 
ENDBRANCH  24  25
ENDBRANCH  23  24
ENDBRANCH  22  23
ENDBRANCH  21  22
ENDBRANCH  20  21
ENDBRANCH  19  20
ENDBRANCH  18  19
ENDBRANCH  17  18
ENDBRANCH  16  17
ENDBRANCH  15  16
ENDBRANCH   1  15
TORSDOF 22
ENDMDL
MODEL 3
REMARK VINA RESULT:    -2.806      4.202     11.351
REMARK INTER + INTRA:          -7.903
REMARK INTER:                  -7.855
REMARK INTRA:                  -0.048
REMARK UNBOUND:                -1.488
REMARK SMILES CCCCCCCCCCCCCCCCCCCCCCCC(=O)[O-]
REMARK SMILES IDX 13 1 14 2 15 3 16 4 17 5 18 6 19 7 20 8 21 9 22 10 23 11
REMARK SMILES IDX 24 12 25 13 26 14 12 15 11 16 10 17 9 18 8 19 7 20 6 21 5 22
REMARK SMILES IDX 4 23 3 24 2 25 1 26
REMARK H PARENT
REMARK Flexibility Score: inf
ROOT
ATOM      1  C   UNL     1      32.480  24.375  66.440  1.00  0.00     0.000 C 
ENDROOT
BRANCH   1   2
ATOM      2  C   UNL     1      33.585  23.877  65.496  1.00  0.00     0.000 C 
BRANCH   2   3
ATOM      3  C   UNL     1      34.972  23.875  66.155  1.00  0.00     0.000 C 
BRANCH   3   4
ATOM      4  C   UNL     1      34.845  23.875  67.684  1.00  0.00     0.000 C 
BRANCH   4   5
ATOM      5  C   UNL     1      35.884  24.809  68.324  1.00  0.00     0.000 C 
BRANCH   5   6
ATOM      6  C   UNL     1      35.430  25.355  69.689  1.00  0.00     0.000 C 
BRANCH   6   7
ATOM      7  C   UNL     1      35.164  24.285  70.768  1.00  0.00     0.000 C 
BRANCH   7   8
ATOM      8  C   UNL     1      33.666  24.022  71.034  1.00  0.00     0.000 C 
BRANCH   8   9
ATOM      9  C   UNL     1      32.829  24.026  69.742  1.00  0.00     0.000 C 
BRANCH   9  10
ATOM     10  C   UNL     1      31.474  24.728  69.926  1.00  0.00     0.006 C 
BRANCH  10  11
ATOM     11  C   UNL     1      31.007  24.727  71.387  1.00  0.00     0.053 C 
BRANCH  11  12
ATOM     12  C   UNL     1      31.187  26.079  72.004  1.00  0.00     0.041 C 
ATOM     13  O   UNL     1      31.314  27.099  71.273  1.00  0.00    -0.550 OA
ATOM     14  O   UNL     1      31.190  26.217  73.387  1.00  0.00    -0.550 OA
ENDBRANCH  11  12
ENDBRANCH  10  11
ENDBRANCH   9  10
ENDBRANCH   8   9
ENDBRANCH   7   8
ENDBRANCH   6   7
ENDBRANCH   5   6
ENDBRANCH   4   5
ENDBRANCH   3   4
ENDBRANCH   2   3
ENDBRANCH   1   2
BRANCH   1  15
ATOM     15  C   UNL     1      31.074  23.953  65.978  1.00  0.00     0.000 C 
BRANCH  15  16
ATOM     16  C   UNL     1      30.546  24.825  64.827  1.00  0.00     0.000 C 
BRANCH  16  17
ATOM     17  C   UNL     1      31.575  25.876  64.371  1.00  0.00     0.000 C 
BRANCH  17  18
ATOM     18  C   UNL     1      30.944  27.009  63.541  1.00  0.00    -0.000 C 
BRANCH  18  19
ATOM     19  C   UNL     1      29.994  26.549  62.420  1.00  0.00    -0.000 C 
BRANCH  19  20
ATOM     20  C   UNL     1      28.538  26.407  62.892  1.00  0.00    -0.000 C 
BRANCH  20  21
ATOM     21  C   UNL     1      27.870  25.105  62.409  1.00  0.00    -0.000 C 
BRANCH  21  22
ATOM     22  C   UNL     1      26.421  25.250  61.906  1.00  0.00    -0.000 C 
BRANCH  22  23
ATOM     23  C   UNL     1      25.510  24.091  62.348  1.00  0.00    -0.000 C 
BRANCH  23  24
ATOM     24  C   UNL     1      24.052  24.263  61.884  1.00  0.00    -0.000 C 
BRANCH  24  25
ATOM     25  C   UNL     1      23.198  25.204  62.751  1.00  0.00    -0.003 C 
ATOM     26  C   UNL     1      23.076  24.739  64.202  1.00  0.00     0.004 C 
ENDBRANCH  24  25
ENDBRANCH  23  24
ENDBRANCH  22  23
ENDBRANCH  21  22
ENDBRANCH  20  21
ENDBRANCH  19  20
ENDBRANCH  18  19
ENDBRANCH  17  18
ENDBRANCH  16  17
ENDBRANCH  15  16
ENDBRANCH   1  15
TORSDOF 22
ENDMDL
MODEL 4
REMARK VINA RESULT:    -2.772      2.457      4.409
REMARK INTER + INTRA:          -7.826
REMARK INTER:                  -6.906
REMARK INTRA:                  -0.920
REMARK UNBOUND:                -1.488
REMARK SMILES CCCCCCCCCCCCCCCCCCCCCCCC(=O)[O-]
REMARK SMILES IDX 13 1 14 2 15 3 16 4 17 5 18 6 19 7 20 8 21 9 22 10 23 11
REMARK SMILES IDX 24 12 25 13 26 14 12 15 11 16 10 17 9 18 8 19 7 20 6 21 5 22
REMARK SMILES IDX 4 23 3 24 2 25 1 26
REMARK H PARENT
REMARK Flexibility Score: inf
ROOT
ATOM      1  C   UNL     1      32.338  23.875  67.355  1.00  0.00     0.000 C 
ENDROOT
BRANCH   1   2
ATOM      2  C   UNL     1      33.175  24.292  66.136  1.00  0.00     0.000 C 
BRANCH   2   3
ATOM      3  C   UNL     1      32.325  24.482  64.871  1.00  0.00     0.000 C 
BRANCH   3   4
ATOM      4  C   UNL     1      31.709  25.886  64.839  1.00  0.00     0.000 C 
BRANCH   4   5
ATOM      5  C   UNL     1      31.658  26.434  63.405  1.00  0.00     0.000 C 
BRANCH   5   6
ATOM      6  C   UNL     1      30.239  26.412  62.811  1.00  0.00     0.000 C 
BRANCH   6   7
ATOM      7  C   UNL     1      29.301  25.335  63.393  1.00  0.00     0.000 C 
BRANCH   7   8
ATOM      8  C   UNL     1      29.177  24.071  62.517  1.00  0.00     0.000 C 
BRANCH   8   9
ATOM      9  C   UNL     1      27.951  24.115  61.587  1.00  0.00     0.000 C 
BRANCH   9  10
ATOM     10  C   UNL     1      26.630  23.951  62.354  1.00  0.00     0.006 C 
BRANCH  10  11
ATOM     11  C   UNL     1      25.661  25.114  62.105  1.00  0.00     0.053 C 
BRANCH  11  12
ATOM     12  C   UNL     1      24.260  24.724  62.462  1.00  0.00     0.041 C 
ATOM     13  O   UNL     1      23.719  25.180  63.506  1.00  0.00    -0.550 OA
ATOM     14  O   UNL     1      23.541  23.875  61.628  1.00  0.00    -0.550 OA
ENDBRANCH  11  12
ENDBRANCH  10  11
ENDBRANCH   9  10
ENDBRANCH   8   9
ENDBRANCH   7   8
ENDBRANCH   6   7
ENDBRANCH   5   6
ENDBRANCH   4   5
ENDBRANCH   3   4
ENDBRANCH   2   3
ENDBRANCH   1   2
BRANCH   1  15
ATOM     15  C   UNL     1      32.954  24.350  68.684  1.00  0.00     0.000 C 
BRANCH  15  16
ATOM     16  C   UNL     1      34.353  24.960  68.500  1.00  0.00     0.000 C 
BRANCH  16  17
ATOM     17  C   UNL     1      35.475  23.941  68.772  1.00  0.00     0.000 C 
BRANCH  17  18
ATOM     18  C   UNL     1      36.069  24.070  70.186  1.00  0.00    -0.000 C 
BRANCH  18  19
ATOM     19  C   UNL     1      37.598  23.919  70.271  1.00  0.00    -0.000 C 
BRANCH  19  20
ATOM     20  C   UNL     1      38.133  24.051  71.706  1.00  0.00    -0.000 C 
BRANCH  20  21
ATOM     21  C   UNL     1      39.654  24.296  71.766  1.00  0.00    -0.000 C 
BRANCH  21  22
ATOM     22  C   UNL     1      40.184  24.854  73.099  1.00  0.00    -0.000 C 
BRANCH  22  23
ATOM     23  C   UNL     1      39.210  25.839  73.771  1.00  0.00    -0.000 C 
BRANCH  23  24
ATOM     24  C   UNL     1      39.764  26.432  75.080  1.00  0.00    -0.000 C 
BRANCH  24  25
ATOM     25  C   UNL     1      39.546  27.946  75.253  1.00  0.00    -0.003 C 
ATOM     26  C   UNL     1      39.661  28.406  76.706  1.00  0.00     0.004 C 
ENDBRANCH  24  25
ENDBRANCH  23  24
ENDBRANCH  22  23
ENDBRANCH  21  22
ENDBRANCH  20  21
ENDBRANCH  19  20
ENDBRANCH  18  19
ENDBRANCH  17  18
ENDBRANCH  16  17
ENDBRANCH  15  16
ENDBRANCH   1  15
TORSDOF 22
ENDMDL
MODEL 5
REMARK VINA RESULT:    -2.386      5.182      8.018
REMARK INTER + INTRA:          -6.943
REMARK INTER:                  -5.852
REMARK INTRA:                  -1.091
REMARK UNBOUND:                -1.488
REMARK SMILES CCCCCCCCCCCCCCCCCCCCCCCC(=O)[O-]
REMARK SMILES IDX 13 1 14 2 15 3 16 4 17 5 18 6 19 7 20 8 21 9 22 10 23 11
REMARK SMILES IDX 24 12 25 13 26 14 12 15 11 16 10 17 9 18 8 19 7 20 6 21 5 22
REMARK SMILES IDX 4 23 3 24 2 25 1 26
REMARK H PARENT
REMARK Flexibility Score: inf
ROOT
ATOM      1  C   UNL     1      30.580  24.662  64.761  1.00  0.00     0.000 C 
ENDROOT
BRANCH   1   2
ATOM      2  C   UNL     1      31.458  25.874  64.412  1.00  0.00     0.000 C 
BRANCH   2   3
ATOM      3  C   UNL     1      31.894  25.885  62.939  1.00  0.00     0.000 C 
BRANCH   3   4
ATOM      4  C   UNL     1      33.419  25.767  62.826  1.00  0.00     0.000 C 
BRANCH   4   5
ATOM      5  C   UNL     1      33.824  24.425  62.198  1.00  0.00     0.000 C 
BRANCH   5   6
ATOM      6  C   UNL     1      35.305  24.080  62.436  1.00  0.00     0.000 C 
BRANCH   6   7
ATOM      7  C   UNL     1      36.144  23.875  61.158  1.00  0.00     0.000 C 
BRANCH   7   8
ATOM      8  C   UNL     1      35.811  24.868  60.024  1.00  0.00     0.000 C 
BRANCH   8   9
ATOM      9  C   UNL     1      36.117  24.294  58.629  1.00  0.00     0.000 C 
BRANCH   9  10
ATOM     10  C   UNL     1      37.449  24.811  58.063  1.00  0.00     0.006 C 
BRANCH  10  11
ATOM     11  C   UNL     1      38.626  23.885  58.398  1.00  0.00     0.053 C 
BRANCH  11  12
ATOM     12  C   UNL     1      39.907  24.656  58.462  1.00  0.00     0.041 C 
ATOM     13  O   UNL     1      39.898  25.880  58.769  1.00  0.00    -0.550 OA
ATOM     14  O   UNL     1      41.115  24.019  58.206  1.00  0.00    -0.550 OA
ENDBRANCH  11  12
ENDBRANCH  10  11
ENDBRANCH   9  10
ENDBRANCH   8   9
ENDBRANCH   7   8
ENDBRANCH   6   7
ENDBRANCH   5   6
ENDBRANCH   4   5
ENDBRANCH   3   4
ENDBRANCH   2   3
ENDBRANCH   1   2
BRANCH   1  15
ATOM     15  C   UNL     1      30.117  24.672  66.229  1.00  0.00     0.000 C 
BRANCH  15  16
ATOM     16  C   UNL     1      31.287  24.834  67.214  1.00  0.00     0.000 C 
BRANCH  16  17
ATOM     17  C   UNL     1      32.451  23.877  66.901  1.00  0.00     0.000 C 
BRANCH  17  18
ATOM     18  C   UNL     1      33.570  23.930  67.957  1.00  0.00    -0.000 C 
BRANCH  18  19
ATOM     19  C   UNL     1      34.948  24.369  67.431  1.00  0.00    -0.000 C 
BRANCH  19  20
ATOM     20  C   UNL     1      35.789  25.097  68.492  1.00  0.00    -0.000 C 
BRANCH  20  21
ATOM     21  C   UNL     1      35.851  24.346  69.835  1.00  0.00    -0.000 C 
BRANCH  21  22
ATOM     22  C   UNL     1      34.597  24.466  70.721  1.00  0.00    -0.000 C 
BRANCH  22  23
ATOM     23  C   UNL     1      33.926  25.848  70.633  1.00  0.00    -0.000 C 
BRANCH  23  24
ATOM     24  C   UNL     1      32.388  25.769  70.610  1.00  0.00    -0.000 C 
BRANCH  24  25
ATOM     25  C   UNL     1      31.783  24.609  71.421  1.00  0.00    -0.003 C 
ATOM     26  C   UNL     1      30.533  24.013  70.774  1.00  0.00     0.004 C 
ENDBRANCH  24  25
ENDBRANCH  23  24
ENDBRANCH  22  23
ENDBRANCH  21  22
ENDBRANCH  20  21
ENDBRANCH  19  20
ENDBRANCH  18  19
ENDBRANCH  17  18
ENDBRANCH  16  17
ENDBRANCH  15  16
ENDBRANCH   1  15
TORSDOF 22
ENDMDL
MODEL 6
REMARK VINA RESULT:    -2.364      4.694     10.539
REMARK INTER + INTRA:          -6.893
REMARK INTER:                  -5.443
REMARK INTRA:                  -1.451
REMARK UNBOUND:                -1.488
REMARK SMILES CCCCCCCCCCCCCCCCCCCCCCCC(=O)[O-]
REMARK SMILES IDX 13 1 14 2 15 3 16 4 17 5 18 6 19 7 20 8 21 9 22 10 23 11
REMARK SMILES IDX 24 12 25 13 26 14 12 15 11 16 10 17 9 18 8 19 7 20 6 21 5 22
REMARK SMILES IDX 4 23 3 24 2 25 1 26
REMARK H PARENT
REMARK Flexibility Score: inf
ROOT
ATOM      1  C   UNL     1      34.783  26.074  71.009  1.00  0.00     0.000 C 
ENDROOT
BRANCH   1   2
ATOM      2  C   UNL     1      34.870  25.902  69.485  1.00  0.00     0.000 C 
BRANCH   2   3
ATOM      3  C   UNL     1      35.045  24.436  69.063  1.00  0.00     0.000 C 
BRANCH   3   4
ATOM      4  C   UNL     1      36.518  24.019  69.152  1.00  0.00     0.000 C 
BRANCH   4   5
ATOM      5  C   UNL     1      36.965  23.875  70.615  1.00  0.00     0.000 C 
BRANCH   5   6
ATOM      6  C   UNL     1      38.491  23.970  70.783  1.00  0.00     0.000 C 
BRANCH   6   7
ATOM      7  C   UNL     1      38.973  24.979  71.844  1.00  0.00     0.000 C 
BRANCH   7   8
ATOM      8  C   UNL     1      39.852  24.355  72.950  1.00  0.00     0.000 C 
BRANCH   8   9
ATOM      9  C   UNL     1      39.524  24.910  74.347  1.00  0.00     0.000 C 
BRANCH   9  10
ATOM     10  C   UNL     1      39.445  26.445  74.363  1.00  0.00     0.006 C 
BRANCH  10  11
ATOM     11  C   UNL     1      40.276  27.062  75.494  1.00  0.00     0.053 C 
BRANCH  11  12
ATOM     12  C   UNL     1      39.567  28.235  76.096  1.00  0.00     0.041 C 
ATOM     13  O   UNL     1      39.882  28.646  77.247  1.00  0.00    -0.550 OA
ATOM     14  O   UNL     1      38.574  28.891  75.378  1.00  0.00    -0.550 OA
ENDBRANCH  11  12
ENDBRANCH  10  11
ENDBRANCH   9  10
ENDBRANCH   8   9
ENDBRANCH   7   8
ENDBRANCH   6   7
ENDBRANCH   5   6
ENDBRANCH   4   5
ENDBRANCH   3   4
ENDBRANCH   2   3
ENDBRANCH   1   2
BRANCH   1  15
ATOM     15  C   UNL     1      33.461  25.539  71.589  1.00  0.00     0.000 C 
BRANCH  15  16
ATOM     16  C   UNL     1      32.231  26.263  71.016  1.00  0.00     0.000 C 
BRANCH  16  17
ATOM     17  C   UNL     1      30.949  25.418  71.130  1.00  0.00     0.000 C 
BRANCH  17  18
ATOM     18  C   UNL     1      31.117  23.998  70.560  1.00  0.00    -0.000 C 
BRANCH  18  19
ATOM     19  C   UNL     1      31.579  23.931  69.093  1.00  0.00    -0.000 C 
BRANCH  19  20
ATOM     20  C   UNL     1      30.410  23.991  68.095  1.00  0.00    -0.000 C 
BRANCH  20  21
ATOM     21  C   UNL     1      30.861  24.294  66.653  1.00  0.00    -0.000 C 
BRANCH  21  22
ATOM     22  C   UNL     1      32.383  24.386  66.439  1.00  0.00    -0.000 C 
BRANCH  22  23
ATOM     23  C   UNL     1      32.770  24.729  64.989  1.00  0.00    -0.000 C 
BRANCH  23  24
ATOM     24  C   UNL     1      31.830  25.766  64.347  1.00  0.00    -0.000 C 
BRANCH  24  25
ATOM     25  C   UNL     1      32.033  25.982  62.837  1.00  0.00    -0.003 C 
ATOM     26  C   UNL     1      32.287  27.444  62.469  1.00  0.00     0.004 C 
ENDBRANCH  24  25
ENDBRANCH  23  24
ENDBRANCH  22  23
ENDBRANCH  21  22
ENDBRANCH  20  21
ENDBRANCH  19  20
ENDBRANCH  18  19
ENDBRANCH  17  18
ENDBRANCH  16  17
ENDBRANCH  15  16
ENDBRANCH   1  15
TORSDOF 22
ENDMDL
MODEL 7
REMARK VINA RESULT:    -2.276      4.824     11.941
REMARK INTER + INTRA:          -6.690
REMARK INTER:                  -5.359
REMARK INTRA:                  -1.331
REMARK UNBOUND:                -1.488
REMARK SMILES CCCCCCCCCCCCCCCCCCCCCCCC(=O)[O-]
REMARK SMILES IDX 13 1 14 2 15 3 16 4 17 5 18 6 19 7 20 8 21 9 22 10 23 11
REMARK SMILES IDX 24 12 25 13 26 14 12 15 11 16 10 17 9 18 8 19 7 20 6 21 5 22
REMARK SMILES IDX 4 23 3 24 2 25 1 26
REMARK H PARENT
REMARK Flexibility Score: inf
ROOT
ATOM      1  C   UNL     1      31.673  24.001  69.083  1.00  0.00     0.000 C 
ENDROOT
BRANCH   1   2
ATOM      2  C   UNL     1      31.310  25.141  70.047  1.00  0.00     0.000 C 
BRANCH   2   3
ATOM      3  C   UNL     1      32.490  25.564  70.935  1.00  0.00     0.000 C 
BRANCH   3   4
ATOM      4  C   UNL     1      33.815  25.059  70.352  1.00  0.00     0.000 C 
BRANCH   4   5
ATOM      5  C   UNL     1      34.964  25.237  71.356  1.00  0.00     0.000 C 
BRANCH   5   6
ATOM      6  C   UNL     1      36.015  24.117  71.261  1.00  0.00     0.000 C 
BRANCH   6   7
ATOM      7  C   UNL     1      36.865  24.123  69.975  1.00  0.00     0.000 C 
BRANCH   7   8
ATOM      8  C   UNL     1      38.259  24.764  70.147  1.00  0.00     0.000 C 
BRANCH   8   9
ATOM      9  C   UNL     1      39.221  23.876  70.955  1.00  0.00     0.000 C 
BRANCH   9  10
ATOM     10  C   UNL     1      39.884  24.635  72.115  1.00  0.00     0.006 C 
BRANCH  10  11
ATOM     11  C   UNL     1      38.866  25.113  73.159  1.00  0.00     0.053 C 
BRANCH  11  12
ATOM     12  C   UNL     1      39.560  25.648  74.372  1.00  0.00     0.041 C 
ATOM     13  O   UNL     1      39.863  24.877  75.323  1.00  0.00    -0.550 OA
ATOM     14  O   UNL     1      39.895  26.995  74.443  1.00  0.00    -0.550 OA
ENDBRANCH  11  12
ENDBRANCH  10  11
ENDBRANCH   9  10
ENDBRANCH   8   9
ENDBRANCH   7   8
ENDBRANCH   6   7
ENDBRANCH   5   6
ENDBRANCH   4   5
ENDBRANCH   3   4
ENDBRANCH   2   3
ENDBRANCH   1   2
BRANCH   1  15
ATOM     15  C   UNL     1      30.962  24.130  67.724  1.00  0.00     0.000 C 
BRANCH  15  16
ATOM     16  C   UNL     1      31.849  24.790  66.655  1.00  0.00     0.000 C 
BRANCH  16  17
ATOM     17  C   UNL     1      31.258  24.654  65.240  1.00  0.00     0.000 C 
BRANCH  17  18
ATOM     18  C   UNL     1      31.717  25.775  64.290  1.00  0.00    -0.000 C 
BRANCH  18  19
ATOM     19  C   UNL     1      31.076  25.752  62.891  1.00  0.00    -0.000 C 
BRANCH  19  20
ATOM     20  C   UNL     1      29.908  26.741  62.753  1.00  0.00    -0.000 C 
BRANCH  20  21
ATOM     21  C   UNL     1      28.557  26.149  63.198  1.00  0.00    -0.000 C 
BRANCH  21  22
ATOM     22  C   UNL     1      28.311  24.682  62.796  1.00  0.00    -0.000 C 
BRANCH  22  23
ATOM     23  C   UNL     1      27.139  24.514  61.814  1.00  0.00    -0.000 C 
BRANCH  23  24
ATOM     24  C   UNL     1      25.909  25.358  62.197  1.00  0.00    -0.000 C 
BRANCH  24  25
ATOM     25  C   UNL     1      24.649  25.094  61.354  1.00  0.00    -0.003 C 
ATOM     26  C   UNL     1      23.612  24.235  62.077  1.00  0.00     0.004 C 
ENDBRANCH  24  25
ENDBRANCH  23  24
ENDBRANCH  22  23
ENDBRANCH  21  22
ENDBRANCH  20  21
ENDBRANCH  19  20
ENDBRANCH  18  19
ENDBRANCH  17  18
ENDBRANCH  16  17
ENDBRANCH  15  16
ENDBRANCH   1  15
TORSDOF 22
ENDMDL
MODEL 8
REMARK VINA RESULT:    -2.151      3.742     11.509
REMARK INTER + INTRA:          -6.405
REMARK INTER:                  -6.421
REMARK INTRA:                   0.016
REMARK UNBOUND:                -1.488
REMARK SMILES CCCCCCCCCCCCCCCCCCCCCCCC(=O)[O-]
REMARK SMILES IDX 13 1 14 2 15 3 16 4 17 5 18 6 19 7 20 8 21 9 22 10 23 11
REMARK SMILES IDX 24 12 25 13 26 14 12 15 11 16 10 17 9 18 8 19 7 20 6 21 5 22
REMARK SMILES IDX 4 23 3 24 2 25 1 26
REMARK H PARENT
REMARK Flexibility Score: inf
ROOT
ATOM      1  C   UNL     1      31.180  24.365  67.074  1.00  0.00     0.000 C 
ENDROOT
BRANCH   1   2
ATOM      2  C   UNL     1      32.624  23.910  67.333  1.00  0.00     0.000 C 
BRANCH   2   3
ATOM      3  C   UNL     1      33.501  23.973  66.073  1.00  0.00     0.000 C 
BRANCH   3   4
ATOM      4  C   UNL     1      34.987  23.911  66.445  1.00  0.00     0.000 C 
BRANCH   4   5
ATOM      5  C   UNL     1      35.175  23.880  67.969  1.00  0.00     0.000 C 
BRANCH   5   6
ATOM      6  C   UNL     1      36.654  23.939  68.387  1.00  0.00     0.000 C 
BRANCH   6   7
ATOM      7  C   UNL     1      36.959  24.857  69.589  1.00  0.00     0.000 C 
BRANCH   7   8
ATOM      8  C   UNL     1      36.498  24.285  70.947  1.00  0.00     0.000 C 
BRANCH   8   9
ATOM      9  C   UNL     1      35.589  25.259  71.718  1.00  0.00     0.000 C 
BRANCH   9  10
ATOM     10  C   UNL     1      34.733  26.126  70.782  1.00  0.00     0.006 C 
BRANCH  10  11
ATOM     11  C   UNL     1      33.372  25.489  70.476  1.00  0.00     0.053 C 
BRANCH  11  12
ATOM     12  C   UNL     1      32.261  26.299  71.066  1.00  0.00     0.041 C 
ATOM     13  O   UNL     1      31.753  27.252  70.414  1.00  0.00    -0.550 OA
ATOM     14  O   UNL     1      31.767  25.987  72.327  1.00  0.00    -0.550 OA
ENDBRANCH  11  12
ENDBRANCH  10  11
ENDBRANCH   9  10
ENDBRANCH   8   9
ENDBRANCH   7   8
ENDBRANCH   6   7
ENDBRANCH   5   6
ENDBRANCH   4   5
ENDBRANCH   3   4
ENDBRANCH   2   3
ENDBRANCH   1   2
BRANCH   1  15
ATOM     15  C   UNL     1      30.797  24.294  65.584  1.00  0.00     0.000 C 
BRANCH  15  16
ATOM     16  C   UNL     1      31.506  25.368  64.742  1.00  0.00     0.000 C 
BRANCH  16  17
ATOM     17  C   UNL     1      31.858  24.865  63.330  1.00  0.00     0.000 C 
BRANCH  17  18
ATOM     18  C   UNL     1      30.801  23.903  62.758  1.00  0.00    -0.000 C 
BRANCH  18  19
ATOM     19  C   UNL     1      29.343  24.246  63.111  1.00  0.00    -0.000 C 
BRANCH  19  20
ATOM     20  C   UNL     1      28.365  23.955  61.961  1.00  0.00    -0.000 C 
BRANCH  20  21
ATOM     21  C   UNL     1      26.964  24.555  62.191  1.00  0.00    -0.000 C 
BRANCH  21  22
ATOM     22  C   UNL     1      25.920  24.235  61.105  1.00  0.00    -0.000 C 
BRANCH  22  23
ATOM     23  C   UNL     1      24.480  24.192  61.646  1.00  0.00    -0.000 C 
BRANCH  23  24
ATOM     24  C   UNL     1      24.372  24.681  63.103  1.00  0.00    -0.000 C 
BRANCH  24  25
ATOM     25  C   UNL     1      22.967  25.137  63.535  1.00  0.00    -0.003 C 
ATOM     26  C   UNL     1      22.407  24.328  64.705  1.00  0.00     0.004 C 
ENDBRANCH  24  25
ENDBRANCH  23  24
ENDBRANCH  22  23
ENDBRANCH  21  22
ENDBRANCH  20  21
ENDBRANCH  19  20
ENDBRANCH  18  19
ENDBRANCH  17  18
ENDBRANCH  16  17
ENDBRANCH  15  16
ENDBRANCH   1  15
TORSDOF 22
ENDMDL
MODEL 9
REMARK VINA RESULT:    -2.057      5.302      9.122
REMARK INTER + INTRA:          -6.190
REMARK INTER:                  -4.698
REMARK INTRA:                  -1.492
REMARK UNBOUND:                -1.488
REMARK SMILES CCCCCCCCCCCCCCCCCCCCCCCC(=O)[O-]
REMARK SMILES IDX 13 1 14 2 15 3 16 4 17 5 18 6 19 7 20 8 21 9 22 10 23 11
REMARK SMILES IDX 24 12 25 13 26 14 12 15 11 16 10 17 9 18 8 19 7 20 6 21 5 22
REMARK SMILES IDX 4 23 3 24 2 25 1 26
REMARK H PARENT
REMARK Flexibility Score: inf
ROOT
ATOM      1  C   UNL     1      30.951  27.803  63.348  1.00  0.00     0.000 C 
ENDROOT
BRANCH   1   2
ATOM      2  C   UNL     1      32.384  27.704  62.804  1.00  0.00     0.000 C 
BRANCH   2   3
ATOM      3  C   UNL     1      32.431  27.580  61.274  1.00  0.00     0.000 C 
BRANCH   3   4
ATOM      4  C   UNL     1      33.441  26.508  60.848  1.00  0.00     0.000 C 
BRANCH   4   5
ATOM      5  C   UNL     1      34.013  25.772  62.070  1.00  0.00     0.000 C 
BRANCH   5   6
ATOM      6  C   UNL     1      34.405  24.318  61.758  1.00  0.00     0.000 C 
BRANCH   6   7
ATOM      7  C   UNL     1      34.185  23.878  60.296  1.00  0.00     0.000 C 
BRANCH   7   8
ATOM      8  C   UNL     1      35.339  24.262  59.345  1.00  0.00     0.000 C 
BRANCH   8   9
ATOM      9  C   UNL     1      36.723  23.968  59.949  1.00  0.00     0.000 C 
BRANCH   9  10
ATOM     10  C   UNL     1      37.825  24.853  59.346  1.00  0.00     0.006 C 
BRANCH  10  11
ATOM     11  C   UNL     1      38.861  24.043  58.557  1.00  0.00     0.053 C 
BRANCH  11  12
ATOM     12  C   UNL     1      40.146  24.801  58.432  1.00  0.00     0.041 C 
ATOM     13  O   UNL     1      40.167  26.049  58.613  1.00  0.00    -0.550 OA
ATOM     14  O   UNL     1      41.325  24.126  58.139  1.00  0.00    -0.550 OA
ENDBRANCH  11  12
ENDBRANCH  10  11
ENDBRANCH   9  10
ENDBRANCH   8   9
ENDBRANCH   7   8
ENDBRANCH   6   7
ENDBRANCH   5   6
ENDBRANCH   4   5
ENDBRANCH   3   4
ENDBRANCH   2   3
ENDBRANCH   1   2
BRANCH   1  15
ATOM     15  C   UNL     1      29.924  27.114  62.432  1.00  0.00     0.000 C 
BRANCH  15  16
ATOM     16  C   UNL     1      28.989  26.167  63.203  1.00  0.00     0.000 C 
BRANCH  16  17
ATOM     17  C   UNL     1      29.551  24.736  63.291  1.00  0.00     0.000 C 
BRANCH  17  18
ATOM     18  C   UNL     1      30.849  24.654  64.114  1.00  0.00    -0.000 C 
BRANCH  18  19
ATOM     19  C   UNL     1      30.701  24.024  65.511  1.00  0.00    -0.000 C 
BRANCH  19  20
ATOM     20  C   UNL     1      31.531  24.748  66.584  1.00  0.00    -0.000 C 
BRANCH  20  21
ATOM     21  C   UNL     1      31.202  24.286  68.017  1.00  0.00    -0.000 C 
BRANCH  21  22
ATOM     22  C   UNL     1      32.418  23.930  68.894  1.00  0.00    -0.000 C 
BRANCH  22  23
ATOM     23  C   UNL     1      33.747  23.951  68.120  1.00  0.00    -0.000 C 
BRANCH  23  24
ATOM     24  C   UNL     1      34.831  24.800  68.810  1.00  0.00    -0.000 C 
BRANCH  24  25
ATOM     25  C   UNL     1      36.073  24.020  69.275  1.00  0.00    -0.003 C 
ATOM     26  C   UNL     1      36.447  24.300  70.731  1.00  0.00     0.004 C 
ENDBRANCH  24  25
ENDBRANCH  23  24
ENDBRANCH  22  23
ENDBRANCH  21  22
ENDBRANCH  20  21
ENDBRANCH  19  20
ENDBRANCH  18  19
ENDBRANCH  17  18
ENDBRANCH  16  17
ENDBRANCH  15  16
ENDBRANCH   1  15
TORSDOF 22
ENDMDL
