MODEL 1
REMARK VINA RESULT:    -5.752      0.000      0.000
REMARK INTER + INTRA:          -7.251
REMARK INTER:                  -6.929
REMARK INTRA:                  -0.322
REMARK UNBOUND:                -0.322
REMARK SMILES O=c1c(O)c(-c2ccc(O)c(O)c2)oc2cc(O)cc(O)c12
REMARK SMILES IDX 5 1 3 2 2 3 1 4 22 5 20 6 19 7 17 8 16 9 15 10 14 11 6 12
REMARK SMILES IDX 7 13 8 14 9 15 13 16 11 17 10 18 12 20 4 22 21 24 18 26
REMARK H PARENT 10 19 12 21 4 23 21 25 18 27
REMARK Flexibility Score: inf
ROOT
ATOM      1  C   UNL     1     -14.253  70.875  74.618  1.00  0.00     0.180 A 
ATOM      2  C   UNL     1     -13.735  71.076  73.327  1.00  0.00     0.208 A 
ATOM      3  C   UNL     1     -13.637  72.384  72.827  1.00  0.00     0.238 A 
ATOM      4  O   UNL     1     -13.122  72.560  71.693  1.00  0.00    -0.285 OA
ATOM      5  C   UNL     1     -14.074  73.474  73.618  1.00  0.00     0.111 A 
ATOM      6  C   UNL     1     -14.058  74.838  73.196  1.00  0.00     0.134 A 
ATOM      7  C   UNL     1     -14.392  75.847  74.109  1.00  0.00     0.093 A 
ATOM      8  C   UNL     1     -14.802  75.539  75.404  1.00  0.00     0.123 A 
ATOM      9  C   UNL     1     -14.878  74.205  75.809  1.00  0.00     0.094 A 
ATOM     10  C   UNL     1     -14.517  73.179  74.932  1.00  0.00     0.146 A 
ATOM     11  O   UNL     1     -14.594  71.923  75.361  1.00  0.00    -0.452 OA
ENDROOT
BRANCH   1  12
ATOM     12  C   UNL     1     -14.411  69.525  75.203  1.00  0.00     0.025 A 
ATOM     13  C   UNL     1     -15.604  68.818  74.996  1.00  0.00     0.016 A 
ATOM     14  C   UNL     1     -15.766  67.535  75.523  1.00  0.00     0.051 A 
ATOM     15  C   UNL     1     -14.737  66.927  76.251  1.00  0.00     0.157 A 
ATOM     16  C   UNL     1     -13.367  68.908  75.914  1.00  0.00     0.062 A 
ATOM     17  C   UNL     1     -13.519  67.621  76.443  1.00  0.00     0.158 A 
BRANCH  15  18
ATOM     18  O   UNL     1     -14.965  65.645  76.757  1.00  0.00    -0.504 OA
ATOM     19  H   UNL     1     -14.557  64.805  76.371  1.00  0.00     0.293 HD
ENDBRANCH  15  18
BRANCH  17  20
ATOM     20  O   UNL     1     -12.441  67.071  77.140  1.00  0.00    -0.504 OA
ATOM     21  H   UNL     1     -11.675  66.580  76.701  1.00  0.00     0.293 HD
ENDBRANCH  17  20
ENDBRANCH   1  12
BRANCH   2  22
ATOM     22  O   UNL     1     -13.290  69.987  72.572  1.00  0.00    -0.502 OA
ATOM     23  H   UNL     1     -12.886  70.093  71.650  1.00  0.00     0.293 HD
ENDBRANCH   2  22
BRANCH   6  24
ATOM     24  O   UNL     1     -13.752  75.250  71.895  1.00  0.00    -0.507 OA
ATOM     25  H   UNL     1     -14.426  75.596  71.229  1.00  0.00     0.293 HD
ENDBRANCH   6  24
BRANCH   8  26
ATOM     26  O   UNL     1     -15.141  76.566  76.281  1.00  0.00    -0.508 OA
ATOM     27  H   UNL     1     -14.522  76.850  77.032  1.00  0.00     0.293 HD
ENDBRANCH   8  26
TORSDOF 6
ENDMDL
MODEL 2
REMARK VINA RESULT:    -5.382      3.052      8.732
REMARK INTER + INTRA:          -6.805
REMARK INTER:                  -6.594
REMARK INTRA:                  -0.211
REMARK UNBOUND:                -0.322
REMARK SMILES O=c1c(O)c(-c2ccc(O)c(O)c2)oc2cc(O)cc(O)c12
REMARK SMILES IDX 5 1 3 2 2 3 1 4 22 5 20 6 19 7 17 8 16 9 15 10 14 11 6 12
REMARK SMILES IDX 7 13 8 14 9 15 13 16 11 17 10 18 12 20 4 22 21 24 18 26
REMARK H PARENT 10 19 12 21 4 23 21 25 18 27
REMARK Flexibility Score: inf
ROOT
ATOM      1  C   UNL     1     -14.679  66.283  75.602  1.00  0.00     0.180 A 
ATOM      2  C   UNL     1     -13.857  65.294  75.034  1.00  0.00     0.208 A 
ATOM      3  C   UNL     1     -14.154  63.943  75.269  1.00  0.00     0.238 A 
ATOM      4  O   UNL     1     -13.447  63.063  74.713  1.00  0.00    -0.285 OA
ATOM      5  C   UNL     1     -15.260  63.596  76.082  1.00  0.00     0.111 A 
ATOM      6  C   UNL     1     -15.630  62.259  76.419  1.00  0.00     0.134 A 
ATOM      7  C   UNL     1     -16.819  62.028  77.123  1.00  0.00     0.093 A 
ATOM      8  C   UNL     1     -17.616  63.086  77.557  1.00  0.00     0.123 A 
ATOM      9  C   UNL     1     -17.232  64.400  77.284  1.00  0.00     0.094 A 
ATOM     10  C   UNL     1     -16.071  64.660  76.553  1.00  0.00     0.146 A 
ATOM     11  O   UNL     1     -15.747  65.925  76.305  1.00  0.00    -0.452 OA
ENDROOT
BRANCH   1  12
ATOM     12  C   UNL     1     -14.415  67.728  75.420  1.00  0.00     0.025 A 
ATOM     13  C   UNL     1     -13.923  68.480  76.496  1.00  0.00     0.016 A 
ATOM     14  C   UNL     1     -13.648  69.840  76.341  1.00  0.00     0.051 A 
ATOM     15  C   UNL     1     -13.843  70.472  75.107  1.00  0.00     0.157 A 
ATOM     16  C   UNL     1     -14.589  68.353  74.174  1.00  0.00     0.062 A 
ATOM     17  C   UNL     1     -14.314  69.716  74.007  1.00  0.00     0.158 A 
BRANCH  15  18
ATOM     18  O   UNL     1     -13.556  71.836  75.020  1.00  0.00    -0.504 OA
ATOM     19  H   UNL     1     -12.866  72.228  74.395  1.00  0.00     0.293 HD
ENDBRANCH  15  18
BRANCH  17  20
ATOM     20  O   UNL     1     -14.512  70.272  72.742  1.00  0.00    -0.504 OA
ATOM     21  H   UNL     1     -14.338  71.241  72.516  1.00  0.00     0.293 HD
ENDBRANCH  17  20
ENDBRANCH   1  12
BRANCH   2  22
ATOM     22  O   UNL     1     -12.783  65.659  74.217  1.00  0.00    -0.502 OA
ATOM     23  H   UNL     1     -12.778  65.492  73.218  1.00  0.00     0.293 HD
ENDBRANCH   2  22
BRANCH   6  24
ATOM     24  O   UNL     1     -14.857  61.134  76.114  1.00  0.00    -0.507 OA
ATOM     25  H   UNL     1     -14.761  60.325  76.708  1.00  0.00     0.293 HD
ENDBRANCH   6  24
BRANCH   8  26
ATOM     26  O   UNL     1     -18.784  62.821  78.268  1.00  0.00    -0.508 OA
ATOM     27  H   UNL     1     -19.617  62.470  77.809  1.00  0.00     0.293 HD
ENDBRANCH   8  26
TORSDOF 6
ENDMDL
MODEL 3
REMARK VINA RESULT:    -5.309      1.362      1.362
REMARK INTER + INTRA:          -6.717
REMARK INTER:                  -6.411
REMARK INTRA:                  -0.306
REMARK UNBOUND:                -0.322
REMARK SMILES O=c1c(O)c(-c2ccc(O)c(O)c2)oc2cc(O)cc(O)c12
REMARK SMILES IDX 5 1 3 2 2 3 1 4 22 5 20 6 19 7 17 8 16 9 15 10 14 11 6 12
REMARK SMILES IDX 7 13 8 14 9 15 13 16 11 17 10 18 12 20 4 22 21 24 18 26
REMARK H PARENT 10 19 12 21 4 23 21 25 18 27
REMARK Flexibility Score: inf
ROOT
ATOM      1  C   UNL     1     -13.529  70.883  74.547  1.00  0.00     0.180 A 
ATOM      2  C   UNL     1     -12.360  71.224  73.845  1.00  0.00     0.208 A 
ATOM      3  C   UNL     1     -12.026  72.580  73.694  1.00  0.00     0.238 A 
ATOM      4  O   UNL     1     -10.951  72.876  73.113  1.00  0.00    -0.285 OA
ATOM      5  C   UNL     1     -12.876  73.577  74.231  1.00  0.00     0.111 A 
ATOM      6  C   UNL     1     -12.656  74.983  74.103  1.00  0.00     0.134 A 
ATOM      7  C   UNL     1     -13.491  75.876  74.786  1.00  0.00     0.093 A 
ATOM      8  C   UNL     1     -14.572  75.421  75.538  1.00  0.00     0.123 A 
ATOM      9  C   UNL     1     -14.830  74.052  75.622  1.00  0.00     0.094 A 
ATOM     10  C   UNL     1     -13.995  73.134  74.981  1.00  0.00     0.146 A 
ATOM     11  O   UNL     1     -14.270  71.839  75.096  1.00  0.00    -0.452 OA
ENDROOT
BRANCH   1  12
ATOM     12  C   UNL     1     -13.958  69.478  74.726  1.00  0.00     0.025 A 
ATOM     13  C   UNL     1     -14.872  68.915  73.823  1.00  0.00     0.016 A 
ATOM     14  C   UNL     1     -15.276  67.586  73.962  1.00  0.00     0.051 A 
ATOM     15  C   UNL     1     -14.764  66.788  74.992  1.00  0.00     0.157 A 
ATOM     16  C   UNL     1     -13.426  68.673  75.747  1.00  0.00     0.062 A 
ATOM     17  C   UNL     1     -13.822  67.338  75.893  1.00  0.00     0.158 A 
BRANCH  15  18
ATOM     18  O   UNL     1     -15.214  65.469  75.080  1.00  0.00    -0.504 OA
ATOM     19  H   UNL     1     -14.618  64.683  75.296  1.00  0.00     0.293 HD
ENDBRANCH  15  18
BRANCH  17  20
ATOM     20  O   UNL     1     -13.253  66.598  76.932  1.00  0.00    -0.504 OA
ATOM     21  H   UNL     1     -13.786  66.135  77.654  1.00  0.00     0.293 HD
ENDBRANCH  17  20
ENDBRANCH   1  12
BRANCH   2  22
ATOM     22  O   UNL     1     -11.524  70.222  73.342  1.00  0.00    -0.502 OA
ATOM     23  H   UNL     1     -11.257  69.413  73.888  1.00  0.00     0.293 HD
ENDBRANCH   2  22
BRANCH   6  24
ATOM     24  O   UNL     1     -11.660  75.547  73.301  1.00  0.00    -0.507 OA
ATOM     25  H   UNL     1     -10.756  75.848  73.633  1.00  0.00     0.293 HD
ENDBRANCH   6  24
BRANCH   8  26
ATOM     26  O   UNL     1     -15.390  76.339  76.193  1.00  0.00    -0.508 OA
ATOM     27  H   UNL     1     -16.396  76.223  76.227  1.00  0.00     0.293 HD
ENDBRANCH   8  26
TORSDOF 6
ENDMDL
MODEL 4
REMARK VINA RESULT:    -5.270      3.672      9.475
REMARK INTER + INTRA:          -6.671
REMARK INTER:                  -6.388
REMARK INTRA:                  -0.283
REMARK UNBOUND:                -0.322
REMARK SMILES O=c1c(O)c(-c2ccc(O)c(O)c2)oc2cc(O)cc(O)c12
REMARK SMILES IDX 5 1 3 2 2 3 1 4 22 5 20 6 19 7 17 8 16 9 15 10 14 11 6 12
REMARK SMILES IDX 7 13 8 14 9 15 13 16 11 17 10 18 12 20 4 22 21 24 18 26
REMARK H PARENT 10 19 12 21 4 23 21 25 18 27
REMARK Flexibility Score: inf
ROOT
ATOM      1  C   UNL     1     -15.764  65.738  76.182  1.00  0.00     0.180 A 
ATOM      2  C   UNL     1     -16.421  65.155  77.279  1.00  0.00     0.208 A 
ATOM      3  C   UNL     1     -16.704  63.780  77.252  1.00  0.00     0.238 A 
ATOM      4  O   UNL     1     -17.243  63.254  78.260  1.00  0.00    -0.285 OA
ATOM      5  C   UNL     1     -16.342  63.008  76.121  1.00  0.00     0.111 A 
ATOM      6  C   UNL     1     -16.616  61.615  75.970  1.00  0.00     0.134 A 
ATOM      7  C   UNL     1     -16.096  60.926  74.867  1.00  0.00     0.093 A 
ATOM      8  C   UNL     1     -15.370  61.589  73.880  1.00  0.00     0.123 A 
ATOM      9  C   UNL     1     -15.147  62.963  73.988  1.00  0.00     0.094 A 
ATOM     10  C   UNL     1     -15.622  63.671  75.095  1.00  0.00     0.146 A 
ATOM     11  O   UNL     1     -15.378  64.975  75.165  1.00  0.00    -0.452 OA
ENDROOT
BRANCH   1  12
ATOM     12  C   UNL     1     -15.455  67.184  76.126  1.00  0.00     0.025 A 
ATOM     13  C   UNL     1     -16.294  68.043  75.401  1.00  0.00     0.016 A 
ATOM     14  C   UNL     1     -16.031  69.413  75.352  1.00  0.00     0.051 A 
ATOM     15  C   UNL     1     -14.938  69.955  76.037  1.00  0.00     0.157 A 
ATOM     16  C   UNL     1     -14.370  67.729  76.834  1.00  0.00     0.062 A 
ATOM     17  C   UNL     1     -14.100  69.103  76.794  1.00  0.00     0.158 A 
BRANCH  15  18
ATOM     18  O   UNL     1     -14.727  71.332  75.941  1.00  0.00    -0.504 OA
ATOM     19  H   UNL     1     -15.359  72.027  76.314  1.00  0.00     0.293 HD
ENDBRANCH  15  18
BRANCH  17  20
ATOM     20  O   UNL     1     -13.004  69.574  77.520  1.00  0.00    -0.504 OA
ATOM     21  H   UNL     1     -12.270  68.982  77.883  1.00  0.00     0.293 HD
ENDBRANCH  17  20
ENDBRANCH   1  12
BRANCH   2  22
ATOM     22  O   UNL     1     -16.750  65.931  78.394  1.00  0.00    -0.502 OA
ATOM     23  H   UNL     1     -16.048  66.367  78.980  1.00  0.00     0.293 HD
ENDBRANCH   2  22
BRANCH   6  24
ATOM     24  O   UNL     1     -17.409  60.875  76.851  1.00  0.00    -0.507 OA
ATOM     25  H   UNL     1     -17.081  60.460  77.710  1.00  0.00     0.293 HD
ENDBRANCH   6  24
BRANCH   8  26
ATOM     26  O   UNL     1     -14.880  60.875  72.789  1.00  0.00    -0.508 OA
ATOM     27  H   UNL     1     -14.072  61.192  72.266  1.00  0.00     0.293 HD
ENDBRANCH   8  26
TORSDOF 6
ENDMDL
MODEL 5
REMARK VINA RESULT:    -5.234      1.632      6.461
REMARK INTER + INTRA:          -6.627
REMARK INTER:                  -6.623
REMARK INTRA:                  -0.004
REMARK UNBOUND:                -0.322
REMARK SMILES O=c1c(O)c(-c2ccc(O)c(O)c2)oc2cc(O)cc(O)c12
REMARK SMILES IDX 5 1 3 2 2 3 1 4 22 5 20 6 19 7 17 8 16 9 15 10 14 11 6 12
REMARK SMILES IDX 7 13 8 14 9 15 13 16 11 17 10 18 12 20 4 22 21 24 18 26
REMARK H PARENT 10 19 12 21 4 23 21 25 18 27
REMARK Flexibility Score: inf
ROOT
ATOM      1  C   UNL     1     -14.107  72.693  74.337  1.00  0.00     0.180 A 
ATOM      2  C   UNL     1     -14.174  72.666  72.933  1.00  0.00     0.208 A 
ATOM      3  C   UNL     1     -13.898  71.465  72.260  1.00  0.00     0.238 A 
ATOM      4  O   UNL     1     -14.013  71.434  71.008  1.00  0.00    -0.285 OA
ATOM      5  C   UNL     1     -13.541  70.311  72.998  1.00  0.00     0.111 A 
ATOM      6  C   UNL     1     -13.203  69.051  72.417  1.00  0.00     0.134 A 
ATOM      7  C   UNL     1     -12.994  67.942  73.247  1.00  0.00     0.093 A 
ATOM      8  C   UNL     1     -13.048  68.061  74.635  1.00  0.00     0.123 A 
ATOM      9  C   UNL     1     -13.320  69.301  75.214  1.00  0.00     0.094 A 
ATOM     10  C   UNL     1     -13.568  70.417  74.412  1.00  0.00     0.146 A 
ATOM     11  O   UNL     1     -13.835  71.577  75.004  1.00  0.00    -0.452 OA
ENDROOT
BRANCH   1  12
ATOM     12  C   UNL     1     -14.360  73.927  75.114  1.00  0.00     0.025 A 
ATOM     13  C   UNL     1     -13.675  75.105  74.782  1.00  0.00     0.016 A 
ATOM     14  C   UNL     1     -13.913  76.284  75.490  1.00  0.00     0.051 A 
ATOM     15  C   UNL     1     -14.849  76.316  76.530  1.00  0.00     0.157 A 
ATOM     16  C   UNL     1     -15.316  73.961  76.143  1.00  0.00     0.062 A 
ATOM     17  C   UNL     1     -15.564  75.140  76.857  1.00  0.00     0.158 A 
BRANCH  15  18
ATOM     18  O   UNL     1     -15.034  77.526  77.203  1.00  0.00    -0.504 OA
ATOM     19  H   UNL     1     -15.138  77.604  78.205  1.00  0.00     0.293 HD
ENDBRANCH  15  18
BRANCH  17  20
ATOM     20  O   UNL     1     -16.527  75.101  77.867  1.00  0.00    -0.504 OA
ATOM     21  H   UNL     1     -16.529  75.714  78.670  1.00  0.00     0.293 HD
ENDBRANCH  17  20
ENDBRANCH   1  12
BRANCH   2  22
ATOM     22  O   UNL     1     -14.549  73.812  72.226  1.00  0.00    -0.502 OA
ATOM     23  H   UNL     1     -15.514  74.104  72.135  1.00  0.00     0.293 HD
ENDBRANCH   2  22
BRANCH   6  24
ATOM     24  O   UNL     1     -13.032  68.844  71.045  1.00  0.00    -0.507 OA
ATOM     25  H   UNL     1     -13.599  69.266  70.325  1.00  0.00     0.293 HD
ENDBRANCH   6  24
BRANCH   8  26
ATOM     26  O   UNL     1     -12.820  66.941  75.430  1.00  0.00    -0.508 OA
ATOM     27  H   UNL     1     -12.069  66.290  75.230  1.00  0.00     0.293 HD
ENDBRANCH   8  26
TORSDOF 6
ENDMDL
MODEL 6
REMARK VINA RESULT:    -5.206      3.127      9.198
REMARK INTER + INTRA:          -6.594
REMARK INTER:                  -6.298
REMARK INTRA:                  -0.296
REMARK UNBOUND:                -0.322
REMARK SMILES O=c1c(O)c(-c2ccc(O)c(O)c2)oc2cc(O)cc(O)c12
REMARK SMILES IDX 5 1 3 2 2 3 1 4 22 5 20 6 19 7 17 8 16 9 15 10 14 11 6 12
REMARK SMILES IDX 7 13 8 14 9 15 13 16 11 17 10 18 12 20 4 22 21 24 18 26
REMARK H PARENT 10 19 12 21 4 23 21 25 18 27
REMARK Flexibility Score: inf
ROOT
ATOM      1  C   UNL     1     -14.958  66.246  75.934  1.00  0.00     0.180 A 
ATOM      2  C   UNL     1     -16.165  65.863  76.544  1.00  0.00     0.208 A 
ATOM      3  C   UNL     1     -16.425  64.498  76.744  1.00  0.00     0.238 A 
ATOM      4  O   UNL     1     -17.482  64.165  77.339  1.00  0.00    -0.285 OA
ATOM      5  C   UNL     1     -15.483  63.532  76.314  1.00  0.00     0.111 A 
ATOM      6  C   UNL     1     -15.661  62.120  76.430  1.00  0.00     0.134 A 
ATOM      7  C   UNL     1     -14.607  61.261  76.091  1.00  0.00     0.093 A 
ATOM      8  C   UNL     1     -13.408  61.758  75.583  1.00  0.00     0.123 A 
ATOM      9  C   UNL     1     -13.245  63.134  75.411  1.00  0.00     0.094 A 
ATOM     10  C   UNL     1     -14.265  64.017  75.773  1.00  0.00     0.146 A 
ATOM     11  O   UNL     1     -14.065  65.320  75.603  1.00  0.00    -0.452 OA
ENDROOT
BRANCH   1  12
ATOM     12  C   UNL     1     -14.625  67.664  75.669  1.00  0.00     0.025 A 
ATOM     13  C   UNL     1     -14.096  68.453  76.700  1.00  0.00     0.016 A 
ATOM     14  C   UNL     1     -13.757  69.787  76.466  1.00  0.00     0.051 A 
ATOM     15  C   UNL     1     -13.922  70.354  75.196  1.00  0.00     0.157 A 
ATOM     16  C   UNL     1     -14.770  68.223  74.388  1.00  0.00     0.062 A 
ATOM     17  C   UNL     1     -14.429  69.559  74.142  1.00  0.00     0.158 A 
BRANCH  15  18
ATOM     18  O   UNL     1     -13.570  71.695  75.031  1.00  0.00    -0.504 OA
ATOM     19  H   UNL     1     -14.238  72.451  74.975  1.00  0.00     0.293 HD
ENDBRANCH  15  18
BRANCH  17  20
ATOM     20  O   UNL     1     -14.602  70.048  72.846  1.00  0.00    -0.504 OA
ATOM     21  H   UNL     1     -15.503  70.200  72.414  1.00  0.00     0.293 HD
ENDBRANCH  17  20
ENDBRANCH   1  12
BRANCH   2  22
ATOM     22  O   UNL     1     -17.071  66.834  76.980  1.00  0.00    -0.502 OA
ATOM     23  H   UNL     1     -17.663  66.701  77.791  1.00  0.00     0.293 HD
ENDBRANCH   2  22
BRANCH   6  24
ATOM     24  O   UNL     1     -16.852  61.514  76.839  1.00  0.00    -0.507 OA
ATOM     25  H   UNL     1     -17.751  61.972  76.865  1.00  0.00     0.293 HD
ENDBRANCH   6  24
BRANCH   8  26
ATOM     26  O   UNL     1     -12.386  60.875  75.243  1.00  0.00    -0.508 OA
ATOM     27  H   UNL     1     -11.555  61.187  74.754  1.00  0.00     0.293 HD
ENDBRANCH   8  26
TORSDOF 6
ENDMDL
MODEL 7
REMARK VINA RESULT:    -5.191      3.159      5.975
REMARK INTER + INTRA:          -6.575
REMARK INTER:                  -6.278
REMARK INTRA:                  -0.297
REMARK UNBOUND:                -0.322
REMARK SMILES O=c1c(O)c(-c2ccc(O)c(O)c2)oc2cc(O)cc(O)c12
REMARK SMILES IDX 5 1 3 2 2 3 1 4 22 5 20 6 19 7 17 8 16 9 15 10 14 11 6 12
REMARK SMILES IDX 7 13 8 14 9 15 13 16 11 17 10 18 12 20 4 22 21 24 18 26
REMARK H PARENT 10 19 12 21 4 23 21 25 18 27
REMARK Flexibility Score: inf
ROOT
ATOM      1  C   UNL     1     -13.417  75.507  74.862  1.00  0.00     0.180 A 
ATOM      2  C   UNL     1     -14.364  76.053  75.746  1.00  0.00     0.208 A 
ATOM      3  C   UNL     1     -14.010  77.172  76.517  1.00  0.00     0.238 A 
ATOM      4  O   UNL     1     -14.879  77.689  77.266  1.00  0.00    -0.285 OA
ATOM      5  C   UNL     1     -12.709  77.719  76.409  1.00  0.00     0.111 A 
ATOM      6  C   UNL     1     -12.230  78.827  77.171  1.00  0.00     0.134 A 
ATOM      7  C   UNL     1     -10.969  79.367  76.887  1.00  0.00     0.093 A 
ATOM      8  C   UNL     1     -10.146  78.802  75.915  1.00  0.00     0.123 A 
ATOM      9  C   UNL     1     -10.581  77.682  75.204  1.00  0.00     0.094 A 
ATOM     10  C   UNL     1     -11.848  77.143  75.440  1.00  0.00     0.146 A 
ATOM     11  O   UNL     1     -12.227  76.083  74.734  1.00  0.00    -0.452 OA
ENDROOT
BRANCH   1  12
ATOM     12  C   UNL     1     -13.708  74.314  74.035  1.00  0.00     0.025 A 
ATOM     13  C   UNL     1     -13.959  74.470  72.664  1.00  0.00     0.016 A 
ATOM     14  C   UNL     1     -14.216  73.356  71.862  1.00  0.00     0.051 A 
ATOM     15  C   UNL     1     -14.212  72.067  72.408  1.00  0.00     0.157 A 
ATOM     16  C   UNL     1     -13.681  73.020  74.581  1.00  0.00     0.062 A 
ATOM     17  C   UNL     1     -13.934  71.896  73.784  1.00  0.00     0.158 A 
BRANCH  15  18
ATOM     18  O   UNL     1     -14.483  70.997  71.553  1.00  0.00    -0.504 OA
ATOM     19  H   UNL     1     -15.405  70.606  71.413  1.00  0.00     0.293 HD
ENDBRANCH  15  18
BRANCH  17  20
ATOM     20  O   UNL     1     -13.892  70.641  74.395  1.00  0.00    -0.504 OA
ATOM     21  H   UNL     1     -13.331  69.870  74.063  1.00  0.00     0.293 HD
ENDBRANCH  17  20
ENDBRANCH   1  12
BRANCH   2  22
ATOM     22  O   UNL     1     -15.650  75.510  75.822  1.00  0.00    -0.502 OA
ATOM     23  H   UNL     1     -16.209  75.551  76.666  1.00  0.00     0.293 HD
ENDBRANCH   2  22
BRANCH   6  24
ATOM     24  O   UNL     1     -12.935  79.410  78.229  1.00  0.00    -0.507 OA
ATOM     25  H   UNL     1     -12.779  80.344  78.577  1.00  0.00     0.293 HD
ENDBRANCH   6  24
BRANCH   8  26
ATOM     26  O   UNL     1      -8.892  79.356  75.669  1.00  0.00    -0.508 OA
ATOM     27  H   UNL     1      -8.051  78.970  76.082  1.00  0.00     0.293 HD
ENDBRANCH   8  26
TORSDOF 6
ENDMDL
MODEL 8
REMARK VINA RESULT:    -5.070      3.014      7.989
REMARK INTER + INTRA:          -6.429
REMARK INTER:                  -6.106
REMARK INTRA:                  -0.323
REMARK UNBOUND:                -0.322
REMARK SMILES O=c1c(O)c(-c2ccc(O)c(O)c2)oc2cc(O)cc(O)c12
REMARK SMILES IDX 5 1 3 2 2 3 1 4 22 5 20 6 19 7 17 8 16 9 15 10 14 11 6 12
REMARK SMILES IDX 7 13 8 14 9 15 13 16 11 17 10 18 12 20 4 22 21 24 18 26
REMARK H PARENT 10 19 12 21 4 23 21 25 18 27
REMARK Flexibility Score: inf
ROOT
ATOM      1  C   UNL     1     -14.265  67.864  74.814  1.00  0.00     0.180 A 
ATOM      2  C   UNL     1     -15.604  67.898  75.239  1.00  0.00     0.208 A 
ATOM      3  C   UNL     1     -16.122  66.802  75.949  1.00  0.00     0.238 A 
ATOM      4  O   UNL     1     -17.304  66.862  76.374  1.00  0.00    -0.285 OA
ATOM      5  C   UNL     1     -15.299  65.680  76.209  1.00  0.00     0.111 A 
ATOM      6  C   UNL     1     -15.731  64.498  76.884  1.00  0.00     0.134 A 
ATOM      7  C   UNL     1     -14.797  63.504  77.202  1.00  0.00     0.093 A 
ATOM      8  C   UNL     1     -13.463  63.619  76.814  1.00  0.00     0.123 A 
ATOM      9  C   UNL     1     -13.043  64.743  76.101  1.00  0.00     0.094 A 
ATOM     10  C   UNL     1     -13.944  65.768  75.801  1.00  0.00     0.146 A 
ATOM     11  O   UNL     1     -13.500  66.826  75.131  1.00  0.00    -0.452 OA
ENDROOT
BRANCH   1  12
ATOM     12  C   UNL     1     -13.656  68.970  74.040  1.00  0.00     0.025 A 
ATOM     13  C   UNL     1     -13.770  68.978  72.642  1.00  0.00     0.016 A 
ATOM     14  C   UNL     1     -13.220  70.021  71.895  1.00  0.00     0.051 A 
ATOM     15  C   UNL     1     -12.561  71.083  72.527  1.00  0.00     0.157 A 
ATOM     16  C   UNL     1     -13.016  70.045  74.679  1.00  0.00     0.062 A 
ATOM     17  C   UNL     1     -12.464  71.098  73.938  1.00  0.00     0.158 A 
BRANCH  15  18
ATOM     18  O   UNL     1     -12.028  72.090  71.721  1.00  0.00    -0.504 OA
ATOM     19  H   UNL     1     -11.808  73.020  72.051  1.00  0.00     0.293 HD
ENDBRANCH  15  18
BRANCH  17  20
ATOM     20  O   UNL     1     -11.841  72.132  74.639  1.00  0.00    -0.504 OA
ATOM     21  H   UNL     1     -12.332  72.800  75.216  1.00  0.00     0.293 HD
ENDBRANCH  17  20
ENDBRANCH   1  12
BRANCH   2  22
ATOM     22  O   UNL     1     -16.393  69.025  74.991  1.00  0.00    -0.502 OA
ATOM     23  H   UNL     1     -16.473  69.789  75.650  1.00  0.00     0.293 HD
ENDBRANCH   2  22
BRANCH   6  24
ATOM     24  O   UNL     1     -17.060  64.241  77.236  1.00  0.00    -0.507 OA
ATOM     25  H   UNL     1     -17.589  63.438  76.932  1.00  0.00     0.293 HD
ENDBRANCH   6  24
BRANCH   8  26
ATOM     26  O   UNL     1     -12.564  62.604  77.133  1.00  0.00    -0.508 OA
ATOM     27  H   UNL     1     -12.818  61.845  77.754  1.00  0.00     0.293 HD
ENDBRANCH   8  26
TORSDOF 6
ENDMDL
MODEL 9
REMARK VINA RESULT:    -5.069      3.197      5.609
REMARK INTER + INTRA:          -6.428
REMARK INTER:                  -6.585
REMARK INTRA:                   0.157
REMARK UNBOUND:                -0.322
REMARK SMILES O=c1c(O)c(-c2ccc(O)c(O)c2)oc2cc(O)cc(O)c12
REMARK SMILES IDX 5 1 3 2 2 3 1 4 22 5 20 6 19 7 17 8 16 9 15 10 14 11 6 12
REMARK SMILES IDX 7 13 8 14 9 15 13 16 11 17 10 18 12 20 4 22 21 24 18 26
REMARK H PARENT 10 19 12 21 4 23 21 25 18 27
REMARK Flexibility Score: inf
ROOT
ATOM      1  C   UNL     1     -14.905  65.695  75.710  1.00  0.00     0.180 A 
ATOM      2  C   UNL     1     -13.733  65.735  74.935  1.00  0.00     0.208 A 
ATOM      3  C   UNL     1     -13.179  66.981  74.600  1.00  0.00     0.238 A 
ATOM      4  O   UNL     1     -12.101  67.007  73.952  1.00  0.00    -0.285 OA
ATOM      5  C   UNL     1     -13.813  68.171  75.029  1.00  0.00     0.111 A 
ATOM      6  C   UNL     1     -13.361  69.489  74.714  1.00  0.00     0.134 A 
ATOM      7  C   UNL     1     -13.991  70.593  75.301  1.00  0.00     0.093 A 
ATOM      8  C   UNL     1     -15.093  70.433  76.139  1.00  0.00     0.123 A 
ATOM      9  C   UNL     1     -15.580  69.152  76.407  1.00  0.00     0.094 A 
ATOM     10  C   UNL     1     -14.951  68.029  75.864  1.00  0.00     0.146 A 
ATOM     11  O   UNL     1     -15.439  66.828  76.153  1.00  0.00    -0.452 OA
ENDROOT
BRANCH   1  12
ATOM     12  C   UNL     1     -15.561  64.421  76.082  1.00  0.00     0.025 A 
ATOM     13  C   UNL     1     -16.203  64.313  77.324  1.00  0.00     0.016 A 
ATOM     14  C   UNL     1     -16.845  63.127  77.686  1.00  0.00     0.051 A 
ATOM     15  C   UNL     1     -16.873  62.034  76.812  1.00  0.00     0.157 A 
ATOM     16  C   UNL     1     -15.608  63.335  75.193  1.00  0.00     0.062 A 
ATOM     17  C   UNL     1     -16.252  62.142  75.545  1.00  0.00     0.158 A 
BRANCH  15  18
ATOM     18  O   UNL     1     -17.526  60.875  77.238  1.00  0.00    -0.504 OA
ATOM     19  H   UNL     1     -17.054  60.006  77.445  1.00  0.00     0.293 HD
ENDBRANCH  15  18
BRANCH  17  20
ATOM     20  O   UNL     1     -16.257  61.103  74.613  1.00  0.00    -0.504 OA
ATOM     21  H   UNL     1     -17.071  60.548  74.389  1.00  0.00     0.293 HD
ENDBRANCH  17  20
ENDBRANCH   1  12
BRANCH   2  22
ATOM     22  O   UNL     1     -13.112  64.546  74.539  1.00  0.00    -0.502 OA
ATOM     23  H   UNL     1     -12.339  64.528  73.885  1.00  0.00     0.293 HD
ENDBRANCH   2  22
BRANCH   6  24
ATOM     24  O   UNL     1     -12.326  69.765  73.815  1.00  0.00    -0.507 OA
ATOM     25  H   UNL     1     -11.949  69.104  73.152  1.00  0.00     0.293 HD
ENDBRANCH   6  24
BRANCH   8  26
ATOM     26  O   UNL     1     -15.704  71.554  76.694  1.00  0.00    -0.508 OA
ATOM     27  H   UNL     1     -16.311  71.483  77.503  1.00  0.00     0.293 HD
ENDBRANCH   8  26
TORSDOF 6
ENDMDL
