MODEL 1
REMARK VINA RESULT:    -6.629      0.000      0.000
REMARK INTER + INTRA:          -8.101
REMARK INTER:                  -7.792
REMARK INTRA:                  -0.309
REMARK UNBOUND:                -0.309
REMARK SMILES O=c1cc(-c2ccc(O)c(O)c2)oc2cc(O)cc(O)c12
REMARK SMILES IDX 4 1 3 2 2 3 1 4 21 5 19 6 18 7 16 8 15 9 14 10 13 11 5 12
REMARK SMILES IDX 6 13 7 14 8 15 12 16 10 17 9 18 11 20 20 22 17 24
REMARK H PARENT 9 19 11 21 20 23 17 25
REMARK Flexibility Score: inf
ROOT
ATOM      1  C   UNL     1      15.743  15.722  11.818  1.00  0.00     0.138 A 
ATOM      2  C   UNL     1      16.582  15.748  10.692  1.00  0.00     0.100 A 
ATOM      3  C   UNL     1      16.062  16.135   9.456  1.00  0.00     0.197 A 
ATOM      4  O   UNL     1      16.824  16.158   8.452  1.00  0.00    -0.289 OA
ATOM      5  C   UNL     1      14.703  16.496   9.356  1.00  0.00     0.107 A 
ATOM      6  C   UNL     1      14.097  16.898   8.142  1.00  0.00     0.134 A 
ATOM      7  C   UNL     1      12.739  17.247   8.127  1.00  0.00     0.093 A 
ATOM      8  C   UNL     1      11.978  17.203   9.301  1.00  0.00     0.123 A 
ATOM      9  C   UNL     1      12.572  16.806  10.500  1.00  0.00     0.094 A 
ATOM     10  C   UNL     1      13.924  16.453  10.537  1.00  0.00     0.146 A 
ATOM     11  O   UNL     1      14.466  16.078  11.691  1.00  0.00    -0.456 OA
ENDROOT
BRANCH   1  12
ATOM     12  C   UNL     1      16.241  15.319  13.158  1.00  0.00     0.021 A 
ATOM     13  C   UNL     1      17.355  14.467  13.252  1.00  0.00     0.016 A 
ATOM     14  C   UNL     1      17.848  14.079  14.501  1.00  0.00     0.051 A 
ATOM     15  C   UNL     1      17.245  14.540  15.674  1.00  0.00     0.157 A 
ATOM     16  C   UNL     1      15.644  15.792  14.343  1.00  0.00     0.062 A 
ATOM     17  C   UNL     1      16.140  15.403  15.597  1.00  0.00     0.158 A 
BRANCH  15  18
ATOM     18  O   UNL     1      17.758  14.133  16.905  1.00  0.00    -0.504 OA
ATOM     19  H   UNL     1      17.280  13.458  17.490  1.00  0.00     0.293 HD
ENDBRANCH  15  18
BRANCH  17  20
ATOM     20  O   UNL     1      15.541  15.875  16.763  1.00  0.00    -0.504 OA
ATOM     21  H   UNL     1      14.725  16.475  16.736  1.00  0.00     0.293 HD
ENDBRANCH  17  20
ENDBRANCH   1  12
BRANCH   6  22
ATOM     22  O   UNL     1      14.831  16.954   6.956  1.00  0.00    -0.507 OA
ATOM     23  H   UNL     1      15.518  17.679   6.789  1.00  0.00     0.293 HD
ENDBRANCH   6  22
BRANCH   8  24
ATOM     24  O   UNL     1      10.628  17.549   9.286  1.00  0.00    -0.508 OA
ATOM     25  H   UNL     1      10.157  17.808   8.427  1.00  0.00     0.293 HD
ENDBRANCH   8  24
TORSDOF 5
ENDMDL
MODEL 2
REMARK VINA RESULT:    -6.574      0.692      1.548
REMARK INTER + INTRA:          -8.036
REMARK INTER:                  -7.747
REMARK INTRA:                  -0.289
REMARK UNBOUND:                -0.309
REMARK SMILES O=c1cc(-c2ccc(O)c(O)c2)oc2cc(O)cc(O)c12
REMARK SMILES IDX 4 1 3 2 2 3 1 4 21 5 19 6 18 7 16 8 15 9 14 10 13 11 5 12
REMARK SMILES IDX 6 13 7 14 8 15 12 16 10 17 9 18 11 20 20 22 17 24
REMARK H PARENT 9 19 11 21 20 23 17 25
REMARK Flexibility Score: inf
ROOT
ATOM      1  C   UNL     1      15.871  15.616  11.643  1.00  0.00     0.138 A 
ATOM      2  C   UNL     1      16.675  15.646  10.491  1.00  0.00     0.100 A 
ATOM      3  C   UNL     1      16.121  16.060   9.278  1.00  0.00     0.197 A 
ATOM      4  O   UNL     1      16.851  16.085   8.251  1.00  0.00    -0.289 OA
ATOM      5  C   UNL     1      14.766  16.444   9.227  1.00  0.00     0.107 A 
ATOM      6  C   UNL     1      14.128  16.874   8.040  1.00  0.00     0.134 A 
ATOM      7  C   UNL     1      12.776  17.245   8.073  1.00  0.00     0.093 A 
ATOM      8  C   UNL     1      12.052  17.195   9.271  1.00  0.00     0.123 A 
ATOM      9  C   UNL     1      12.678  16.771  10.444  1.00  0.00     0.094 A 
ATOM     10  C   UNL     1      14.025  16.395  10.431  1.00  0.00     0.146 A 
ATOM     11  O   UNL     1      14.597  15.994  11.562  1.00  0.00    -0.456 OA
ENDROOT
BRANCH   1  12
ATOM     12  C   UNL     1      16.405  15.185  12.960  1.00  0.00     0.021 A 
ATOM     13  C   UNL     1      15.849  15.714  14.137  1.00  0.00     0.016 A 
ATOM     14  C   UNL     1      16.328  15.321  15.389  1.00  0.00     0.051 A 
ATOM     15  C   UNL     1      17.364  14.387  15.488  1.00  0.00     0.157 A 
ATOM     16  C   UNL     1      17.440  14.235  13.065  1.00  0.00     0.062 A 
ATOM     17  C   UNL     1      17.921  13.839  14.322  1.00  0.00     0.158 A 
BRANCH  15  18
ATOM     18  O   UNL     1      17.823  14.016  16.751  1.00  0.00    -0.504 OA
ATOM     19  H   UNL     1      17.462  13.203  17.236  1.00  0.00     0.293 HD
ENDBRANCH  15  18
BRANCH  17  20
ATOM     20  O   UNL     1      18.946  12.899  14.415  1.00  0.00    -0.504 OA
ATOM     21  H   UNL     1      18.793  11.923  14.191  1.00  0.00     0.293 HD
ENDBRANCH  17  20
ENDBRANCH   1  12
BRANCH   6  22
ATOM     22  O   UNL     1      14.825  16.936   6.832  1.00  0.00    -0.507 OA
ATOM     23  H   UNL     1      15.225  17.802   6.492  1.00  0.00     0.293 HD
ENDBRANCH   6  22
BRANCH   8  24
ATOM     24  O   UNL     1      10.709  17.563   9.304  1.00  0.00    -0.508 OA
ATOM     25  H   UNL     1      10.377  18.399   8.837  1.00  0.00     0.293 HD
ENDBRANCH   8  24
TORSDOF 5
ENDMDL
MODEL 3
REMARK VINA RESULT:    -6.534      2.041      6.942
REMARK INTER + INTRA:          -7.989
REMARK INTER:                  -7.697
REMARK INTRA:                  -0.292
REMARK UNBOUND:                -0.309
REMARK SMILES O=c1cc(-c2ccc(O)c(O)c2)oc2cc(O)cc(O)c12
REMARK SMILES IDX 4 1 3 2 2 3 1 4 21 5 19 6 18 7 16 8 15 9 14 10 13 11 5 12
REMARK SMILES IDX 6 13 7 14 8 15 12 16 10 17 9 18 11 20 20 22 17 24
REMARK H PARENT 9 19 11 21 20 23 17 25
REMARK Flexibility Score: inf
ROOT
ATOM      1  C   UNL     1      14.750  15.501  12.615  1.00  0.00     0.138 A 
ATOM      2  C   UNL     1      15.680  14.565  12.134  1.00  0.00     0.100 A 
ATOM      3  C   UNL     1      16.670  14.079  12.990  1.00  0.00     0.197 A 
ATOM      4  O   UNL     1      17.499  13.237  12.550  1.00  0.00    -0.289 OA
ATOM      5  C   UNL     1      16.722  14.532  14.323  1.00  0.00     0.107 A 
ATOM      6  C   UNL     1      17.692  14.091  15.254  1.00  0.00     0.134 A 
ATOM      7  C   UNL     1      17.671  14.587  16.565  1.00  0.00     0.093 A 
ATOM      8  C   UNL     1      16.699  15.512  16.963  1.00  0.00     0.123 A 
ATOM      9  C   UNL     1      15.740  15.950  16.048  1.00  0.00     0.094 A 
ATOM     10  C   UNL     1      15.744  15.469  14.735  1.00  0.00     0.146 A 
ATOM     11  O   UNL     1      14.820  15.902  13.883  1.00  0.00    -0.456 OA
ENDROOT
BRANCH   1  12
ATOM     12  C   UNL     1      13.676  16.052  11.752  1.00  0.00     0.021 A 
ATOM     13  C   UNL     1      13.989  16.489  10.453  1.00  0.00     0.016 A 
ATOM     14  C   UNL     1      12.996  17.005   9.617  1.00  0.00     0.051 A 
ATOM     15  C   UNL     1      11.672  17.087  10.059  1.00  0.00     0.157 A 
ATOM     16  C   UNL     1      12.338  16.125  12.188  1.00  0.00     0.062 A 
ATOM     17  C   UNL     1      11.340  16.643  11.349  1.00  0.00     0.158 A 
BRANCH  15  18
ATOM     18  O   UNL     1      10.703  17.609   9.204  1.00  0.00    -0.504 OA
ATOM     19  H   UNL     1      10.939  18.237   8.444  1.00  0.00     0.293 HD
ENDBRANCH  15  18
BRANCH  17  20
ATOM     20  O   UNL     1      10.020  16.711  11.791  1.00  0.00    -0.504 OA
ATOM     21  H   UNL     1       9.405  15.906  11.756  1.00  0.00     0.293 HD
ENDBRANCH  17  20
ENDBRANCH   1  12
BRANCH   6  22
ATOM     22  O   UNL     1      18.672  13.168  14.887  1.00  0.00    -0.507 OA
ATOM     23  H   UNL     1      19.594  13.173  15.308  1.00  0.00     0.293 HD
ENDBRANCH   6  22
BRANCH   8  24
ATOM     24  O   UNL     1      16.678  16.005  18.266  1.00  0.00    -0.508 OA
ATOM     25  H   UNL     1      16.495  15.400  19.058  1.00  0.00     0.293 HD
ENDBRANCH   8  24
TORSDOF 5
ENDMDL
MODEL 4
REMARK VINA RESULT:    -6.527      1.584      3.208
REMARK INTER + INTRA:          -7.981
REMARK INTER:                  -7.687
REMARK INTRA:                  -0.294
REMARK UNBOUND:                -0.309
REMARK SMILES O=c1cc(-c2ccc(O)c(O)c2)oc2cc(O)cc(O)c12
REMARK SMILES IDX 4 1 3 2 2 3 1 4 21 5 19 6 18 7 16 8 15 9 14 10 13 11 5 12
REMARK SMILES IDX 6 13 7 14 8 15 12 16 10 17 9 18 11 20 20 22 17 24
REMARK H PARENT 9 19 11 21 20 23 17 25
REMARK Flexibility Score: inf
ROOT
ATOM      1  C   UNL     1      15.588  16.049  12.943  1.00  0.00     0.138 A 
ATOM      2  C   UNL     1      14.203  16.197  12.763  1.00  0.00     0.100 A 
ATOM      3  C   UNL     1      13.713  16.637  11.532  1.00  0.00     0.197 A 
ATOM      4  O   UNL     1      12.469  16.765  11.379  1.00  0.00    -0.289 OA
ATOM      5  C   UNL     1      14.615  16.924  10.488  1.00  0.00     0.107 A 
ATOM      6  C   UNL     1      14.203  17.375   9.211  1.00  0.00     0.134 A 
ATOM      7  C   UNL     1      15.163  17.633   8.222  1.00  0.00     0.093 A 
ATOM      8  C   UNL     1      16.526  17.448   8.486  1.00  0.00     0.123 A 
ATOM      9  C   UNL     1      16.936  17.003   9.743  1.00  0.00     0.094 A 
ATOM     10  C   UNL     1      15.995  16.741  10.743  1.00  0.00     0.146 A 
ATOM     11  O   UNL     1      16.412  16.319  11.933  1.00  0.00    -0.456 OA
ENDROOT
BRANCH   1  12
ATOM     12  C   UNL     1      16.165  15.584  14.230  1.00  0.00     0.021 A 
ATOM     13  C   UNL     1      15.675  16.112  15.437  1.00  0.00     0.016 A 
ATOM     14  C   UNL     1      16.196  15.687  16.661  1.00  0.00     0.051 A 
ATOM     15  C   UNL     1      17.208  14.723  16.703  1.00  0.00     0.157 A 
ATOM     16  C   UNL     1      17.175  14.604  14.277  1.00  0.00     0.062 A 
ATOM     17  C   UNL     1      17.698  14.176  15.507  1.00  0.00     0.158 A 
BRANCH  15  18
ATOM     18  O   UNL     1      17.709  14.321  17.940  1.00  0.00    -0.504 OA
ATOM     19  H   UNL     1      17.335  13.521  18.438  1.00  0.00     0.293 HD
ENDBRANCH  15  18
BRANCH  17  20
ATOM     20  O   UNL     1      18.698  13.205  15.543  1.00  0.00    -0.504 OA
ATOM     21  H   UNL     1      18.642  12.407  16.165  1.00  0.00     0.293 HD
ENDBRANCH  17  20
ENDBRANCH   1  12
BRANCH   6  22
ATOM     22  O   UNL     1      12.852  17.568   8.919  1.00  0.00    -0.507 OA
ATOM     23  H   UNL     1      12.227  18.033   9.568  1.00  0.00     0.293 HD
ENDBRANCH   6  22
BRANCH   8  24
ATOM     24  O   UNL     1      17.480  17.704   7.504  1.00  0.00    -0.508 OA
ATOM     25  H   UNL     1      17.245  18.203   6.654  1.00  0.00     0.293 HD
ENDBRANCH   8  24
TORSDOF 5
ENDMDL
MODEL 5
REMARK VINA RESULT:    -6.375      1.489      1.908
REMARK INTER + INTRA:          -7.802
REMARK INTER:                  -7.515
REMARK INTRA:                  -0.287
REMARK UNBOUND:                -0.309
REMARK SMILES O=c1cc(-c2ccc(O)c(O)c2)oc2cc(O)cc(O)c12
REMARK SMILES IDX 4 1 3 2 2 3 1 4 21 5 19 6 18 7 16 8 15 9 14 10 13 11 5 12
REMARK SMILES IDX 6 13 7 14 8 15 12 16 10 17 9 18 11 20 20 22 17 24
REMARK H PARENT 9 19 11 21 20 23 17 25
REMARK Flexibility Score: inf
ROOT
ATOM      1  C   UNL     1      15.591  15.211  11.769  1.00  0.00     0.138 A 
ATOM      2  C   UNL     1      15.970  15.764  10.535  1.00  0.00     0.100 A 
ATOM      3  C   UNL     1      15.017  16.425   9.757  1.00  0.00     0.197 A 
ATOM      4  O   UNL     1      15.367  16.920   8.652  1.00  0.00    -0.289 OA
ATOM      5  C   UNL     1      13.691  16.529  10.221  1.00  0.00     0.107 A 
ATOM      6  C   UNL     1      12.665  17.180   9.496  1.00  0.00     0.134 A 
ATOM      7  C   UNL     1      11.371  17.246  10.031  1.00  0.00     0.093 A 
ATOM      8  C   UNL     1      11.083  16.674  11.276  1.00  0.00     0.123 A 
ATOM      9  C   UNL     1      12.092  16.031  11.995  1.00  0.00     0.094 A 
ATOM     10  C   UNL     1      13.389  15.954  11.479  1.00  0.00     0.146 A 
ATOM     11  O   UNL     1      14.332  15.335  12.183  1.00  0.00    -0.456 OA
ENDROOT
BRANCH   1  12
ATOM     12  C   UNL     1      16.561  14.498  12.638  1.00  0.00     0.021 A 
ATOM     13  C   UNL     1      17.365  13.485  12.089  1.00  0.00     0.016 A 
ATOM     14  C   UNL     1      18.291  12.803  12.883  1.00  0.00     0.051 A 
ATOM     15  C   UNL     1      18.435  13.126  14.236  1.00  0.00     0.157 A 
ATOM     16  C   UNL     1      16.719  14.829  13.998  1.00  0.00     0.062 A 
ATOM     17  C   UNL     1      17.649  14.145  14.796  1.00  0.00     0.158 A 
BRANCH  15  18
ATOM     18  O   UNL     1      19.365  12.426  15.003  1.00  0.00    -0.504 OA
ATOM     19  H   UNL     1      19.771  11.552  14.691  1.00  0.00     0.293 HD
ENDBRANCH  15  18
BRANCH  17  20
ATOM     20  O   UNL     1      17.798  14.480  16.141  1.00  0.00    -0.504 OA
ATOM     21  H   UNL     1      18.688  14.783  16.518  1.00  0.00     0.293 HD
ENDBRANCH  17  20
ENDBRANCH   1  12
BRANCH   6  22
ATOM     22  O   UNL     1      12.922  17.760   8.252  1.00  0.00    -0.507 OA
ATOM     23  H   UNL     1      12.969  17.206   7.405  1.00  0.00     0.293 HD
ENDBRANCH   6  22
BRANCH   8  24
ATOM     24  O   UNL     1       9.797  16.739  11.808  1.00  0.00    -0.508 OA
ATOM     25  H   UNL     1       9.156  15.958  11.740  1.00  0.00     0.293 HD
ENDBRANCH   8  24
TORSDOF 5
ENDMDL
MODEL 6
REMARK VINA RESULT:    -6.343      1.311      1.668
REMARK INTER + INTRA:          -7.765
REMARK INTER:                  -7.474
REMARK INTRA:                  -0.291
REMARK UNBOUND:                -0.309
REMARK SMILES O=c1cc(-c2ccc(O)c(O)c2)oc2cc(O)cc(O)c12
REMARK SMILES IDX 4 1 3 2 2 3 1 4 21 5 19 6 18 7 16 8 15 9 14 10 13 11 5 12
REMARK SMILES IDX 6 13 7 14 8 15 12 16 10 17 9 18 11 20 20 22 17 24
REMARK H PARENT 9 19 11 21 20 23 17 25
REMARK Flexibility Score: inf
ROOT
ATOM      1  C   UNL     1      16.878  15.813  12.221  1.00  0.00     0.138 A 
ATOM      2  C   UNL     1      18.034  16.087  11.471  1.00  0.00     0.100 A 
ATOM      3  C   UNL     1      17.909  16.611  10.184  1.00  0.00     0.197 A 
ATOM      4  O   UNL     1      18.951  16.856   9.519  1.00  0.00    -0.289 OA
ATOM      5  C   UNL     1      16.626  16.860   9.656  1.00  0.00     0.107 A 
ATOM      6  C   UNL     1      16.411  17.389   8.361  1.00  0.00     0.134 A 
ATOM      7  C   UNL     1      15.102  17.614   7.912  1.00  0.00     0.093 A 
ATOM      8  C   UNL     1      14.005  17.321   8.732  1.00  0.00     0.123 A 
ATOM      9  C   UNL     1      14.213  16.800  10.010  1.00  0.00     0.094 A 
ATOM     10  C   UNL     1      15.511  16.567  10.477  1.00  0.00     0.146 A 
ATOM     11  O   UNL     1      15.682  16.069  11.697  1.00  0.00    -0.456 OA
ENDROOT
BRANCH   1  12
ATOM     12  C   UNL     1      16.951  15.255  13.595  1.00  0.00     0.021 A 
ATOM     13  C   UNL     1      17.806  14.171  13.856  1.00  0.00     0.016 A 
ATOM     14  C   UNL     1      17.898  13.631  15.142  1.00  0.00     0.051 A 
ATOM     15  C   UNL     1      17.145  14.169  16.190  1.00  0.00     0.157 A 
ATOM     16  C   UNL     1      16.204  15.802  14.657  1.00  0.00     0.062 A 
ATOM     17  C   UNL     1      16.297  15.261  15.949  1.00  0.00     0.158 A 
BRANCH  15  18
ATOM     18  O   UNL     1      17.257  13.608  17.461  1.00  0.00    -0.504 OA
ATOM     19  H   UNL     1      16.457  13.504  18.075  1.00  0.00     0.293 HD
ENDBRANCH  15  18
BRANCH  17  20
ATOM     20  O   UNL     1      15.553  15.809  16.992  1.00  0.00    -0.504 OA
ATOM     21  H   UNL     1      14.549  15.687  17.050  1.00  0.00     0.293 HD
ENDBRANCH  17  20
ENDBRANCH   1  12
BRANCH   6  22
ATOM     22  O   UNL     1      17.484  17.692   7.522  1.00  0.00    -0.507 OA
ATOM     23  H   UNL     1      17.918  18.608   7.521  1.00  0.00     0.293 HD
ENDBRANCH   6  22
BRANCH   8  24
ATOM     24  O   UNL     1      12.705  17.544   8.286  1.00  0.00    -0.508 OA
ATOM     25  H   UNL     1      11.924  17.002   8.637  1.00  0.00     0.293 HD
ENDBRANCH   8  24
TORSDOF 5
ENDMDL
MODEL 7
REMARK VINA RESULT:    -6.258      1.441      7.272
REMARK INTER + INTRA:          -7.664
REMARK INTER:                  -7.374
REMARK INTRA:                  -0.290
REMARK UNBOUND:                -0.309
REMARK SMILES O=c1cc(-c2ccc(O)c(O)c2)oc2cc(O)cc(O)c12
REMARK SMILES IDX 4 1 3 2 2 3 1 4 21 5 19 6 18 7 16 8 15 9 14 10 13 11 5 12
REMARK SMILES IDX 6 13 7 14 8 15 12 16 10 17 9 18 11 20 20 22 17 24
REMARK H PARENT 9 19 11 21 20 23 17 25
REMARK Flexibility Score: inf
ROOT
ATOM      1  C   UNL     1      15.724  16.148  12.029  1.00  0.00     0.138 A 
ATOM      2  C   UNL     1      15.132  16.935  13.031  1.00  0.00     0.100 A 
ATOM      3  C   UNL     1      15.413  16.665  14.371  1.00  0.00     0.197 A 
ATOM      4  O   UNL     1      14.878  17.379  15.263  1.00  0.00    -0.289 OA
ATOM      5  C   UNL     1      16.286  15.610  14.701  1.00  0.00     0.107 A 
ATOM      6  C   UNL     1      16.622  15.270  16.032  1.00  0.00     0.134 A 
ATOM      7  C   UNL     1      17.505  14.208  16.276  1.00  0.00     0.093 A 
ATOM      8  C   UNL     1      18.058  13.482  15.215  1.00  0.00     0.123 A 
ATOM      9  C   UNL     1      17.730  13.814  13.900  1.00  0.00     0.094 A 
ATOM     10  C   UNL     1      16.850  14.869  13.635  1.00  0.00     0.146 A 
ATOM     11  O   UNL     1      16.553  15.165  12.374  1.00  0.00    -0.456 OA
ENDROOT
BRANCH   1  12
ATOM     12  C   UNL     1      15.464  16.389  10.587  1.00  0.00     0.021 A 
ATOM     13  C   UNL     1      16.432  16.016   9.639  1.00  0.00     0.016 A 
ATOM     14  C   UNL     1      16.209  16.225   8.276  1.00  0.00     0.051 A 
ATOM     15  C   UNL     1      15.014  16.801   7.835  1.00  0.00     0.157 A 
ATOM     16  C   UNL     1      14.256  16.958  10.138  1.00  0.00     0.062 A 
ATOM     17  C   UNL     1      14.031  17.167   8.768  1.00  0.00     0.158 A 
BRANCH  15  18
ATOM     18  O   UNL     1      14.821  17.000   6.469  1.00  0.00    -0.504 OA
ATOM     19  H   UNL     1      14.461  16.270   5.865  1.00  0.00     0.293 HD
ENDBRANCH  15  18
BRANCH  17  20
ATOM     20  O   UNL     1      12.833  17.732   8.334  1.00  0.00    -0.504 OA
ATOM     21  H   UNL     1      12.659  18.727   8.403  1.00  0.00     0.293 HD
ENDBRANCH  17  20
ENDBRANCH   1  12
BRANCH   6  22
ATOM     22  O   UNL     1      16.087  15.976  17.111  1.00  0.00    -0.507 OA
ATOM     23  H   UNL     1      16.637  16.184  17.937  1.00  0.00     0.293 HD
ENDBRANCH   6  22
BRANCH   8  24
ATOM     24  O   UNL     1      18.935  12.427  15.457  1.00  0.00    -0.508 OA
ATOM     25  H   UNL     1      18.616  11.555  15.862  1.00  0.00     0.293 HD
ENDBRANCH   8  24
TORSDOF 5
ENDMDL
MODEL 8
REMARK VINA RESULT:    -6.188      1.484      7.032
REMARK INTER + INTRA:          -7.582
REMARK INTER:                  -7.292
REMARK INTRA:                  -0.290
REMARK UNBOUND:                -0.309
REMARK SMILES O=c1cc(-c2ccc(O)c(O)c2)oc2cc(O)cc(O)c12
REMARK SMILES IDX 4 1 3 2 2 3 1 4 21 5 19 6 18 7 16 8 15 9 14 10 13 11 5 12
REMARK SMILES IDX 6 13 7 14 8 15 12 16 10 17 9 18 11 20 20 22 17 24
REMARK H PARENT 9 19 11 21 20 23 17 25
REMARK Flexibility Score: inf
ROOT
ATOM      1  C   UNL     1      15.756  15.474  11.759  1.00  0.00     0.138 A 
ATOM      2  C   UNL     1      16.776  14.531  11.552  1.00  0.00     0.100 A 
ATOM      3  C   UNL     1      17.477  14.024  12.648  1.00  0.00     0.197 A 
ATOM      4  O   UNL     1      18.388  13.176  12.451  1.00  0.00    -0.289 OA
ATOM      5  C   UNL     1      17.150  14.464  13.946  1.00  0.00     0.107 A 
ATOM      6  C   UNL     1      17.811  14.003  15.109  1.00  0.00     0.134 A 
ATOM      7  C   UNL     1      17.422  14.486  16.366  1.00  0.00     0.093 A 
ATOM      8  C   UNL     1      16.385  15.420  16.482  1.00  0.00     0.123 A 
ATOM      9  C   UNL     1      15.731  15.878  15.338  1.00  0.00     0.094 A 
ATOM     10  C   UNL     1      16.104  15.409  14.074  1.00  0.00     0.146 A 
ATOM     11  O   UNL     1      15.466  15.862  13.000  1.00  0.00    -0.456 OA
ENDROOT
BRANCH   1  12
ATOM     12  C   UNL     1      14.977  16.047  10.632  1.00  0.00     0.021 A 
ATOM     13  C   UNL     1      13.672  16.513  10.862  1.00  0.00     0.016 A 
ATOM     14  C   UNL     1      12.920  17.063   9.821  1.00  0.00     0.051 A 
ATOM     15  C   UNL     1      13.460  17.164   8.535  1.00  0.00     0.157 A 
ATOM     16  C   UNL     1      15.522  16.162   9.338  1.00  0.00     0.062 A 
ATOM     17  C   UNL     1      14.768  16.715   8.293  1.00  0.00     0.158 A 
BRANCH  15  18
ATOM     18  O   UNL     1      12.685  17.715   7.516  1.00  0.00    -0.504 OA
ATOM     19  H   UNL     1      12.417  17.182   6.697  1.00  0.00     0.293 HD
ENDBRANCH  15  18
BRANCH  17  20
ATOM     20  O   UNL     1      15.316  16.824   7.015  1.00  0.00    -0.504 OA
ATOM     21  H   UNL     1      16.167  16.337   6.760  1.00  0.00     0.293 HD
ENDBRANCH  17  20
ENDBRANCH   1  12
BRANCH   6  22
ATOM     22  O   UNL     1      18.846  13.071  15.025  1.00  0.00    -0.507 OA
ATOM     23  H   UNL     1      19.524  13.093  14.271  1.00  0.00     0.293 HD
ENDBRANCH   6  22
BRANCH   8  24
ATOM     24  O   UNL     1      15.998  15.900  17.731  1.00  0.00    -0.508 OA
ATOM     25  H   UNL     1      16.573  15.760  18.554  1.00  0.00     0.293 HD
ENDBRANCH   8  24
TORSDOF 5
ENDMDL
MODEL 9
REMARK VINA RESULT:    -6.076      5.995      7.798
REMARK INTER + INTRA:          -7.450
REMARK INTER:                  -7.155
REMARK INTRA:                  -0.295
REMARK UNBOUND:                -0.309
REMARK SMILES O=c1cc(-c2ccc(O)c(O)c2)oc2cc(O)cc(O)c12
REMARK SMILES IDX 4 1 3 2 2 3 1 4 21 5 19 6 18 7 16 8 15 9 14 10 13 11 5 12
REMARK SMILES IDX 6 13 7 14 8 15 12 16 10 17 9 18 11 20 20 22 17 24
REMARK H PARENT 9 19 11 21 20 23 17 25
REMARK Flexibility Score: inf
ROOT
ATOM      1  C   UNL     1      15.640  11.419  16.658  1.00  0.00     0.138 A 
ATOM      2  C   UNL     1      15.324  12.063  15.450  1.00  0.00     0.100 A 
ATOM      3  C   UNL     1      14.435  11.457  14.561  1.00  0.00     0.197 A 
ATOM      4  O   UNL     1      14.157  12.043  13.481  1.00  0.00    -0.289 OA
ATOM      5  C   UNL     1      13.866  10.210  14.888  1.00  0.00     0.107 A 
ATOM      6  C   UNL     1      12.958   9.528  14.044  1.00  0.00     0.134 A 
ATOM      7  C   UNL     1      12.431   8.292  14.445  1.00  0.00     0.093 A 
ATOM      8  C   UNL     1      12.793   7.727  15.673  1.00  0.00     0.123 A 
ATOM      9  C   UNL     1      13.688   8.396  16.509  1.00  0.00     0.094 A 
ATOM     10  C   UNL     1      14.226   9.629  16.127  1.00  0.00     0.146 A 
ATOM     11  O   UNL     1      15.077  10.246  16.941  1.00  0.00    -0.456 OA
ENDROOT
BRANCH   1  12
ATOM     12  C   UNL     1      16.578  12.016  17.642  1.00  0.00     0.021 A 
ATOM     13  C   UNL     1      17.071  11.225  18.694  1.00  0.00     0.016 A 
ATOM     14  C   UNL     1      17.960  11.760  19.630  1.00  0.00     0.051 A 
ATOM     15  C   UNL     1      18.379  13.089  19.527  1.00  0.00     0.157 A 
ATOM     16  C   UNL     1      17.013  13.351  17.535  1.00  0.00     0.062 A 
ATOM     17  C   UNL     1      17.907  13.889  18.474  1.00  0.00     0.158 A 
BRANCH  15  18
ATOM     18  O   UNL     1      19.265  13.595  20.477  1.00  0.00    -0.504 OA
ATOM     19  H   UNL     1      20.175  13.179  20.639  1.00  0.00     0.293 HD
ENDBRANCH  15  18
BRANCH  17  20
ATOM     20  O   UNL     1      18.331  15.212  18.359  1.00  0.00    -0.504 OA
ATOM     21  H   UNL     1      18.730  15.712  19.145  1.00  0.00     0.293 HD
ENDBRANCH  17  20
ENDBRANCH   1  12
BRANCH   6  22
ATOM     22  O   UNL     1      12.578  10.067  12.814  1.00  0.00    -0.507 OA
ATOM     23  H   UNL     1      13.088  10.831  12.386  1.00  0.00     0.293 HD
ENDBRANCH   6  22
BRANCH   8  24
ATOM     24  O   UNL     1      12.269   6.500  16.072  1.00  0.00    -0.508 OA
ATOM     25  H   UNL     1      11.828   5.872  15.411  1.00  0.00     0.293 HD
ENDBRANCH   8  24
TORSDOF 5
ENDMDL
