MODEL 1
REMARK VINA RESULT:    25.883      0.000      0.000
REMARK INTER + INTRA:          30.891
REMARK INTER:                  31.179
REMARK INTRA:                  -0.288
REMARK UNBOUND:                -0.288
REMARK SMILES Oc1cc(O)c2cc(O)c(-c3ccc(O)c(O)c3)[o+]c2c1
REMARK SMILES IDX 10 1 19 2 20 3 21 4 2 5 3 6 4 7 6 8 7 9 8 10 11 11 12 12
REMARK SMILES IDX 13 13 14 14 18 15 16 16 15 17 17 19 9 21 1 23 5 25
REMARK H PARENT 15 18 17 20 9 22 1 24 5 26
REMARK Flexibility Score: inf
ROOT
ATOM      1  C   UNL     1      20.139 -12.632 -15.511  1.00  0.00     0.402 A 
ATOM      2  O   UNL     1      20.188 -12.728 -16.836  1.00  0.00    -0.202 OA
ATOM      3  C   UNL     1      21.237 -12.349 -17.559  1.00  0.00     0.368 A 
ATOM      4  C   UNL     1      21.193 -12.486 -18.948  1.00  0.00     0.162 A 
ATOM      5  C   UNL     1      22.281 -12.092 -19.732  1.00  0.00     0.128 A 
ATOM      6  C   UNL     1      23.419 -11.558 -19.122  1.00  0.00     0.093 A 
ATOM      7  C   UNL     1      23.489 -11.410 -17.732  1.00  0.00     0.136 A 
ATOM      8  C   UNL     1      22.387 -11.811 -16.932  1.00  0.00     0.125 A 
ATOM      9  C   UNL     1      22.374 -11.712 -15.531  1.00  0.00     0.078 A 
ATOM     10  C   UNL     1      21.253 -12.132 -14.809  1.00  0.00     0.223 A 
ENDROOT
BRANCH   1  11
ATOM     11  C   UNL     1      18.909 -13.079 -14.820  1.00  0.00     0.087 A 
ATOM     12  C   UNL     1      18.030 -12.122 -14.287  1.00  0.00     0.022 A 
ATOM     13  C   UNL     1      16.873 -12.521 -13.612  1.00  0.00     0.051 A 
ATOM     14  C   UNL     1      16.586 -13.882 -13.449  1.00  0.00     0.157 A 
ATOM     15  C   UNL     1      18.626 -14.445 -14.635  1.00  0.00     0.068 A 
ATOM     16  C   UNL     1      17.465 -14.845 -13.957  1.00  0.00     0.158 A 
BRANCH  14  17
ATOM     17  O   UNL     1      15.431 -14.284 -12.778  1.00  0.00    -0.504 OA
ATOM     18  H   UNL     1      15.097 -13.792 -11.958  1.00  0.00     0.293 HD
ENDBRANCH  14  17
BRANCH  16  19
ATOM     19  O   UNL     1      17.184 -16.199 -13.780  1.00  0.00    -0.504 OA
ATOM     20  H   UNL     1      17.427 -16.888 -14.483  1.00  0.00     0.293 HD
ENDBRANCH  16  19
ENDBRANCH   1  11
BRANCH  10  21
ATOM     21  O   UNL     1      21.258 -12.081 -13.415  1.00  0.00    -0.500 OA
ATOM     22  H   UNL     1      21.329 -12.921 -12.852  1.00  0.00     0.294 HD
ENDBRANCH  10  21
BRANCH   5  23
ATOM     23  O   UNL     1      22.244 -12.225 -21.118  1.00  0.00    -0.507 OA
ATOM     24  H   UNL     1      22.970 -12.722 -21.622  1.00  0.00     0.293 HD
ENDBRANCH   5  23
BRANCH   7  25
ATOM     25  O   UNL     1      24.661 -10.865 -17.200  1.00  0.00    -0.507 OA
ATOM     26  H   UNL     1      25.404 -10.459 -17.751  1.00  0.00     0.293 HD
ENDBRANCH   7  25
TORSDOF 6
ENDMDL
MODEL 2
REMARK VINA RESULT:    25.988      1.106      2.629
REMARK INTER + INTRA:          31.018
REMARK INTER:                  31.351
REMARK INTRA:                  -0.333
REMARK UNBOUND:                -0.288
REMARK SMILES Oc1cc(O)c2cc(O)c(-c3ccc(O)c(O)c3)[o+]c2c1
REMARK SMILES IDX 10 1 19 2 20 3 21 4 2 5 3 6 4 7 6 8 7 9 8 10 11 11 12 12
REMARK SMILES IDX 13 13 14 14 18 15 16 16 15 17 17 19 9 21 1 23 5 25
REMARK H PARENT 15 18 17 20 9 22 1 24 5 26
REMARK Flexibility Score: inf
ROOT
ATOM      1  C   UNL     1      20.061 -12.699 -16.353  1.00  0.00     0.402 A 
ATOM      2  O   UNL     1      21.209 -12.209 -15.894  1.00  0.00    -0.202 OA
ATOM      3  C   UNL     1      22.195 -11.796 -16.684  1.00  0.00     0.368 A 
ATOM      4  C   UNL     1      23.366 -11.299 -16.108  1.00  0.00     0.162 A 
ATOM      5  C   UNL     1      24.420 -10.861 -16.915  1.00  0.00     0.128 A 
ATOM      6  C   UNL     1      24.301 -10.921 -18.305  1.00  0.00     0.093 A 
ATOM      7  C   UNL     1      23.138 -11.415 -18.909  1.00  0.00     0.136 A 
ATOM      8  C   UNL     1      22.065 -11.859 -18.093  1.00  0.00     0.125 A 
ATOM      9  C   UNL     1      20.857 -12.356 -18.609  1.00  0.00     0.078 A 
ATOM     10  C   UNL     1      19.842 -12.770 -17.742  1.00  0.00     0.223 A 
ENDROOT
BRANCH   1  11
ATOM     11  C   UNL     1      19.043 -13.136 -15.371  1.00  0.00     0.087 A 
ATOM     12  C   UNL     1      18.276 -12.171 -14.698  1.00  0.00     0.022 A 
ATOM     13  C   UNL     1      17.323 -12.559 -13.751  1.00  0.00     0.051 A 
ATOM     14  C   UNL     1      17.135 -13.914 -13.454  1.00  0.00     0.157 A 
ATOM     15  C   UNL     1      18.865 -14.494 -15.054  1.00  0.00     0.068 A 
ATOM     16  C   UNL     1      17.910 -14.883 -14.103  1.00  0.00     0.158 A 
BRANCH  14  17
ATOM     17  O   UNL     1      16.184 -14.306 -12.512  1.00  0.00    -0.504 OA
ATOM     18  H   UNL     1      16.455 -14.704 -11.621  1.00  0.00     0.293 HD
ENDBRANCH  14  17
BRANCH  16  19
ATOM     19  O   UNL     1      17.730 -16.231 -13.796  1.00  0.00    -0.504 OA
ATOM     20  H   UNL     1      18.471 -16.910 -13.928  1.00  0.00     0.293 HD
ENDBRANCH  16  19
ENDBRANCH   1  11
BRANCH  10  21
ATOM     21  O   UNL     1      18.623 -13.217 -18.254  1.00  0.00    -0.500 OA
ATOM     22  H   UNL     1      17.778 -12.663 -18.177  1.00  0.00     0.294 HD
ENDBRANCH  10  21
BRANCH   5  23
ATOM     23  O   UNL     1      25.591 -10.364 -16.348  1.00  0.00    -0.507 OA
ATOM     24  H   UNL     1      25.581  -9.558 -15.733  1.00  0.00     0.293 HD
ENDBRANCH   5  23
BRANCH   7  25
ATOM     25  O   UNL     1      23.099 -11.445 -20.305  1.00  0.00    -0.507 OA
ATOM     26  H   UNL     1      22.977 -12.283 -20.856  1.00  0.00     0.293 HD
ENDBRANCH   7  25
TORSDOF 6
ENDMDL
MODEL 3
REMARK VINA RESULT:    28.626      4.795      7.829
REMARK INTER + INTRA:          34.195
REMARK INTER:                  34.544
REMARK INTRA:                  -0.349
REMARK UNBOUND:                -0.288
REMARK SMILES Oc1cc(O)c2cc(O)c(-c3ccc(O)c(O)c3)[o+]c2c1
REMARK SMILES IDX 10 1 19 2 20 3 21 4 2 5 3 6 4 7 6 8 7 9 8 10 11 11 12 12
REMARK SMILES IDX 13 13 14 14 18 15 16 16 15 17 17 19 9 21 1 23 5 25
REMARK H PARENT 15 18 17 20 9 22 1 24 5 26
REMARK Flexibility Score: inf
ROOT
ATOM      1  C   UNL     1      22.561  -8.132 -18.357  1.00  0.00     0.402 A 
ATOM      2  O   UNL     1      22.209  -9.113 -19.184  1.00  0.00    -0.202 OA
ATOM      3  C   UNL     1      22.396 -10.400 -18.912  1.00  0.00     0.368 A 
ATOM      4  C   UNL     1      21.995 -11.358 -19.846  1.00  0.00     0.162 A 
ATOM      5  C   UNL     1      22.182 -12.720 -19.587  1.00  0.00     0.128 A 
ATOM      6  C   UNL     1      22.774 -13.123 -18.387  1.00  0.00     0.093 A 
ATOM      7  C   UNL     1      23.184 -12.183 -17.434  1.00  0.00     0.136 A 
ATOM      8  C   UNL     1      22.994 -10.800 -17.692  1.00  0.00     0.125 A 
ATOM      9  C   UNL     1      23.362  -9.789 -16.790  1.00  0.00     0.078 A 
ATOM     10  C   UNL     1      23.138  -8.447 -17.112  1.00  0.00     0.223 A 
ENDROOT
BRANCH   1  11
ATOM     11  C   UNL     1      22.309  -6.736 -18.779  1.00  0.00     0.087 A 
ATOM     12  C   UNL     1      21.024  -6.191 -18.630  1.00  0.00     0.022 A 
ATOM     13  C   UNL     1      20.758  -4.881 -19.040  1.00  0.00     0.051 A 
ATOM     14  C   UNL     1      21.769  -4.104 -19.618  1.00  0.00     0.157 A 
ATOM     15  C   UNL     1      23.316  -5.958 -19.380  1.00  0.00     0.068 A 
ATOM     16  C   UNL     1      23.049  -4.645 -19.792  1.00  0.00     0.158 A 
BRANCH  14  17
ATOM     17  O   UNL     1      21.508  -2.797 -20.027  1.00  0.00    -0.504 OA
ATOM     18  H   UNL     1      22.012  -2.010 -19.636  1.00  0.00     0.293 HD
ENDBRANCH  14  17
BRANCH  16  19
ATOM     19  O   UNL     1      24.050  -3.873 -20.381  1.00  0.00    -0.504 OA
ATOM     20  H   UNL     1      25.021  -4.163 -20.368  1.00  0.00     0.293 HD
ENDBRANCH  16  19
ENDBRANCH   1  11
BRANCH  10  21
ATOM     21  O   UNL     1      23.457  -7.444 -16.196  1.00  0.00    -0.500 OA
ATOM     22  H   UNL     1      24.248  -6.826 -16.338  1.00  0.00     0.294 HD
ENDBRANCH  10  21
BRANCH   5  23
ATOM     23  O   UNL     1      21.785 -13.681 -20.513  1.00  0.00    -0.507 OA
ATOM     24  H   UNL     1      22.386 -13.953 -21.284  1.00  0.00     0.293 HD
ENDBRANCH   5  23
BRANCH   7  25
ATOM     25  O   UNL     1      23.770 -12.668 -16.262  1.00  0.00    -0.507 OA
ATOM     26  H   UNL     1      24.568 -12.249 -15.806  1.00  0.00     0.293 HD
ENDBRANCH   7  25
TORSDOF 6
ENDMDL
