MODEL 1
REMARK VINA RESULT:    -5.928      0.000      0.000
REMARK INTER + INTRA:          -7.281
REMARK INTER:                  -6.968
REMARK INTRA:                  -0.314
REMARK UNBOUND:                -0.314
REMARK SMILES O=c1cc(-c2ccc(O)c(O)c2)oc2cc(O)cc(O)c12
REMARK SMILES IDX 4 1 3 2 2 3 1 4 21 5 19 6 18 7 16 8 15 9 14 10 13 11 5 12
REMARK SMILES IDX 6 13 7 14 8 15 12 16 10 17 9 18 11 20 20 22 17 24
REMARK H PARENT 9 19 11 21 20 23 17 25
REMARK Flexibility Score: inf
ROOT
ATOM      1  C   UNL     1      46.565  16.556  -4.237  1.00  0.00     0.138 A 
ATOM      2  C   UNL     1      46.233  17.580  -5.135  1.00  0.00     0.100 A 
ATOM      3  C   UNL     1      44.987  18.203  -5.043  1.00  0.00     0.197 A 
ATOM      4  O   UNL     1      44.693  19.074  -5.901  1.00  0.00    -0.289 OA
ATOM      5  C   UNL     1      44.081  17.817  -4.025  1.00  0.00     0.107 A 
ATOM      6  C   UNL     1      42.801  18.409  -3.810  1.00  0.00     0.134 A 
ATOM      7  C   UNL     1      41.944  17.866  -2.845  1.00  0.00     0.093 A 
ATOM      8  C   UNL     1      42.342  16.794  -2.047  1.00  0.00     0.123 A 
ATOM      9  C   UNL     1      43.613  16.242  -2.212  1.00  0.00     0.094 A 
ATOM     10  C   UNL     1      44.478  16.738  -3.190  1.00  0.00     0.146 A 
ATOM     11  O   UNL     1      45.675  16.176  -3.325  1.00  0.00    -0.456 OA
ENDROOT
BRANCH   1  12
ATOM     12  C   UNL     1      47.876  15.862  -4.289  1.00  0.00     0.021 A 
ATOM     13  C   UNL     1      48.943  16.451  -4.990  1.00  0.00     0.016 A 
ATOM     14  C   UNL     1      50.185  15.815  -5.061  1.00  0.00     0.051 A 
ATOM     15  C   UNL     1      50.379  14.575  -4.441  1.00  0.00     0.157 A 
ATOM     16  C   UNL     1      48.075  14.608  -3.680  1.00  0.00     0.062 A 
ATOM     17  C   UNL     1      49.321  13.969  -3.753  1.00  0.00     0.158 A 
BRANCH  15  18
ATOM     18  O   UNL     1      51.616  13.938  -4.509  1.00  0.00    -0.504 OA
ATOM     19  H   UNL     1      51.690  12.934  -4.625  1.00  0.00     0.293 HD
ENDBRANCH  15  18
BRANCH  17  20
ATOM     20  O   UNL     1      49.515  12.729  -3.146  1.00  0.00    -0.504 OA
ATOM     21  H   UNL     1      49.675  12.645  -2.149  1.00  0.00     0.293 HD
ENDBRANCH  17  20
ENDBRANCH   1  12
BRANCH   6  22
ATOM     22  O   UNL     1      42.337  19.537  -4.494  1.00  0.00    -0.507 OA
ATOM     23  H   UNL     1      42.560  19.763  -5.451  1.00  0.00     0.293 HD
ENDBRANCH   6  22
BRANCH   8  24
ATOM     24  O   UNL     1      41.468  16.290  -1.086  1.00  0.00    -0.508 OA
ATOM     25  H   UNL     1      41.221  15.308  -1.057  1.00  0.00     0.293 HD
ENDBRANCH   8  24
TORSDOF 5
ENDMDL
MODEL 2
REMARK VINA RESULT:    -5.903      1.553      6.783
REMARK INTER + INTRA:          -7.252
REMARK INTER:                  -6.938
REMARK INTRA:                  -0.314
REMARK UNBOUND:                -0.314
REMARK SMILES O=c1cc(-c2ccc(O)c(O)c2)oc2cc(O)cc(O)c12
REMARK SMILES IDX 4 1 3 2 2 3 1 4 21 5 19 6 18 7 16 8 15 9 14 10 13 11 5 12
REMARK SMILES IDX 6 13 7 14 8 15 12 16 10 17 9 18 11 20 20 22 17 24
REMARK H PARENT 9 19 11 21 20 23 17 25
REMARK Flexibility Score: inf
ROOT
ATOM      1  C   UNL     1      45.510  16.507  -3.497  1.00  0.00     0.138 A 
ATOM      2  C   UNL     1      46.229  17.207  -4.476  1.00  0.00     0.100 A 
ATOM      3  C   UNL     1      47.458  16.712  -4.916  1.00  0.00     0.197 A 
ATOM      4  O   UNL     1      48.109  17.394  -5.749  1.00  0.00    -0.289 OA
ATOM      5  C   UNL     1      47.953  15.493  -4.394  1.00  0.00     0.107 A 
ATOM      6  C   UNL     1      49.173  14.872  -4.797  1.00  0.00     0.134 A 
ATOM      7  C   UNL     1      49.618  13.727  -4.126  1.00  0.00     0.093 A 
ATOM      8  C   UNL     1      48.860  13.145  -3.110  1.00  0.00     0.123 A 
ATOM      9  C   UNL     1      47.639  13.713  -2.744  1.00  0.00     0.094 A 
ATOM     10  C   UNL     1      47.184  14.876  -3.371  1.00  0.00     0.146 A 
ATOM     11  O   UNL     1      46.023  15.394  -2.984  1.00  0.00    -0.456 OA
ENDROOT
BRANCH   1  12
ATOM     12  C   UNL     1      44.198  16.988  -2.995  1.00  0.00     0.021 A 
ATOM     13  C   UNL     1      43.817  18.322  -3.224  1.00  0.00     0.016 A 
ATOM     14  C   UNL     1      42.591  18.801  -2.755  1.00  0.00     0.051 A 
ATOM     15  C   UNL     1      41.730  17.959  -2.042  1.00  0.00     0.157 A 
ATOM     16  C   UNL     1      43.333  16.151  -2.265  1.00  0.00     0.062 A 
ATOM     17  C   UNL     1      42.103  16.632  -1.794  1.00  0.00     0.158 A 
BRANCH  15  18
ATOM     18  O   UNL     1      40.506  18.433  -1.574  1.00  0.00    -0.504 OA
ATOM     19  H   UNL     1      39.790  17.803  -1.229  1.00  0.00     0.293 HD
ENDBRANCH  15  18
BRANCH  17  20
ATOM     20  O   UNL     1      41.247  15.800  -1.074  1.00  0.00    -0.504 OA
ATOM     21  H   UNL     1      41.314  15.714  -0.066  1.00  0.00     0.293 HD
ENDBRANCH  17  20
ENDBRANCH   1  12
BRANCH   6  22
ATOM     22  O   UNL     1      49.965  15.322  -5.857  1.00  0.00    -0.507 OA
ATOM     23  H   UNL     1      50.101  16.291  -6.104  1.00  0.00     0.293 HD
ENDBRANCH   6  22
BRANCH   8  24
ATOM     24  O   UNL     1      49.327  11.996  -2.476  1.00  0.00    -0.508 OA
ATOM     25  H   UNL     1      48.946  11.688  -1.589  1.00  0.00     0.293 HD
ENDBRANCH   8  24
TORSDOF 5
ENDMDL
MODEL 3
REMARK VINA RESULT:    -5.726      1.394      7.256
REMARK INTER + INTRA:          -7.043
REMARK INTER:                  -6.747
REMARK INTRA:                  -0.296
REMARK UNBOUND:                -0.314
REMARK SMILES O=c1cc(-c2ccc(O)c(O)c2)oc2cc(O)cc(O)c12
REMARK SMILES IDX 4 1 3 2 2 3 1 4 21 5 19 6 18 7 16 8 15 9 14 10 13 11 5 12
REMARK SMILES IDX 6 13 7 14 8 15 12 16 10 17 9 18 11 20 20 22 17 24
REMARK H PARENT 9 19 11 21 20 23 17 25
REMARK Flexibility Score: inf
ROOT
ATOM      1  C   UNL     1      45.654  15.975  -3.262  1.00  0.00     0.138 A 
ATOM      2  C   UNL     1      45.929  14.674  -2.818  1.00  0.00     0.100 A 
ATOM      3  C   UNL     1      47.169  14.097  -3.093  1.00  0.00     0.197 A 
ATOM      4  O   UNL     1      47.363  12.906  -2.736  1.00  0.00    -0.289 OA
ATOM      5  C   UNL     1      48.151  14.841  -3.790  1.00  0.00     0.107 A 
ATOM      6  C   UNL     1      49.464  14.371  -4.091  1.00  0.00     0.134 A 
ATOM      7  C   UNL     1      50.310  15.151  -4.889  1.00  0.00     0.093 A 
ATOM      8  C   UNL     1      49.915  16.408  -5.345  1.00  0.00     0.123 A 
ATOM      9  C   UNL     1      48.652  16.901  -5.012  1.00  0.00     0.094 A 
ATOM     10  C   UNL     1      47.773  16.132  -4.247  1.00  0.00     0.146 A 
ATOM     11  O   UNL     1      46.574  16.631  -3.962  1.00  0.00    -0.456 OA
ENDROOT
BRANCH   1  12
ATOM     12  C   UNL     1      44.352  16.636  -2.996  1.00  0.00     0.021 A 
ATOM     13  C   UNL     1      44.099  17.909  -3.537  1.00  0.00     0.016 A 
ATOM     14  C   UNL     1      42.884  18.556  -3.295  1.00  0.00     0.051 A 
ATOM     15  C   UNL     1      41.906  17.946  -2.500  1.00  0.00     0.157 A 
ATOM     16  C   UNL     1      43.369  16.036  -2.186  1.00  0.00     0.062 A 
ATOM     17  C   UNL     1      42.150  16.686  -1.942  1.00  0.00     0.158 A 
BRANCH  15  18
ATOM     18  O   UNL     1      40.694  18.588  -2.257  1.00  0.00    -0.504 OA
ATOM     19  H   UNL     1      40.627  19.370  -1.617  1.00  0.00     0.293 HD
ENDBRANCH  15  18
BRANCH  17  20
ATOM     20  O   UNL     1      41.179  16.088  -1.141  1.00  0.00    -0.504 OA
ATOM     21  H   UNL     1      41.412  15.661  -0.252  1.00  0.00     0.293 HD
ENDBRANCH  17  20
ENDBRANCH   1  12
BRANCH   6  22
ATOM     22  O   UNL     1      49.992  13.166  -3.615  1.00  0.00    -0.507 OA
ATOM     23  H   UNL     1      49.541  12.267  -3.698  1.00  0.00     0.293 HD
ENDBRANCH   6  22
BRANCH   8  24
ATOM     24  O   UNL     1      50.789  17.164  -6.123  1.00  0.00    -0.508 OA
ATOM     25  H   UNL     1      50.457  17.916  -6.716  1.00  0.00     0.293 HD
ENDBRANCH   8  24
TORSDOF 5
ENDMDL
MODEL 4
REMARK VINA RESULT:    -5.540      1.413      7.274
REMARK INTER + INTRA:          -6.825
REMARK INTER:                  -6.548
REMARK INTRA:                  -0.277
REMARK UNBOUND:                -0.314
REMARK SMILES O=c1cc(-c2ccc(O)c(O)c2)oc2cc(O)cc(O)c12
REMARK SMILES IDX 4 1 3 2 2 3 1 4 21 5 19 6 18 7 16 8 15 9 14 10 13 11 5 12
REMARK SMILES IDX 6 13 7 14 8 15 12 16 10 17 9 18 11 20 20 22 17 24
REMARK H PARENT 9 19 11 21 20 23 17 25
REMARK Flexibility Score: inf
ROOT
ATOM      1  C   UNL     1      46.312  16.107  -3.855  1.00  0.00     0.138 A 
ATOM      2  C   UNL     1      46.076  14.776  -3.483  1.00  0.00     0.100 A 
ATOM      3  C   UNL     1      47.129  13.860  -3.490  1.00  0.00     0.197 A 
ATOM      4  O   UNL     1      46.874  12.659  -3.213  1.00  0.00    -0.289 OA
ATOM      5  C   UNL     1      48.431  14.288  -3.842  1.00  0.00     0.107 A 
ATOM      6  C   UNL     1      49.588  13.452  -3.845  1.00  0.00     0.134 A 
ATOM      7  C   UNL     1      50.803  13.958  -4.324  1.00  0.00     0.093 A 
ATOM      8  C   UNL     1      50.918  15.283  -4.741  1.00  0.00     0.123 A 
ATOM      9  C   UNL     1      49.806  16.125  -4.692  1.00  0.00     0.094 A 
ATOM     10  C   UNL     1      48.572  15.641  -4.252  1.00  0.00     0.146 A 
ATOM     11  O   UNL     1      47.534  16.470  -4.233  1.00  0.00    -0.456 OA
ENDROOT
BRANCH   1  12
ATOM     12  C   UNL     1      45.229  17.122  -3.864  1.00  0.00     0.021 A 
ATOM     13  C   UNL     1      45.089  17.975  -4.973  1.00  0.00     0.016 A 
ATOM     14  C   UNL     1      44.083  18.944  -5.002  1.00  0.00     0.051 A 
ATOM     15  C   UNL     1      43.206  19.084  -3.920  1.00  0.00     0.157 A 
ATOM     16  C   UNL     1      44.352  17.278  -2.773  1.00  0.00     0.062 A 
ATOM     17  C   UNL     1      43.343  18.252  -2.802  1.00  0.00     0.158 A 
BRANCH  15  18
ATOM     18  O   UNL     1      42.200  20.048  -3.946  1.00  0.00    -0.504 OA
ATOM     19  H   UNL     1      41.414  20.011  -3.309  1.00  0.00     0.293 HD
ENDBRANCH  15  18
BRANCH  17  20
ATOM     20  O   UNL     1      42.474  18.401  -1.723  1.00  0.00    -0.504 OA
ATOM     21  H   UNL     1      42.218  19.316  -1.370  1.00  0.00     0.293 HD
ENDBRANCH  17  20
ENDBRANCH   1  12
BRANCH   6  22
ATOM     22  O   UNL     1      49.603  12.137  -3.370  1.00  0.00    -0.507 OA
ATOM     23  H   UNL     1      49.745  11.874  -2.407  1.00  0.00     0.293 HD
ENDBRANCH   6  22
BRANCH   8  24
ATOM     24  O   UNL     1      52.147  15.756  -5.197  1.00  0.00    -0.508 OA
ATOM     25  H   UNL     1      52.390  16.739  -5.144  1.00  0.00     0.293 HD
ENDBRANCH   8  24
TORSDOF 5
ENDMDL
MODEL 5
REMARK VINA RESULT:    -5.406      1.972      6.953
REMARK INTER + INTRA:          -6.668
REMARK INTER:                  -6.367
REMARK INTRA:                  -0.301
REMARK UNBOUND:                -0.314
REMARK SMILES O=c1cc(-c2ccc(O)c(O)c2)oc2cc(O)cc(O)c12
REMARK SMILES IDX 4 1 3 2 2 3 1 4 21 5 19 6 18 7 16 8 15 9 14 10 13 11 5 12
REMARK SMILES IDX 6 13 7 14 8 15 12 16 10 17 9 18 11 20 20 22 17 24
REMARK H PARENT 9 19 11 21 20 23 17 25
REMARK Flexibility Score: inf
ROOT
ATOM      1  C   UNL     1      45.699  15.444  -3.240  1.00  0.00     0.138 A 
ATOM      2  C   UNL     1      46.402  15.526  -4.451  1.00  0.00     0.100 A 
ATOM      3  C   UNL     1      47.486  14.677  -4.678  1.00  0.00     0.197 A 
ATOM      4  O   UNL     1      48.136  14.816  -5.747  1.00  0.00    -0.289 OA
ATOM      5  C   UNL     1      47.847  13.719  -3.701  1.00  0.00     0.107 A 
ATOM      6  C   UNL     1      48.908  12.775  -3.840  1.00  0.00     0.134 A 
ATOM      7  C   UNL     1      49.247  11.953  -2.758  1.00  0.00     0.093 A 
ATOM      8  C   UNL     1      48.528  11.999  -1.565  1.00  0.00     0.123 A 
ATOM      9  C   UNL     1      47.454  12.881  -1.435  1.00  0.00     0.094 A 
ATOM     10  C   UNL     1      47.113  13.738  -2.484  1.00  0.00     0.146 A 
ATOM     11  O   UNL     1      46.092  14.573  -2.317  1.00  0.00    -0.456 OA
ENDROOT
BRANCH   1  12
ATOM     12  C   UNL     1      44.538  16.322  -2.948  1.00  0.00     0.021 A 
ATOM     13  C   UNL     1      44.540  17.648  -3.412  1.00  0.00     0.016 A 
ATOM     14  C   UNL     1      43.463  18.498  -3.144  1.00  0.00     0.051 A 
ATOM     15  C   UNL     1      42.371  18.038  -2.398  1.00  0.00     0.157 A 
ATOM     16  C   UNL     1      43.442  15.871  -2.187  1.00  0.00     0.062 A 
ATOM     17  C   UNL     1      42.362  16.723  -1.916  1.00  0.00     0.158 A 
BRANCH  15  18
ATOM     18  O   UNL     1      41.295  18.881  -2.129  1.00  0.00    -0.504 OA
ATOM     19  H   UNL     1      41.093  19.685  -2.712  1.00  0.00     0.293 HD
ENDBRANCH  15  18
BRANCH  17  20
ATOM     20  O   UNL     1      41.278  16.273  -1.165  1.00  0.00    -0.504 OA
ATOM     21  H   UNL     1      40.666  15.540  -1.503  1.00  0.00     0.293 HD
ENDBRANCH  17  20
ENDBRANCH   1  12
BRANCH   6  22
ATOM     22  O   UNL     1      49.637  12.588  -5.019  1.00  0.00    -0.507 OA
ATOM     23  H   UNL     1      49.745  13.279  -5.746  1.00  0.00     0.293 HD
ENDBRANCH   6  22
BRANCH   8  24
ATOM     24  O   UNL     1      48.884  11.156  -0.515  1.00  0.00    -0.508 OA
ATOM     25  H   UNL     1      48.756  11.429   0.453  1.00  0.00     0.293 HD
ENDBRANCH   8  24
TORSDOF 5
ENDMDL
MODEL 6
REMARK VINA RESULT:    -5.289      1.247      2.096
REMARK INTER + INTRA:          -6.530
REMARK INTER:                  -6.236
REMARK INTRA:                  -0.293
REMARK UNBOUND:                -0.314
REMARK SMILES O=c1cc(-c2ccc(O)c(O)c2)oc2cc(O)cc(O)c12
REMARK SMILES IDX 4 1 3 2 2 3 1 4 21 5 19 6 18 7 16 8 15 9 14 10 13 11 5 12
REMARK SMILES IDX 6 13 7 14 8 15 12 16 10 17 9 18 11 20 20 22 17 24
REMARK H PARENT 9 19 11 21 20 23 17 25
REMARK Flexibility Score: inf
ROOT
ATOM      1  C   UNL     1      46.039  15.747  -3.521  1.00  0.00     0.138 A 
ATOM      2  C   UNL     1      46.263  16.668  -4.554  1.00  0.00     0.100 A 
ATOM      3  C   UNL     1      45.356  17.708  -4.761  1.00  0.00     0.197 A 
ATOM      4  O   UNL     1      45.551  18.481  -5.734  1.00  0.00    -0.289 OA
ATOM      5  C   UNL     1      44.234  17.843  -3.908  1.00  0.00     0.107 A 
ATOM      6  C   UNL     1      43.266  18.887  -3.999  1.00  0.00     0.134 A 
ATOM      7  C   UNL     1      42.135  18.852  -3.174  1.00  0.00     0.093 A 
ATOM      8  C   UNL     1      41.967  17.848  -2.222  1.00  0.00     0.123 A 
ATOM      9  C   UNL     1      42.935  16.851  -2.087  1.00  0.00     0.094 A 
ATOM     10  C   UNL     1      44.057  16.839  -2.919  1.00  0.00     0.146 A 
ATOM     11  O   UNL     1      44.949  15.865  -2.769  1.00  0.00    -0.456 OA
ENDROOT
BRANCH   1  12
ATOM     12  C   UNL     1      46.972  14.623  -3.256  1.00  0.00     0.021 A 
ATOM     13  C   UNL     1      46.537  13.528  -2.489  1.00  0.00     0.016 A 
ATOM     14  C   UNL     1      47.398  12.461  -2.219  1.00  0.00     0.051 A 
ATOM     15  C   UNL     1      48.712  12.476  -2.703  1.00  0.00     0.157 A 
ATOM     16  C   UNL     1      48.299  14.636  -3.727  1.00  0.00     0.062 A 
ATOM     17  C   UNL     1      49.164  13.566  -3.455  1.00  0.00     0.158 A 
BRANCH  15  18
ATOM     18  O   UNL     1      49.573  11.413  -2.436  1.00  0.00    -0.504 OA
ATOM     19  H   UNL     1      50.520  11.396  -2.796  1.00  0.00     0.293 HD
ENDBRANCH  15  18
BRANCH  17  20
ATOM     20  O   UNL     1      50.476  13.581  -3.925  1.00  0.00    -0.504 OA
ATOM     21  H   UNL     1      51.257  13.792  -3.314  1.00  0.00     0.293 HD
ENDBRANCH  17  20
ENDBRANCH   1  12
BRANCH   6  22
ATOM     22  O   UNL     1      43.379  19.985  -4.857  1.00  0.00    -0.507 OA
ATOM     23  H   UNL     1      44.238  20.474  -5.057  1.00  0.00     0.293 HD
ENDBRANCH   6  22
BRANCH   8  24
ATOM     24  O   UNL     1      40.837  17.854  -1.407  1.00  0.00    -0.508 OA
ATOM     25  H   UNL     1      40.188  18.633  -1.406  1.00  0.00     0.293 HD
ENDBRANCH   8  24
TORSDOF 5
ENDMDL
MODEL 7
REMARK VINA RESULT:    -5.215      1.472      2.789
REMARK INTER + INTRA:          -6.444
REMARK INTER:                  -6.155
REMARK INTRA:                  -0.288
REMARK UNBOUND:                -0.314
REMARK SMILES O=c1cc(-c2ccc(O)c(O)c2)oc2cc(O)cc(O)c12
REMARK SMILES IDX 4 1 3 2 2 3 1 4 21 5 19 6 18 7 16 8 15 9 14 10 13 11 5 12
REMARK SMILES IDX 6 13 7 14 8 15 12 16 10 17 9 18 11 20 20 22 17 24
REMARK H PARENT 9 19 11 21 20 23 17 25
REMARK Flexibility Score: inf
ROOT
ATOM      1  C   UNL     1      46.776  15.816  -3.987  1.00  0.00     0.138 A 
ATOM      2  C   UNL     1      46.221  14.577  -3.637  1.00  0.00     0.100 A 
ATOM      3  C   UNL     1      44.908  14.516  -3.167  1.00  0.00     0.197 A 
ATOM      4  O   UNL     1      44.459  13.399  -2.801  1.00  0.00    -0.289 OA
ATOM      5  C   UNL     1      44.137  15.700  -3.078  1.00  0.00     0.107 A 
ATOM      6  C   UNL     1      42.777  15.753  -2.653  1.00  0.00     0.134 A 
ATOM      7  C   UNL     1      42.152  16.996  -2.494  1.00  0.00     0.093 A 
ATOM      8  C   UNL     1      42.817  18.183  -2.802  1.00  0.00     0.123 A 
ATOM      9  C   UNL     1      44.131  18.139  -3.271  1.00  0.00     0.094 A 
ATOM     10  C   UNL     1      44.793  16.917  -3.407  1.00  0.00     0.146 A 
ATOM     11  O   UNL     1      46.049  16.919  -3.843  1.00  0.00    -0.456 OA
ENDROOT
BRANCH   1  12
ATOM     12  C   UNL     1      48.166  15.937  -4.493  1.00  0.00     0.021 A 
ATOM     13  C   UNL     1      48.498  16.994  -5.359  1.00  0.00     0.016 A 
ATOM     14  C   UNL     1      49.797  17.126  -5.856  1.00  0.00     0.051 A 
ATOM     15  C   UNL     1      50.785  16.199  -5.503  1.00  0.00     0.157 A 
ATOM     16  C   UNL     1      49.162  15.001  -4.154  1.00  0.00     0.062 A 
ATOM     17  C   UNL     1      50.466  15.132  -4.654  1.00  0.00     0.158 A 
BRANCH  15  18
ATOM     18  O   UNL     1      52.082  16.328  -5.995  1.00  0.00    -0.504 OA
ATOM     19  H   UNL     1      52.613  15.524  -6.307  1.00  0.00     0.293 HD
ENDBRANCH  15  18
BRANCH  17  20
ATOM     20  O   UNL     1      51.449  14.205  -4.314  1.00  0.00    -0.504 OA
ATOM     21  H   UNL     1      51.820  13.551  -4.994  1.00  0.00     0.293 HD
ENDBRANCH  17  20
ENDBRANCH   1  12
BRANCH   6  22
ATOM     22  O   UNL     1      41.992  14.624  -2.399  1.00  0.00    -0.507 OA
ATOM     23  H   UNL     1      41.750  14.285  -1.481  1.00  0.00     0.293 HD
ENDBRANCH   6  22
BRANCH   8  24
ATOM     24  O   UNL     1      42.159  19.401  -2.647  1.00  0.00    -0.508 OA
ATOM     25  H   UNL     1      41.992  19.801  -1.730  1.00  0.00     0.293 HD
ENDBRANCH   8  24
TORSDOF 5
ENDMDL
MODEL 8
REMARK VINA RESULT:    -5.088      1.215      2.711
REMARK INTER + INTRA:          -6.294
REMARK INTER:                  -5.999
REMARK INTRA:                  -0.296
REMARK UNBOUND:                -0.314
REMARK SMILES O=c1cc(-c2ccc(O)c(O)c2)oc2cc(O)cc(O)c12
REMARK SMILES IDX 4 1 3 2 2 3 1 4 21 5 19 6 18 7 16 8 15 9 14 10 13 11 5 12
REMARK SMILES IDX 6 13 7 14 8 15 12 16 10 17 9 18 11 20 20 22 17 24
REMARK H PARENT 9 19 11 21 20 23 17 25
REMARK Flexibility Score: inf
ROOT
ATOM      1  C   UNL     1      46.373  16.277  -4.015  1.00  0.00     0.138 A 
ATOM      2  C   UNL     1      45.380  15.708  -3.205  1.00  0.00     0.100 A 
ATOM      3  C   UNL     1      44.116  16.297  -3.144  1.00  0.00     0.197 A 
ATOM      4  O   UNL     1      43.267  15.800  -2.360  1.00  0.00    -0.289 OA
ATOM      5  C   UNL     1      43.837  17.445  -3.923  1.00  0.00     0.107 A 
ATOM      6  C   UNL     1      42.574  18.106  -3.972  1.00  0.00     0.134 A 
ATOM      7  C   UNL     1      42.449  19.302  -4.690  1.00  0.00     0.093 A 
ATOM      8  C   UNL     1      43.522  19.828  -5.409  1.00  0.00     0.123 A 
ATOM      9  C   UNL     1      44.748  19.161  -5.412  1.00  0.00     0.094 A 
ATOM     10  C   UNL     1      44.914  17.984  -4.677  1.00  0.00     0.146 A 
ATOM     11  O   UNL     1      46.101  17.386  -4.695  1.00  0.00    -0.456 OA
ENDROOT
BRANCH   1  12
ATOM     12  C   UNL     1      47.732  15.690  -4.118  1.00  0.00     0.021 A 
ATOM     13  C   UNL     1      48.743  16.400  -4.790  1.00  0.00     0.016 A 
ATOM     14  C   UNL     1      50.029  15.866  -4.907  1.00  0.00     0.051 A 
ATOM     15  C   UNL     1      50.324  14.610  -4.364  1.00  0.00     0.157 A 
ATOM     16  C   UNL     1      48.033  14.421  -3.586  1.00  0.00     0.062 A 
ATOM     17  C   UNL     1      49.324  13.885  -3.705  1.00  0.00     0.158 A 
BRANCH  15  18
ATOM     18  O   UNL     1      51.606  14.075  -4.478  1.00  0.00    -0.504 OA
ATOM     19  H   UNL     1      52.359  14.594  -4.913  1.00  0.00     0.293 HD
ENDBRANCH  15  18
BRANCH  17  20
ATOM     20  O   UNL     1      49.619  12.630  -3.175  1.00  0.00    -0.504 OA
ATOM     21  H   UNL     1      50.472  12.461  -2.654  1.00  0.00     0.293 HD
ENDBRANCH  17  20
ENDBRANCH   1  12
BRANCH   6  22
ATOM     22  O   UNL     1      41.414  17.622  -3.359  1.00  0.00    -0.507 OA
ATOM     23  H   UNL     1      40.928  16.780  -3.629  1.00  0.00     0.293 HD
ENDBRANCH   6  22
BRANCH   8  24
ATOM     24  O   UNL     1      43.356  21.012  -6.124  1.00  0.00    -0.508 OA
ATOM     25  H   UNL     1      43.605  21.079  -7.105  1.00  0.00     0.293 HD
ENDBRANCH   8  24
TORSDOF 5
ENDMDL
MODEL 9
REMARK VINA RESULT:    -5.043      1.611      6.830
REMARK INTER + INTRA:          -6.240
REMARK INTER:                  -5.950
REMARK INTRA:                  -0.291
REMARK UNBOUND:                -0.314
REMARK SMILES O=c1cc(-c2ccc(O)c(O)c2)oc2cc(O)cc(O)c12
REMARK SMILES IDX 4 1 3 2 2 3 1 4 21 5 19 6 18 7 16 8 15 9 14 10 13 11 5 12
REMARK SMILES IDX 6 13 7 14 8 15 12 16 10 17 9 18 11 20 20 22 17 24
REMARK H PARENT 9 19 11 21 20 23 17 25
REMARK Flexibility Score: inf
ROOT
ATOM      1  C   UNL     1      46.011  16.279  -3.691  1.00  0.00     0.138 A 
ATOM      2  C   UNL     1      47.248  16.627  -4.251  1.00  0.00     0.100 A 
ATOM      3  C   UNL     1      48.317  15.732  -4.177  1.00  0.00     0.197 A 
ATOM      4  O   UNL     1      49.431  16.098  -4.633  1.00  0.00    -0.289 OA
ATOM      5  C   UNL     1      48.135  14.469  -3.565  1.00  0.00     0.107 A 
ATOM      6  C   UNL     1      49.141  13.462  -3.467  1.00  0.00     0.134 A 
ATOM      7  C   UNL     1      48.880  12.296  -2.736  1.00  0.00     0.093 A 
ATOM      8  C   UNL     1      47.634  12.074  -2.151  1.00  0.00     0.123 A 
ATOM      9  C   UNL     1      46.625  13.029  -2.286  1.00  0.00     0.094 A 
ATOM     10  C   UNL     1      46.865  14.218  -2.980  1.00  0.00     0.146 A 
ATOM     11  O   UNL     1      45.883  15.108  -3.074  1.00  0.00    -0.456 OA
ENDROOT
BRANCH   1  12
ATOM     12  C   UNL     1      44.842  17.192  -3.743  1.00  0.00     0.021 A 
ATOM     13  C   UNL     1      43.822  17.065  -2.785  1.00  0.00     0.016 A 
ATOM     14  C   UNL     1      42.707  17.907  -2.816  1.00  0.00     0.051 A 
ATOM     15  C   UNL     1      42.588  18.883  -3.813  1.00  0.00     0.157 A 
ATOM     16  C   UNL     1      44.709  18.167  -4.751  1.00  0.00     0.062 A 
ATOM     17  C   UNL     1      43.589  19.011  -4.784  1.00  0.00     0.158 A 
BRANCH  15  18
ATOM     18  O   UNL     1      41.479  19.725  -3.848  1.00  0.00    -0.504 OA
ATOM     19  H   UNL     1      41.564  20.704  -4.093  1.00  0.00     0.293 HD
ENDBRANCH  15  18
BRANCH  17  20
ATOM     20  O   UNL     1      43.462  19.976  -5.780  1.00  0.00    -0.504 OA
ATOM     21  H   UNL     1      42.669  19.987  -6.412  1.00  0.00     0.293 HD
ENDBRANCH  17  20
ENDBRANCH   1  12
BRANCH   6  22
ATOM     22  O   UNL     1      50.392  13.544  -4.084  1.00  0.00    -0.507 OA
ATOM     23  H   UNL     1      50.818  12.806  -4.624  1.00  0.00     0.293 HD
ENDBRANCH   6  22
BRANCH   8  24
ATOM     24  O   UNL     1      47.406  10.896  -1.444  1.00  0.00    -0.508 OA
ATOM     25  H   UNL     1      46.664  10.825  -0.756  1.00  0.00     0.293 HD
ENDBRANCH   8  24
TORSDOF 5
ENDMDL
