MODEL 1
REMARK VINA RESULT:    -8.216      0.000      0.000
REMARK INTER + INTRA:          -9.072
REMARK INTER:                  -8.937
REMARK INTRA:                  -0.135
REMARK UNBOUND:                -0.135
REMARK SMILES C[C@@H]1[C@H](C)CC[C@]2(C(=O)[O-])CC[C@]3(C)C(=CC[C@H]4[C@@]5(C)CC[C@H](O)C(C)(C)[C@H]5CC[C@]43C)[C@H]12
REMARK SMILES IDX 7 1 6 2 11 3 33 4 5 5 12 6 15 7 2 8 3 9 13 10 16 11 1 12
REMARK SMILES IDX 4 13 14 14 31 15 17 16 18 17 30 18 32 19 19 20 29 21 28 22
REMARK SMILES IDX 21 23 20 24 25 25 22 26 23 27 26 28 27 29 8 30 9 31 10 32
REMARK SMILES IDX 24 33
REMARK H PARENT 24 34
REMARK Flexibility Score: inf
ROOT
ATOM      1  C   UNL     1      15.611  -5.618 128.707  1.00  0.00     0.017 C 
ATOM      2  C   UNL     1      14.314  -5.756 129.553  1.00  0.00     0.014 C 
ATOM      3  C   UNL     1      15.677  -6.741 127.610  1.00  0.00     0.014 C 
ATOM      4  C   UNL     1      16.817  -5.698 129.640  1.00  0.00     0.030 C 
ATOM      5  C   UNL     1      14.147  -7.105 130.261  1.00  0.00     0.004 C 
ATOM      6  C   UNL     1      16.979  -6.712 126.784  1.00  0.00     0.013 C 
ATOM      7  C   UNL     1      18.116  -5.721 128.828  1.00  0.00    -0.063 C 
ATOM      8  C   UNL     1      16.682  -6.702 130.891  1.00  0.00    -0.003 C 
ATOM      9  C   UNL     1      15.429  -7.655 130.964  1.00  0.00    -0.011 C 
ATOM     10  C   UNL     1      18.333  -6.641 127.598  1.00  0.00    -0.006 C 
ATOM     11  C   UNL     1      19.154  -5.025 129.317  1.00  0.00    -0.027 C 
ATOM     12  C   UNL     1      17.983  -7.319 131.454  1.00  0.00     0.008 C 
ATOM     13  C   UNL     1      15.677  -9.125 130.585  1.00  0.00     0.008 C 
ATOM     14  C   UNL     1      18.561  -8.075 128.163  1.00  0.00     0.017 C 
ATOM     15  C   UNL     1      19.592  -6.139 126.641  1.00  0.00    -0.020 C 
ATOM     16  C   UNL     1      20.559  -5.318 128.938  1.00  0.00     0.032 C 
ATOM     17  C   UNL     1      20.747  -5.301 127.415  1.00  0.00     0.006 C 
ATOM     18  C   UNL     1      20.235  -7.360 125.864  1.00  0.00     0.008 C 
ATOM     19  C   UNL     1      19.049  -5.135 125.556  1.00  0.00     0.012 C 
ATOM     20  C   UNL     1      22.264  -5.552 126.932  1.00  0.00    -0.025 C 
ATOM     21  C   UNL     1      21.475  -8.022 126.542  1.00  0.00     0.005 C 
ATOM     22  C   UNL     1      22.676  -7.078 126.880  1.00  0.00     0.003 C 
ATOM     23  C   UNL     1      23.297  -4.755 127.796  1.00  0.00     0.010 C 
ATOM     24  C   UNL     1      22.417  -4.970 125.473  1.00  0.00     0.012 C 
ATOM     25  C   UNL     1      23.593  -7.610 128.069  1.00  0.00    -0.006 C 
ATOM     26  C   UNL     1      24.734  -5.277 127.631  1.00  0.00     0.033 C 
ATOM     27  C   UNL     1      24.920  -6.738 128.168  1.00  0.00     0.120 C 
ATOM     28  C   UNL     1      23.915  -9.119 127.792  1.00  0.00     0.014 C 
ATOM     29  C   UNL     1      22.941  -7.606 129.471  1.00  0.00     0.014 C 
ENDROOT
BRANCH   1  30
ATOM     30  C   UNL     1      15.569  -4.210 128.097  1.00  0.00     0.048 C 
ATOM     31  O   UNL     1      15.960  -3.195 128.722  1.00  0.00    -0.550 OA
ATOM     32  O   UNL     1      14.992  -4.021 126.838  1.00  0.00    -0.550 OA
ENDBRANCH   1  30
BRANCH  27  33
ATOM     33  O   UNL     1      25.985  -7.356 127.485  1.00  0.00    -0.393 OA
ATOM     34  H   UNL     1      26.846  -7.049 127.897  1.00  0.00     0.210 HD
ENDBRANCH  27  33
TORSDOF 2
ENDMDL
MODEL 2
REMARK VINA RESULT:    -6.956      3.863      6.756
REMARK INTER + INTRA:          -7.701
REMARK INTER:                  -7.763
REMARK INTRA:                   0.062
REMARK UNBOUND:                -0.135
REMARK SMILES C[C@@H]1[C@H](C)CC[C@]2(C(=O)[O-])CC[C@]3(C)C(=CC[C@H]4[C@@]5(C)CC[C@H](O)C(C)(C)[C@H]5CC[C@]43C)[C@H]12
REMARK SMILES IDX 7 1 6 2 11 3 33 4 5 5 12 6 15 7 2 8 3 9 13 10 16 11 1 12
REMARK SMILES IDX 4 13 14 14 31 15 17 16 18 17 30 18 32 19 19 20 29 21 28 22
REMARK SMILES IDX 21 23 20 24 25 25 22 26 23 27 26 28 27 29 8 30 9 31 10 32
REMARK SMILES IDX 24 33
REMARK H PARENT 24 34
REMARK Flexibility Score: inf
ROOT
ATOM      1  C   UNL     1      21.579  -6.480 127.535  1.00  0.00     0.017 C 
ATOM      2  C   UNL     1      21.220  -7.850 128.177  1.00  0.00     0.014 C 
ATOM      3  C   UNL     1      22.016  -6.669 126.038  1.00  0.00     0.014 C 
ATOM      4  C   UNL     1      22.696  -5.834 128.350  1.00  0.00     0.030 C 
ATOM      5  C   UNL     1      22.347  -8.888 128.151  1.00  0.00     0.004 C 
ATOM      6  C   UNL     1      22.463  -5.356 125.363  1.00  0.00     0.013 C 
ATOM      7  C   UNL     1      23.184  -4.554 127.662  1.00  0.00    -0.063 C 
ATOM      8  C   UNL     1      23.796  -6.835 128.967  1.00  0.00    -0.003 C 
ATOM      9  C   UNL     1      23.760  -8.352 128.543  1.00  0.00    -0.011 C 
ATOM     10  C   UNL     1      23.516  -4.477 126.149  1.00  0.00    -0.006 C 
ATOM     11  C   UNL     1      23.483  -3.512 128.453  1.00  0.00    -0.027 C 
ATOM     12  C   UNL     1      25.217  -6.274 129.205  1.00  0.00     0.008 C 
ATOM     13  C   UNL     1      24.820  -8.788 127.515  1.00  0.00     0.008 C 
ATOM     14  C   UNL     1      24.886  -5.198 125.969  1.00  0.00     0.017 C 
ATOM     15  C   UNL     1      23.551  -2.918 125.583  1.00  0.00    -0.020 C 
ATOM     16  C   UNL     1      24.386  -2.417 128.019  1.00  0.00     0.032 C 
ATOM     17  C   UNL     1      23.923  -1.795 126.694  1.00  0.00     0.006 C 
ATOM     18  C   UNL     1      24.519  -2.790 124.336  1.00  0.00     0.008 C 
ATOM     19  C   UNL     1      22.111  -2.513 125.094  1.00  0.00     0.012 C 
ATOM     20  C   UNL     1      24.825  -0.557 126.193  1.00  0.00    -0.025 C 
ATOM     21  C   UNL     1      25.979  -2.336 124.650  1.00  0.00     0.005 C 
ATOM     22  C   UNL     1      26.142  -0.990 125.432  1.00  0.00     0.003 C 
ATOM     23  C   UNL     1      25.187   0.419 127.361  1.00  0.00     0.010 C 
ATOM     24  C   UNL     1      23.961   0.304 125.193  1.00  0.00     0.012 C 
ATOM     25  C   UNL     1      27.505  -0.885 126.248  1.00  0.00    -0.006 C 
ATOM     26  C   UNL     1      26.352   1.359 127.007  1.00  0.00     0.033 C 
ATOM     27  C   UNL     1      27.706   0.598 126.787  1.00  0.00     0.120 C 
ATOM     28  C   UNL     1      28.673  -1.314 125.293  1.00  0.00     0.014 C 
ATOM     29  C   UNL     1      27.632  -1.832 127.463  1.00  0.00     0.014 C 
ENDROOT
BRANCH   1  30
ATOM     30  C   UNL     1      20.322  -5.610 127.670  1.00  0.00     0.048 C 
ATOM     31  O   UNL     1      19.724  -5.457 128.762  1.00  0.00    -0.550 OA
ATOM     32  O   UNL     1      19.757  -5.035 126.528  1.00  0.00    -0.550 OA
ENDBRANCH   1  30
BRANCH  27  33
ATOM     33  O   UNL     1      28.528   1.346 125.923  1.00  0.00    -0.393 OA
ATOM     34  H   UNL     1      28.845   0.744 125.188  1.00  0.00     0.210 HD
ENDBRANCH  27  33
TORSDOF 2
ENDMDL
MODEL 3
REMARK VINA RESULT:    -5.365      2.103      3.502
REMARK INTER + INTRA:          -5.971
REMARK INTER:                  -6.354
REMARK INTRA:                   0.383
REMARK UNBOUND:                -0.135
REMARK SMILES C[C@@H]1[C@H](C)CC[C@]2(C(=O)[O-])CC[C@]3(C)C(=CC[C@H]4[C@@]5(C)CC[C@H](O)C(C)(C)[C@H]5CC[C@]43C)[C@H]12
REMARK SMILES IDX 7 1 6 2 11 3 33 4 5 5 12 6 15 7 2 8 3 9 13 10 16 11 1 12
REMARK SMILES IDX 4 13 14 14 31 15 17 16 18 17 30 18 32 19 19 20 29 21 28 22
REMARK SMILES IDX 21 23 20 24 25 25 22 26 23 27 26 28 27 29 8 30 9 31 10 32
REMARK SMILES IDX 24 33
REMARK H PARENT 24 34
REMARK Flexibility Score: inf
ROOT
ATOM      1  C   UNL     1      17.083  -7.952 128.569  1.00  0.00     0.017 C 
ATOM      2  C   UNL     1      15.653  -7.952 129.177  1.00  0.00     0.014 C 
ATOM      3  C   UNL     1      18.111  -8.586 129.573  1.00  0.00     0.014 C 
ATOM      4  C   UNL     1      17.472  -6.515 128.229  1.00  0.00     0.030 C 
ATOM      5  C   UNL     1      15.520  -7.207 130.510  1.00  0.00     0.004 C 
ATOM      6  C   UNL     1      19.566  -8.546 129.064  1.00  0.00     0.013 C 
ATOM      7  C   UNL     1      18.933  -6.454 127.770  1.00  0.00    -0.063 C 
ATOM      8  C   UNL     1      16.942  -5.378 129.238  1.00  0.00    -0.003 C 
ATOM      9  C   UNL     1      16.241  -5.823 130.577  1.00  0.00    -0.011 C 
ATOM     10  C   UNL     1      20.091  -7.153 128.528  1.00  0.00    -0.006 C 
ATOM     11  C   UNL     1      19.220  -5.621 126.757  1.00  0.00    -0.027 C 
ATOM     12  C   UNL     1      17.780  -4.084 129.358  1.00  0.00     0.008 C 
ATOM     13  C   UNL     1      17.092  -5.707 131.853  1.00  0.00     0.008 C 
ATOM     14  C   UNL     1      20.365  -6.290 129.795  1.00  0.00     0.017 C 
ATOM     15  C   UNL     1      21.448  -7.335 127.590  1.00  0.00    -0.020 C 
ATOM     16  C   UNL     1      20.589  -5.099 126.521  1.00  0.00     0.032 C 
ATOM     17  C   UNL     1      21.615  -6.234 126.409  1.00  0.00     0.006 C 
ATOM     18  C   UNL     1      22.754  -7.374 128.486  1.00  0.00     0.008 C 
ATOM     19  C   UNL     1      21.370  -8.710 126.827  1.00  0.00     0.012 C 
ATOM     20  C   UNL     1      23.116  -5.742 126.091  1.00  0.00    -0.025 C 
ATOM     21  C   UNL     1      23.493  -6.011 128.673  1.00  0.00     0.005 C 
ATOM     22  C   UNL     1      23.916  -5.259 127.367  1.00  0.00     0.003 C 
ATOM     23  C   UNL     1      23.150  -4.627 124.994  1.00  0.00     0.010 C 
ATOM     24  C   UNL     1      23.908  -6.955 125.467  1.00  0.00     0.012 C 
ATOM     25  C   UNL     1      24.074  -3.686 127.557  1.00  0.00    -0.006 C 
ATOM     26  C   UNL     1      24.488  -3.868 124.963  1.00  0.00     0.033 C 
ATOM     27  C   UNL     1      24.754  -3.045 126.271  1.00  0.00     0.120 C 
ATOM     28  C   UNL     1      24.933  -3.439 128.846  1.00  0.00     0.014 C 
ATOM     29  C   UNL     1      22.762  -2.908 127.813  1.00  0.00     0.014 C 
ENDROOT
BRANCH   1  30
ATOM     30  C   UNL     1      16.984  -8.744 127.258  1.00  0.00     0.048 C 
ATOM     31  O   UNL     1      17.997  -9.125 126.623  1.00  0.00    -0.550 OA
ATOM     32  O   UNL     1      15.729  -8.981 126.690  1.00  0.00    -0.550 OA
ENDBRANCH   1  30
BRANCH  27  33
ATOM     33  O   UNL     1      26.142  -2.892 126.453  1.00  0.00    -0.393 OA
ATOM     34  H   UNL     1      26.444  -3.546 127.149  1.00  0.00     0.210 HD
ENDBRANCH  27  33
TORSDOF 2
ENDMDL
