MODEL 1
REMARK VINA RESULT:    -4.218      0.000      0.000
REMARK INTER + INTRA:         -13.192
REMARK INTER:                  -9.644
REMARK INTRA:                  -3.548
REMARK UNBOUND:                -3.548
REMARK SMILES CCCCCCCCCCCCCCCCCCCCCCCC(=O)[O-]
REMARK SMILES IDX 13 1 14 2 15 3 16 4 17 5 18 6 19 7 20 8 21 9 22 10 23 11
REMARK SMILES IDX 24 12 25 13 26 14 12 15 11 16 10 17 9 18 8 19 7 20 6 21 5 22
REMARK SMILES IDX 4 23 3 24 2 25 1 26
REMARK H PARENT
REMARK Flexibility Score: inf
ROOT
ATOM      1  C   UNL     1      -2.370   2.317  -5.108  1.00  0.00     0.000 C 
ENDROOT
BRANCH   1   2
ATOM      2  C   UNL     1      -2.969   3.292  -4.082  1.00  0.00     0.000 C 
BRANCH   2   3
ATOM      3  C   UNL     1      -3.022   2.702  -2.665  1.00  0.00     0.000 C 
BRANCH   3   4
ATOM      4  C   UNL     1      -4.432   2.827  -2.074  1.00  0.00     0.000 C 
BRANCH   4   5
ATOM      5  C   UNL     1      -5.490   2.903  -3.180  1.00  0.00     0.000 C 
BRANCH   5   6
ATOM      6  C   UNL     1      -6.209   1.555  -3.344  1.00  0.00     0.000 C 
BRANCH   6   7
ATOM      7  C   UNL     1      -5.722   0.760  -4.570  1.00  0.00     0.000 C 
BRANCH   7   8
ATOM      8  C   UNL     1      -5.238  -0.672  -4.269  1.00  0.00     0.000 C 
BRANCH   8   9
ATOM      9  C   UNL     1      -3.944  -0.703  -3.437  1.00  0.00     0.000 C 
BRANCH   9  10
ATOM     10  C   UNL     1      -3.297  -2.099  -3.382  1.00  0.00     0.006 C 
BRANCH  10  11
ATOM     11  C   UNL     1      -3.975  -3.141  -4.291  1.00  0.00     0.053 C 
BRANCH  11  12
ATOM     12  C   UNL     1      -3.000  -3.847  -5.183  1.00  0.00     0.041 C 
ATOM     13  O   UNL     1      -1.838  -4.108  -4.771  1.00  0.00    -0.550 OA
ATOM     14  O   UNL     1      -3.379  -4.242  -6.460  1.00  0.00    -0.550 OA
ENDBRANCH  11  12
ENDBRANCH  10  11
ENDBRANCH   9  10
ENDBRANCH   8   9
ENDBRANCH   7   8
ENDBRANCH   6   7
ENDBRANCH   5   6
ENDBRANCH   4   5
ENDBRANCH   3   4
ENDBRANCH   2   3
ENDBRANCH   1   2
BRANCH   1  15
ATOM     15  C   UNL     1      -2.994   2.468  -6.506  1.00  0.00     0.000 C 
BRANCH  15  16
ATOM     16  C   UNL     1      -2.048   3.186  -7.492  1.00  0.00     0.000 C 
BRANCH  16  17
ATOM     17  C   UNL     1      -0.662   3.498  -6.903  1.00  0.00     0.000 C 
BRANCH  17  18
ATOM     18  C   UNL     1      -0.319   4.997  -6.932  1.00  0.00    -0.000 C 
BRANCH  18  19
ATOM     19  C   UNL     1      -0.337   5.627  -5.523  1.00  0.00    -0.000 C 
BRANCH  19  20
ATOM     20  C   UNL     1       0.928   5.326  -4.698  1.00  0.00    -0.000 C 
BRANCH  20  21
ATOM     21  C   UNL     1       0.627   5.112  -3.208  1.00  0.00    -0.000 C 
BRANCH  21  22
ATOM     22  C   UNL     1       0.496   3.621  -2.874  1.00  0.00    -0.000 C 
BRANCH  22  23
ATOM     23  C   UNL     1       1.323   2.727  -3.815  1.00  0.00    -0.000 C 
BRANCH  23  24
ATOM     24  C   UNL     1       2.553   2.084  -3.137  1.00  0.00    -0.000 C 
BRANCH  24  25
ATOM     25  C   UNL     1       3.639   1.693  -4.153  1.00  0.00    -0.003 C 
ATOM     26  C   UNL     1       3.628   2.627  -5.359  1.00  0.00     0.004 C 
ENDBRANCH  24  25
ENDBRANCH  23  24
ENDBRANCH  22  23
ENDBRANCH  21  22
ENDBRANCH  20  21
ENDBRANCH  19  20
ENDBRANCH  18  19
ENDBRANCH  17  18
ENDBRANCH  16  17
ENDBRANCH  15  16
ENDBRANCH   1  15
TORSDOF 22
ENDMDL
MODEL 2
REMARK VINA RESULT:    -4.182      3.118      8.015
REMARK INTER + INTRA:         -13.109
REMARK INTER:                 -10.204
REMARK INTRA:                  -2.905
REMARK UNBOUND:                -3.548
REMARK SMILES CCCCCCCCCCCCCCCCCCCCCCCC(=O)[O-]
REMARK SMILES IDX 13 1 14 2 15 3 16 4 17 5 18 6 19 7 20 8 21 9 22 10 23 11
REMARK SMILES IDX 24 12 25 13 26 14 12 15 11 16 10 17 9 18 8 19 7 20 6 21 5 22
REMARK SMILES IDX 4 23 3 24 2 25 1 26
REMARK H PARENT
REMARK Flexibility Score: inf
ROOT
ATOM      1  C   UNL     1       1.939   5.620  -4.643  1.00  0.00     0.000 C 
ENDROOT
BRANCH   1   2
ATOM      2  C   UNL     1       3.117   6.528  -4.258  1.00  0.00     0.000 C 
BRANCH   2   3
ATOM      3  C   UNL     1       3.640   6.251  -2.840  1.00  0.00     0.000 C 
BRANCH   3   4
ATOM      4  C   UNL     1       4.849   5.308  -2.878  1.00  0.00     0.000 C 
BRANCH   4   5
ATOM      5  C   UNL     1       4.652   4.119  -1.931  1.00  0.00     0.000 C 
BRANCH   5   6
ATOM      6  C   UNL     1       5.040   2.800  -2.617  1.00  0.00     0.000 C 
BRANCH   6   7
ATOM      7  C   UNL     1       3.823   1.922  -2.963  1.00  0.00     0.000 C 
BRANCH   7   8
ATOM      8  C   UNL     1       3.587   1.699  -4.470  1.00  0.00     0.000 C 
BRANCH   8   9
ATOM      9  C   UNL     1       4.106   2.860  -5.334  1.00  0.00     0.000 C 
BRANCH   9  10
ATOM     10  C   UNL     1       3.790   2.684  -6.832  1.00  0.00     0.006 C 
BRANCH  10  11
ATOM     11  C   UNL     1       5.014   2.318  -7.692  1.00  0.00     0.053 C 
BRANCH  11  12
ATOM     12  C   UNL     1       4.731   1.199  -8.647  1.00  0.00     0.041 C 
ATOM     13  O   UNL     1       4.899   1.364  -9.884  1.00  0.00    -0.550 OA
ATOM     14  O   UNL     1       4.307  -0.036  -8.171  1.00  0.00    -0.550 OA
ENDBRANCH  11  12
ENDBRANCH  10  11
ENDBRANCH   9  10
ENDBRANCH   8   9
ENDBRANCH   7   8
ENDBRANCH   6   7
ENDBRANCH   5   6
ENDBRANCH   4   5
ENDBRANCH   3   4
ENDBRANCH   2   3
ENDBRANCH   1   2
BRANCH   1  15
ATOM     15  C   UNL     1       0.948   5.410  -3.484  1.00  0.00     0.000 C 
BRANCH  15  16
ATOM     16  C   UNL     1       0.792   3.920  -3.113  1.00  0.00     0.000 C 
BRANCH  16  17
ATOM     17  C   UNL     1       0.155   3.070  -4.225  1.00  0.00     0.000 C 
BRANCH  17  18
ATOM     18  C   UNL     1      -1.313   2.706  -3.939  1.00  0.00    -0.000 C 
BRANCH  18  19
ATOM     19  C   UNL     1      -1.582   2.512  -2.431  1.00  0.00    -0.000 C 
BRANCH  19  20
ATOM     20  C   UNL     1      -3.079   2.504  -2.069  1.00  0.00    -0.000 C 
BRANCH  20  21
ATOM     21  C   UNL     1      -3.957   3.124  -3.163  1.00  0.00    -0.000 C 
BRANCH  21  22
ATOM     22  C   UNL     1      -5.445   2.848  -2.908  1.00  0.00    -0.000 C 
BRANCH  22  23
ATOM     23  C   UNL     1      -6.053   1.879  -3.938  1.00  0.00    -0.000 C 
BRANCH  23  24
ATOM     24  C   UNL     1      -5.742   0.395  -3.652  1.00  0.00    -0.000 C 
BRANCH  24  25
ATOM     25  C   UNL     1      -4.460  -0.078  -4.357  1.00  0.00    -0.003 C 
ATOM     26  C   UNL     1      -3.689  -1.069  -3.492  1.00  0.00     0.004 C 
ENDBRANCH  24  25
ENDBRANCH  23  24
ENDBRANCH  22  23
ENDBRANCH  21  22
ENDBRANCH  20  21
ENDBRANCH  19  20
ENDBRANCH  18  19
ENDBRANCH  17  18
ENDBRANCH  16  17
ENDBRANCH  15  16
ENDBRANCH   1  15
TORSDOF 22
ENDMDL
MODEL 3
REMARK VINA RESULT:    -4.141      1.583      3.134
REMARK INTER + INTRA:         -13.014
REMARK INTER:                 -10.377
REMARK INTRA:                  -2.637
REMARK UNBOUND:                -3.548
REMARK SMILES CCCCCCCCCCCCCCCCCCCCCCCC(=O)[O-]
REMARK SMILES IDX 13 1 14 2 15 3 16 4 17 5 18 6 19 7 20 8 21 9 22 10 23 11
REMARK SMILES IDX 24 12 25 13 26 14 12 15 11 16 10 17 9 18 8 19 7 20 6 21 5 22
REMARK SMILES IDX 4 23 3 24 2 25 1 26
REMARK H PARENT
REMARK Flexibility Score: inf
ROOT
ATOM      1  C   UNL     1      -3.165   2.565  -2.238  1.00  0.00     0.000 C 
ENDROOT
BRANCH   1   2
ATOM      2  C   UNL     1      -4.180   3.100  -3.261  1.00  0.00     0.000 C 
BRANCH   2   3
ATOM      3  C   UNL     1      -5.610   2.612  -2.987  1.00  0.00     0.000 C 
BRANCH   3   4
ATOM      4  C   UNL     1      -5.781   1.150  -3.416  1.00  0.00     0.000 C 
BRANCH   4   5
ATOM      5  C   UNL     1      -5.156   0.902  -4.794  1.00  0.00     0.000 C 
BRANCH   5   6
ATOM      6  C   UNL     1      -4.333  -0.395  -4.798  1.00  0.00     0.000 C 
BRANCH   6   7
ATOM      7  C   UNL     1      -4.038  -0.923  -3.381  1.00  0.00     0.000 C 
BRANCH   7   8
ATOM      8  C   UNL     1      -3.210  -2.222  -3.329  1.00  0.00     0.000 C 
BRANCH   8   9
ATOM      9  C   UNL     1      -3.404  -3.105  -4.573  1.00  0.00     0.000 C 
BRANCH   9  10
ATOM     10  C   UNL     1      -2.199  -4.023  -4.853  1.00  0.00     0.006 C 
BRANCH  10  11
ATOM     11  C   UNL     1      -2.523  -5.223  -5.762  1.00  0.00     0.053 C 
BRANCH  11  12
ATOM     12  C   UNL     1      -2.983  -6.421  -4.989  1.00  0.00     0.041 C 
ATOM     13  O   UNL     1      -3.712  -7.289  -5.539  1.00  0.00    -0.550 OA
ATOM     14  O   UNL     1      -2.584  -6.597  -3.670  1.00  0.00    -0.550 OA
ENDBRANCH  11  12
ENDBRANCH  10  11
ENDBRANCH   9  10
ENDBRANCH   8   9
ENDBRANCH   7   8
ENDBRANCH   6   7
ENDBRANCH   5   6
ENDBRANCH   4   5
ENDBRANCH   3   4
ENDBRANCH   2   3
ENDBRANCH   1   2
BRANCH   1  15
ATOM     15  C   UNL     1      -1.838   2.136  -2.886  1.00  0.00     0.000 C 
BRANCH  15  16
ATOM     16  C   UNL     1      -1.794   2.458  -4.395  1.00  0.00     0.000 C 
BRANCH  16  17
ATOM     17  C   UNL     1      -0.487   3.132  -4.845  1.00  0.00     0.000 C 
BRANCH  17  18
ATOM     18  C   UNL     1      -0.022   4.244  -3.890  1.00  0.00    -0.000 C 
BRANCH  18  19
ATOM     19  C   UNL     1       1.320   3.903  -3.208  1.00  0.00    -0.000 C 
BRANCH  19  20
ATOM     20  C   UNL     1       1.734   2.429  -3.363  1.00  0.00    -0.000 C 
BRANCH  20  21
ATOM     21  C   UNL     1       3.223   2.197  -3.073  1.00  0.00    -0.000 C 
BRANCH  21  22
ATOM     22  C   UNL     1       3.948   1.625  -4.298  1.00  0.00    -0.000 C 
BRANCH  22  23
ATOM     23  C   UNL     1       4.140   2.668  -5.413  1.00  0.00    -0.000 C 
BRANCH  23  24
ATOM     24  C   UNL     1       4.208   2.055  -6.829  1.00  0.00    -0.000 C 
BRANCH  24  25
ATOM     25  C   UNL     1       3.465   2.910  -7.869  1.00  0.00    -0.003 C 
ATOM     26  C   UNL     1       2.434   3.815  -7.203  1.00  0.00     0.004 C 
ENDBRANCH  24  25
ENDBRANCH  23  24
ENDBRANCH  22  23
ENDBRANCH  21  22
ENDBRANCH  20  21
ENDBRANCH  19  20
ENDBRANCH  18  19
ENDBRANCH  17  18
ENDBRANCH  16  17
ENDBRANCH  15  16
ENDBRANCH   1  15
TORSDOF 22
ENDMDL
MODEL 4
REMARK VINA RESULT:    -4.098      1.601      3.750
REMARK INTER + INTRA:         -12.916
REMARK INTER:                 -10.172
REMARK INTRA:                  -2.744
REMARK UNBOUND:                -3.548
REMARK SMILES CCCCCCCCCCCCCCCCCCCCCCCC(=O)[O-]
REMARK SMILES IDX 13 1 14 2 15 3 16 4 17 5 18 6 19 7 20 8 21 9 22 10 23 11
REMARK SMILES IDX 24 12 25 13 26 14 12 15 11 16 10 17 9 18 8 19 7 20 6 21 5 22
REMARK SMILES IDX 4 23 3 24 2 25 1 26
REMARK H PARENT
REMARK Flexibility Score: inf
ROOT
ATOM      1  C   UNL     1      -0.406   4.799  -5.629  1.00  0.00     0.000 C 
ENDROOT
BRANCH   1   2
ATOM      2  C   UNL     1      -0.821   3.507  -6.351  1.00  0.00     0.000 C 
BRANCH   2   3
ATOM      3  C   UNL     1      -1.946   2.757  -5.621  1.00  0.00     0.000 C 
BRANCH   3   4
ATOM      4  C   UNL     1      -2.367   3.506  -4.351  1.00  0.00     0.000 C 
BRANCH   4   5
ATOM      5  C   UNL     1      -1.876   2.781  -3.093  1.00  0.00     0.000 C 
BRANCH   5   6
ATOM      6  C   UNL     1      -3.053   2.409  -2.179  1.00  0.00     0.000 C 
BRANCH   6   7
ATOM      7  C   UNL     1      -4.397   2.344  -2.928  1.00  0.00     0.000 C 
BRANCH   7   8
ATOM      8  C   UNL     1      -4.774   0.952  -3.471  1.00  0.00     0.000 C 
BRANCH   8   9
ATOM      9  C   UNL     1      -3.642  -0.078  -3.313  1.00  0.00     0.000 C 
BRANCH   9  10
ATOM     10  C   UNL     1      -4.151  -1.532  -3.287  1.00  0.00     0.006 C 
BRANCH  10  11
ATOM     11  C   UNL     1      -3.832  -2.330  -4.565  1.00  0.00     0.053 C 
BRANCH  11  12
ATOM     12  C   UNL     1      -3.193  -3.653  -4.271  1.00  0.00     0.041 C 
ATOM     13  O   UNL     1      -1.972  -3.836  -4.519  1.00  0.00    -0.550 OA
ATOM     14  O   UNL     1      -3.938  -4.677  -3.698  1.00  0.00    -0.550 OA
ENDBRANCH  11  12
ENDBRANCH  10  11
ENDBRANCH   9  10
ENDBRANCH   8   9
ENDBRANCH   7   8
ENDBRANCH   6   7
ENDBRANCH   5   6
ENDBRANCH   4   5
ENDBRANCH   3   4
ENDBRANCH   2   3
ENDBRANCH   1   2
BRANCH   1  15
ATOM     15  C   UNL     1       1.043   4.751  -5.113  1.00  0.00     0.000 C 
BRANCH  15  16
ATOM     16  C   UNL     1       1.515   3.309  -4.834  1.00  0.00     0.000 C 
BRANCH  16  17
ATOM     17  C   UNL     1       1.790   3.025  -3.348  1.00  0.00     0.000 C 
BRANCH  17  18
ATOM     18  C   UNL     1       2.753   1.845  -3.128  1.00  0.00    -0.000 C 
BRANCH  18  19
ATOM     19  C   UNL     1       4.112   2.064  -3.827  1.00  0.00    -0.000 C 
BRANCH  19  20
ATOM     20  C   UNL     1       4.837   3.345  -3.377  1.00  0.00    -0.000 C 
BRANCH  20  21
ATOM     21  C   UNL     1       5.059   4.336  -4.527  1.00  0.00    -0.000 C 
BRANCH  21  22
ATOM     22  C   UNL     1       5.257   3.606  -5.862  1.00  0.00    -0.000 C 
BRANCH  22  23
ATOM     23  C   UNL     1       4.364   4.166  -6.983  1.00  0.00    -0.000 C 
BRANCH  23  24
ATOM     24  C   UNL     1       3.609   3.077  -7.776  1.00  0.00    -0.000 C 
BRANCH  24  25
ATOM     25  C   UNL     1       4.239   1.686  -7.598  1.00  0.00    -0.003 C 
ATOM     26  C   UNL     1       5.196   1.364  -8.741  1.00  0.00     0.004 C 
ENDBRANCH  24  25
ENDBRANCH  23  24
ENDBRANCH  22  23
ENDBRANCH  21  22
ENDBRANCH  20  21
ENDBRANCH  19  20
ENDBRANCH  18  19
ENDBRANCH  17  18
ENDBRANCH  16  17
ENDBRANCH  15  16
ENDBRANCH   1  15
TORSDOF 22
ENDMDL
MODEL 5
REMARK VINA RESULT:    -4.087      1.556      3.084
REMARK INTER + INTRA:         -12.890
REMARK INTER:                 -10.376
REMARK INTRA:                  -2.514
REMARK UNBOUND:                -3.548
REMARK SMILES CCCCCCCCCCCCCCCCCCCCCCCC(=O)[O-]
REMARK SMILES IDX 13 1 14 2 15 3 16 4 17 5 18 6 19 7 20 8 21 9 22 10 23 11
REMARK SMILES IDX 24 12 25 13 26 14 12 15 11 16 10 17 9 18 8 19 7 20 6 21 5 22
REMARK SMILES IDX 4 23 3 24 2 25 1 26
REMARK H PARENT
REMARK Flexibility Score: inf
ROOT
ATOM      1  C   UNL     1      -2.666   1.955  -4.506  1.00  0.00     0.000 C 
ENDROOT
BRANCH   1   2
ATOM      2  C   UNL     1      -2.637   1.860  -2.973  1.00  0.00     0.000 C 
BRANCH   2   3
ATOM      3  C   UNL     1      -3.792   2.625  -2.310  1.00  0.00     0.000 C 
BRANCH   3   4
ATOM      4  C   UNL     1      -4.741   3.204  -3.366  1.00  0.00     0.000 C 
BRANCH   4   5
ATOM      5  C   UNL     1      -6.204   2.915  -3.013  1.00  0.00     0.000 C 
BRANCH   5   6
ATOM      6  C   UNL     1      -6.581   1.471  -3.374  1.00  0.00     0.000 C 
BRANCH   6   7
ATOM      7  C   UNL     1      -6.153   1.077  -4.801  1.00  0.00     0.000 C 
BRANCH   7   8
ATOM      8  C   UNL     1      -5.479  -0.303  -4.922  1.00  0.00     0.000 C 
BRANCH   8   9
ATOM      9  C   UNL     1      -4.965  -0.838  -3.575  1.00  0.00     0.000 C 
BRANCH   9  10
ATOM     10  C   UNL     1      -3.738  -1.756  -3.720  1.00  0.00     0.006 C 
BRANCH  10  11
ATOM     11  C   UNL     1      -3.881  -2.825  -4.819  1.00  0.00     0.053 C 
BRANCH  11  12
ATOM     12  C   UNL     1      -3.082  -4.059  -4.528  1.00  0.00     0.041 C 
ATOM     13  O   UNL     1      -1.872  -4.127  -4.874  1.00  0.00    -0.550 OA
ATOM     14  O   UNL     1      -3.662  -5.125  -3.851  1.00  0.00    -0.550 OA
ENDBRANCH  11  12
ENDBRANCH  10  11
ENDBRANCH   9  10
ENDBRANCH   8   9
ENDBRANCH   7   8
ENDBRANCH   6   7
ENDBRANCH   5   6
ENDBRANCH   4   5
ENDBRANCH   3   4
ENDBRANCH   2   3
ENDBRANCH   1   2
BRANCH   1  15
ATOM     15  C   UNL     1      -1.549   2.853  -5.067  1.00  0.00     0.000 C 
BRANCH  15  16
ATOM     16  C   UNL     1      -0.553   3.296  -3.975  1.00  0.00     0.000 C 
BRANCH  16  17
ATOM     17  C   UNL     1       0.914   3.286  -4.435  1.00  0.00     0.000 C 
BRANCH  17  18
ATOM     18  C   UNL     1       1.912   3.224  -3.266  1.00  0.00    -0.000 C 
BRANCH  18  19
ATOM     19  C   UNL     1       2.692   1.892  -3.235  1.00  0.00    -0.000 C 
BRANCH  19  20
ATOM     20  C   UNL     1       3.822   1.815  -4.278  1.00  0.00    -0.000 C 
BRANCH  20  21
ATOM     21  C   UNL     1       4.490   3.173  -4.530  1.00  0.00    -0.000 C 
BRANCH  21  22
ATOM     22  C   UNL     1       4.798   3.375  -6.019  1.00  0.00    -0.000 C 
BRANCH  22  23
ATOM     23  C   UNL     1       3.544   3.263  -6.905  1.00  0.00    -0.000 C 
BRANCH  23  24
ATOM     24  C   UNL     1       3.832   2.719  -8.321  1.00  0.00    -0.000 C 
BRANCH  24  25
ATOM     25  C   UNL     1       4.956   1.669  -8.323  1.00  0.00    -0.003 C 
ATOM     26  C   UNL     1       4.500   0.375  -8.990  1.00  0.00     0.004 C 
ENDBRANCH  24  25
ENDBRANCH  23  24
ENDBRANCH  22  23
ENDBRANCH  21  22
ENDBRANCH  20  21
ENDBRANCH  19  20
ENDBRANCH  18  19
ENDBRANCH  17  18
ENDBRANCH  16  17
ENDBRANCH  15  16
ENDBRANCH   1  15
TORSDOF 22
ENDMDL
MODEL 6
REMARK VINA RESULT:    -4.003      3.676      7.618
REMARK INTER + INTRA:         -12.699
REMARK INTER:                  -8.671
REMARK INTRA:                  -4.028
REMARK UNBOUND:                -3.548
REMARK SMILES CCCCCCCCCCCCCCCCCCCCCCCC(=O)[O-]
REMARK SMILES IDX 13 1 14 2 15 3 16 4 17 5 18 6 19 7 20 8 21 9 22 10 23 11
REMARK SMILES IDX 24 12 25 13 26 14 12 15 11 16 10 17 9 18 8 19 7 20 6 21 5 22
REMARK SMILES IDX 4 23 3 24 2 25 1 26
REMARK H PARENT
REMARK Flexibility Score: inf
ROOT
ATOM      1  C   UNL     1       1.086   4.045  -7.110  1.00  0.00     0.000 C 
ENDROOT
BRANCH   1   2
ATOM      2  C   UNL     1       2.545   3.845  -7.548  1.00  0.00     0.000 C 
BRANCH   2   3
ATOM      3  C   UNL     1       3.343   2.972  -6.568  1.00  0.00     0.000 C 
BRANCH   3   4
ATOM      4  C   UNL     1       4.138   3.841  -5.585  1.00  0.00     0.000 C 
BRANCH   4   5
ATOM      5  C   UNL     1       4.290   3.143  -4.229  1.00  0.00     0.000 C 
BRANCH   5   6
ATOM      6  C   UNL     1       3.383   1.906  -4.144  1.00  0.00     0.000 C 
BRANCH   6   7
ATOM      7  C   UNL     1       2.220   2.081  -3.151  1.00  0.00     0.000 C 
BRANCH   7   8
ATOM      8  C   UNL     1       0.955   2.737  -3.736  1.00  0.00     0.000 C 
BRANCH   8   9
ATOM      9  C   UNL     1       0.435   3.904  -2.878  1.00  0.00     0.000 C 
BRANCH   9  10
ATOM     10  C   UNL     1       0.502   5.261  -3.604  1.00  0.00     0.006 C 
BRANCH  10  11
ATOM     11  C   UNL     1       1.878   5.947  -3.523  1.00  0.00     0.053 C 
BRANCH  11  12
ATOM     12  C   UNL     1       2.142   6.844  -4.695  1.00  0.00     0.041 C 
ATOM     13  O   UNL     1       1.197   7.193  -5.451  1.00  0.00    -0.550 OA
ATOM     14  O   UNL     1       3.425   7.317  -4.937  1.00  0.00    -0.550 OA
ENDBRANCH  11  12
ENDBRANCH  10  11
ENDBRANCH   9  10
ENDBRANCH   8   9
ENDBRANCH   7   8
ENDBRANCH   6   7
ENDBRANCH   5   6
ENDBRANCH   4   5
ENDBRANCH   3   4
ENDBRANCH   2   3
ENDBRANCH   1   2
BRANCH   1  15
ATOM     15  C   UNL     1       0.091   3.908  -8.276  1.00  0.00     0.000 C 
BRANCH  15  16
ATOM     16  C   UNL     1      -1.281   3.375  -7.812  1.00  0.00     0.000 C 
BRANCH  16  17
ATOM     17  C   UNL     1      -1.521   3.519  -6.301  1.00  0.00     0.000 C 
BRANCH  17  18
ATOM     18  C   UNL     1      -2.526   4.632  -5.954  1.00  0.00    -0.000 C 
BRANCH  18  19
ATOM     19  C   UNL     1      -2.966   4.580  -4.475  1.00  0.00    -0.000 C 
BRANCH  19  20
ATOM     20  C   UNL     1      -4.221   3.720  -4.235  1.00  0.00    -0.000 C 
BRANCH  20  21
ATOM     21  C   UNL     1      -4.221   3.043  -2.858  1.00  0.00    -0.000 C 
BRANCH  21  22
ATOM     22  C   UNL     1      -2.947   2.216  -2.643  1.00  0.00    -0.000 C 
BRANCH  22  23
ATOM     23  C   UNL     1      -2.782   1.097  -3.688  1.00  0.00    -0.000 C 
BRANCH  23  24
ATOM     24  C   UNL     1      -3.607  -0.169  -3.375  1.00  0.00    -0.000 C 
BRANCH  24  25
ATOM     25  C   UNL     1      -4.735  -0.396  -4.396  1.00  0.00    -0.003 C 
ATOM     26  C   UNL     1      -4.477   0.381  -5.683  1.00  0.00     0.004 C 
ENDBRANCH  24  25
ENDBRANCH  23  24
ENDBRANCH  22  23
ENDBRANCH  21  22
ENDBRANCH  20  21
ENDBRANCH  19  20
ENDBRANCH  18  19
ENDBRANCH  17  18
ENDBRANCH  16  17
ENDBRANCH  15  16
ENDBRANCH   1  15
TORSDOF 22
ENDMDL
MODEL 7
REMARK VINA RESULT:    -3.996      1.926      3.841
REMARK INTER + INTRA:         -12.683
REMARK INTER:                  -9.594
REMARK INTRA:                  -3.089
REMARK UNBOUND:                -3.548
REMARK SMILES CCCCCCCCCCCCCCCCCCCCCCCC(=O)[O-]
REMARK SMILES IDX 13 1 14 2 15 3 16 4 17 5 18 6 19 7 20 8 21 9 22 10 23 11
REMARK SMILES IDX 24 12 25 13 26 14 12 15 11 16 10 17 9 18 8 19 7 20 6 21 5 22
REMARK SMILES IDX 4 23 3 24 2 25 1 26
REMARK H PARENT
REMARK Flexibility Score: inf
ROOT
ATOM      1  C   UNL     1      -1.159   3.624  -6.945  1.00  0.00     0.000 C 
ENDROOT
BRANCH   1   2
ATOM      2  C   UNL     1      -2.292   2.690  -6.490  1.00  0.00     0.000 C 
BRANCH   2   3
ATOM      3  C   UNL     1      -3.686   3.287  -6.734  1.00  0.00     0.000 C 
BRANCH   3   4
ATOM      4  C   UNL     1      -4.754   2.188  -6.760  1.00  0.00     0.000 C 
BRANCH   4   5
ATOM      5  C   UNL     1      -5.824   2.431  -5.689  1.00  0.00     0.000 C 
BRANCH   5   6
ATOM      6  C   UNL     1      -5.342   3.462  -4.658  1.00  0.00     0.000 C 
BRANCH   6   7
ATOM      7  C   UNL     1      -4.981   2.831  -3.300  1.00  0.00     0.000 C 
BRANCH   7   8
ATOM      8  C   UNL     1      -3.508   2.992  -2.878  1.00  0.00     0.000 C 
BRANCH   8   9
ATOM      9  C   UNL     1      -2.782   1.645  -2.718  1.00  0.00     0.000 C 
BRANCH   9  10
ATOM     10  C   UNL     1      -3.119   0.643  -3.839  1.00  0.00     0.006 C 
BRANCH  10  11
ATOM     11  C   UNL     1      -3.958  -0.561  -3.371  1.00  0.00     0.053 C 
BRANCH  11  12
ATOM     12  C   UNL     1      -5.013  -0.945  -4.363  1.00  0.00     0.041 C 
ATOM     13  O   UNL     1      -4.692  -1.270  -5.537  1.00  0.00    -0.550 OA
ATOM     14  O   UNL     1      -6.350  -0.972  -3.986  1.00  0.00    -0.550 OA
ENDBRANCH  11  12
ENDBRANCH  10  11
ENDBRANCH   9  10
ENDBRANCH   8   9
ENDBRANCH   7   8
ENDBRANCH   6   7
ENDBRANCH   5   6
ENDBRANCH   4   5
ENDBRANCH   3   4
ENDBRANCH   2   3
ENDBRANCH   1   2
BRANCH   1  15
ATOM     15  C   UNL     1      -0.011   3.707  -5.924  1.00  0.00     0.000 C 
BRANCH  15  16
ATOM     16  C   UNL     1      -0.305   4.718  -4.796  1.00  0.00     0.000 C 
BRANCH  16  17
ATOM     17  C   UNL     1      -0.046   4.164  -3.386  1.00  0.00     0.000 C 
BRANCH  17  18
ATOM     18  C   UNL     1       0.795   2.875  -3.390  1.00  0.00    -0.000 C 
BRANCH  18  19
ATOM     19  C   UNL     1       2.299   3.159  -3.195  1.00  0.00    -0.000 C 
BRANCH  19  20
ATOM     20  C   UNL     1       3.162   1.887  -3.116  1.00  0.00    -0.000 C 
BRANCH  20  21
ATOM     21  C   UNL     1       3.816   1.530  -4.458  1.00  0.00    -0.000 C 
BRANCH  21  22
ATOM     22  C   UNL     1       4.151   2.789  -5.268  1.00  0.00    -0.000 C 
BRANCH  22  23
ATOM     23  C   UNL     1       3.743   2.669  -6.747  1.00  0.00    -0.000 C 
BRANCH  23  24
ATOM     24  C   UNL     1       4.868   3.049  -7.733  1.00  0.00    -0.000 C 
BRANCH  24  25
ATOM     25  C   UNL     1       5.395   1.832  -8.512  1.00  0.00    -0.003 C 
ATOM     26  C   UNL     1       4.445   0.645  -8.389  1.00  0.00     0.004 C 
ENDBRANCH  24  25
ENDBRANCH  23  24
ENDBRANCH  22  23
ENDBRANCH  21  22
ENDBRANCH  20  21
ENDBRANCH  19  20
ENDBRANCH  18  19
ENDBRANCH  17  18
ENDBRANCH  16  17
ENDBRANCH  15  16
ENDBRANCH   1  15
TORSDOF 22
ENDMDL
MODEL 8
REMARK VINA RESULT:    -3.996      3.309      7.271
REMARK INTER + INTRA:         -12.683
REMARK INTER:                  -9.068
REMARK INTRA:                  -3.615
REMARK UNBOUND:                -3.548
REMARK SMILES CCCCCCCCCCCCCCCCCCCCCCCC(=O)[O-]
REMARK SMILES IDX 13 1 14 2 15 3 16 4 17 5 18 6 19 7 20 8 21 9 22 10 23 11
REMARK SMILES IDX 24 12 25 13 26 14 12 15 11 16 10 17 9 18 8 19 7 20 6 21 5 22
REMARK SMILES IDX 4 23 3 24 2 25 1 26
REMARK H PARENT
REMARK Flexibility Score: inf
ROOT
ATOM      1  C   UNL     1      -2.859   2.616  -2.178  1.00  0.00     0.000 C 
ENDROOT
BRANCH   1   2
ATOM      2  C   UNL     1      -1.516   2.185  -2.787  1.00  0.00     0.000 C 
BRANCH   2   3
ATOM      3  C   UNL     1      -0.521   3.349  -2.910  1.00  0.00     0.000 C 
BRANCH   3   4
ATOM      4  C   UNL     1       0.651   2.971  -3.825  1.00  0.00     0.000 C 
BRANCH   4   5
ATOM      5  C   UNL     1       1.995   3.208  -3.127  1.00  0.00     0.000 C 
BRANCH   5   6
ATOM      6  C   UNL     1       2.768   1.890  -2.965  1.00  0.00     0.000 C 
BRANCH   6   7
ATOM      7  C   UNL     1       4.040   1.830  -3.832  1.00  0.00     0.000 C 
BRANCH   7   8
ATOM      8  C   UNL     1       3.793   1.626  -5.339  1.00  0.00     0.000 C 
BRANCH   8   9
ATOM      9  C   UNL     1       4.198   2.848  -6.181  1.00  0.00     0.000 C 
BRANCH   9  10
ATOM     10  C   UNL     1       2.989   3.657  -6.688  1.00  0.00     0.006 C 
BRANCH  10  11
ATOM     11  C   UNL     1       2.594   3.350  -8.144  1.00  0.00     0.053 C 
BRANCH  11  12
ATOM     12  C   UNL     1       3.755   2.879  -8.967  1.00  0.00     0.041 C 
ATOM     13  O   UNL     1       3.901   1.653  -9.213  1.00  0.00    -0.550 OA
ATOM     14  O   UNL     1       4.661   3.796  -9.486  1.00  0.00    -0.550 OA
ENDBRANCH  11  12
ENDBRANCH  10  11
ENDBRANCH   9  10
ENDBRANCH   8   9
ENDBRANCH   7   8
ENDBRANCH   6   7
ENDBRANCH   5   6
ENDBRANCH   4   5
ENDBRANCH   3   4
ENDBRANCH   2   3
ENDBRANCH   1   2
BRANCH   1  15
ATOM     15  C   UNL     1      -4.066   2.126  -2.997  1.00  0.00     0.000 C 
BRANCH  15  16
ATOM     16  C   UNL     1      -3.901   0.664  -3.462  1.00  0.00     0.000 C 
BRANCH  16  17
ATOM     17  C   UNL     1      -4.253   0.444  -4.943  1.00  0.00     0.000 C 
BRANCH  17  18
ATOM     18  C   UNL     1      -4.480   1.758  -5.710  1.00  0.00    -0.000 C 
BRANCH  18  19
ATOM     19  C   UNL     1      -3.389   2.008  -6.774  1.00  0.00    -0.000 C 
BRANCH  19  20
ATOM     20  C   UNL     1      -2.132   2.700  -6.216  1.00  0.00    -0.000 C 
BRANCH  20  21
ATOM     21  C   UNL     1      -1.308   3.400  -7.305  1.00  0.00    -0.000 C 
BRANCH  21  22
ATOM     22  C   UNL     1      -0.670   4.691  -6.778  1.00  0.00    -0.000 C 
BRANCH  22  23
ATOM     23  C   UNL     1      -1.558   5.416  -5.750  1.00  0.00    -0.000 C 
BRANCH  23  24
ATOM     24  C   UNL     1      -2.557   6.408  -6.385  1.00  0.00    -0.000 C 
BRANCH  24  25
ATOM     25  C   UNL     1      -4.018   5.983  -6.165  1.00  0.00    -0.003 C 
ATOM     26  C   UNL     1      -4.209   5.359  -4.786  1.00  0.00     0.004 C 
ENDBRANCH  24  25
ENDBRANCH  23  24
ENDBRANCH  22  23
ENDBRANCH  21  22
ENDBRANCH  20  21
ENDBRANCH  19  20
ENDBRANCH  18  19
ENDBRANCH  17  18
ENDBRANCH  16  17
ENDBRANCH  15  16
ENDBRANCH   1  15
TORSDOF 22
ENDMDL
MODEL 9
REMARK VINA RESULT:    -3.989      1.619      4.564
REMARK INTER + INTRA:         -12.667
REMARK INTER:                  -9.236
REMARK INTRA:                  -3.431
REMARK UNBOUND:                -3.548
REMARK SMILES CCCCCCCCCCCCCCCCCCCCCCCC(=O)[O-]
REMARK SMILES IDX 13 1 14 2 15 3 16 4 17 5 18 6 19 7 20 8 21 9 22 10 23 11
REMARK SMILES IDX 24 12 25 13 26 14 12 15 11 16 10 17 9 18 8 19 7 20 6 21 5 22
REMARK SMILES IDX 4 23 3 24 2 25 1 26
REMARK H PARENT
REMARK Flexibility Score: inf
ROOT
ATOM      1  C   UNL     1       1.535   3.813  -8.284  1.00  0.00     0.000 C 
ENDROOT
BRANCH   1   2
ATOM      2  C   UNL     1       1.089   4.820  -7.213  1.00  0.00     0.000 C 
BRANCH   2   3
ATOM      3  C   UNL     1       0.118   4.207  -6.192  1.00  0.00     0.000 C 
BRANCH   3   4
ATOM      4  C   UNL     1      -1.020   3.463  -6.900  1.00  0.00     0.000 C 
BRANCH   4   5
ATOM      5  C   UNL     1      -1.881   2.687  -5.896  1.00  0.00     0.000 C 
BRANCH   5   6
ATOM      6  C   UNL     1      -2.202   3.550  -4.667  1.00  0.00     0.000 C 
BRANCH   6   7
ATOM      7  C   UNL     1      -1.801   2.878  -3.340  1.00  0.00     0.000 C 
BRANCH   7   8
ATOM      8  C   UNL     1      -2.969   2.583  -2.379  1.00  0.00     0.000 C 
BRANCH   8   9
ATOM      9  C   UNL     1      -3.988   1.589  -2.964  1.00  0.00     0.000 C 
BRANCH   9  10
ATOM     10  C   UNL     1      -3.339   0.282  -3.455  1.00  0.00     0.006 C 
BRANCH  10  11
ATOM     11  C   UNL     1      -4.338  -0.733  -4.041  1.00  0.00     0.053 C 
BRANCH  11  12
ATOM     12  C   UNL     1      -4.016  -2.145  -3.655  1.00  0.00     0.041 C 
ATOM     13  O   UNL     1      -4.942  -2.982  -3.487  1.00  0.00    -0.550 OA
ATOM     14  O   UNL     1      -2.694  -2.545  -3.506  1.00  0.00    -0.550 OA
ENDBRANCH  11  12
ENDBRANCH  10  11
ENDBRANCH   9  10
ENDBRANCH   8   9
ENDBRANCH   7   8
ENDBRANCH   6   7
ENDBRANCH   5   6
ENDBRANCH   4   5
ENDBRANCH   3   4
ENDBRANCH   2   3
ENDBRANCH   1   2
BRANCH   1  15
ATOM     15  C   UNL     1       3.002   3.379  -8.117  1.00  0.00     0.000 C 
BRANCH  15  16
ATOM     16  C   UNL     1       3.740   4.216  -7.051  1.00  0.00     0.000 C 
BRANCH  16  17
ATOM     17  C   UNL     1       4.564   3.371  -6.064  1.00  0.00     0.000 C 
BRANCH  17  18
ATOM     18  C   UNL     1       3.792   2.156  -5.521  1.00  0.00    -0.000 C 
BRANCH  18  19
ATOM     19  C   UNL     1       4.205   1.801  -4.076  1.00  0.00    -0.000 C 
BRANCH  19  20
ATOM     20  C   UNL     1       3.056   1.919  -3.059  1.00  0.00    -0.000 C 
BRANCH  20  21
ATOM     21  C   UNL     1       1.819   2.618  -3.640  1.00  0.00    -0.000 C 
BRANCH  21  22
ATOM     22  C   UNL     1       1.595   3.988  -2.987  1.00  0.00    -0.000 C 
BRANCH  22  23
ATOM     23  C   UNL     1       2.558   5.064  -3.519  1.00  0.00    -0.000 C 
BRANCH  23  24
ATOM     24  C   UNL     1       1.892   6.441  -3.733  1.00  0.00    -0.000 C 
BRANCH  24  25
ATOM     25  C   UNL     1       0.380   6.406  -3.453  1.00  0.00    -0.003 C 
ATOM     26  C   UNL     1      -0.365   7.412  -4.325  1.00  0.00     0.004 C 
ENDBRANCH  24  25
ENDBRANCH  23  24
ENDBRANCH  22  23
ENDBRANCH  21  22
ENDBRANCH  20  21
ENDBRANCH  19  20
ENDBRANCH  18  19
ENDBRANCH  17  18
ENDBRANCH  16  17
ENDBRANCH  15  16
ENDBRANCH   1  15
TORSDOF 22
ENDMDL
