MODEL 1
REMARK VINA RESULT:    -4.844      0.000      0.000
REMARK INTER + INTRA:          -8.214
REMARK INTER:                  -7.675
REMARK INTRA:                  -0.539
REMARK UNBOUND:                -0.539
REMARK SMILES CCCCCCCCCCCC(=O)[O-]
REMARK SMILES IDX 7 1 8 2 9 3 10 4 11 5 12 6 13 7 14 8 6 9 5 10 4 11 3 12 2 13
REMARK SMILES IDX 1 14
REMARK H PARENT
REMARK Flexibility Score: inf
ROOT
ATOM      1  C   UNL     1      21.611   5.842  -9.752  1.00  0.00     0.000 C 
ENDROOT
BRANCH   1   2
ATOM      2  C   UNL     1      20.145   5.828  -9.296  1.00  0.00     0.000 C 
BRANCH   2   3
ATOM      3  C   UNL     1      19.294   6.898  -9.999  1.00  0.00     0.000 C 
BRANCH   3   4
ATOM      4  C   UNL     1      18.295   6.295 -11.001  1.00  0.00     0.006 C 
BRANCH   4   5
ATOM      5  C   UNL     1      18.256   4.763 -10.927  1.00  0.00     0.053 C 
BRANCH   5   6
ATOM      6  C   UNL     1      16.865   4.252 -10.709  1.00  0.00     0.041 C 
ATOM      7  O   UNL     1      16.033   4.938 -10.059  1.00  0.00    -0.550 OA
ATOM      8  O   UNL     1      16.497   3.003 -11.195  1.00  0.00    -0.550 OA
ENDBRANCH   5   6
ENDBRANCH   4   5
ENDBRANCH   3   4
ENDBRANCH   2   3
ENDBRANCH   1   2
BRANCH   1   9
ATOM      9  C   UNL     1      21.930   7.125 -10.532  1.00  0.00     0.000 C 
BRANCH   9  10
ATOM     10  C   UNL     1      21.688   6.981 -12.045  1.00  0.00    -0.000 C 
BRANCH  10  11
ATOM     11  C   UNL     1      21.532   5.531 -12.544  1.00  0.00    -0.000 C 
BRANCH  11  12
ATOM     12  C   UNL     1      22.850   4.817 -12.906  1.00  0.00    -0.000 C 
BRANCH  12  13
ATOM     13  C   UNL     1      23.926   5.724 -13.528  1.00  0.00    -0.003 C 
ATOM     14  C   UNL     1      25.108   4.941 -14.098  1.00  0.00     0.004 C 
ENDBRANCH  12  13
ENDBRANCH  11  12
ENDBRANCH  10  11
ENDBRANCH   9  10
ENDBRANCH   1   9
TORSDOF 10
ENDMDL
MODEL 2
REMARK VINA RESULT:    -4.671      1.343      2.348
REMARK INTER + INTRA:          -7.940
REMARK INTER:                  -6.869
REMARK INTRA:                  -1.071
REMARK UNBOUND:                -0.539
REMARK SMILES CCCCCCCCCCCC(=O)[O-]
REMARK SMILES IDX 7 1 8 2 9 3 10 4 11 5 12 6 13 7 14 8 6 9 5 10 4 11 3 12 2 13
REMARK SMILES IDX 1 14
REMARK H PARENT
REMARK Flexibility Score: inf
ROOT
ATOM      1  C   UNL     1      21.783   6.223 -10.078  1.00  0.00     0.000 C 
ENDROOT
BRANCH   1   2
ATOM      2  C   UNL     1      20.337   6.094  -9.575  1.00  0.00     0.000 C 
BRANCH   2   3
ATOM      3  C   UNL     1      19.365   7.024 -10.319  1.00  0.00     0.000 C 
BRANCH   3   4
ATOM      4  C   UNL     1      18.088   6.298 -10.779  1.00  0.00     0.006 C 
BRANCH   4   5
ATOM      5  C   UNL     1      18.241   4.772 -10.729  1.00  0.00     0.053 C 
BRANCH   5   6
ATOM      6  C   UNL     1      16.912   4.082 -10.706  1.00  0.00     0.041 C 
ATOM      7  O   UNL     1      16.804   2.902 -11.131  1.00  0.00    -0.550 OA
ATOM      8  O   UNL     1      15.785   4.754 -10.247  1.00  0.00    -0.550 OA
ENDBRANCH   5   6
ENDBRANCH   4   5
ENDBRANCH   3   4
ENDBRANCH   2   3
ENDBRANCH   1   2
BRANCH   1   9
ATOM      9  C   UNL     1      21.854   7.125 -11.317  1.00  0.00     0.000 C 
BRANCH   9  10
ATOM     10  C   UNL     1      22.494   6.427 -12.530  1.00  0.00    -0.000 C 
BRANCH  10  11
ATOM     11  C   UNL     1      21.977   5.002 -12.809  1.00  0.00    -0.000 C 
BRANCH  11  12
ATOM     12  C   UNL     1      20.499   4.914 -13.242  1.00  0.00    -0.000 C 
BRANCH  12  13
ATOM     13  C   UNL     1      20.177   3.761 -14.208  1.00  0.00    -0.003 C 
ATOM     14  C   UNL     1      19.228   2.726 -13.606  1.00  0.00     0.004 C 
ENDBRANCH  12  13
ENDBRANCH  11  12
ENDBRANCH  10  11
ENDBRANCH   9  10
ENDBRANCH   1   9
TORSDOF 10
ENDMDL
MODEL 3
REMARK VINA RESULT:    -4.331      2.259      5.003
REMARK INTER + INTRA:          -7.401
REMARK INTER:                  -6.830
REMARK INTRA:                  -0.572
REMARK UNBOUND:                -0.539
REMARK SMILES CCCCCCCCCCCC(=O)[O-]
REMARK SMILES IDX 7 1 8 2 9 3 10 4 11 5 12 6 13 7 14 8 6 9 5 10 4 11 3 12 2 13
REMARK SMILES IDX 1 14
REMARK H PARENT
REMARK Flexibility Score: inf
ROOT
ATOM      1  C   UNL     1      20.407   5.920  -9.457  1.00  0.00     0.000 C 
ENDROOT
BRANCH   1   2
ATOM      2  C   UNL     1      21.846   5.950  -9.993  1.00  0.00     0.000 C 
BRANCH   2   3
ATOM      3  C   UNL     1      22.084   7.093 -10.992  1.00  0.00     0.000 C 
BRANCH   3   4
ATOM      4  C   UNL     1      22.152   6.600 -12.448  1.00  0.00     0.006 C 
BRANCH   4   5
ATOM      5  C   UNL     1      21.775   5.118 -12.576  1.00  0.00     0.053 C 
BRANCH   5   6
ATOM      6  C   UNL     1      20.520   4.930 -13.371  1.00  0.00     0.041 C 
ATOM      7  O   UNL     1      19.774   5.914 -13.618  1.00  0.00    -0.550 OA
ATOM      8  O   UNL     1      20.157   3.663 -13.810  1.00  0.00    -0.550 OA
ENDBRANCH   5   6
ENDBRANCH   4   5
ENDBRANCH   3   4
ENDBRANCH   2   3
ENDBRANCH   1   2
BRANCH   1   9
ATOM      9  C   UNL     1      19.607   7.125  -9.969  1.00  0.00     0.000 C 
BRANCH   9  10
ATOM     10  C   UNL     1      18.514   6.732 -10.979  1.00  0.00    -0.000 C 
BRANCH  10  11
ATOM     11  C   UNL     1      17.562   5.615 -10.507  1.00  0.00    -0.000 C 
BRANCH  11  12
ATOM     12  C   UNL     1      17.923   4.197 -10.996  1.00  0.00    -0.000 C 
BRANCH  12  13
ATOM     13  C   UNL     1      16.753   3.198 -10.998  1.00  0.00    -0.003 C 
ATOM     14  C   UNL     1      15.388   3.879 -10.909  1.00  0.00     0.004 C 
ENDBRANCH  12  13
ENDBRANCH  11  12
ENDBRANCH  10  11
ENDBRANCH   9  10
ENDBRANCH   1   9
TORSDOF 10
ENDMDL
MODEL 4
REMARK VINA RESULT:    -4.212      3.448      6.122
REMARK INTER + INTRA:          -7.214
REMARK INTER:                  -6.519
REMARK INTRA:                  -0.694
REMARK UNBOUND:                -0.539
REMARK SMILES CCCCCCCCCCCC(=O)[O-]
REMARK SMILES IDX 7 1 8 2 9 3 10 4 11 5 12 6 13 7 14 8 6 9 5 10 4 11 3 12 2 13
REMARK SMILES IDX 1 14
REMARK H PARENT
REMARK Flexibility Score: inf
ROOT
ATOM      1  C   UNL     1      20.492   5.929  -9.477  1.00  0.00     0.000 C 
ENDROOT
BRANCH   1   2
ATOM      2  C   UNL     1      21.812   6.364 -10.130  1.00  0.00     0.000 C 
BRANCH   2   3
ATOM      3  C   UNL     1      21.599   7.122 -11.450  1.00  0.00     0.000 C 
BRANCH   3   4
ATOM      4  C   UNL     1      21.547   6.184 -12.669  1.00  0.00     0.006 C 
BRANCH   4   5
ATOM      5  C   UNL     1      22.704   5.175 -12.672  1.00  0.00     0.053 C 
BRANCH   5   6
ATOM      6  C   UNL     1      23.909   5.715 -13.377  1.00  0.00     0.041 C 
ATOM      7  O   UNL     1      24.735   4.929 -13.912  1.00  0.00    -0.550 OA
ATOM      8  O   UNL     1      24.140   7.085 -13.413  1.00  0.00    -0.550 OA
ENDBRANCH   5   6
ENDBRANCH   4   5
ENDBRANCH   3   4
ENDBRANCH   2   3
ENDBRANCH   1   2
BRANCH   1   9
ATOM      9  C   UNL     1      19.335   6.832  -9.924  1.00  0.00     0.000 C 
BRANCH   9  10
ATOM     10  C   UNL     1      18.291   6.089 -10.776  1.00  0.00    -0.000 C 
BRANCH  10  11
ATOM     11  C   UNL     1      18.669   4.644 -11.155  1.00  0.00    -0.000 C 
BRANCH  11  12
ATOM     12  C   UNL     1      17.513   3.625 -11.086  1.00  0.00    -0.000 C 
BRANCH  12  13
ATOM     13  C   UNL     1      16.307   4.073 -10.244  1.00  0.00    -0.003 C 
ATOM     14  C   UNL     1      15.097   4.461 -11.094  1.00  0.00     0.004 C 
ENDBRANCH  12  13
ENDBRANCH  11  12
ENDBRANCH  10  11
ENDBRANCH   9  10
ENDBRANCH   1   9
TORSDOF 10
ENDMDL
MODEL 5
REMARK VINA RESULT:    -4.072      0.965      1.747
REMARK INTER + INTRA:          -6.991
REMARK INTER:                  -6.582
REMARK INTRA:                  -0.409
REMARK UNBOUND:                -0.539
REMARK SMILES CCCCCCCCCCCC(=O)[O-]
REMARK SMILES IDX 7 1 8 2 9 3 10 4 11 5 12 6 13 7 14 8 6 9 5 10 4 11 3 12 2 13
REMARK SMILES IDX 1 14
REMARK H PARENT
REMARK Flexibility Score: inf
ROOT
ATOM      1  C   UNL     1      21.817   6.673 -10.989  1.00  0.00     0.000 C 
ENDROOT
BRANCH   1   2
ATOM      2  C   UNL     1      20.784   6.197  -9.957  1.00  0.00     0.000 C 
BRANCH   2   3
ATOM      3  C   UNL     1      19.457   6.967 -10.048  1.00  0.00     0.000 C 
BRANCH   3   4
ATOM      4  C   UNL     1      18.464   6.322 -11.030  1.00  0.00     0.006 C 
BRANCH   4   5
ATOM      5  C   UNL     1      18.499   4.789 -10.963  1.00  0.00     0.053 C 
BRANCH   5   6
ATOM      6  C   UNL     1      17.126   4.208 -10.817  1.00  0.00     0.041 C 
ATOM      7  O   UNL     1      16.203   4.890 -10.300  1.00  0.00    -0.550 OA
ATOM      8  O   UNL     1      16.876   2.901 -11.218  1.00  0.00    -0.550 OA
ENDBRANCH   5   6
ENDBRANCH   4   5
ENDBRANCH   3   4
ENDBRANCH   2   3
ENDBRANCH   1   2
BRANCH   1   9
ATOM      9  C   UNL     1      21.844   5.742 -12.209  1.00  0.00     0.000 C 
BRANCH   9  10
ATOM     10  C   UNL     1      22.999   6.056 -13.177  1.00  0.00    -0.000 C 
BRANCH  10  11
ATOM     11  C   UNL     1      23.921   4.863 -13.499  1.00  0.00    -0.000 C 
BRANCH  11  12
ATOM     12  C   UNL     1      25.236   5.226 -14.217  1.00  0.00    -0.000 C 
BRANCH  12  13
ATOM     13  C   UNL     1      26.243   4.070 -14.344  1.00  0.00    -0.003 C 
ATOM     14  C   UNL     1      27.584   4.510 -14.930  1.00  0.00     0.004 C 
ENDBRANCH  12  13
ENDBRANCH  11  12
ENDBRANCH  10  11
ENDBRANCH   9  10
ENDBRANCH   1   9
TORSDOF 10
ENDMDL
MODEL 6
REMARK VINA RESULT:    -3.651      5.013      8.076
REMARK INTER + INTRA:          -6.324
REMARK INTER:                  -6.094
REMARK INTRA:                  -0.230
REMARK UNBOUND:                -0.539
REMARK SMILES CCCCCCCCCCCC(=O)[O-]
REMARK SMILES IDX 7 1 8 2 9 3 10 4 11 5 12 6 13 7 14 8 6 9 5 10 4 11 3 12 2 13
REMARK SMILES IDX 1 14
REMARK H PARENT
REMARK Flexibility Score: inf
ROOT
ATOM      1  C   UNL     1      22.605   6.179 -12.632  1.00  0.00     0.000 C 
ENDROOT
BRANCH   1   2
ATOM      2  C   UNL     1      23.428   5.019 -13.212  1.00  0.00     0.000 C 
BRANCH   2   3
ATOM      3  C   UNL     1      24.599   5.500 -14.083  1.00  0.00     0.000 C 
BRANCH   3   4
ATOM      4  C   UNL     1      25.748   4.479 -14.145  1.00  0.00     0.006 C 
BRANCH   4   5
ATOM      5  C   UNL     1      26.927   4.986 -14.987  1.00  0.00     0.053 C 
BRANCH   5   6
ATOM      6  C   UNL     1      28.121   4.090 -14.867  1.00  0.00     0.041 C 
ATOM      7  O   UNL     1      28.349   3.480 -13.789  1.00  0.00    -0.550 OA
ATOM      8  O   UNL     1      29.001   3.955 -15.934  1.00  0.00    -0.550 OA
ENDBRANCH   5   6
ENDBRANCH   4   5
ENDBRANCH   3   4
ENDBRANCH   2   3
ENDBRANCH   1   2
BRANCH   1   9
ATOM      9  C   UNL     1      21.812   5.726 -11.399  1.00  0.00     0.000 C 
BRANCH   9  10
ATOM     10  C   UNL     1      20.401   6.339 -11.336  1.00  0.00    -0.000 C 
BRANCH  10  11
ATOM     11  C   UNL     1      19.256   5.320 -11.167  1.00  0.00    -0.000 C 
BRANCH  11  12
ATOM     12  C   UNL     1      17.880   5.931 -10.834  1.00  0.00    -0.000 C 
BRANCH  12  13
ATOM     13  C   UNL     1      16.728   4.915 -10.744  1.00  0.00    -0.003 C 
ATOM     14  C   UNL     1      17.202   3.466 -10.839  1.00  0.00     0.004 C 
ENDBRANCH  12  13
ENDBRANCH  11  12
ENDBRANCH  10  11
ENDBRANCH   9  10
ENDBRANCH   1   9
TORSDOF 10
ENDMDL
MODEL 7
REMARK VINA RESULT:    -3.106      3.939      5.833
REMARK INTER + INTRA:          -5.460
REMARK INTER:                  -4.532
REMARK INTRA:                  -0.928
REMARK UNBOUND:                -0.539
REMARK SMILES CCCCCCCCCCCC(=O)[O-]
REMARK SMILES IDX 7 1 8 2 9 3 10 4 11 5 12 6 13 7 14 8 6 9 5 10 4 11 3 12 2 13
REMARK SMILES IDX 1 14
REMARK H PARENT
REMARK Flexibility Score: inf
ROOT
ATOM      1  C   UNL     1      20.678   4.435 -13.297  1.00  0.00     0.000 C 
ENDROOT
BRANCH   1   2
ATOM      2  C   UNL     1      19.396   3.846 -13.905  1.00  0.00     0.000 C 
BRANCH   2   3
ATOM      3  C   UNL     1      19.285   2.328 -13.696  1.00  0.00     0.000 C 
BRANCH   3   4
ATOM      4  C   UNL     1      18.743   1.599 -14.939  1.00  0.00     0.006 C 
BRANCH   4   5
ATOM      5  C   UNL     1      17.762   0.478 -14.569  1.00  0.00     0.053 C 
BRANCH   5   6
ATOM      6  C   UNL     1      17.257  -0.240 -15.782  1.00  0.00     0.041 C 
ATOM      7  O   UNL     1      16.931   0.407 -16.811  1.00  0.00    -0.550 OA
ATOM      8  O   UNL     1      17.114  -1.623 -15.764  1.00  0.00    -0.550 OA
ENDBRANCH   5   6
ENDBRANCH   4   5
ENDBRANCH   3   4
ENDBRANCH   2   3
ENDBRANCH   1   2
BRANCH   1   9
ATOM      9  C   UNL     1      20.425   5.844 -12.742  1.00  0.00     0.000 C 
BRANCH   9  10
ATOM     10  C   UNL     1      20.688   5.948 -11.229  1.00  0.00    -0.000 C 
BRANCH  10  11
ATOM     11  C   UNL     1      19.523   5.485 -10.332  1.00  0.00    -0.000 C 
BRANCH  11  12
ATOM     12  C   UNL     1      18.167   6.161 -10.618  1.00  0.00    -0.000 C 
BRANCH  12  13
ATOM     13  C   UNL     1      17.028   5.193 -10.983  1.00  0.00    -0.003 C 
ATOM     14  C   UNL     1      17.413   3.725 -10.804  1.00  0.00     0.004 C 
ENDBRANCH  12  13
ENDBRANCH  11  12
ENDBRANCH  10  11
ENDBRANCH   9  10
ENDBRANCH   1   9
TORSDOF 10
ENDMDL
MODEL 8
REMARK VINA RESULT:    -2.813      4.216      5.623
REMARK INTER + INTRA:          -4.997
REMARK INTER:                  -4.455
REMARK INTRA:                  -0.541
REMARK UNBOUND:                -0.539
REMARK SMILES CCCCCCCCCCCC(=O)[O-]
REMARK SMILES IDX 7 1 8 2 9 3 10 4 11 5 12 6 13 7 14 8 6 9 5 10 4 11 3 12 2 13
REMARK SMILES IDX 1 14
REMARK H PARENT
REMARK Flexibility Score: inf
ROOT
ATOM      1  C   UNL     1      18.952   4.551 -11.342  1.00  0.00     0.000 C 
ENDROOT
BRANCH   1   2
ATOM      2  C   UNL     1      19.233   5.843 -10.561  1.00  0.00     0.000 C 
BRANCH   2   3
ATOM      3  C   UNL     1      20.455   5.723  -9.636  1.00  0.00     0.000 C 
BRANCH   3   4
ATOM      4  C   UNL     1      21.615   6.637 -10.067  1.00  0.00     0.006 C 
BRANCH   4   5
ATOM      5  C   UNL     1      21.513   7.043 -11.544  1.00  0.00     0.053 C 
BRANCH   5   6
ATOM      6  C   UNL     1      22.587   6.407 -12.371  1.00  0.00     0.041 C 
ATOM      7  O   UNL     1      23.437   7.121 -12.963  1.00  0.00    -0.550 OA
ATOM      8  O   UNL     1      22.627   5.025 -12.516  1.00  0.00    -0.550 OA
ENDBRANCH   5   6
ENDBRANCH   4   5
ENDBRANCH   3   4
ENDBRANCH   2   3
ENDBRANCH   1   2
BRANCH   1   9
ATOM      9  C   UNL     1      19.158   4.766 -12.848  1.00  0.00     0.000 C 
BRANCH   9  10
ATOM     10  C   UNL     1      19.781   3.544 -13.547  1.00  0.00    -0.000 C 
BRANCH  10  11
ATOM     11  C   UNL     1      18.924   2.263 -13.505  1.00  0.00    -0.000 C 
BRANCH  11  12
ATOM     12  C   UNL     1      18.678   1.593 -14.872  1.00  0.00    -0.000 C 
BRANCH  12  13
ATOM     13  C   UNL     1      17.779   0.346 -14.828  1.00  0.00    -0.003 C 
ATOM     14  C   UNL     1      17.196  -0.017 -16.193  1.00  0.00     0.004 C 
ENDBRANCH  12  13
ENDBRANCH  11  12
ENDBRANCH  10  11
ENDBRANCH   9  10
ENDBRANCH   1   9
TORSDOF 10
ENDMDL
MODEL 9
REMARK VINA RESULT:    -2.563     20.852     23.946
REMARK INTER + INTRA:          -4.600
REMARK INTER:                  -4.397
REMARK INTRA:                  -0.203
REMARK UNBOUND:                -0.539
REMARK SMILES CCCCCCCCCCCC(=O)[O-]
REMARK SMILES IDX 7 1 8 2 9 3 10 4 11 5 12 6 13 7 14 8 6 9 5 10 4 11 3 12 2 13
REMARK SMILES IDX 1 14
REMARK H PARENT
REMARK Flexibility Score: inf
ROOT
ATOM      1  C   UNL     1      27.626 -12.805 -26.463  1.00  0.00     0.000 C 
ENDROOT
BRANCH   1   2
ATOM      2  C   UNL     1      28.682 -13.003 -27.561  1.00  0.00     0.000 C 
BRANCH   2   3
ATOM      3  C   UNL     1      30.102 -12.655 -27.087  1.00  0.00     0.000 C 
BRANCH   3   4
ATOM      4  C   UNL     1      30.215 -12.594 -25.553  1.00  0.00     0.006 C 
BRANCH   4   5
ATOM      5  C   UNL     1      30.035 -11.167 -25.017  1.00  0.00     0.053 C 
BRANCH   5   6
ATOM      6  C   UNL     1      30.866 -10.924 -23.795  1.00  0.00     0.041 C 
ATOM      7  O   UNL     1      31.633 -11.824 -23.362  1.00  0.00    -0.550 OA
ATOM      8  O   UNL     1      30.768  -9.716 -23.115  1.00  0.00    -0.550 OA
ENDBRANCH   5   6
ENDBRANCH   4   5
ENDBRANCH   3   4
ENDBRANCH   2   3
ENDBRANCH   1   2
BRANCH   1   9
ATOM      9  C   UNL     1      26.482 -11.909 -26.958  1.00  0.00     0.000 C 
BRANCH   9  10
ATOM     10  C   UNL     1      25.874 -11.043 -25.840  1.00  0.00    -0.000 C 
BRANCH  10  11
ATOM     11  C   UNL     1      24.624 -10.237 -26.248  1.00  0.00    -0.000 C 
BRANCH  11  12
ATOM     12  C   UNL     1      23.661  -9.894 -25.094  1.00  0.00    -0.000 C 
BRANCH  12  13
ATOM     13  C   UNL     1      22.262  -9.432 -25.538  1.00  0.00    -0.003 C 
ATOM     14  C   UNL     1      21.226  -9.510 -24.417  1.00  0.00     0.004 C 
ENDBRANCH  12  13
ENDBRANCH  11  12
ENDBRANCH  10  11
ENDBRANCH   9  10
ENDBRANCH   1   9
TORSDOF 10
ENDMDL
