MODEL 1
REMARK VINA RESULT:    -6.720      0.000      0.000
REMARK INTER + INTRA:         -13.490
REMARK INTER:                 -12.612
REMARK INTRA:                  -0.878
REMARK UNBOUND:                -0.878
REMARK SMILES CCCCCCCCC=CCCCCCCCC(=O)[O-]
REMARK SMILES IDX 10 1 9 2 11 3 12 4 13 5 14 6 15 7 16 8 17 9 18 10 19 11
REMARK SMILES IDX 20 12 8 13 7 14 6 15 5 16 4 17 3 18 2 19 1 20
REMARK H PARENT
REMARK Flexibility Score: inf
ROOT
ATOM      1  C   UNL     1      13.626 118.589  16.691  1.00  0.00    -0.031 C 
ATOM      2  C   UNL     1      14.658 119.365  17.075  1.00  0.00    -0.031 C 
ENDROOT
BRANCH   1   3
ATOM      3  C   UNL     1      13.723 117.483  15.670  1.00  0.00     0.027 C 
BRANCH   3   4
ATOM      4  C   UNL     1      12.385 116.740  15.546  1.00  0.00     0.004 C 
BRANCH   4   5
ATOM      5  C   UNL     1      11.973 116.027  16.847  1.00  0.00     0.000 C 
BRANCH   5   6
ATOM      6  C   UNL     1      11.472 114.583  16.664  1.00  0.00     0.000 C 
BRANCH   6   7
ATOM      7  C   UNL     1      11.550 114.102  15.206  1.00  0.00     0.000 C 
BRANCH   7   8
ATOM      8  C   UNL     1      11.742 112.580  15.140  1.00  0.00     0.006 C 
BRANCH   8   9
ATOM      9  C   UNL     1      11.785 111.939  16.533  1.00  0.00     0.053 C 
BRANCH   9  10
ATOM     10  C   UNL     1      10.801 110.817  16.659  1.00  0.00     0.041 C 
ATOM     11  O   UNL     1       9.998 110.570  15.721  1.00  0.00    -0.550 OA
ATOM     12  O   UNL     1      10.791 110.023  17.800  1.00  0.00    -0.550 OA
ENDBRANCH   9  10
ENDBRANCH   8   9
ENDBRANCH   7   8
ENDBRANCH   6   7
ENDBRANCH   5   6
ENDBRANCH   4   5
ENDBRANCH   3   4
ENDBRANCH   1   3
BRANCH   2  13
ATOM     13  C   UNL     1      16.080 119.187  16.608  1.00  0.00     0.027 C 
BRANCH  13  14
ATOM     14  C   UNL     1      16.881 120.480  16.800  1.00  0.00     0.004 C 
BRANCH  14  15
ATOM     15  C   UNL     1      16.657 121.446  15.627  1.00  0.00     0.000 C 
BRANCH  15  16
ATOM     16  C   UNL     1      17.684 122.592  15.586  1.00  0.00     0.000 C 
BRANCH  16  17
ATOM     17  C   UNL     1      18.131 123.120  16.962  1.00  0.00    -0.000 C 
BRANCH  17  18
ATOM     18  C   UNL     1      18.797 124.504  16.883  1.00  0.00    -0.000 C 
BRANCH  18  19
ATOM     19  C   UNL     1      17.861 125.575  16.300  1.00  0.00    -0.003 C 
ATOM     20  C   UNL     1      18.396 126.190  15.006  1.00  0.00     0.004 C 
ENDBRANCH  18  19
ENDBRANCH  17  18
ENDBRANCH  16  17
ENDBRANCH  15  16
ENDBRANCH  14  15
ENDBRANCH  13  14
ENDBRANCH   2  13
TORSDOF 15
ENDMDL
MODEL 2
REMARK VINA RESULT:    -6.637      6.085     11.900
REMARK INTER + INTRA:         -13.335
REMARK INTER:                 -12.652
REMARK INTRA:                  -0.683
REMARK UNBOUND:                -0.878
REMARK SMILES CCCCCCCCC=CCCCCCCCC(=O)[O-]
REMARK SMILES IDX 10 1 9 2 11 3 12 4 13 5 14 6 15 7 16 8 17 9 18 10 19 11
REMARK SMILES IDX 20 12 8 13 7 14 6 15 5 16 4 17 3 18 2 19 1 20
REMARK H PARENT
REMARK Flexibility Score: inf
ROOT
ATOM      1  C   UNL     1      14.659 119.415  17.376  1.00  0.00    -0.031 C 
ATOM      2  C   UNL     1      13.658 118.675  16.862  1.00  0.00    -0.031 C 
ENDROOT
BRANCH   1   3
ATOM      3  C   UNL     1      16.114 119.249  17.018  1.00  0.00     0.027 C 
BRANCH   3   4
ATOM      4  C   UNL     1      16.797 120.617  16.872  1.00  0.00     0.004 C 
BRANCH   4   5
ATOM      5  C   UNL     1      17.150 120.956  15.413  1.00  0.00     0.000 C 
BRANCH   5   6
ATOM      6  C   UNL     1      17.916 122.278  15.222  1.00  0.00     0.000 C 
BRANCH   6   7
ATOM      7  C   UNL     1      18.007 123.109  16.511  1.00  0.00     0.000 C 
BRANCH   7   8
ATOM      8  C   UNL     1      18.692 124.458  16.248  1.00  0.00     0.006 C 
BRANCH   8   9
ATOM      9  C   UNL     1      17.857 125.641  16.755  1.00  0.00     0.053 C 
BRANCH   9  10
ATOM     10  C   UNL     1      18.466 126.956  16.373  1.00  0.00     0.041 C 
ATOM     11  O   UNL     1      18.233 127.985  17.060  1.00  0.00    -0.550 OA
ATOM     12  O   UNL     1      19.318 127.038  15.279  1.00  0.00    -0.550 OA
ENDBRANCH   9  10
ENDBRANCH   8   9
ENDBRANCH   7   8
ENDBRANCH   6   7
ENDBRANCH   5   6
ENDBRANCH   4   5
ENDBRANCH   3   4
ENDBRANCH   1   3
BRANCH   2  13
ATOM     13  C   UNL     1      13.832 117.630  15.790  1.00  0.00     0.027 C 
BRANCH  13  14
ATOM     14  C   UNL     1      12.477 117.232  15.193  1.00  0.00     0.004 C 
BRANCH  14  15
ATOM     15  C   UNL     1      11.939 115.954  15.850  1.00  0.00     0.000 C 
BRANCH  15  16
ATOM     16  C   UNL     1      11.558 114.866  14.831  1.00  0.00     0.000 C 
BRANCH  16  17
ATOM     17  C   UNL     1      11.280 113.475  15.430  1.00  0.00    -0.000 C 
BRANCH  17  18
ATOM     18  C   UNL     1      11.277 113.477  16.968  1.00  0.00    -0.000 C 
BRANCH  18  19
ATOM     19  C   UNL     1      11.679 112.116  17.559  1.00  0.00    -0.003 C 
ATOM     20  C   UNL     1      10.873 110.954  16.976  1.00  0.00     0.004 C 
ENDBRANCH  18  19
ENDBRANCH  17  18
ENDBRANCH  16  17
ENDBRANCH  15  16
ENDBRANCH  14  15
ENDBRANCH  13  14
ENDBRANCH   2  13
TORSDOF 15
ENDMDL
MODEL 3
REMARK VINA RESULT:    -6.587      5.636      6.886
REMARK INTER + INTRA:         -13.240
REMARK INTER:                 -12.086
REMARK INTRA:                  -1.155
REMARK UNBOUND:                -0.878
REMARK SMILES CCCCCCCCC=CCCCCCCCC(=O)[O-]
REMARK SMILES IDX 10 1 9 2 11 3 12 4 13 5 14 6 15 7 16 8 17 9 18 10 19 11
REMARK SMILES IDX 20 12 8 13 7 14 6 15 5 16 4 17 3 18 2 19 1 20
REMARK H PARENT
REMARK Flexibility Score: inf
ROOT
ATOM      1  C   UNL     1      16.664 121.154  15.148  1.00  0.00    -0.031 C 
ATOM      2  C   UNL     1      17.761 121.877  15.444  1.00  0.00    -0.031 C 
ENDROOT
BRANCH   1   3
ATOM      3  C   UNL     1      15.547 120.861  16.117  1.00  0.00     0.027 C 
BRANCH   3   4
ATOM      4  C   UNL     1      15.613 119.405  16.599  1.00  0.00     0.004 C 
BRANCH   4   5
ATOM      5  C   UNL     1      15.573 119.279  18.132  1.00  0.00     0.000 C 
BRANCH   5   6
ATOM      6  C   UNL     1      16.868 119.702  18.852  1.00  0.00     0.000 C 
BRANCH   6   7
ATOM      7  C   UNL     1      16.748 119.643  20.382  1.00  0.00     0.000 C 
BRANCH   7   8
ATOM      8  C   UNL     1      15.301 119.357  20.810  1.00  0.00     0.006 C 
BRANCH   8   9
ATOM      9  C   UNL     1      14.940 120.046  22.132  1.00  0.00     0.053 C 
BRANCH   9  10
ATOM     10  C   UNL     1      14.420 119.071  23.143  1.00  0.00     0.041 C 
ATOM     11  O   UNL     1      15.066 118.022  23.402  1.00  0.00    -0.550 OA
ATOM     12  O   UNL     1      13.238 119.337  23.824  1.00  0.00    -0.550 OA
ENDBRANCH   9  10
ENDBRANCH   8   9
ENDBRANCH   7   8
ENDBRANCH   6   7
ENDBRANCH   5   6
ENDBRANCH   4   5
ENDBRANCH   3   4
ENDBRANCH   1   3
BRANCH   2  13
ATOM     13  C   UNL     1      17.995 122.573  16.761  1.00  0.00     0.027 C 
BRANCH  13  14
ATOM     14  C   UNL     1      18.754 123.889  16.553  1.00  0.00     0.004 C 
BRANCH  14  15
ATOM     15  C   UNL     1      17.977 125.072  17.148  1.00  0.00     0.000 C 
BRANCH  15  16
ATOM     16  C   UNL     1      17.934 126.295  16.215  1.00  0.00     0.000 C 
BRANCH  16  17
ATOM     17  C   UNL     1      18.285 127.639  16.880  1.00  0.00    -0.000 C 
BRANCH  17  18
ATOM     18  C   UNL     1      19.537 128.297  16.274  1.00  0.00    -0.000 C 
BRANCH  18  19
ATOM     19  C   UNL     1      20.307 127.348  15.342  1.00  0.00    -0.003 C 
ATOM     20  C   UNL     1      20.875 128.056  14.111  1.00  0.00     0.004 C 
ENDBRANCH  18  19
ENDBRANCH  17  18
ENDBRANCH  16  17
ENDBRANCH  15  16
ENDBRANCH  14  15
ENDBRANCH  13  14
ENDBRANCH   2  13
TORSDOF 15
ENDMDL
MODEL 4
REMARK VINA RESULT:    -6.571      5.451      6.728
REMARK INTER + INTRA:         -13.212
REMARK INTER:                 -12.113
REMARK INTRA:                  -1.099
REMARK UNBOUND:                -0.878
REMARK SMILES CCCCCCCCC=CCCCCCCCC(=O)[O-]
REMARK SMILES IDX 10 1 9 2 11 3 12 4 13 5 14 6 15 7 16 8 17 9 18 10 19 11
REMARK SMILES IDX 20 12 8 13 7 14 6 15 5 16 4 17 3 18 2 19 1 20
REMARK H PARENT
REMARK Flexibility Score: inf
ROOT
ATOM      1  C   UNL     1      16.890 120.983  15.292  1.00  0.00    -0.031 C 
ATOM      2  C   UNL     1      17.890 121.841  15.568  1.00  0.00    -0.031 C 
ENDROOT
BRANCH   1   3
ATOM      3  C   UNL     1      15.788 120.617  16.256  1.00  0.00     0.027 C 
BRANCH   3   4
ATOM      4  C   UNL     1      16.224 119.459  17.165  1.00  0.00     0.004 C 
BRANCH   4   5
ATOM      5  C   UNL     1      15.404 119.379  18.466  1.00  0.00     0.000 C 
BRANCH   5   6
ATOM      6  C   UNL     1      13.939 118.941  18.282  1.00  0.00     0.000 C 
BRANCH   6   7
ATOM      7  C   UNL     1      13.140 118.963  19.594  1.00  0.00     0.000 C 
BRANCH   7   8
ATOM      8  C   UNL     1      14.020 118.544  20.781  1.00  0.00     0.006 C 
BRANCH   8   9
ATOM      9  C   UNL     1      14.194 119.675  21.802  1.00  0.00     0.053 C 
BRANCH   9  10
ATOM     10  C   UNL     1      15.569 119.683  22.395  1.00  0.00     0.041 C 
ATOM     11  O   UNL     1      15.748 120.081  23.577  1.00  0.00    -0.550 OA
ATOM     12  O   UNL     1      16.650 119.219  21.655  1.00  0.00    -0.550 OA
ENDBRANCH   9  10
ENDBRANCH   8   9
ENDBRANCH   7   8
ENDBRANCH   6   7
ENDBRANCH   5   6
ENDBRANCH   4   5
ENDBRANCH   3   4
ENDBRANCH   1   3
BRANCH   2  13
ATOM     13  C   UNL     1      18.010 122.630  16.846  1.00  0.00     0.027 C 
BRANCH  13  14
ATOM     14  C   UNL     1      17.867 124.132  16.574  1.00  0.00     0.004 C 
BRANCH  14  15
ATOM     15  C   UNL     1      18.784 124.574  15.426  1.00  0.00     0.000 C 
BRANCH  15  16
ATOM     16  C   UNL     1      18.656 126.072  15.095  1.00  0.00     0.000 C 
BRANCH  16  17
ATOM     17  C   UNL     1      19.855 126.941  15.518  1.00  0.00    -0.000 C 
BRANCH  17  18
ATOM     18  C   UNL     1      19.439 128.180  16.329  1.00  0.00    -0.000 C 
BRANCH  18  19
ATOM     19  C   UNL     1      18.218 127.914  17.224  1.00  0.00    -0.003 C 
ATOM     20  C   UNL     1      18.570 127.136  18.492  1.00  0.00     0.004 C 
ENDBRANCH  18  19
ENDBRANCH  17  18
ENDBRANCH  16  17
ENDBRANCH  15  16
ENDBRANCH  14  15
ENDBRANCH  13  14
ENDBRANCH   2  13
TORSDOF 15
ENDMDL
MODEL 5
REMARK VINA RESULT:    -6.568      5.401      6.556
REMARK INTER + INTRA:         -13.206
REMARK INTER:                 -12.049
REMARK INTRA:                  -1.156
REMARK UNBOUND:                -0.878
REMARK SMILES CCCCCCCCC=CCCCCCCCC(=O)[O-]
REMARK SMILES IDX 10 1 9 2 11 3 12 4 13 5 14 6 15 7 16 8 17 9 18 10 19 11
REMARK SMILES IDX 20 12 8 13 7 14 6 15 5 16 4 17 3 18 2 19 1 20
REMARK H PARENT
REMARK Flexibility Score: inf
ROOT
ATOM      1  C   UNL     1      16.204 119.632  17.405  1.00  0.00    -0.031 C 
ATOM      2  C   UNL     1      16.863 120.731  16.990  1.00  0.00    -0.031 C 
ENDROOT
BRANCH   1   3
ATOM      3  C   UNL     1      15.270 118.819  16.544  1.00  0.00     0.027 C 
BRANCH   3   4
ATOM      4  C   UNL     1      13.851 118.822  17.129  1.00  0.00     0.004 C 
BRANCH   4   5
ATOM      5  C   UNL     1      13.796 119.379  18.563  1.00  0.00     0.000 C 
BRANCH   5   6
ATOM      6  C   UNL     1      13.256 118.397  19.620  1.00  0.00     0.000 C 
BRANCH   6   7
ATOM      7  C   UNL     1      13.671 118.770  21.051  1.00  0.00     0.000 C 
BRANCH   7   8
ATOM      8  C   UNL     1      14.913 119.673  21.045  1.00  0.00     0.006 C 
BRANCH   8   9
ATOM      9  C   UNL     1      16.135 118.983  21.667  1.00  0.00     0.053 C 
BRANCH   9  10
ATOM     10  C   UNL     1      16.330 119.381  23.097  1.00  0.00     0.041 C 
ATOM     11  O   UNL     1      15.994 120.530  23.487  1.00  0.00    -0.550 OA
ATOM     12  O   UNL     1      16.852 118.471  24.009  1.00  0.00    -0.550 OA
ENDBRANCH   9  10
ENDBRANCH   8   9
ENDBRANCH   7   8
ENDBRANCH   6   7
ENDBRANCH   5   6
ENDBRANCH   4   5
ENDBRANCH   3   4
ENDBRANCH   1   3
BRANCH   2  13
ATOM     13  C   UNL     1      16.833 121.262  15.580  1.00  0.00     0.027 C 
BRANCH  13  14
ATOM     14  C   UNL     1      17.985 122.247  15.345  1.00  0.00     0.004 C 
BRANCH  14  15
ATOM     15  C   UNL     1      18.066 123.280  16.478  1.00  0.00     0.000 C 
BRANCH  15  16
ATOM     16  C   UNL     1      18.205 124.725  15.966  1.00  0.00     0.000 C 
BRANCH  16  17
ATOM     17  C   UNL     1      17.968 125.819  17.024  1.00  0.00    -0.000 C 
BRANCH  17  18
ATOM     18  C   UNL     1      19.177 126.755  17.197  1.00  0.00    -0.000 C 
BRANCH  18  19
ATOM     19  C   UNL     1      19.226 127.856  16.126  1.00  0.00    -0.003 C 
ATOM     20  C   UNL     1      20.289 127.598  15.057  1.00  0.00     0.004 C 
ENDBRANCH  18  19
ENDBRANCH  17  18
ENDBRANCH  16  17
ENDBRANCH  15  16
ENDBRANCH  14  15
ENDBRANCH  13  14
ENDBRANCH   2  13
TORSDOF 15
ENDMDL
MODEL 6
REMARK VINA RESULT:    -6.506      7.178     11.207
REMARK INTER + INTRA:         -13.089
REMARK INTER:                 -12.023
REMARK INTRA:                  -1.066
REMARK UNBOUND:                -0.878
REMARK SMILES CCCCCCCCC=CCCCCCCCC(=O)[O-]
REMARK SMILES IDX 10 1 9 2 11 3 12 4 13 5 14 6 15 7 16 8 17 9 18 10 19 11
REMARK SMILES IDX 20 12 8 13 7 14 6 15 5 16 4 17 3 18 2 19 1 20
REMARK H PARENT
REMARK Flexibility Score: inf
ROOT
ATOM      1  C   UNL     1      16.770 120.112  16.607  1.00  0.00    -0.031 C 
ATOM      2  C   UNL     1      16.127 118.990  16.986  1.00  0.00    -0.031 C 
ENDROOT
BRANCH   1   3
ATOM      3  C   UNL     1      16.332 121.005  15.474  1.00  0.00     0.027 C 
BRANCH   3   4
ATOM      4  C   UNL     1      17.249 122.233  15.365  1.00  0.00     0.004 C 
BRANCH   4   5
ATOM      5  C   UNL     1      18.005 122.533  16.671  1.00  0.00     0.000 C 
BRANCH   5   6
ATOM      6  C   UNL     1      18.420 124.004  16.857  1.00  0.00     0.000 C 
BRANCH   6   7
ATOM      7  C   UNL     1      18.956 124.642  15.567  1.00  0.00     0.000 C 
BRANCH   7   8
ATOM      8  C   UNL     1      18.395 126.059  15.380  1.00  0.00     0.006 C 
BRANCH   8   9
ATOM      9  C   UNL     1      17.777 126.614  16.671  1.00  0.00     0.053 C 
BRANCH   9  10
ATOM     10  C   UNL     1      18.551 127.781  17.202  1.00  0.00     0.041 C 
ATOM     11  O   UNL     1      18.384 128.163  18.390  1.00  0.00    -0.550 OA
ATOM     12  O   UNL     1      19.482 128.425  16.395  1.00  0.00    -0.550 OA
ENDBRANCH   9  10
ENDBRANCH   8   9
ENDBRANCH   7   8
ENDBRANCH   6   7
ENDBRANCH   5   6
ENDBRANCH   4   5
ENDBRANCH   3   4
ENDBRANCH   1   3
BRANCH   2  13
ATOM     13  C   UNL     1      14.829 118.508  16.392  1.00  0.00     0.027 C 
BRANCH  13  14
ATOM     14  C   UNL     1      13.643 118.911  17.276  1.00  0.00     0.004 C 
BRANCH  14  15
ATOM     15  C   UNL     1      14.116 119.317  18.680  1.00  0.00     0.000 C 
BRANCH  15  16
ATOM     16  C   UNL     1      13.223 118.758  19.801  1.00  0.00     0.000 C 
BRANCH  16  17
ATOM     17  C   UNL     1      13.851 118.773  21.207  1.00  0.00    -0.000 C 
BRANCH  17  18
ATOM     18  C   UNL     1      15.248 119.417  21.231  1.00  0.00    -0.000 C 
BRANCH  18  19
ATOM     19  C   UNL     1      15.905 119.345  22.619  1.00  0.00    -0.003 C 
ATOM     20  C   UNL     1      16.671 118.041  22.846  1.00  0.00     0.004 C 
ENDBRANCH  18  19
ENDBRANCH  17  18
ENDBRANCH  16  17
ENDBRANCH  15  16
ENDBRANCH  14  15
ENDBRANCH  13  14
ENDBRANCH   2  13
TORSDOF 15
ENDMDL
MODEL 7
REMARK VINA RESULT:    -6.428      3.332      4.346
REMARK INTER + INTRA:         -12.942
REMARK INTER:                 -12.214
REMARK INTRA:                  -0.728
REMARK UNBOUND:                -0.878
REMARK SMILES CCCCCCCCC=CCCCCCCCC(=O)[O-]
REMARK SMILES IDX 10 1 9 2 11 3 12 4 13 5 14 6 15 7 16 8 17 9 18 10 19 11
REMARK SMILES IDX 20 12 8 13 7 14 6 15 5 16 4 17 3 18 2 19 1 20
REMARK H PARENT
REMARK Flexibility Score: inf
ROOT
ATOM      1  C   UNL     1      15.620 119.325  17.133  1.00  0.00    -0.031 C 
ATOM      2  C   UNL     1      16.663 120.047  16.679  1.00  0.00    -0.031 C 
ENDROOT
BRANCH   1   3
ATOM      3  C   UNL     1      14.172 119.684  16.909  1.00  0.00     0.027 C 
BRANCH   3   4
ATOM      4  C   UNL     1      13.320 118.419  16.731  1.00  0.00     0.004 C 
BRANCH   4   5
ATOM      5  C   UNL     1      13.964 117.393  15.782  1.00  0.00     0.000 C 
BRANCH   5   6
ATOM      6  C   UNL     1      13.111 117.017  14.557  1.00  0.00     0.000 C 
BRANCH   6   7
ATOM      7  C   UNL     1      11.985 116.027  14.892  1.00  0.00     0.000 C 
BRANCH   7   8
ATOM      8  C   UNL     1      11.042 115.842  13.694  1.00  0.00     0.006 C 
BRANCH   8   9
ATOM      9  C   UNL     1      11.020 117.072  12.777  1.00  0.00     0.053 C 
BRANCH   9  10
ATOM     10  C   UNL     1       9.624 117.552  12.523  1.00  0.00     0.041 C 
ATOM     11  O   UNL     1       9.280 118.712  12.872  1.00  0.00    -0.550 OA
ATOM     12  O   UNL     1       8.712 116.730  11.872  1.00  0.00    -0.550 OA
ENDBRANCH   9  10
ENDBRANCH   8   9
ENDBRANCH   7   8
ENDBRANCH   6   7
ENDBRANCH   5   6
ENDBRANCH   4   5
ENDBRANCH   3   4
ENDBRANCH   1   3
BRANCH   2  13
ATOM     13  C   UNL     1      16.541 121.271  15.809  1.00  0.00     0.027 C 
BRANCH  13  14
ATOM     14  C   UNL     1      17.906 121.942  15.619  1.00  0.00     0.004 C 
BRANCH  14  15
ATOM     15  C   UNL     1      17.996 123.247  16.421  1.00  0.00     0.000 C 
BRANCH  15  16
ATOM     16  C   UNL     1      18.450 124.447  15.571  1.00  0.00     0.000 C 
BRANCH  16  17
ATOM     17  C   UNL     1      18.223 125.828  16.214  1.00  0.00    -0.000 C 
BRANCH  17  18
ATOM     18  C   UNL     1      19.111 126.925  15.603  1.00  0.00    -0.000 C 
BRANCH  18  19
ATOM     19  C   UNL     1      19.242 128.153  16.517  1.00  0.00    -0.003 C 
ATOM     20  C   UNL     1      18.708 127.903  17.928  1.00  0.00     0.004 C 
ENDBRANCH  18  19
ENDBRANCH  17  18
ENDBRANCH  16  17
ENDBRANCH  15  16
ENDBRANCH  14  15
ENDBRANCH  13  14
ENDBRANCH   2  13
TORSDOF 15
ENDMDL
MODEL 8
REMARK VINA RESULT:    -6.403      6.094      7.552
REMARK INTER + INTRA:         -12.897
REMARK INTER:                 -11.919
REMARK INTRA:                  -0.977
REMARK UNBOUND:                -0.878
REMARK SMILES CCCCCCCCC=CCCCCCCCC(=O)[O-]
REMARK SMILES IDX 10 1 9 2 11 3 12 4 13 5 14 6 15 7 16 8 17 9 18 10 19 11
REMARK SMILES IDX 20 12 8 13 7 14 6 15 5 16 4 17 3 18 2 19 1 20
REMARK H PARENT
REMARK Flexibility Score: inf
ROOT
ATOM      1  C   UNL     1      15.817 119.406  17.882  1.00  0.00    -0.031 C 
ATOM      2  C   UNL     1      16.685 120.135  17.154  1.00  0.00    -0.031 C 
ENDROOT
BRANCH   1   3
ATOM      3  C   UNL     1      14.354 119.242  17.552  1.00  0.00     0.027 C 
BRANCH   3   4
ATOM      4  C   UNL     1      13.536 118.981  18.826  1.00  0.00     0.004 C 
BRANCH   4   5
ATOM      5  C   UNL     1      14.354 119.183  20.114  1.00  0.00     0.000 C 
BRANCH   5   6
ATOM      6  C   UNL     1      13.742 118.549  21.377  1.00  0.00     0.000 C 
BRANCH   6   7
ATOM      7  C   UNL     1      13.580 119.551  22.531  1.00  0.00     0.000 C 
BRANCH   7   8
ATOM      8  C   UNL     1      14.766 120.524  22.584  1.00  0.00     0.006 C 
BRANCH   8   9
ATOM      9  C   UNL     1      15.359 120.641  23.994  1.00  0.00     0.053 C 
BRANCH   9  10
ATOM     10  C   UNL     1      14.464 121.418  24.910  1.00  0.00     0.041 C 
ATOM     11  O   UNL     1      14.429 121.148  26.140  1.00  0.00    -0.550 OA
ATOM     12  O   UNL     1      13.692 122.461  24.413  1.00  0.00    -0.550 OA
ENDBRANCH   9  10
ENDBRANCH   8   9
ENDBRANCH   7   8
ENDBRANCH   6   7
ENDBRANCH   5   6
ENDBRANCH   4   5
ENDBRANCH   3   4
ENDBRANCH   1   3
BRANCH   2  13
ATOM     13  C   UNL     1      16.346 120.822  15.856  1.00  0.00     0.027 C 
BRANCH  13  14
ATOM     14  C   UNL     1      17.280 122.012  15.611  1.00  0.00     0.004 C 
BRANCH  14  15
ATOM     15  C   UNL     1      17.958 122.459  16.914  1.00  0.00     0.000 C 
BRANCH  15  16
ATOM     16  C   UNL     1      18.562 123.871  16.825  1.00  0.00     0.000 C 
BRANCH  16  17
ATOM     17  C   UNL     1      18.370 124.582  15.473  1.00  0.00    -0.000 C 
BRANCH  17  18
ATOM     18  C   UNL     1      18.560 126.106  15.565  1.00  0.00    -0.000 C 
BRANCH  18  19
ATOM     19  C   UNL     1      19.014 126.558  16.962  1.00  0.00    -0.003 C 
ATOM     20  C   UNL     1      19.125 128.078  17.087  1.00  0.00     0.004 C 
ENDBRANCH  18  19
ENDBRANCH  17  18
ENDBRANCH  16  17
ENDBRANCH  15  16
ENDBRANCH  14  15
ENDBRANCH  13  14
ENDBRANCH   2  13
TORSDOF 15
ENDMDL
MODEL 9
REMARK VINA RESULT:    -6.341      6.479     11.254
REMARK INTER + INTRA:         -12.780
REMARK INTER:                 -12.100
REMARK INTRA:                  -0.680
REMARK UNBOUND:                -0.878
REMARK SMILES CCCCCCCCC=CCCCCCCCC(=O)[O-]
REMARK SMILES IDX 10 1 9 2 11 3 12 4 13 5 14 6 15 7 16 8 17 9 18 10 19 11
REMARK SMILES IDX 20 12 8 13 7 14 6 15 5 16 4 17 3 18 2 19 1 20
REMARK H PARENT
REMARK Flexibility Score: inf
ROOT
ATOM      1  C   UNL     1      14.215 119.318  17.013  1.00  0.00    -0.031 C 
ATOM      2  C   UNL     1      13.206 118.523  16.607  1.00  0.00    -0.031 C 
ENDROOT
BRANCH   1   3
ATOM      3  C   UNL     1      15.676 119.029  16.780  1.00  0.00     0.027 C 
BRANCH   3   4
ATOM      4  C   UNL     1      16.551 120.149  17.362  1.00  0.00     0.004 C 
BRANCH   4   5
ATOM      5  C   UNL     1      16.896 121.237  16.329  1.00  0.00     0.000 C 
BRANCH   5   6
ATOM      6  C   UNL     1      17.863 122.325  16.831  1.00  0.00     0.000 C 
BRANCH   6   7
ATOM      7  C   UNL     1      18.033 123.481  15.834  1.00  0.00     0.000 C 
BRANCH   7   8
ATOM      8  C   UNL     1      18.746 124.673  16.490  1.00  0.00     0.006 C 
BRANCH   8   9
ATOM      9  C   UNL     1      17.849 125.915  16.568  1.00  0.00     0.053 C 
BRANCH   9  10
ATOM     10  C   UNL     1      18.561 127.077  17.189  1.00  0.00     0.041 C 
ATOM     11  O   UNL     1      18.580 127.213  18.441  1.00  0.00    -0.550 OA
ATOM     12  O   UNL     1      19.233 127.992  16.388  1.00  0.00    -0.550 OA
ENDBRANCH   9  10
ENDBRANCH   8   9
ENDBRANCH   7   8
ENDBRANCH   6   7
ENDBRANCH   5   6
ENDBRANCH   4   5
ENDBRANCH   3   4
ENDBRANCH   1   3
BRANCH   2  13
ATOM     13  C   UNL     1      13.382 117.273  15.784  1.00  0.00     0.027 C 
BRANCH  13  14
ATOM     14  C   UNL     1      12.147 116.372  15.893  1.00  0.00     0.004 C 
BRANCH  14  15
ATOM     15  C   UNL     1      11.797 115.750  14.533  1.00  0.00     0.000 C 
BRANCH  15  16
ATOM     16  C   UNL     1      11.908 116.749  13.368  1.00  0.00     0.000 C 
BRANCH  16  17
ATOM     17  C   UNL     1      10.737 116.723  12.368  1.00  0.00    -0.000 C 
BRANCH  17  18
ATOM     18  C   UNL     1       9.508 117.503  12.866  1.00  0.00    -0.000 C 
BRANCH  18  19
ATOM     19  C   UNL     1       9.635 119.015  12.625  1.00  0.00    -0.003 C 
ATOM     20  C   UNL     1      10.394 119.350  11.340  1.00  0.00     0.004 C 
ENDBRANCH  18  19
ENDBRANCH  17  18
ENDBRANCH  16  17
ENDBRANCH  15  16
ENDBRANCH  14  15
ENDBRANCH  13  14
ENDBRANCH   2  13
TORSDOF 15
ENDMDL
