MODEL 1
REMARK VINA RESULT:    -7.029      0.000      0.000
REMARK INTER + INTRA:          -8.525
REMARK INTER:                  -8.262
REMARK INTRA:                  -0.262
REMARK UNBOUND:                -0.262
REMARK SMILES O=c1cc(-c2ccc(O)c(O)c2)oc2cc(O)cc(O)c12
REMARK SMILES IDX 4 1 3 2 2 3 1 4 21 5 19 6 18 7 16 8 15 9 14 10 13 11 5 12
REMARK SMILES IDX 6 13 7 14 8 15 12 16 10 17 9 18 11 20 20 22 17 24
REMARK H PARENT 9 19 11 21 20 23 17 25
REMARK Flexibility Score: inf
ROOT
ATOM      1  C   UNL     1      31.030 -92.223  37.667  1.00  0.00     0.138 A 
ATOM      2  C   UNL     1      29.820 -92.860  37.343  1.00  0.00     0.100 A 
ATOM      3  C   UNL     1      29.711 -94.243  37.492  1.00  0.00     0.197 A 
ATOM      4  O   UNL     1      28.620 -94.806  37.201  1.00  0.00    -0.289 OA
ATOM      5  C   UNL     1      30.812 -94.981  37.967  1.00  0.00     0.107 A 
ATOM      6  C   UNL     1      30.787 -96.384  38.145  1.00  0.00     0.134 A 
ATOM      7  C   UNL     1      31.926 -97.045  38.629  1.00  0.00     0.093 A 
ATOM      8  C   UNL     1      33.089 -96.328  38.937  1.00  0.00     0.123 A 
ATOM      9  C   UNL     1      33.119 -94.943  38.763  1.00  0.00     0.094 A 
ATOM     10  C   UNL     1      31.994 -94.267  38.281  1.00  0.00     0.146 A 
ATOM     11  O   UNL     1      32.050 -92.948  38.122  1.00  0.00    -0.456 OA
ENDROOT
BRANCH   1  12
ATOM     12  C   UNL     1      31.203 -90.756  37.529  1.00  0.00     0.021 A 
ATOM     13  C   UNL     1      32.075 -90.251  36.548  1.00  0.00     0.016 A 
ATOM     14  C   UNL     1      32.251 -88.874  36.393  1.00  0.00     0.051 A 
ATOM     15  C   UNL     1      31.552 -87.977  37.210  1.00  0.00     0.157 A 
ATOM     16  C   UNL     1      30.493 -89.846  38.338  1.00  0.00     0.062 A 
ATOM     17  C   UNL     1      30.669 -88.463  38.181  1.00  0.00     0.158 A 
BRANCH  15  18
ATOM     18  O   UNL     1      31.726 -86.602  37.060  1.00  0.00    -0.504 OA
ATOM     19  H   UNL     1      30.937 -85.980  36.926  1.00  0.00     0.293 HD
ENDBRANCH  15  18
BRANCH  17  20
ATOM     20  O   UNL     1      29.967 -87.567  38.984  1.00  0.00    -0.504 OA
ATOM     21  H   UNL     1      29.016 -87.753  39.281  1.00  0.00     0.293 HD
ENDBRANCH  17  20
ENDBRANCH   1  12
BRANCH   6  22
ATOM     22  O   UNL     1      29.642 -97.125  37.849  1.00  0.00    -0.507 OA
ATOM     23  H   UNL     1      29.441 -97.441  36.907  1.00  0.00     0.293 HD
ENDBRANCH   6  22
BRANCH   8  24
ATOM     24  O   UNL     1      34.220 -96.984  39.417  1.00  0.00    -0.508 OA
ATOM     25  H   UNL     1      34.335 -97.985  39.319  1.00  0.00     0.293 HD
ENDBRANCH   8  24
TORSDOF 5
ENDMDL
MODEL 2
REMARK VINA RESULT:    -6.899      1.227      2.769
REMARK INTER + INTRA:          -8.372
REMARK INTER:                  -8.101
REMARK INTRA:                  -0.270
REMARK UNBOUND:                -0.262
REMARK SMILES O=c1cc(-c2ccc(O)c(O)c2)oc2cc(O)cc(O)c12
REMARK SMILES IDX 4 1 3 2 2 3 1 4 21 5 19 6 18 7 16 8 15 9 14 10 13 11 5 12
REMARK SMILES IDX 6 13 7 14 8 15 12 16 10 17 9 18 11 20 20 22 17 24
REMARK H PARENT 9 19 11 21 20 23 17 25
REMARK Flexibility Score: inf
ROOT
ATOM      1  C   UNL     1      31.174 -92.146  37.747  1.00  0.00     0.138 A 
ATOM      2  C   UNL     1      32.236 -92.895  38.282  1.00  0.00     0.100 A 
ATOM      3  C   UNL     1      32.088 -94.272  38.450  1.00  0.00     0.197 A 
ATOM      4  O   UNL     1      33.048 -94.936  38.930  1.00  0.00    -0.289 OA
ATOM      5  C   UNL     1      30.880 -94.894  38.079  1.00  0.00     0.107 A 
ATOM      6  C   UNL     1      30.648 -96.282  38.218  1.00  0.00     0.134 A 
ATOM      7  C   UNL     1      29.417 -96.825  37.819  1.00  0.00     0.093 A 
ATOM      8  C   UNL     1      28.416 -96.005  37.285  1.00  0.00     0.123 A 
ATOM      9  C   UNL     1      28.641 -94.634  37.145  1.00  0.00     0.094 A 
ATOM     10  C   UNL     1      29.860 -94.074  37.538  1.00  0.00     0.146 A 
ATOM     11  O   UNL     1      30.048 -92.765  37.397  1.00  0.00    -0.456 OA
ENDROOT
BRANCH   1  12
ATOM     12  C   UNL     1      31.274 -90.680  37.544  1.00  0.00     0.021 A 
ATOM     13  C   UNL     1      32.131 -90.176  36.551  1.00  0.00     0.016 A 
ATOM     14  C   UNL     1      32.238 -88.800  36.335  1.00  0.00     0.051 A 
ATOM     15  C   UNL     1      31.483 -87.904  37.102  1.00  0.00     0.157 A 
ATOM     16  C   UNL     1      30.506 -89.773  38.303  1.00  0.00     0.062 A 
ATOM     17  C   UNL     1      30.613 -88.391  38.085  1.00  0.00     0.158 A 
BRANCH  15  18
ATOM     18  O   UNL     1      31.587 -86.530  36.892  1.00  0.00    -0.504 OA
ATOM     19  H   UNL     1      31.107 -85.865  37.488  1.00  0.00     0.293 HD
ENDBRANCH  15  18
BRANCH  17  20
ATOM     20  O   UNL     1      29.854 -87.497  38.838  1.00  0.00    -0.504 OA
ATOM     21  H   UNL     1      29.323 -86.753  38.402  1.00  0.00     0.293 HD
ENDBRANCH  17  20
ENDBRANCH   1  12
BRANCH   6  22
ATOM     22  O   UNL     1      31.627 -97.125  38.746  1.00  0.00    -0.507 OA
ATOM     23  H   UNL     1      32.444 -96.761  39.222  1.00  0.00     0.293 HD
ENDBRANCH   6  22
BRANCH   8  24
ATOM     24  O   UNL     1      27.194 -96.544  36.888  1.00  0.00    -0.508 OA
ATOM     25  H   UNL     1      26.471 -95.969  36.474  1.00  0.00     0.293 HD
ENDBRANCH   8  24
TORSDOF 5
ENDMDL
MODEL 3
REMARK VINA RESULT:    -5.697      9.218     10.817
REMARK INTER + INTRA:          -6.958
REMARK INTER:                  -6.681
REMARK INTRA:                  -0.278
REMARK UNBOUND:                -0.262
REMARK SMILES O=c1cc(-c2ccc(O)c(O)c2)oc2cc(O)cc(O)c12
REMARK SMILES IDX 4 1 3 2 2 3 1 4 21 5 19 6 18 7 16 8 15 9 14 10 13 11 5 12
REMARK SMILES IDX 6 13 7 14 8 15 12 16 10 17 9 18 11 20 20 22 17 24
REMARK H PARENT 9 19 11 21 20 23 17 25
REMARK Flexibility Score: inf
ROOT
ATOM      1  C   UNL     1      37.426 -95.163  31.040  1.00  0.00     0.138 A 
ATOM      2  C   UNL     1      38.053 -95.816  29.965  1.00  0.00     0.100 A 
ATOM      3  C   UNL     1      37.369 -95.962  28.758  1.00  0.00     0.197 A 
ATOM      4  O   UNL     1      37.941 -96.547  27.798  1.00  0.00    -0.289 OA
ATOM      5  C   UNL     1      36.063 -95.452  28.631  1.00  0.00     0.107 A 
ATOM      6  C   UNL     1      35.300 -95.559  27.445  1.00  0.00     0.134 A 
ATOM      7  C   UNL     1      34.006 -95.019  27.398  1.00  0.00     0.093 A 
ATOM      8  C   UNL     1      33.462 -94.375  28.516  1.00  0.00     0.123 A 
ATOM      9  C   UNL     1      34.211 -94.266  29.689  1.00  0.00     0.094 A 
ATOM     10  C   UNL     1      35.502 -94.799  29.755  1.00  0.00     0.146 A 
ATOM     11  O   UNL     1      36.193 -94.684  30.886  1.00  0.00    -0.456 OA
ENDROOT
BRANCH   1  12
ATOM     12  C   UNL     1      38.104 -94.978  32.347  1.00  0.00     0.021 A 
ATOM     13  C   UNL     1      39.298 -94.239  32.408  1.00  0.00     0.016 A 
ATOM     14  C   UNL     1      39.953 -94.044  33.626  1.00  0.00     0.051 A 
ATOM     15  C   UNL     1      39.420 -94.575  34.807  1.00  0.00     0.157 A 
ATOM     16  C   UNL     1      37.566 -95.498  33.542  1.00  0.00     0.062 A 
ATOM     17  C   UNL     1      38.223 -95.300  34.765  1.00  0.00     0.158 A 
BRANCH  15  18
ATOM     18  O   UNL     1      40.070 -94.384  36.025  1.00  0.00    -0.504 OA
ATOM     19  H   UNL     1      41.055 -94.595  36.138  1.00  0.00     0.293 HD
ENDBRANCH  15  18
BRANCH  17  20
ATOM     20  O   UNL     1      37.689 -95.818  35.944  1.00  0.00    -0.504 OA
ATOM     21  H   UNL     1      36.701 -96.024  36.033  1.00  0.00     0.293 HD
ENDBRANCH  17  20
ENDBRANCH   1  12
BRANCH   6  22
ATOM     22  O   UNL     1      35.816 -96.195  26.314  1.00  0.00    -0.507 OA
ATOM     23  H   UNL     1      36.687 -95.901  25.888  1.00  0.00     0.293 HD
ENDBRANCH   6  22
BRANCH   8  24
ATOM     24  O   UNL     1      32.177 -93.838  28.470  1.00  0.00    -0.508 OA
ATOM     25  H   UNL     1      31.726 -93.471  29.299  1.00  0.00     0.293 HD
ENDBRANCH   8  24
TORSDOF 5
ENDMDL
MODEL 4
REMARK VINA RESULT:    -5.592      8.744     10.916
REMARK INTER + INTRA:          -6.836
REMARK INTER:                  -6.519
REMARK INTRA:                  -0.316
REMARK UNBOUND:                -0.262
REMARK SMILES O=c1cc(-c2ccc(O)c(O)c2)oc2cc(O)cc(O)c12
REMARK SMILES IDX 4 1 3 2 2 3 1 4 21 5 19 6 18 7 16 8 15 9 14 10 13 11 5 12
REMARK SMILES IDX 6 13 7 14 8 15 12 16 10 17 9 18 11 20 20 22 17 24
REMARK H PARENT 9 19 11 21 20 23 17 25
REMARK Flexibility Score: inf
ROOT
ATOM      1  C   UNL     1      40.470 -94.983  35.623  1.00  0.00     0.138 A 
ATOM      2  C   UNL     1      41.586 -95.203  34.798  1.00  0.00     0.100 A 
ATOM      3  C   UNL     1      41.418 -95.244  33.413  1.00  0.00     0.197 A 
ATOM      4  O   UNL     1      42.426 -95.441  32.681  1.00  0.00    -0.289 OA
ATOM      5  C   UNL     1      40.135 -95.061  32.861  1.00  0.00     0.107 A 
ATOM      6  C   UNL     1      39.879 -95.089  31.470  1.00  0.00     0.134 A 
ATOM      7  C   UNL     1      38.571 -94.892  31.000  1.00  0.00     0.093 A 
ATOM      8  C   UNL     1      37.518 -94.668  31.894  1.00  0.00     0.123 A 
ATOM      9  C   UNL     1      37.767 -94.638  33.269  1.00  0.00     0.094 A 
ATOM     10  C   UNL     1      39.063 -94.834  33.756  1.00  0.00     0.146 A 
ATOM     11  O   UNL     1      39.272 -94.804  35.069  1.00  0.00    -0.456 OA
ENDROOT
BRANCH   1  12
ATOM     12  C   UNL     1      40.587 -94.928  37.101  1.00  0.00     0.021 A 
ATOM     13  C   UNL     1      41.786 -95.328  37.715  1.00  0.00     0.016 A 
ATOM     14  C   UNL     1      41.926 -95.280  39.104  1.00  0.00     0.051 A 
ATOM     15  C   UNL     1      40.871 -94.822  39.904  1.00  0.00     0.157 A 
ATOM     16  C   UNL     1      39.535 -94.455  37.911  1.00  0.00     0.062 A 
ATOM     17  C   UNL     1      39.675 -94.405  39.306  1.00  0.00     0.158 A 
BRANCH  15  18
ATOM     18  O   UNL     1      41.005 -94.774  41.290  1.00  0.00    -0.504 OA
ATOM     19  H   UNL     1      41.062 -93.891  41.785  1.00  0.00     0.293 HD
ENDBRANCH  15  18
BRANCH  17  20
ATOM     20  O   UNL     1      38.632 -93.940  40.104  1.00  0.00    -0.504 OA
ATOM     21  H   UNL     1      38.311 -92.980  40.050  1.00  0.00     0.293 HD
ENDBRANCH  17  20
ENDBRANCH   1  12
BRANCH   6  22
ATOM     22  O   UNL     1      40.908 -95.309  30.554  1.00  0.00    -0.507 OA
ATOM     23  H   UNL     1      40.790 -95.127  29.565  1.00  0.00     0.293 HD
ENDBRANCH   6  22
BRANCH   8  24
ATOM     24  O   UNL     1      36.221 -94.471  31.428  1.00  0.00    -0.508 OA
ATOM     25  H   UNL     1      35.610 -95.250  31.215  1.00  0.00     0.293 HD
ENDBRANCH   8  24
TORSDOF 5
ENDMDL
MODEL 5
REMARK VINA RESULT:    -5.586      9.829     11.317
REMARK INTER + INTRA:          -6.828
REMARK INTER:                  -6.518
REMARK INTRA:                  -0.310
REMARK UNBOUND:                -0.262
REMARK SMILES O=c1cc(-c2ccc(O)c(O)c2)oc2cc(O)cc(O)c12
REMARK SMILES IDX 4 1 3 2 2 3 1 4 21 5 19 6 18 7 16 8 15 9 14 10 13 11 5 12
REMARK SMILES IDX 6 13 7 14 8 15 12 16 10 17 9 18 11 20 20 22 17 24
REMARK H PARENT 9 19 11 21 20 23 17 25
REMARK Flexibility Score: inf
ROOT
ATOM      1  C   UNL     1      39.014 -95.226  31.285  1.00  0.00     0.138 A 
ATOM      2  C   UNL     1      39.428 -95.508  29.972  1.00  0.00     0.100 A 
ATOM      3  C   UNL     1      38.470 -95.686  28.974  1.00  0.00     0.197 A 
ATOM      4  O   UNL     1      38.852 -95.938  27.798  1.00  0.00    -0.289 OA
ATOM      5  C   UNL     1      37.103 -95.578  29.293  1.00  0.00     0.107 A 
ATOM      6  C   UNL     1      36.069 -95.745  28.342  1.00  0.00     0.134 A 
ATOM      7  C   UNL     1      34.729 -95.615  28.741  1.00  0.00     0.093 A 
ATOM      8  C   UNL     1      34.407 -95.321  30.071  1.00  0.00     0.123 A 
ATOM      9  C   UNL     1      35.424 -95.155  31.013  1.00  0.00     0.094 A 
ATOM     10  C   UNL     1      36.765 -95.282  30.636  1.00  0.00     0.146 A 
ATOM     11  O   UNL     1      37.714 -95.121  31.553  1.00  0.00    -0.456 OA
ENDROOT
BRANCH   1  12
ATOM     12  C   UNL     1      39.987 -95.026  32.388  1.00  0.00     0.021 A 
ATOM     13  C   UNL     1      41.272 -95.586  32.285  1.00  0.00     0.016 A 
ATOM     14  C   UNL     1      42.210 -95.408  33.306  1.00  0.00     0.051 A 
ATOM     15  C   UNL     1      41.882 -94.657  34.442  1.00  0.00     0.157 A 
ATOM     16  C   UNL     1      39.669 -94.261  33.528  1.00  0.00     0.062 A 
ATOM     17  C   UNL     1      40.611 -94.080  34.551  1.00  0.00     0.158 A 
BRANCH  15  18
ATOM     18  O   UNL     1      42.813 -94.477  35.463  1.00  0.00    -0.504 OA
ATOM     19  H   UNL     1      42.527 -94.405  36.433  1.00  0.00     0.293 HD
ENDBRANCH  15  18
BRANCH  17  20
ATOM     20  O   UNL     1      40.292 -93.325  35.678  1.00  0.00    -0.504 OA
ATOM     21  H   UNL     1      40.988 -93.096  36.378  1.00  0.00     0.293 HD
ENDBRANCH  17  20
ENDBRANCH   1  12
BRANCH   6  22
ATOM     22  O   UNL     1      36.359 -96.037  27.009  1.00  0.00    -0.507 OA
ATOM     23  H   UNL     1      36.266 -96.974  26.636  1.00  0.00     0.293 HD
ENDBRANCH   6  22
BRANCH   8  24
ATOM     24  O   UNL     1      33.078 -95.191  30.467  1.00  0.00    -0.508 OA
ATOM     25  H   UNL     1      32.384 -95.891  30.233  1.00  0.00     0.293 HD
ENDBRANCH   8  24
TORSDOF 5
ENDMDL
MODEL 6
REMARK VINA RESULT:    -5.534      9.753     10.995
REMARK INTER + INTRA:          -6.767
REMARK INTER:                  -6.450
REMARK INTRA:                  -0.317
REMARK UNBOUND:                -0.262
REMARK SMILES O=c1cc(-c2ccc(O)c(O)c2)oc2cc(O)cc(O)c12
REMARK SMILES IDX 4 1 3 2 2 3 1 4 21 5 19 6 18 7 16 8 15 9 14 10 13 11 5 12
REMARK SMILES IDX 6 13 7 14 8 15 12 16 10 17 9 18 11 20 20 22 17 24
REMARK H PARENT 9 19 11 21 20 23 17 25
REMARK Flexibility Score: inf
ROOT
ATOM      1  C   UNL     1      36.059 -95.213  29.242  1.00  0.00     0.138 A 
ATOM      2  C   UNL     1      37.187 -95.611  28.504  1.00  0.00     0.100 A 
ATOM      3  C   UNL     1      38.438 -95.631  29.120  1.00  0.00     0.197 A 
ATOM      4  O   UNL     1      39.444 -95.991  28.450  1.00  0.00    -0.289 OA
ATOM      5  C   UNL     1      38.555 -95.256  30.473  1.00  0.00     0.107 A 
ATOM      6  C   UNL     1      39.785 -95.247  31.172  1.00  0.00     0.134 A 
ATOM      7  C   UNL     1      39.815 -94.865  32.522  1.00  0.00     0.093 A 
ATOM      8  C   UNL     1      38.639 -94.493  33.184  1.00  0.00     0.123 A 
ATOM      9  C   UNL     1      37.422 -94.501  32.498  1.00  0.00     0.094 A 
ATOM     10  C   UNL     1      37.372 -94.877  31.152  1.00  0.00     0.146 A 
ATOM     11  O   UNL     1      36.201 -94.873  30.522  1.00  0.00    -0.456 OA
ENDROOT
BRANCH   1  12
ATOM     12  C   UNL     1      34.703 -95.173  28.641  1.00  0.00     0.021 A 
ATOM     13  C   UNL     1      34.556 -95.357  27.255  1.00  0.00     0.016 A 
ATOM     14  C   UNL     1      33.290 -95.331  26.664  1.00  0.00     0.051 A 
ATOM     15  C   UNL     1      32.148 -95.129  27.450  1.00  0.00     0.157 A 
ATOM     16  C   UNL     1      33.549 -94.984  29.427  1.00  0.00     0.062 A 
ATOM     17  C   UNL     1      32.278 -94.959  28.834  1.00  0.00     0.158 A 
BRANCH  15  18
ATOM     18  O   UNL     1      30.884 -95.101  26.865  1.00  0.00    -0.504 OA
ATOM     19  H   UNL     1      30.706 -95.537  25.967  1.00  0.00     0.293 HD
ENDBRANCH  15  18
BRANCH  17  20
ATOM     20  O   UNL     1      31.139 -94.770  29.614  1.00  0.00    -0.504 OA
ATOM     21  H   UNL     1      30.239 -95.145  29.338  1.00  0.00     0.293 HD
ENDBRANCH  17  20
ENDBRANCH   1  12
BRANCH   6  22
ATOM     22  O   UNL     1      40.973 -95.614  30.539  1.00  0.00    -0.507 OA
ATOM     23  H   UNL     1      41.874 -95.502  30.989  1.00  0.00     0.293 HD
ENDBRANCH   6  22
BRANCH   8  24
ATOM     24  O   UNL     1      38.669 -94.115  34.524  1.00  0.00    -0.508 OA
ATOM     25  H   UNL     1      38.470 -94.775  35.266  1.00  0.00     0.293 HD
ENDBRANCH   8  24
TORSDOF 5
ENDMDL
MODEL 7
REMARK VINA RESULT:    -5.456      8.416     10.380
REMARK INTER + INTRA:          -6.675
REMARK INTER:                  -6.359
REMARK INTRA:                  -0.317
REMARK UNBOUND:                -0.262
REMARK SMILES O=c1cc(-c2ccc(O)c(O)c2)oc2cc(O)cc(O)c12
REMARK SMILES IDX 4 1 3 2 2 3 1 4 21 5 19 6 18 7 16 8 15 9 14 10 13 11 5 12
REMARK SMILES IDX 6 13 7 14 8 15 12 16 10 17 9 18 11 20 20 22 17 24
REMARK H PARENT 9 19 11 21 20 23 17 25
REMARK Flexibility Score: inf
ROOT
ATOM      1  C   UNL     1      39.477 -94.941  33.948  1.00  0.00     0.138 A 
ATOM      2  C   UNL     1      40.861 -94.712  34.024  1.00  0.00     0.100 A 
ATOM      3  C   UNL     1      41.473 -94.617  35.274  1.00  0.00     0.197 A 
ATOM      4  O   UNL     1      42.717 -94.413  35.332  1.00  0.00    -0.289 OA
ATOM      5  C   UNL     1      40.698 -94.755  36.442  1.00  0.00     0.107 A 
ATOM      6  C   UNL     1      41.239 -94.670  37.746  1.00  0.00     0.134 A 
ATOM      7  C   UNL     1      40.399 -94.823  38.860  1.00  0.00     0.093 A 
ATOM      8  C   UNL     1      39.029 -95.060  38.691  1.00  0.00     0.123 A 
ATOM      9  C   UNL     1      38.490 -95.145  37.405  1.00  0.00     0.094 A 
ATOM     10  C   UNL     1      39.312 -94.993  36.284  1.00  0.00     0.146 A 
ATOM     11  O   UNL     1      38.773 -95.076  35.071  1.00  0.00    -0.456 OA
ENDROOT
BRANCH   1  12
ATOM     12  C   UNL     1      38.771 -95.052  32.647  1.00  0.00     0.021 A 
ATOM     13  C   UNL     1      39.519 -95.184  31.465  1.00  0.00     0.016 A 
ATOM     14  C   UNL     1      38.880 -95.297  30.228  1.00  0.00     0.051 A 
ATOM     15  C   UNL     1      37.482 -95.291  30.152  1.00  0.00     0.157 A 
ATOM     16  C   UNL     1      37.364 -95.061  32.565  1.00  0.00     0.062 A 
ATOM     17  C   UNL     1      36.723 -95.176  31.323  1.00  0.00     0.158 A 
BRANCH  15  18
ATOM     18  O   UNL     1      36.839 -95.402  28.921  1.00  0.00    -0.504 OA
ATOM     19  H   UNL     1      37.172 -96.040  28.206  1.00  0.00     0.293 HD
ENDBRANCH  15  18
BRANCH  17  20
ATOM     20  O   UNL     1      35.331 -95.182  31.246  1.00  0.00    -0.504 OA
ATOM     21  H   UNL     1      34.773 -95.835  31.783  1.00  0.00     0.293 HD
ENDBRANCH  17  20
ENDBRANCH   1  12
BRANCH   6  22
ATOM     22  O   UNL     1      42.600 -94.436  37.945  1.00  0.00    -0.507 OA
ATOM     23  H   UNL     1      43.281 -95.185  37.904  1.00  0.00     0.293 HD
ENDBRANCH   6  22
BRANCH   8  24
ATOM     24  O   UNL     1      38.194 -95.213  39.796  1.00  0.00    -0.508 OA
ATOM     25  H   UNL     1      38.561 -95.461  40.706  1.00  0.00     0.293 HD
ENDBRANCH   8  24
TORSDOF 5
ENDMDL
MODEL 8
REMARK VINA RESULT:    -5.401     17.140     18.408
REMARK INTER + INTRA:          -6.611
REMARK INTER:                  -6.296
REMARK INTRA:                  -0.315
REMARK UNBOUND:                -0.262
REMARK SMILES O=c1cc(-c2ccc(O)c(O)c2)oc2cc(O)cc(O)c12
REMARK SMILES IDX 4 1 3 2 2 3 1 4 21 5 19 6 18 7 16 8 15 9 14 10 13 11 5 12
REMARK SMILES IDX 6 13 7 14 8 15 12 16 10 17 9 18 11 20 20 22 17 24
REMARK H PARENT 9 19 11 21 20 23 17 25
REMARK Flexibility Score: inf
ROOT
ATOM      1  C   UNL     1      39.415 -77.236  36.984  1.00  0.00     0.138 A 
ATOM      2  C   UNL     1      38.045 -77.247  36.673  1.00  0.00     0.100 A 
ATOM      3  C   UNL     1      37.644 -77.232  35.337  1.00  0.00     0.197 A 
ATOM      4  O   UNL     1      36.411 -77.244  35.068  1.00  0.00    -0.289 OA
ATOM      5  C   UNL     1      38.616 -77.211  34.318  1.00  0.00     0.107 A 
ATOM      6  C   UNL     1      38.295 -77.193  32.941  1.00  0.00     0.134 A 
ATOM      7  C   UNL     1      39.324 -77.178  31.986  1.00  0.00     0.093 A 
ATOM      8  C   UNL     1      40.666 -77.179  32.386  1.00  0.00     0.123 A 
ATOM      9  C   UNL     1      40.988 -77.196  33.745  1.00  0.00     0.094 A 
ATOM     10  C   UNL     1      39.976 -77.211  34.710  1.00  0.00     0.146 A 
ATOM     11  O   UNL     1      40.310 -77.224  35.997  1.00  0.00    -0.456 OA
ENDROOT
BRANCH   1  12
ATOM     12  C   UNL     1      39.901 -77.251  38.386  1.00  0.00     0.021 A 
ATOM     13  C   UNL     1      39.010 -76.947  39.429  1.00  0.00     0.016 A 
ATOM     14  C   UNL     1      39.439 -76.961  40.759  1.00  0.00     0.051 A 
ATOM     15  C   UNL     1      40.765 -77.288  41.069  1.00  0.00     0.157 A 
ATOM     16  C   UNL     1      41.230 -77.593  38.706  1.00  0.00     0.062 A 
ATOM     17  C   UNL     1      41.661 -77.608  40.041  1.00  0.00     0.158 A 
BRANCH  15  18
ATOM     18  O   UNL     1      41.199 -77.302  42.393  1.00  0.00    -0.504 OA
ATOM     19  H   UNL     1      41.882 -76.634  42.733  1.00  0.00     0.293 HD
ENDBRANCH  15  18
BRANCH  17  20
ATOM     20  O   UNL     1      42.977 -77.945  40.354  1.00  0.00    -0.504 OA
ATOM     21  H   UNL     1      43.448 -77.549  41.159  1.00  0.00     0.293 HD
ENDBRANCH  17  20
ENDBRANCH   1  12
BRANCH   6  22
ATOM     22  O   UNL     1      36.967 -77.193  32.513  1.00  0.00    -0.507 OA
ATOM     23  H   UNL     1      36.245 -77.698  33.013  1.00  0.00     0.293 HD
ENDBRANCH   6  22
BRANCH   8  24
ATOM     24  O   UNL     1      41.688 -77.164  31.439  1.00  0.00    -0.508 OA
ATOM     25  H   UNL     1      42.439 -76.487  31.481  1.00  0.00     0.293 HD
ENDBRANCH   8  24
TORSDOF 5
ENDMDL
