MODEL 1
REMARK VINA RESULT:    -3.174      0.000      0.000
REMARK INTER + INTRA:          -6.808
REMARK INTER:                  -5.400
REMARK INTRA:                  -1.407
REMARK UNBOUND:                -1.407
REMARK SMILES CCCCCCCCCCCCCC(=O)[O-]
REMARK SMILES IDX 8 1 9 2 10 3 11 4 12 5 13 6 14 7 15 8 16 9 7 10 6 11 5 12
REMARK SMILES IDX 4 13 3 14 2 15 1 16
REMARK H PARENT
REMARK Flexibility Score: inf
ROOT
ATOM      1  C   UNL     1     167.434 170.017 154.894  1.00  0.00     0.000 C 
ENDROOT
BRANCH   1   2
ATOM      2  C   UNL     1     168.295 171.077 154.185  1.00  0.00     0.000 C 
BRANCH   2   3
ATOM      3  C   UNL     1     168.232 171.056 152.646  1.00  0.00     0.000 C 
BRANCH   3   4
ATOM      4  C   UNL     1     168.346 169.637 152.062  1.00  0.00     0.000 C 
BRANCH   4   5
ATOM      5  C   UNL     1     168.596 169.639 150.542  1.00  0.00     0.006 C 
BRANCH   5   6
ATOM      6  C   UNL     1     169.981 170.160 150.126  1.00  0.00     0.053 C 
BRANCH   6   7
ATOM      7  C   UNL     1     170.036 170.513 148.672  1.00  0.00     0.041 C 
ATOM      8  O   UNL     1     171.140 170.538 148.067  1.00  0.00    -0.550 OA
ATOM      9  O   UNL     1     168.871 170.845 147.992  1.00  0.00    -0.550 OA
ENDBRANCH   6   7
ENDBRANCH   5   6
ENDBRANCH   4   5
ENDBRANCH   3   4
ENDBRANCH   2   3
ENDBRANCH   1   2
BRANCH   1  10
ATOM     10  C   UNL     1     166.225 170.621 155.629  1.00  0.00     0.000 C 
BRANCH  10  11
ATOM     11  C   UNL     1     164.883 170.168 155.028  1.00  0.00    -0.000 C 
BRANCH  11  12
ATOM     12  C   UNL     1     165.063 169.364 153.728  1.00  0.00    -0.000 C 
BRANCH  12  13
ATOM     13  C   UNL     1     164.549 170.119 152.492  1.00  0.00    -0.000 C 
BRANCH  13  14
ATOM     14  C   UNL     1     164.216 169.181 151.319  1.00  0.00    -0.000 C 
BRANCH  14  15
ATOM     15  C   UNL     1     165.029 169.505 150.056  1.00  0.00    -0.003 C 
ATOM     16  C   UNL     1     164.927 170.976 149.651  1.00  0.00     0.004 C 
ENDBRANCH  14  15
ENDBRANCH  13  14
ENDBRANCH  12  13
ENDBRANCH  11  12
ENDBRANCH  10  11
ENDBRANCH   1  10
TORSDOF 12
ENDMDL
MODEL 2
REMARK VINA RESULT:    -3.163      1.205      1.599
REMARK INTER + INTRA:          -6.790
REMARK INTER:                  -5.449
REMARK INTRA:                  -1.340
REMARK UNBOUND:                -1.407
REMARK SMILES CCCCCCCCCCCCCC(=O)[O-]
REMARK SMILES IDX 8 1 9 2 10 3 11 4 12 5 13 6 14 7 15 8 16 9 7 10 6 11 5 12
REMARK SMILES IDX 4 13 3 14 2 15 1 16
REMARK H PARENT
REMARK Flexibility Score: inf
ROOT
ATOM      1  C   UNL     1     167.335 170.462 154.346  1.00  0.00     0.000 C 
ENDROOT
BRANCH   1   2
ATOM      2  C   UNL     1     168.256 170.457 153.113  1.00  0.00     0.000 C 
BRANCH   2   3
ATOM      3  C   UNL     1     168.207 169.176 152.259  1.00  0.00     0.000 C 
BRANCH   3   4
ATOM      4  C   UNL     1     168.726 169.392 150.827  1.00  0.00     0.000 C 
BRANCH   4   5
ATOM      5  C   UNL     1     170.130 168.799 150.608  1.00  0.00     0.006 C 
BRANCH   5   6
ATOM      6  C   UNL     1     171.038 169.635 149.691  1.00  0.00     0.053 C 
BRANCH   6   7
ATOM      7  C   UNL     1     170.448 169.814 148.327  1.00  0.00     0.041 C 
ATOM      8  O   UNL     1     170.124 168.811 147.639  1.00  0.00    -0.550 OA
ATOM      9  O   UNL     1     170.286 171.090 147.800  1.00  0.00    -0.550 OA
ENDBRANCH   6   7
ENDBRANCH   5   6
ENDBRANCH   4   5
ENDBRANCH   3   4
ENDBRANCH   2   3
ENDBRANCH   1   2
BRANCH   1  10
ATOM     10  C   UNL     1     165.908 170.941 154.027  1.00  0.00     0.000 C 
BRANCH  10  11
ATOM     11  C   UNL     1     164.948 169.776 153.733  1.00  0.00    -0.000 C 
BRANCH  11  12
ATOM     12  C   UNL     1     163.988 170.084 152.571  1.00  0.00    -0.000 C 
BRANCH  12  13
ATOM     13  C   UNL     1     164.729 170.457 151.277  1.00  0.00    -0.000 C 
BRANCH  13  14
ATOM     14  C   UNL     1     164.918 169.256 150.334  1.00  0.00    -0.000 C 
BRANCH  14  15
ATOM     15  C   UNL     1     165.481 169.666 148.964  1.00  0.00    -0.003 C 
ATOM     16  C   UNL     1     166.212 168.523 148.261  1.00  0.00     0.004 C 
ENDBRANCH  14  15
ENDBRANCH  13  14
ENDBRANCH  12  13
ENDBRANCH  11  12
ENDBRANCH  10  11
ENDBRANCH   1  10
TORSDOF 12
ENDMDL
MODEL 3
REMARK VINA RESULT:    -3.084     16.367     17.104
REMARK INTER + INTRA:          -6.655
REMARK INTER:                  -4.702
REMARK INTRA:                  -1.953
REMARK UNBOUND:                -1.407
REMARK SMILES CCCCCCCCCCCCCC(=O)[O-]
REMARK SMILES IDX 8 1 9 2 10 3 11 4 12 5 13 6 14 7 15 8 16 9 7 10 6 11 5 12
REMARK SMILES IDX 4 13 3 14 2 15 1 16
REMARK H PARENT
REMARK Flexibility Score: inf
ROOT
ATOM      1  C   UNL     1     170.079 155.151 155.379  1.00  0.00     0.000 C 
ENDROOT
BRANCH   1   2
ATOM      2  C   UNL     1     171.038 156.350 155.269  1.00  0.00     0.000 C 
BRANCH   2   3
ATOM      3  C   UNL     1     172.481 156.005 154.856  1.00  0.00     0.000 C 
BRANCH   3   4
ATOM      4  C   UNL     1     172.553 154.859 153.832  1.00  0.00     0.000 C 
BRANCH   4   5
ATOM      5  C   UNL     1     172.852 155.356 152.406  1.00  0.00     0.006 C 
BRANCH   5   6
ATOM      6  C   UNL     1     171.604 155.711 151.581  1.00  0.00     0.053 C 
BRANCH   6   7
ATOM      7  C   UNL     1     171.128 154.557 150.754  1.00  0.00     0.041 C 
ATOM      8  O   UNL     1     169.949 154.536 150.314  1.00  0.00    -0.550 OA
ATOM      9  O   UNL     1     171.978 153.488 150.496  1.00  0.00    -0.550 OA
ENDBRANCH   6   7
ENDBRANCH   5   6
ENDBRANCH   4   5
ENDBRANCH   3   4
ENDBRANCH   2   3
ENDBRANCH   1   2
BRANCH   1  10
ATOM     10  C   UNL     1     169.797 154.741 156.835  1.00  0.00     0.000 C 
BRANCH  10  11
ATOM     11  C   UNL     1     170.200 153.285 157.125  1.00  0.00    -0.000 C 
BRANCH  11  12
ATOM     12  C   UNL     1     171.723 153.076 157.078  1.00  0.00    -0.000 C 
BRANCH  12  13
ATOM     13  C   UNL     1     172.121 151.814 156.295  1.00  0.00    -0.000 C 
BRANCH  13  14
ATOM     14  C   UNL     1     170.977 151.274 155.419  1.00  0.00    -0.000 C 
BRANCH  14  15
ATOM     15  C   UNL     1     171.152 151.632 153.935  1.00  0.00    -0.003 C 
ATOM     16  C   UNL     1     169.860 152.141 153.296  1.00  0.00     0.004 C 
ENDBRANCH  14  15
ENDBRANCH  13  14
ENDBRANCH  12  13
ENDBRANCH  11  12
ENDBRANCH  10  11
ENDBRANCH   1  10
TORSDOF 12
ENDMDL
MODEL 4
REMARK VINA RESULT:    -3.039     15.327     16.608
REMARK INTER + INTRA:          -6.577
REMARK INTER:                  -4.837
REMARK INTRA:                  -1.740
REMARK UNBOUND:                -1.407
REMARK SMILES CCCCCCCCCCCCCC(=O)[O-]
REMARK SMILES IDX 8 1 9 2 10 3 11 4 12 5 13 6 14 7 15 8 16 9 7 10 6 11 5 12
REMARK SMILES IDX 4 13 3 14 2 15 1 16
REMARK H PARENT
REMARK Flexibility Score: inf
ROOT
ATOM      1  C   UNL     1     170.997 153.605 149.800  1.00  0.00     0.000 C 
ENDROOT
BRANCH   1   2
ATOM      2  C   UNL     1     169.734 154.209 150.439  1.00  0.00     0.000 C 
BRANCH   2   3
ATOM      3  C   UNL     1     169.982 155.112 151.662  1.00  0.00     0.000 C 
BRANCH   3   4
ATOM      4  C   UNL     1     171.329 155.853 151.596  1.00  0.00     0.000 C 
BRANCH   4   5
ATOM      5  C   UNL     1     171.235 157.301 152.110  1.00  0.00     0.006 C 
BRANCH   5   6
ATOM      6  C   UNL     1     170.254 157.500 153.277  1.00  0.00     0.053 C 
BRANCH   6   7
ATOM      7  C   UNL     1     169.203 158.518 152.961  1.00  0.00     0.041 C 
ATOM      8  O   UNL     1     168.872 158.738 151.766  1.00  0.00    -0.550 OA
ATOM      9  O   UNL     1     168.610 159.248 153.983  1.00  0.00    -0.550 OA
ENDBRANCH   6   7
ENDBRANCH   5   6
ENDBRANCH   4   5
ENDBRANCH   3   4
ENDBRANCH   2   3
ENDBRANCH   1   2
BRANCH   1  10
ATOM     10  C   UNL     1     171.242 152.145 150.219  1.00  0.00     0.000 C 
BRANCH  10  11
ATOM     11  C   UNL     1     172.672 151.913 150.737  1.00  0.00    -0.000 C 
BRANCH  11  12
ATOM     12  C   UNL     1     172.917 152.575 152.104  1.00  0.00    -0.000 C 
BRANCH  12  13
ATOM     13  C   UNL     1     171.827 152.228 153.131  1.00  0.00    -0.000 C 
BRANCH  13  14
ATOM     14  C   UNL     1     172.078 152.875 154.504  1.00  0.00    -0.000 C 
BRANCH  14  15
ATOM     15  C   UNL     1     173.122 154.002 154.442  1.00  0.00    -0.003 C 
ATOM     16  C   UNL     1     172.610 155.313 155.039  1.00  0.00     0.004 C 
ENDBRANCH  14  15
ENDBRANCH  13  14
ENDBRANCH  12  13
ENDBRANCH  11  12
ENDBRANCH  10  11
ENDBRANCH   1  10
TORSDOF 12
ENDMDL
MODEL 5
REMARK VINA RESULT:    -2.976     16.410     17.607
REMARK INTER + INTRA:          -6.470
REMARK INTER:                  -4.713
REMARK INTRA:                  -1.758
REMARK UNBOUND:                -1.407
REMARK SMILES CCCCCCCCCCCCCC(=O)[O-]
REMARK SMILES IDX 8 1 9 2 10 3 11 4 12 5 13 6 14 7 15 8 16 9 7 10 6 11 5 12
REMARK SMILES IDX 4 13 3 14 2 15 1 16
REMARK H PARENT
REMARK Flexibility Score: inf
ROOT
ATOM      1  C   UNL     1     171.242 156.144 151.931  1.00  0.00     0.000 C 
ENDROOT
BRANCH   1   2
ATOM      2  C   UNL     1     171.266 156.708 153.363  1.00  0.00     0.000 C 
BRANCH   2   3
ATOM      3  C   UNL     1     172.578 156.482 154.138  1.00  0.00     0.000 C 
BRANCH   3   4
ATOM      4  C   UNL     1     172.344 156.107 155.612  1.00  0.00     0.000 C 
BRANCH   4   5
ATOM      5  C   UNL     1     170.865 156.211 156.024  1.00  0.00     0.006 C 
BRANCH   5   6
ATOM      6  C   UNL     1     170.365 155.049 156.899  1.00  0.00     0.053 C 
BRANCH   6   7
ATOM      7  C   UNL     1     169.348 154.208 156.191  1.00  0.00     0.041 C 
ATOM      8  O   UNL     1     168.530 153.514 156.849  1.00  0.00    -0.550 OA
ATOM      9  O   UNL     1     169.325 154.167 154.802  1.00  0.00    -0.550 OA
ENDBRANCH   6   7
ENDBRANCH   5   6
ENDBRANCH   4   5
ENDBRANCH   3   4
ENDBRANCH   2   3
ENDBRANCH   1   2
BRANCH   1  10
ATOM     10  C   UNL     1     172.397 155.167 151.652  1.00  0.00     0.000 C 
BRANCH  10  11
ATOM     11  C   UNL     1     171.908 153.727 151.421  1.00  0.00    -0.000 C 
BRANCH  11  12
ATOM     12  C   UNL     1     172.697 152.698 152.248  1.00  0.00    -0.000 C 
BRANCH  12  13
ATOM     13  C   UNL     1     171.920 152.212 153.482  1.00  0.00    -0.000 C 
BRANCH  13  14
ATOM     14  C   UNL     1     172.613 152.585 154.804  1.00  0.00    -0.000 C 
BRANCH  14  15
ATOM     15  C   UNL     1     172.079 151.776 155.997  1.00  0.00    -0.003 C 
ATOM     16  C   UNL     1     170.897 150.883 155.621  1.00  0.00     0.004 C 
ENDBRANCH  14  15
ENDBRANCH  13  14
ENDBRANCH  12  13
ENDBRANCH  11  12
ENDBRANCH  10  11
ENDBRANCH   1  10
TORSDOF 12
ENDMDL
MODEL 6
REMARK VINA RESULT:    -2.960     16.188     17.104
REMARK INTER + INTRA:          -6.444
REMARK INTER:                  -4.764
REMARK INTRA:                  -1.680
REMARK UNBOUND:                -1.407
REMARK SMILES CCCCCCCCCCCCCC(=O)[O-]
REMARK SMILES IDX 8 1 9 2 10 3 11 4 12 5 13 6 14 7 15 8 16 9 7 10 6 11 5 12
REMARK SMILES IDX 4 13 3 14 2 15 1 16
REMARK H PARENT
REMARK Flexibility Score: inf
ROOT
ATOM      1  C   UNL     1     172.530 152.362 153.073  1.00  0.00     0.000 C 
ENDROOT
BRANCH   1   2
ATOM      2  C   UNL     1     172.536 153.095 151.720  1.00  0.00     0.000 C 
BRANCH   2   3
ATOM      3  C   UNL     1     172.534 154.633 151.804  1.00  0.00     0.000 C 
BRANCH   3   4
ATOM      4  C   UNL     1     171.236 155.261 151.266  1.00  0.00     0.000 C 
BRANCH   4   5
ATOM      5  C   UNL     1     170.891 156.594 151.954  1.00  0.00     0.006 C 
BRANCH   5   6
ATOM      6  C   UNL     1     171.702 156.880 153.229  1.00  0.00     0.053 C 
BRANCH   6   7
ATOM      7  C   UNL     1     170.829 157.320 154.364  1.00  0.00     0.041 C 
ATOM      8  O   UNL     1     169.584 157.422 154.204  1.00  0.00    -0.550 OA
ATOM      9  O   UNL     1     171.394 157.650 155.589  1.00  0.00    -0.550 OA
ENDBRANCH   6   7
ENDBRANCH   5   6
ENDBRANCH   4   5
ENDBRANCH   3   4
ENDBRANCH   2   3
ENDBRANCH   1   2
BRANCH   1  10
ATOM     10  C   UNL     1     172.842 153.289 154.260  1.00  0.00     0.000 C 
BRANCH  10  11
ATOM     11  C   UNL     1     173.119 152.512 155.558  1.00  0.00    -0.000 C 
BRANCH  11  12
ATOM     12  C   UNL     1     171.927 151.639 155.986  1.00  0.00    -0.000 C 
BRANCH  12  13
ATOM     13  C   UNL     1     170.688 152.471 156.353  1.00  0.00    -0.000 C 
BRANCH  13  14
ATOM     14  C   UNL     1     169.382 151.863 155.812  1.00  0.00    -0.000 C 
BRANCH  14  15
ATOM     15  C   UNL     1     169.038 152.366 154.401  1.00  0.00    -0.003 C 
ATOM     16  C   UNL     1     169.260 153.870 154.242  1.00  0.00     0.004 C 
ENDBRANCH  14  15
ENDBRANCH  13  14
ENDBRANCH  12  13
ENDBRANCH  11  12
ENDBRANCH  10  11
ENDBRANCH   1  10
TORSDOF 12
ENDMDL
MODEL 7
REMARK VINA RESULT:    -2.948      3.130      5.250
REMARK INTER + INTRA:          -6.424
REMARK INTER:                  -4.654
REMARK INTRA:                  -1.770
REMARK UNBOUND:                -1.407
REMARK SMILES CCCCCCCCCCCCCC(=O)[O-]
REMARK SMILES IDX 8 1 9 2 10 3 11 4 12 5 13 6 14 7 15 8 16 9 7 10 6 11 5 12
REMARK SMILES IDX 4 13 3 14 2 15 1 16
REMARK H PARENT
REMARK Flexibility Score: inf
ROOT
ATOM      1  C   UNL     1     169.443 169.247 150.024  1.00  0.00     0.000 C 
ENDROOT
BRANCH   1   2
ATOM      2  C   UNL     1     168.589 170.131 149.098  1.00  0.00     0.000 C 
BRANCH   2   3
ATOM      3  C   UNL     1     167.227 169.538 148.691  1.00  0.00     0.000 C 
BRANCH   3   4
ATOM      4  C   UNL     1     166.041 170.237 149.376  1.00  0.00     0.000 C 
BRANCH   4   5
ATOM      5  C   UNL     1     165.168 169.264 150.190  1.00  0.00     0.006 C 
BRANCH   5   6
ATOM      6  C   UNL     1     164.865 167.935 149.479  1.00  0.00     0.053 C 
BRANCH   6   7
ATOM      7  C   UNL     1     163.951 167.063 150.283  1.00  0.00     0.041 C 
ATOM      8  O   UNL     1     163.786 165.855 149.968  1.00  0.00    -0.550 OA
ATOM      9  O   UNL     1     163.255 167.592 151.364  1.00  0.00    -0.550 OA
ENDBRANCH   6   7
ENDBRANCH   5   6
ENDBRANCH   4   5
ENDBRANCH   3   4
ENDBRANCH   2   3
ENDBRANCH   1   2
BRANCH   1  10
ATOM     10  C   UNL     1     169.043 169.368 151.504  1.00  0.00     0.000 C 
BRANCH  10  11
ATOM     11  C   UNL     1     168.866 170.829 151.949  1.00  0.00    -0.000 C 
BRANCH  11  12
ATOM     12  C   UNL     1     168.068 170.954 153.259  1.00  0.00    -0.000 C 
BRANCH  12  13
ATOM     13  C   UNL     1     166.560 171.125 153.017  1.00  0.00    -0.000 C 
BRANCH  13  14
ATOM     14  C   UNL     1     165.714 170.098 153.790  1.00  0.00    -0.000 C 
BRANCH  14  15
ATOM     15  C   UNL     1     166.542 168.895 154.268  1.00  0.00    -0.003 C 
ATOM     16  C   UNL     1     166.399 167.680 153.352  1.00  0.00     0.004 C 
ENDBRANCH  14  15
ENDBRANCH  13  14
ENDBRANCH  12  13
ENDBRANCH  11  12
ENDBRANCH  10  11
ENDBRANCH   1  10
TORSDOF 12
ENDMDL
MODEL 8
REMARK VINA RESULT:    -2.945     17.097     17.808
REMARK INTER + INTRA:          -6.418
REMARK INTER:                  -4.268
REMARK INTRA:                  -2.150
REMARK UNBOUND:                -1.407
REMARK SMILES CCCCCCCCCCCCCC(=O)[O-]
REMARK SMILES IDX 8 1 9 2 10 3 11 4 12 5 13 6 14 7 15 8 16 9 7 10 6 11 5 12
REMARK SMILES IDX 4 13 3 14 2 15 1 16
REMARK H PARENT
REMARK Flexibility Score: inf
ROOT
ATOM      1  C   UNL     1     171.814 152.936 156.965  1.00  0.00     0.000 C 
ENDROOT
BRANCH   1   2
ATOM      2  C   UNL     1     172.874 153.991 156.602  1.00  0.00     0.000 C 
BRANCH   2   3
ATOM      3  C   UNL     1     172.433 155.038 155.563  1.00  0.00     0.000 C 
BRANCH   3   4
ATOM      4  C   UNL     1     173.084 154.824 154.185  1.00  0.00     0.000 C 
BRANCH   4   5
ATOM      5  C   UNL     1     172.125 154.176 153.169  1.00  0.00     0.006 C 
BRANCH   5   6
ATOM      6  C   UNL     1     172.589 152.811 152.637  1.00  0.00     0.053 C 
BRANCH   6   7
ATOM      7  C   UNL     1     172.079 152.542 151.256  1.00  0.00     0.041 C 
ATOM      8  O   UNL     1     172.021 153.472 150.409  1.00  0.00    -0.550 OA
ATOM      9  O   UNL     1     171.636 151.271 150.912  1.00  0.00    -0.550 OA
ENDBRANCH   6   7
ENDBRANCH   5   6
ENDBRANCH   4   5
ENDBRANCH   3   4
ENDBRANCH   2   3
ENDBRANCH   1   2
BRANCH   1  10
ATOM     10  C   UNL     1     172.066 151.577 156.289  1.00  0.00     0.000 C 
BRANCH  10  11
ATOM     11  C   UNL     1     170.873 151.114 155.435  1.00  0.00    -0.000 C 
BRANCH  11  12
ATOM     12  C   UNL     1     169.584 151.891 155.755  1.00  0.00    -0.000 C 
BRANCH  12  13
ATOM     13  C   UNL     1     169.098 152.740 154.569  1.00  0.00    -0.000 C 
BRANCH  13  14
ATOM     14  C   UNL     1     168.784 154.192 154.967  1.00  0.00    -0.000 C 
BRANCH  14  15
ATOM     15  C   UNL     1     168.435 154.332 156.457  1.00  0.00    -0.003 C 
ATOM     16  C   UNL     1     169.150 155.508 157.122  1.00  0.00     0.004 C 
ENDBRANCH  14  15
ENDBRANCH  13  14
ENDBRANCH  12  13
ENDBRANCH  11  12
ENDBRANCH  10  11
ENDBRANCH   1  10
TORSDOF 12
ENDMDL
MODEL 9
REMARK VINA RESULT:    -2.935      3.467      5.911
REMARK INTER + INTRA:          -6.401
REMARK INTER:                  -4.766
REMARK INTRA:                  -1.635
REMARK UNBOUND:                -1.407
REMARK SMILES CCCCCCCCCCCCCC(=O)[O-]
REMARK SMILES IDX 8 1 9 2 10 3 11 4 12 5 13 6 14 7 15 8 16 9 7 10 6 11 5 12
REMARK SMILES IDX 4 13 3 14 2 15 1 16
REMARK H PARENT
REMARK Flexibility Score: inf
ROOT
ATOM      1  C   UNL     1     165.209 170.840 150.021  1.00  0.00     0.000 C 
ENDROOT
BRANCH   1   2
ATOM      2  C   UNL     1     165.255 169.625 149.077  1.00  0.00     0.000 C 
BRANCH   2   3
ATOM      3  C   UNL     1     165.250 168.250 149.770  1.00  0.00     0.000 C 
BRANCH   3   4
ATOM      4  C   UNL     1     164.129 167.327 149.261  1.00  0.00     0.000 C 
BRANCH   4   5
ATOM      5  C   UNL     1     163.188 166.859 150.387  1.00  0.00     0.006 C 
BRANCH   5   6
ATOM      6  C   UNL     1     163.792 166.947 151.798  1.00  0.00     0.053 C 
BRANCH   6   7
ATOM      7  C   UNL     1     164.301 165.622 152.276  1.00  0.00     0.041 C 
ATOM      8  O   UNL     1     165.538 165.429 152.412  1.00  0.00    -0.550 OA
ATOM      9  O   UNL     1     163.411 164.588 152.540  1.00  0.00    -0.550 OA
ENDBRANCH   6   7
ENDBRANCH   5   6
ENDBRANCH   4   5
ENDBRANCH   3   4
ENDBRANCH   2   3
ENDBRANCH   1   2
BRANCH   1  10
ATOM     10  C   UNL     1     164.515 170.533 151.359  1.00  0.00     0.000 C 
BRANCH  10  11
ATOM     11  C   UNL     1     165.489 170.564 152.549  1.00  0.00    -0.000 C 
BRANCH  11  12
ATOM     12  C   UNL     1     166.869 171.125 152.164  1.00  0.00    -0.000 C 
BRANCH  12  13
ATOM     13  C   UNL     1     168.025 170.267 152.705  1.00  0.00    -0.000 C 
BRANCH  13  14
ATOM     14  C   UNL     1     168.226 168.969 151.904  1.00  0.00    -0.000 C 
BRANCH  14  15
ATOM     15  C   UNL     1     168.755 169.228 150.485  1.00  0.00    -0.003 C 
ATOM     16  C   UNL     1     170.273 169.084 150.387  1.00  0.00     0.004 C 
ENDBRANCH  14  15
ENDBRANCH  13  14
ENDBRANCH  12  13
ENDBRANCH  11  12
ENDBRANCH  10  11
ENDBRANCH   1  10
TORSDOF 12
ENDMDL
