MODEL 1
REMARK VINA RESULT:    -5.195      0.000      0.000
REMARK INTER + INTRA:          -8.761
REMARK INTER:                  -8.231
REMARK INTRA:                  -0.529
REMARK UNBOUND:                -0.529
REMARK SMILES CCCCCCCCCCCC(=O)[O-]
REMARK SMILES IDX 7 1 8 2 9 3 10 4 11 5 12 6 13 7 14 8 6 9 5 10 4 11 3 12 2 13
REMARK SMILES IDX 1 14
REMARK H PARENT
REMARK Flexibility Score: inf
ROOT
ATOM      1  C   UNL     1      -0.550 -28.053   7.144  1.00  0.00     0.000 C 
ENDROOT
BRANCH   1   2
ATOM      2  C   UNL     1      -0.238 -28.220   5.647  1.00  0.00     0.000 C 
BRANCH   2   3
ATOM      3  C   UNL     1       0.083 -26.886   4.949  1.00  0.00     0.000 C 
BRANCH   3   4
ATOM      4  C   UNL     1      -1.091 -26.250   4.182  1.00  0.00     0.006 C 
BRANCH   4   5
ATOM      5  C   UNL     1      -0.802 -26.071   2.687  1.00  0.00     0.053 C 
BRANCH   5   6
ATOM      6  C   UNL     1      -0.859 -27.390   1.982  1.00  0.00     0.041 C 
ATOM      7  O   UNL     1       0.200 -27.943   1.587  1.00  0.00    -0.550 OA
ATOM      8  O   UNL     1      -2.079 -28.031   1.806  1.00  0.00    -0.550 OA
ENDBRANCH   5   6
ENDBRANCH   4   5
ENDBRANCH   3   4
ENDBRANCH   2   3
ENDBRANCH   1   2
BRANCH   1   9
ATOM      9  C   UNL     1       0.289 -26.944   7.801  1.00  0.00     0.000 C 
BRANCH   9  10
ATOM     10  C   UNL     1      -0.156 -26.644   9.242  1.00  0.00    -0.000 C 
BRANCH  10  11
ATOM     11  C   UNL     1      -1.637 -26.977   9.483  1.00  0.00    -0.000 C 
BRANCH  11  12
ATOM     12  C   UNL     1      -2.270 -26.105  10.582  1.00  0.00    -0.000 C 
BRANCH  12  13
ATOM     13  C   UNL     1      -3.753 -25.805  10.313  1.00  0.00    -0.003 C 
ATOM     14  C   UNL     1      -4.153 -24.389  10.726  1.00  0.00     0.004 C 
ENDBRANCH  12  13
ENDBRANCH  11  12
ENDBRANCH  10  11
ENDBRANCH   9  10
ENDBRANCH   1   9
TORSDOF 10
ENDMDL
MODEL 2
REMARK VINA RESULT:    -5.169      3.893      5.596
REMARK INTER + INTRA:          -8.720
REMARK INTER:                  -7.826
REMARK INTRA:                  -0.895
REMARK UNBOUND:                -0.529
REMARK SMILES CCCCCCCCCCCC(=O)[O-]
REMARK SMILES IDX 7 1 8 2 9 3 10 4 11 5 12 6 13 7 14 8 6 9 5 10 4 11 3 12 2 13
REMARK SMILES IDX 1 14
REMARK H PARENT
REMARK Flexibility Score: inf
ROOT
ATOM      1  C   UNL     1      -0.137 -28.130   1.723  1.00  0.00     0.000 C 
ENDROOT
BRANCH   1   2
ATOM      2  C   UNL     1      -1.636 -27.788   1.678  1.00  0.00     0.000 C 
BRANCH   2   3
ATOM      3  C   UNL     1      -1.951 -26.392   2.246  1.00  0.00     0.000 C 
BRANCH   3   4
ATOM      4  C   UNL     1      -2.320 -25.328   1.196  1.00  0.00     0.006 C 
BRANCH   4   5
ATOM      5  C   UNL     1      -2.020 -25.776  -0.240  1.00  0.00     0.053 C 
BRANCH   5   6
ATOM      6  C   UNL     1      -2.760 -24.920  -1.219  1.00  0.00     0.041 C 
ATOM      7  O   UNL     1      -3.827 -25.333  -1.742  1.00  0.00    -0.550 OA
ATOM      8  O   UNL     1      -2.295 -23.644  -1.517  1.00  0.00    -0.550 OA
ENDBRANCH   5   6
ENDBRANCH   4   5
ENDBRANCH   3   4
ENDBRANCH   2   3
ENDBRANCH   1   2
BRANCH   1   9
ATOM      9  C   UNL     1       0.125 -29.644   1.638  1.00  0.00     0.000 C 
BRANCH   9  10
ATOM     10  C   UNL     1       0.747 -30.207   2.927  1.00  0.00    -0.000 C 
BRANCH  10  11
ATOM     11  C   UNL     1       0.902 -29.139   4.022  1.00  0.00    -0.000 C 
BRANCH  11  12
ATOM     12  C   UNL     1       0.043 -29.435   5.264  1.00  0.00    -0.000 C 
BRANCH  12  13
ATOM     13  C   UNL     1      -0.392 -28.156   5.996  1.00  0.00    -0.003 C 
ATOM     14  C   UNL     1       0.056 -26.883   5.277  1.00  0.00     0.004 C 
ENDBRANCH  12  13
ENDBRANCH  11  12
ENDBRANCH  10  11
ENDBRANCH   9  10
ENDBRANCH   1   9
TORSDOF 10
ENDMDL
MODEL 3
REMARK VINA RESULT:    -5.127      1.558      2.205
REMARK INTER + INTRA:          -8.653
REMARK INTER:                  -8.159
REMARK INTRA:                  -0.494
REMARK UNBOUND:                -0.529
REMARK SMILES CCCCCCCCCCCC(=O)[O-]
REMARK SMILES IDX 7 1 8 2 9 3 10 4 11 5 12 6 13 7 14 8 6 9 5 10 4 11 3 12 2 13
REMARK SMILES IDX 1 14
REMARK H PARENT
REMARK Flexibility Score: inf
ROOT
ATOM      1  C   UNL     1       0.285 -26.953   7.947  1.00  0.00     0.000 C 
ENDROOT
BRANCH   1   2
ATOM      2  C   UNL     1      -0.634 -28.014   7.316  1.00  0.00     0.000 C 
BRANCH   2   3
ATOM      3  C   UNL     1      -0.345 -28.245   5.822  1.00  0.00     0.000 C 
BRANCH   3   4
ATOM      4  C   UNL     1       0.122 -26.999   5.047  1.00  0.00     0.006 C 
BRANCH   4   5
ATOM      5  C   UNL     1      -1.012 -26.316   4.272  1.00  0.00     0.053 C 
BRANCH   5   6
ATOM      6  C   UNL     1      -0.463 -25.263   3.363  1.00  0.00     0.041 C 
ATOM      7  O   UNL     1      -1.235 -24.602   2.620  1.00  0.00    -0.550 OA
ATOM      8  O   UNL     1       0.897 -24.978   3.371  1.00  0.00    -0.550 OA
ENDBRANCH   5   6
ENDBRANCH   4   5
ENDBRANCH   3   4
ENDBRANCH   2   3
ENDBRANCH   1   2
BRANCH   1   9
ATOM      9  C   UNL     1      -0.155 -26.562   9.368  1.00  0.00     0.000 C 
BRANCH   9  10
ATOM     10  C   UNL     1      -1.541 -27.125   9.730  1.00  0.00    -0.000 C 
BRANCH  10  11
ATOM     11  C   UNL     1      -2.350 -26.169  10.623  1.00  0.00    -0.000 C 
BRANCH  11  12
ATOM     12  C   UNL     1      -3.850 -26.166  10.280  1.00  0.00    -0.000 C 
BRANCH  12  13
ATOM     13  C   UNL     1      -4.485 -24.776  10.433  1.00  0.00    -0.003 C 
ATOM     14  C   UNL     1      -3.887 -23.977  11.590  1.00  0.00     0.004 C 
ENDBRANCH  12  13
ENDBRANCH  11  12
ENDBRANCH  10  11
ENDBRANCH   9  10
ENDBRANCH   1   9
TORSDOF 10
ENDMDL
MODEL 4
REMARK VINA RESULT:    -5.103      4.259      6.150
REMARK INTER + INTRA:          -8.615
REMARK INTER:                  -7.498
REMARK INTRA:                  -1.117
REMARK UNBOUND:                -0.529
REMARK SMILES CCCCCCCCCCCC(=O)[O-]
REMARK SMILES IDX 7 1 8 2 9 3 10 4 11 5 12 6 13 7 14 8 6 9 5 10 4 11 3 12 2 13
REMARK SMILES IDX 1 14
REMARK H PARENT
REMARK Flexibility Score: inf
ROOT
ATOM      1  C   UNL     1      -1.186 -26.514   3.697  1.00  0.00     0.000 C 
ENDROOT
BRANCH   1   2
ATOM      2  C   UNL     1      -1.237 -24.995   3.458  1.00  0.00     0.000 C 
BRANCH   2   3
ATOM      3  C   UNL     1      -0.872 -24.601   2.015  1.00  0.00     0.000 C 
BRANCH   3   4
ATOM      4  C   UNL     1      -1.177 -25.670   0.950  1.00  0.00     0.006 C 
BRANCH   4   5
ATOM      5  C   UNL     1      -2.646 -25.671   0.508  1.00  0.00     0.053 C 
BRANCH   5   6
ATOM      6  C   UNL     1      -2.781 -25.074  -0.858  1.00  0.00     0.041 C 
ATOM      7  O   UNL     1      -3.481 -25.647  -1.732  1.00  0.00    -0.550 OA
ATOM      8  O   UNL     1      -2.172 -23.860  -1.148  1.00  0.00    -0.550 OA
ENDBRANCH   5   6
ENDBRANCH   4   5
ENDBRANCH   3   4
ENDBRANCH   2   3
ENDBRANCH   1   2
BRANCH   1   9
ATOM      9  C   UNL     1      -0.238 -26.898   4.845  1.00  0.00     0.000 C 
BRANCH   9  10
ATOM     10  C   UNL     1       1.236 -26.925   4.407  1.00  0.00    -0.000 C 
BRANCH  10  11
ATOM     11  C   UNL     1       1.436 -27.626   3.053  1.00  0.00    -0.000 C 
BRANCH  11  12
ATOM     12  C   UNL     1       1.778 -29.119   3.203  1.00  0.00    -0.000 C 
BRANCH  12  13
ATOM     13  C   UNL     1       0.821 -30.024   2.411  1.00  0.00    -0.003 C 
ATOM     14  C   UNL     1      -0.116 -29.235   1.496  1.00  0.00     0.004 C 
ENDBRANCH  12  13
ENDBRANCH  11  12
ENDBRANCH  10  11
ENDBRANCH   9  10
ENDBRANCH   1   9
TORSDOF 10
ENDMDL
MODEL 5
REMARK VINA RESULT:    -5.092      3.473      6.332
REMARK INTER + INTRA:          -8.598
REMARK INTER:                  -7.024
REMARK INTRA:                  -1.574
REMARK UNBOUND:                -0.529
REMARK SMILES CCCCCCCCCCCC(=O)[O-]
REMARK SMILES IDX 7 1 8 2 9 3 10 4 11 5 12 6 13 7 14 8 6 9 5 10 4 11 3 12 2 13
REMARK SMILES IDX 1 14
REMARK H PARENT
REMARK Flexibility Score: inf
ROOT
ATOM      1  C   UNL     1       1.895 -28.743   3.080  1.00  0.00     0.000 C 
ENDROOT
BRANCH   1   2
ATOM      2  C   UNL     1       1.806 -28.596   4.609  1.00  0.00     0.000 C 
BRANCH   2   3
ATOM      3  C   UNL     1       0.644 -29.400   5.221  1.00  0.00     0.000 C 
BRANCH   3   4
ATOM      4  C   UNL     1      -0.466 -28.552   5.870  1.00  0.00     0.006 C 
BRANCH   4   5
ATOM      5  C   UNL     1       0.072 -27.302   6.577  1.00  0.00     0.053 C 
BRANCH   5   6
ATOM      6  C   UNL     1      -0.348 -27.293   8.013  1.00  0.00     0.041 C 
ATOM      7  O   UNL     1       0.108 -26.424   8.801  1.00  0.00    -0.550 OA
ATOM      8  O   UNL     1      -1.282 -28.215   8.469  1.00  0.00    -0.550 OA
ENDBRANCH   5   6
ENDBRANCH   4   5
ENDBRANCH   3   4
ENDBRANCH   2   3
ENDBRANCH   1   2
BRANCH   1   9
ATOM      9  C   UNL     1       0.986 -29.861   2.542  1.00  0.00     0.000 C 
BRANCH   9  10
ATOM     10  C   UNL     1      -0.118 -29.326   1.614  1.00  0.00    -0.000 C 
BRANCH  10  11
ATOM     11  C   UNL     1      -0.273 -27.799   1.701  1.00  0.00    -0.000 C 
BRANCH  11  12
ATOM     12  C   UNL     1      -1.609 -27.374   2.337  1.00  0.00    -0.000 C 
BRANCH  12  13
ATOM     13  C   UNL     1      -1.450 -26.185   3.298  1.00  0.00    -0.003 C 
ATOM     14  C   UNL     1      -0.068 -25.538   3.214  1.00  0.00     0.004 C 
ENDBRANCH  12  13
ENDBRANCH  11  12
ENDBRANCH  10  11
ENDBRANCH   9  10
ENDBRANCH   1   9
TORSDOF 10
ENDMDL
MODEL 6
REMARK VINA RESULT:    -5.007      3.616      4.830
REMARK INTER + INTRA:          -8.464
REMARK INTER:                  -7.535
REMARK INTRA:                  -0.928
REMARK UNBOUND:                -0.529
REMARK SMILES CCCCCCCCCCCC(=O)[O-]
REMARK SMILES IDX 7 1 8 2 9 3 10 4 11 5 12 6 13 7 14 8 6 9 5 10 4 11 3 12 2 13
REMARK SMILES IDX 1 14
REMARK H PARENT
REMARK Flexibility Score: inf
ROOT
ATOM      1  C   UNL     1       0.256 -30.112   2.595  1.00  0.00     0.000 C 
ENDROOT
BRANCH   1   2
ATOM      2  C   UNL     1       0.257 -28.950   1.587  1.00  0.00     0.000 C 
BRANCH   2   3
ATOM      3  C   UNL     1      -1.059 -28.151   1.592  1.00  0.00     0.000 C 
BRANCH   3   4
ATOM      4  C   UNL     1      -0.966 -26.736   0.993  1.00  0.00     0.006 C 
BRANCH   4   5
ATOM      5  C   UNL     1      -2.339 -26.093   0.762  1.00  0.00     0.053 C 
BRANCH   5   6
ATOM      6  C   UNL     1      -2.378 -25.410  -0.569  1.00  0.00     0.041 C 
ATOM      7  O   UNL     1      -1.381 -24.761  -0.977  1.00  0.00    -0.550 OA
ATOM      8  O   UNL     1      -3.500 -25.533  -1.380  1.00  0.00    -0.550 OA
ENDBRANCH   5   6
ENDBRANCH   4   5
ENDBRANCH   3   4
ENDBRANCH   2   3
ENDBRANCH   1   2
BRANCH   1   9
ATOM      9  C   UNL     1       1.540 -30.159   3.441  1.00  0.00     0.000 C 
BRANCH   9  10
ATOM     10  C   UNL     1       1.361 -29.500   4.820  1.00  0.00    -0.000 C 
BRANCH  10  11
ATOM     11  C   UNL     1      -0.109 -29.466   5.271  1.00  0.00    -0.000 C 
BRANCH  11  12
ATOM     12  C   UNL     1      -0.387 -28.357   6.301  1.00  0.00    -0.000 C 
BRANCH  12  13
ATOM     13  C   UNL     1       0.104 -26.980   5.830  1.00  0.00    -0.003 C 
ATOM     14  C   UNL     1      -0.740 -26.410   4.690  1.00  0.00     0.004 C 
ENDBRANCH  12  13
ENDBRANCH  11  12
ENDBRANCH  10  11
ENDBRANCH   9  10
ENDBRANCH   1   9
TORSDOF 10
ENDMDL
MODEL 7
REMARK VINA RESULT:    -4.971      3.992      7.176
REMARK INTER + INTRA:          -8.407
REMARK INTER:                  -8.000
REMARK INTRA:                  -0.407
REMARK UNBOUND:                -0.529
REMARK SMILES CCCCCCCCCCCC(=O)[O-]
REMARK SMILES IDX 7 1 8 2 9 3 10 4 11 5 12 6 13 7 14 8 6 9 5 10 4 11 3 12 2 13
REMARK SMILES IDX 1 14
REMARK H PARENT
REMARK Flexibility Score: inf
ROOT
ATOM      1  C   UNL     1      -0.002 -26.842   8.014  1.00  0.00     0.000 C 
ENDROOT
BRANCH   1   2
ATOM      2  C   UNL     1      -0.762 -27.395   9.231  1.00  0.00     0.000 C 
BRANCH   2   3
ATOM      3  C   UNL     1      -0.677 -26.472  10.461  1.00  0.00     0.000 C 
BRANCH   3   4
ATOM      4  C   UNL     1      -2.032 -25.996  11.015  1.00  0.00     0.006 C 
BRANCH   4   5
ATOM      5  C   UNL     1      -3.147 -26.007   9.961  1.00  0.00     0.053 C 
BRANCH   5   6
ATOM      6  C   UNL     1      -4.455 -25.630  10.580  1.00  0.00     0.041 C 
ATOM      7  O   UNL     1      -5.300 -26.518  10.864  1.00  0.00    -0.550 OA
ATOM      8  O   UNL     1      -4.721 -24.302  10.889  1.00  0.00    -0.550 OA
ENDBRANCH   5   6
ENDBRANCH   4   5
ENDBRANCH   3   4
ENDBRANCH   2   3
ENDBRANCH   1   2
BRANCH   1   9
ATOM      9  C   UNL     1      -0.529 -27.406   6.683  1.00  0.00     0.000 C 
BRANCH   9  10
ATOM     10  C   UNL     1       0.314 -26.957   5.478  1.00  0.00    -0.000 C 
BRANCH  10  11
ATOM     11  C   UNL     1      -0.401 -27.193   4.137  1.00  0.00    -0.000 C 
BRANCH  11  12
ATOM     12  C   UNL     1      -1.377 -26.058   3.778  1.00  0.00    -0.000 C 
BRANCH  12  13
ATOM     13  C   UNL     1      -1.989 -26.230   2.380  1.00  0.00    -0.003 C 
ATOM     14  C   UNL     1      -1.785 -27.635   1.814  1.00  0.00     0.004 C 
ENDBRANCH  12  13
ENDBRANCH  11  12
ENDBRANCH  10  11
ENDBRANCH   9  10
ENDBRANCH   1   9
TORSDOF 10
ENDMDL
MODEL 8
REMARK VINA RESULT:    -4.966      4.526      6.222
REMARK INTER + INTRA:          -8.399
REMARK INTER:                  -7.170
REMARK INTRA:                  -1.229
REMARK UNBOUND:                -0.529
REMARK SMILES CCCCCCCCCCCC(=O)[O-]
REMARK SMILES IDX 7 1 8 2 9 3 10 4 11 5 12 6 13 7 14 8 6 9 5 10 4 11 3 12 2 13
REMARK SMILES IDX 1 14
REMARK H PARENT
REMARK Flexibility Score: inf
ROOT
ATOM      1  C   UNL     1       1.362 -25.093   3.122  1.00  0.00     0.000 C 
ENDROOT
BRANCH   1   2
ATOM      2  C   UNL     1      -0.051 -24.586   2.785  1.00  0.00     0.000 C 
BRANCH   2   3
ATOM      3  C   UNL     1      -0.363 -24.638   1.278  1.00  0.00     0.000 C 
BRANCH   3   4
ATOM      4  C   UNL     1      -1.860 -24.685   0.923  1.00  0.00     0.006 C 
BRANCH   4   5
ATOM      5  C   UNL     1      -2.174 -25.667  -0.214  1.00  0.00     0.053 C 
BRANCH   5   6
ATOM      6  C   UNL     1      -2.802 -24.948  -1.366  1.00  0.00     0.041 C 
ATOM      7  O   UNL     1      -3.809 -25.434  -1.943  1.00  0.00    -0.550 OA
ATOM      8  O   UNL     1      -2.304 -23.716  -1.771  1.00  0.00    -0.550 OA
ENDBRANCH   5   6
ENDBRANCH   4   5
ENDBRANCH   3   4
ENDBRANCH   2   3
ENDBRANCH   1   2
BRANCH   1   9
ATOM      9  C   UNL     1       1.341 -26.347   4.012  1.00  0.00     0.000 C 
BRANCH   9  10
ATOM     10  C   UNL     1      -0.073 -26.690   4.513  1.00  0.00    -0.000 C 
BRANCH  10  11
ATOM     11  C   UNL     1      -0.560 -28.060   4.012  1.00  0.00    -0.000 C 
BRANCH  11  12
ATOM     12  C   UNL     1      -1.111 -28.004   2.576  1.00  0.00    -0.000 C 
BRANCH  12  13
ATOM     13  C   UNL     1      -0.204 -28.729   1.570  1.00  0.00    -0.003 C 
ATOM     14  C   UNL     1       0.675 -29.793   2.227  1.00  0.00     0.004 C 
ENDBRANCH  12  13
ENDBRANCH  11  12
ENDBRANCH  10  11
ENDBRANCH   9  10
ENDBRANCH   1   9
TORSDOF 10
ENDMDL
MODEL 9
REMARK VINA RESULT:    -4.943      3.638      6.325
REMARK INTER + INTRA:          -8.362
REMARK INTER:                  -7.079
REMARK INTRA:                  -1.283
REMARK UNBOUND:                -0.529
REMARK SMILES CCCCCCCCCCCC(=O)[O-]
REMARK SMILES IDX 7 1 8 2 9 3 10 4 11 5 12 6 13 7 14 8 6 9 5 10 4 11 3 12 2 13
REMARK SMILES IDX 1 14
REMARK H PARENT
REMARK Flexibility Score: inf
ROOT
ATOM      1  C   UNL     1       0.124 -29.781   2.092  1.00  0.00     0.000 C 
ENDROOT
BRANCH   1   2
ATOM      2  C   UNL     1       1.454 -29.746   2.864  1.00  0.00     0.000 C 
BRANCH   2   3
ATOM      3  C   UNL     1       1.392 -28.865   4.125  1.00  0.00     0.000 C 
BRANCH   3   4
ATOM      4  C   UNL     1       0.222 -29.171   5.079  1.00  0.00     0.006 C 
BRANCH   4   5
ATOM      5  C   UNL     1      -0.410 -27.907   5.675  1.00  0.00     0.053 C 
BRANCH   5   6
ATOM      6  C   UNL     1      -0.476 -28.009   7.166  1.00  0.00     0.041 C 
ATOM      7  O   UNL     1      -0.651 -26.977   7.864  1.00  0.00    -0.550 OA
ATOM      8  O   UNL     1      -0.393 -29.252   7.781  1.00  0.00    -0.550 OA
ENDBRANCH   5   6
ENDBRANCH   4   5
ENDBRANCH   3   4
ENDBRANCH   2   3
ENDBRANCH   1   2
BRANCH   1   9
ATOM      9  C   UNL     1      -0.261 -28.406   1.519  1.00  0.00     0.000 C 
BRANCH   9  10
ATOM     10  C   UNL     1      -1.739 -28.057   1.768  1.00  0.00    -0.000 C 
BRANCH  10  11
ATOM     11  C   UNL     1      -2.000 -26.542   1.736  1.00  0.00    -0.000 C 
BRANCH  11  12
ATOM     12  C   UNL     1      -1.391 -25.810   2.945  1.00  0.00    -0.000 C 
BRANCH  12  13
ATOM     13  C   UNL     1      -0.232 -24.883   2.547  1.00  0.00    -0.003 C 
ATOM     14  C   UNL     1       1.085 -25.261   3.224  1.00  0.00     0.004 C 
ENDBRANCH  12  13
ENDBRANCH  11  12
ENDBRANCH  10  11
ENDBRANCH   9  10
ENDBRANCH   1   9
TORSDOF 10
ENDMDL
