MODEL 1
REMARK VINA RESULT:    -4.454      0.000      0.000
REMARK INTER + INTRA:          -9.823
REMARK INTER:                  -7.579
REMARK INTRA:                  -2.244
REMARK UNBOUND:                -2.244
REMARK SMILES CCCCCCCCCCCCCC(=O)[O-]
REMARK SMILES IDX 8 1 9 2 10 3 11 4 12 5 13 6 14 7 15 8 16 9 7 10 6 11 5 12
REMARK SMILES IDX 4 13 3 14 2 15 1 16
REMARK H PARENT
REMARK Flexibility Score: inf
ROOT
ATOM      1  C   UNL     1      61.422  28.027  24.564  1.00  0.00     0.000 C 
ENDROOT
BRANCH   1   2
ATOM      2  C   UNL     1      61.704  29.465  25.021  1.00  0.00     0.000 C 
BRANCH   2   3
ATOM      3  C   UNL     1      63.208  29.770  24.980  1.00  0.00     0.000 C 
BRANCH   3   4
ATOM      4  C   UNL     1      64.032  28.643  24.334  1.00  0.00     0.000 C 
BRANCH   4   5
ATOM      5  C   UNL     1      64.958  27.875  25.301  1.00  0.00     0.006 C 
BRANCH   5   6
ATOM      6  C   UNL     1      64.636  26.378  25.436  1.00  0.00     0.053 C 
BRANCH   6   7
ATOM      7  C   UNL     1      64.576  25.694  24.105  1.00  0.00     0.041 C 
ATOM      8  O   UNL     1      65.616  25.580  23.404  1.00  0.00    -0.550 OA
ATOM      9  O   UNL     1      63.365  25.213  23.624  1.00  0.00    -0.550 OA
ENDBRANCH   6   7
ENDBRANCH   5   6
ENDBRANCH   4   5
ENDBRANCH   3   4
ENDBRANCH   2   3
ENDBRANCH   1   2
BRANCH   1  10
ATOM     10  C   UNL     1      60.881  27.131  25.694  1.00  0.00     0.000 C 
BRANCH  10  11
ATOM     11  C   UNL     1      60.948  27.752  27.102  1.00  0.00    -0.000 C 
BRANCH  11  12
ATOM     12  C   UNL     1      62.082  27.214  27.997  1.00  0.00    -0.000 C 
BRANCH  12  13
ATOM     13  C   UNL     1      62.697  28.282  28.927  1.00  0.00    -0.000 C 
BRANCH  13  14
ATOM     14  C   UNL     1      62.066  29.669  28.723  1.00  0.00    -0.000 C 
BRANCH  14  15
ATOM     15  C   UNL     1      63.115  30.785  28.607  1.00  0.00    -0.003 C 
ATOM     16  C   UNL     1      64.525  30.250  28.356  1.00  0.00     0.004 C 
ENDBRANCH  14  15
ENDBRANCH  13  14
ENDBRANCH  12  13
ENDBRANCH  11  12
ENDBRANCH  10  11
ENDBRANCH   1  10
TORSDOF 12
ENDMDL
MODEL 2
REMARK VINA RESULT:    -4.389      1.154      2.194
REMARK INTER + INTRA:          -9.712
REMARK INTER:                  -7.678
REMARK INTRA:                  -2.033
REMARK UNBOUND:                -2.244
REMARK SMILES CCCCCCCCCCCCCC(=O)[O-]
REMARK SMILES IDX 8 1 9 2 10 3 11 4 12 5 13 6 14 7 15 8 16 9 7 10 6 11 5 12
REMARK SMILES IDX 4 13 3 14 2 15 1 16
REMARK H PARENT
REMARK Flexibility Score: inf
ROOT
ATOM      1  C   UNL     1      63.338  29.690  24.481  1.00  0.00     0.000 C 
ENDROOT
BRANCH   1   2
ATOM      2  C   UNL     1      64.209  30.058  25.691  1.00  0.00     0.000 C 
BRANCH   2   3
ATOM      3  C   UNL     1      65.044  28.856  26.153  1.00  0.00     0.000 C 
BRANCH   3   4
ATOM      4  C   UNL     1      65.508  27.963  24.989  1.00  0.00     0.000 C 
BRANCH   4   5
ATOM      5  C   UNL     1      64.956  26.522  25.011  1.00  0.00     0.006 C 
BRANCH   5   6
ATOM      6  C   UNL     1      65.280  25.697  23.756  1.00  0.00     0.053 C 
BRANCH   6   7
ATOM      7  C   UNL     1      64.823  26.377  22.502  1.00  0.00     0.041 C 
ATOM      8  O   UNL     1      65.647  26.640  21.588  1.00  0.00    -0.550 OA
ATOM      9  O   UNL     1      63.493  26.751  22.359  1.00  0.00    -0.550 OA
ENDBRANCH   6   7
ENDBRANCH   5   6
ENDBRANCH   4   5
ENDBRANCH   3   4
ENDBRANCH   2   3
ENDBRANCH   1   2
BRANCH   1  10
ATOM     10  C   UNL     1      61.867  29.433  24.854  1.00  0.00     0.000 C 
BRANCH  10  11
ATOM     11  C   UNL     1      61.468  27.948  24.934  1.00  0.00    -0.000 C 
BRANCH  11  12
ATOM     12  C   UNL     1      60.918  27.494  26.300  1.00  0.00    -0.000 C 
BRANCH  12  13
ATOM     13  C   UNL     1      61.992  26.891  27.231  1.00  0.00    -0.000 C 
BRANCH  13  14
ATOM     14  C   UNL     1      62.090  27.636  28.573  1.00  0.00    -0.000 C 
BRANCH  14  15
ATOM     15  C   UNL     1      61.313  28.962  28.570  1.00  0.00    -0.003 C 
ATOM     16  C   UNL     1      62.224  30.183  28.688  1.00  0.00     0.004 C 
ENDBRANCH  14  15
ENDBRANCH  13  14
ENDBRANCH  12  13
ENDBRANCH  11  12
ENDBRANCH  10  11
ENDBRANCH   1  10
TORSDOF 12
ENDMDL
MODEL 3
REMARK VINA RESULT:    -4.279      1.110      3.062
REMARK INTER + INTRA:          -9.524
REMARK INTER:                  -7.526
REMARK INTRA:                  -1.998
REMARK UNBOUND:                -2.244
REMARK SMILES CCCCCCCCCCCCCC(=O)[O-]
REMARK SMILES IDX 8 1 9 2 10 3 11 4 12 5 13 6 14 7 15 8 16 9 7 10 6 11 5 12
REMARK SMILES IDX 4 13 3 14 2 15 1 16
REMARK H PARENT
REMARK Flexibility Score: inf
ROOT
ATOM      1  C   UNL     1      63.802  29.963  28.354  1.00  0.00     0.000 C 
ENDROOT
BRANCH   1   2
ATOM      2  C   UNL     1      64.470  30.260  27.003  1.00  0.00     0.000 C 
BRANCH   2   3
ATOM      3  C   UNL     1      65.227  29.029  26.483  1.00  0.00     0.000 C 
BRANCH   3   4
ATOM      4  C   UNL     1      65.823  29.239  25.079  1.00  0.00     0.000 C 
BRANCH   4   5
ATOM      5  C   UNL     1      65.740  28.015  24.145  1.00  0.00     0.006 C 
BRANCH   5   6
ATOM      6  C   UNL     1      64.981  26.815  24.733  1.00  0.00     0.053 C 
BRANCH   6   7
ATOM      7  C   UNL     1      64.021  26.220  23.748  1.00  0.00     0.041 C 
ATOM      8  O   UNL     1      63.331  25.215  24.064  1.00  0.00    -0.550 OA
ATOM      9  O   UNL     1      63.914  26.755  22.471  1.00  0.00    -0.550 OA
ENDBRANCH   6   7
ENDBRANCH   5   6
ENDBRANCH   4   5
ENDBRANCH   3   4
ENDBRANCH   2   3
ENDBRANCH   1   2
BRANCH   1  10
ATOM     10  C   UNL     1      62.271  30.117  28.314  1.00  0.00     0.000 C 
BRANCH  10  11
ATOM     11  C   UNL     1      61.481  28.840  28.660  1.00  0.00    -0.000 C 
BRANCH  11  12
ATOM     12  C   UNL     1      62.234  27.520  28.402  1.00  0.00    -0.000 C 
BRANCH  12  13
ATOM     13  C   UNL     1      62.127  27.021  26.945  1.00  0.00    -0.000 C 
BRANCH  13  14
ATOM     14  C   UNL     1      60.752  27.317  26.323  1.00  0.00    -0.000 C 
BRANCH  14  15
ATOM     15  C   UNL     1      60.857  27.868  24.892  1.00  0.00    -0.003 C 
ATOM     16  C   UNL     1      61.817  29.051  24.780  1.00  0.00     0.004 C 
ENDBRANCH  14  15
ENDBRANCH  13  14
ENDBRANCH  12  13
ENDBRANCH  11  12
ENDBRANCH  10  11
ENDBRANCH   1  10
TORSDOF 12
ENDMDL
MODEL 4
REMARK VINA RESULT:    -4.242     11.967     13.638
REMARK INTER + INTRA:          -9.461
REMARK INTER:                  -7.642
REMARK INTRA:                  -1.820
REMARK UNBOUND:                -2.244
REMARK SMILES CCCCCCCCCCCCCC(=O)[O-]
REMARK SMILES IDX 8 1 9 2 10 3 11 4 12 5 13 6 14 7 15 8 16 9 7 10 6 11 5 12
REMARK SMILES IDX 4 13 3 14 2 15 1 16
REMARK H PARENT
REMARK Flexibility Score: inf
ROOT
ATOM      1  C   UNL     1      62.496  30.996  12.219  1.00  0.00     0.000 C 
ENDROOT
BRANCH   1   2
ATOM      2  C   UNL     1      63.120  30.086  13.287  1.00  0.00     0.000 C 
BRANCH   2   3
ATOM      3  C   UNL     1      62.460  28.700  13.283  1.00  0.00     0.000 C 
BRANCH   3   4
ATOM      4  C   UNL     1      60.965  28.745  13.648  1.00  0.00     0.000 C 
BRANCH   4   5
ATOM      5  C   UNL     1      60.023  28.071  12.628  1.00  0.00     0.006 C 
BRANCH   5   6
ATOM      6  C   UNL     1      59.398  29.034  11.606  1.00  0.00     0.053 C 
BRANCH   6   7
ATOM      7  C   UNL     1      59.992  28.868  10.241  1.00  0.00     0.041 C 
ATOM      8  O   UNL     1      59.434  29.391   9.241  1.00  0.00    -0.550 OA
ATOM      9  O   UNL     1      61.140  28.107  10.070  1.00  0.00    -0.550 OA
ENDBRANCH   6   7
ENDBRANCH   5   6
ENDBRANCH   4   5
ENDBRANCH   3   4
ENDBRANCH   2   3
ENDBRANCH   1   2
BRANCH   1  10
ATOM     10  C   UNL     1      61.939  32.309  12.800  1.00  0.00     0.000 C 
BRANCH  10  11
ATOM     11  C   UNL     1      60.402  32.380  12.887  1.00  0.00    -0.000 C 
BRANCH  11  12
ATOM     12  C   UNL     1      59.829  32.329  14.317  1.00  0.00    -0.000 C 
BRANCH  12  13
ATOM     13  C   UNL     1      60.912  32.291  15.417  1.00  0.00    -0.000 C 
BRANCH  13  14
ATOM     14  C   UNL     1      61.115  33.660  16.087  1.00  0.00    -0.000 C 
BRANCH  14  15
ATOM     15  C   UNL     1      62.537  33.844  16.639  1.00  0.00    -0.003 C 
ATOM     16  C   UNL     1      63.537  32.856  16.040  1.00  0.00     0.004 C 
ENDBRANCH  14  15
ENDBRANCH  13  14
ENDBRANCH  12  13
ENDBRANCH  11  12
ENDBRANCH  10  11
ENDBRANCH   1  10
TORSDOF 12
ENDMDL
MODEL 5
REMARK VINA RESULT:    -4.223     13.263     15.340
REMARK INTER + INTRA:          -9.430
REMARK INTER:                  -7.638
REMARK INTRA:                  -1.792
REMARK UNBOUND:                -2.244
REMARK SMILES CCCCCCCCCCCCCC(=O)[O-]
REMARK SMILES IDX 8 1 9 2 10 3 11 4 12 5 13 6 14 7 15 8 16 9 7 10 6 11 5 12
REMARK SMILES IDX 4 13 3 14 2 15 1 16
REMARK H PARENT
REMARK Flexibility Score: inf
ROOT
ATOM      1  C   UNL     1      63.683  30.151   8.985  1.00  0.00     0.000 C 
ENDROOT
BRANCH   1   2
ATOM      2  C   UNL     1      64.220  31.242   9.922  1.00  0.00     0.000 C 
BRANCH   2   3
ATOM      3  C   UNL     1      63.842  30.948  11.381  1.00  0.00     0.000 C 
BRANCH   3   4
ATOM      4  C   UNL     1      63.312  32.187  12.126  1.00  0.00     0.000 C 
BRANCH   4   5
ATOM      5  C   UNL     1      62.226  31.898  13.183  1.00  0.00     0.006 C 
BRANCH   5   6
ATOM      6  C   UNL     1      60.934  32.712  13.008  1.00  0.00     0.053 C 
BRANCH   6   7
ATOM      7  C   UNL     1      60.071  32.666  14.232  1.00  0.00     0.041 C 
ATOM      8  O   UNL     1      59.113  31.852  14.300  1.00  0.00    -0.550 OA
ATOM      9  O   UNL     1      60.305  33.545  15.281  1.00  0.00    -0.550 OA
ENDBRANCH   6   7
ENDBRANCH   5   6
ENDBRANCH   4   5
ENDBRANCH   3   4
ENDBRANCH   2   3
ENDBRANCH   1   2
BRANCH   1  10
ATOM     10  C   UNL     1      63.044  28.971   9.740  1.00  0.00     0.000 C 
BRANCH  10  11
ATOM     11  C   UNL     1      61.630  28.586   9.266  1.00  0.00    -0.000 C 
BRANCH  11  12
ATOM     12  C   UNL     1      60.561  29.679   9.456  1.00  0.00    -0.000 C 
BRANCH  12  13
ATOM     13  C   UNL     1      60.142  29.888  10.928  1.00  0.00    -0.000 C 
BRANCH  13  14
ATOM     14  C   UNL     1      59.654  28.587  11.587  1.00  0.00    -0.000 C 
BRANCH  14  15
ATOM     15  C   UNL     1      60.163  28.428  13.028  1.00  0.00    -0.003 C 
ATOM     16  C   UNL     1      61.688  28.408  13.120  1.00  0.00     0.004 C 
ENDBRANCH  14  15
ENDBRANCH  13  14
ENDBRANCH  12  13
ENDBRANCH  11  12
ENDBRANCH  10  11
ENDBRANCH   1  10
TORSDOF 12
ENDMDL
MODEL 6
REMARK VINA RESULT:    -4.158     12.836     15.014
REMARK INTER + INTRA:          -9.318
REMARK INTER:                  -7.200
REMARK INTRA:                  -2.118
REMARK UNBOUND:                -2.244
REMARK SMILES CCCCCCCCCCCCCC(=O)[O-]
REMARK SMILES IDX 8 1 9 2 10 3 11 4 12 5 13 6 14 7 15 8 16 9 7 10 6 11 5 12
REMARK SMILES IDX 4 13 3 14 2 15 1 16
REMARK H PARENT
REMARK Flexibility Score: inf
ROOT
ATOM      1  C   UNL     1      62.297  28.487  13.213  1.00  0.00     0.000 C 
ENDROOT
BRANCH   1   2
ATOM      2  C   UNL     1      63.058  29.739  13.674  1.00  0.00     0.000 C 
BRANCH   2   3
ATOM      3  C   UNL     1      63.625  30.511  12.473  1.00  0.00     0.000 C 
BRANCH   3   4
ATOM      4  C   UNL     1      62.920  31.858  12.237  1.00  0.00     0.000 C 
BRANCH   4   5
ATOM      5  C   UNL     1      62.134  32.405  13.447  1.00  0.00     0.006 C 
BRANCH   5   6
ATOM      6  C   UNL     1      60.609  32.420  13.262  1.00  0.00     0.053 C 
BRANCH   6   7
ATOM      7  C   UNL     1      59.891  31.916  14.477  1.00  0.00     0.041 C 
ATOM      8  O   UNL     1      58.632  31.929  14.519  1.00  0.00    -0.550 OA
ATOM      9  O   UNL     1      60.612  31.466  15.575  1.00  0.00    -0.550 OA
ENDBRANCH   6   7
ENDBRANCH   5   6
ENDBRANCH   4   5
ENDBRANCH   3   4
ENDBRANCH   2   3
ENDBRANCH   1   2
BRANCH   1  10
ATOM     10  C   UNL     1      60.778  28.715  13.100  1.00  0.00     0.000 C 
BRANCH  10  11
ATOM     11  C   UNL     1      60.196  28.517  11.687  1.00  0.00    -0.000 C 
BRANCH  11  12
ATOM     12  C   UNL     1      60.258  29.760  10.778  1.00  0.00    -0.000 C 
BRANCH  12  13
ATOM     13  C   UNL     1      60.934  29.497   9.415  1.00  0.00    -0.000 C 
BRANCH  13  14
ATOM     14  C   UNL     1      62.054  28.447   9.509  1.00  0.00    -0.000 C 
BRANCH  14  15
ATOM     15  C   UNL     1      63.418  28.995   9.062  1.00  0.00    -0.003 C 
ATOM     16  C   UNL     1      63.415  30.511   8.875  1.00  0.00     0.004 C 
ENDBRANCH  14  15
ENDBRANCH  13  14
ENDBRANCH  12  13
ENDBRANCH  11  12
ENDBRANCH  10  11
ENDBRANCH   1  10
TORSDOF 12
ENDMDL
MODEL 7
REMARK VINA RESULT:    -4.143     12.189     14.361
REMARK INTER + INTRA:          -9.294
REMARK INTER:                  -7.340
REMARK INTRA:                  -1.953
REMARK UNBOUND:                -2.244
REMARK SMILES CCCCCCCCCCCCCC(=O)[O-]
REMARK SMILES IDX 8 1 9 2 10 3 11 4 12 5 13 6 14 7 15 8 16 9 7 10 6 11 5 12
REMARK SMILES IDX 4 13 3 14 2 15 1 16
REMARK H PARENT
REMARK Flexibility Score: inf
ROOT
ATOM      1  C   UNL     1      63.439  29.760  11.733  1.00  0.00     0.000 C 
ENDROOT
BRANCH   1   2
ATOM      2  C   UNL     1      63.024  31.209  11.438  1.00  0.00     0.000 C 
BRANCH   2   3
ATOM      3  C   UNL     1      62.845  32.005  12.739  1.00  0.00     0.000 C 
BRANCH   3   4
ATOM      4  C   UNL     1      61.424  32.574  12.904  1.00  0.00     0.000 C 
BRANCH   4   5
ATOM      5  C   UNL     1      60.739  32.240  14.246  1.00  0.00     0.006 C 
BRANCH   5   6
ATOM      6  C   UNL     1      60.410  33.464  15.115  1.00  0.00     0.053 C 
BRANCH   6   7
ATOM      7  C   UNL     1      61.381  33.629  16.244  1.00  0.00     0.041 C 
ATOM      8  O   UNL     1      61.096  34.369  17.221  1.00  0.00    -0.550 OA
ATOM      9  O   UNL     1      62.614  32.992  16.199  1.00  0.00    -0.550 OA
ENDBRANCH   6   7
ENDBRANCH   5   6
ENDBRANCH   4   5
ENDBRANCH   3   4
ENDBRANCH   2   3
ENDBRANCH   1   2
BRANCH   1  10
ATOM     10  C   UNL     1      63.056  29.303  13.153  1.00  0.00     0.000 C 
BRANCH  10  11
ATOM     11  C   UNL     1      62.000  28.183  13.211  1.00  0.00    -0.000 C 
BRANCH  11  12
ATOM     12  C   UNL     1      60.554  28.664  13.443  1.00  0.00    -0.000 C 
BRANCH  12  13
ATOM     13  C   UNL     1      59.639  28.490  12.212  1.00  0.00    -0.000 C 
BRANCH  13  14
ATOM     14  C   UNL     1      59.691  29.703  11.268  1.00  0.00    -0.000 C 
BRANCH  14  15
ATOM     15  C   UNL     1      59.931  29.302   9.804  1.00  0.00    -0.003 C 
ATOM     16  C   UNL     1      60.790  28.046   9.666  1.00  0.00     0.004 C 
ENDBRANCH  14  15
ENDBRANCH  13  14
ENDBRANCH  12  13
ENDBRANCH  11  12
ENDBRANCH  10  11
ENDBRANCH   1  10
TORSDOF 12
ENDMDL
MODEL 8
REMARK VINA RESULT:    -4.101     12.362     14.052
REMARK INTER + INTRA:          -9.221
REMARK INTER:                  -7.296
REMARK INTRA:                  -1.925
REMARK UNBOUND:                -2.244
REMARK SMILES CCCCCCCCCCCCCC(=O)[O-]
REMARK SMILES IDX 8 1 9 2 10 3 11 4 12 5 13 6 14 7 15 8 16 9 7 10 6 11 5 12
REMARK SMILES IDX 4 13 3 14 2 15 1 16
REMARK H PARENT
REMARK Flexibility Score: inf
ROOT
ATOM      1  C   UNL     1      62.474  33.130  14.847  1.00  0.00     0.000 C 
ENDROOT
BRANCH   1   2
ATOM      2  C   UNL     1      63.264  31.852  15.168  1.00  0.00     0.000 C 
BRANCH   2   3
ATOM      3  C   UNL     1      63.674  31.122  13.881  1.00  0.00     0.000 C 
BRANCH   3   4
ATOM      4  C   UNL     1      63.650  32.032  12.640  1.00  0.00     0.000 C 
BRANCH   4   5
ATOM      5  C   UNL     1      63.631  31.290  11.287  1.00  0.00     0.006 C 
BRANCH   5   6
ATOM      6  C   UNL     1      63.445  29.768  11.397  1.00  0.00     0.053 C 
BRANCH   6   7
ATOM      7  C   UNL     1      63.009  29.160  10.099  1.00  0.00     0.041 C 
ATOM      8  O   UNL     1      63.861  28.875   9.217  1.00  0.00    -0.550 OA
ATOM      9  O   UNL     1      61.661  28.941   9.852  1.00  0.00    -0.550 OA
ENDBRANCH   6   7
ENDBRANCH   5   6
ENDBRANCH   4   5
ENDBRANCH   3   4
ENDBRANCH   2   3
ENDBRANCH   1   2
BRANCH   1  10
ATOM     10  C   UNL     1      61.046  33.113  15.422  1.00  0.00     0.000 C 
BRANCH  10  11
ATOM     11  C   UNL     1      60.107  32.064  14.798  1.00  0.00    -0.000 C 
BRANCH  11  12
ATOM     12  C   UNL     1      60.040  32.085  13.259  1.00  0.00    -0.000 C 
BRANCH  12  13
ATOM     13  C   UNL     1      60.012  30.679  12.621  1.00  0.00    -0.000 C 
BRANCH  13  14
ATOM     14  C   UNL     1      60.479  29.585  13.595  1.00  0.00    -0.000 C 
BRANCH  14  15
ATOM     15  C   UNL     1      60.256  28.168  13.043  1.00  0.00    -0.003 C 
ATOM     16  C   UNL     1      58.787  27.869  12.750  1.00  0.00     0.004 C 
ENDBRANCH  14  15
ENDBRANCH  13  14
ENDBRANCH  12  13
ENDBRANCH  11  12
ENDBRANCH  10  11
ENDBRANCH   1  10
TORSDOF 12
ENDMDL
MODEL 9
REMARK VINA RESULT:    -4.042     12.934     15.017
REMARK INTER + INTRA:          -9.122
REMARK INTER:                  -7.275
REMARK INTRA:                  -1.846
REMARK UNBOUND:                -2.244
REMARK SMILES CCCCCCCCCCCCCC(=O)[O-]
REMARK SMILES IDX 8 1 9 2 10 3 11 4 12 5 13 6 14 7 15 8 16 9 7 10 6 11 5 12
REMARK SMILES IDX 4 13 3 14 2 15 1 16
REMARK H PARENT
REMARK Flexibility Score: inf
ROOT
ATOM      1  C   UNL     1      60.077  29.964  11.433  1.00  0.00     0.000 C 
ENDROOT
BRANCH   1   2
ATOM      2  C   UNL     1      59.595  28.705  12.169  1.00  0.00     0.000 C 
BRANCH   2   3
ATOM      3  C   UNL     1      60.531  28.359  13.336  1.00  0.00     0.000 C 
BRANCH   3   4
ATOM      4  C   UNL     1      61.655  29.392  13.533  1.00  0.00     0.000 C 
BRANCH   4   5
ATOM      5  C   UNL     1      61.586  30.188  14.852  1.00  0.00     0.006 C 
BRANCH   5   6
ATOM      6  C   UNL     1      60.458  31.230  14.910  1.00  0.00     0.053 C 
BRANCH   6   7
ATOM      7  C   UNL     1      60.901  32.567  14.400  1.00  0.00     0.041 C 
ATOM      8  O   UNL     1      60.349  33.073  13.388  1.00  0.00    -0.550 OA
ATOM      9  O   UNL     1      61.946  33.237  15.022  1.00  0.00    -0.550 OA
ENDBRANCH   6   7
ENDBRANCH   5   6
ENDBRANCH   4   5
ENDBRANCH   3   4
ENDBRANCH   2   3
ENDBRANCH   1   2
BRANCH   1  10
ATOM     10  C   UNL     1      60.292  29.734   9.926  1.00  0.00     0.000 C 
BRANCH  10  11
ATOM     11  C   UNL     1      61.242  28.573   9.575  1.00  0.00    -0.000 C 
BRANCH  11  12
ATOM     12  C   UNL     1      62.695  28.754  10.055  1.00  0.00    -0.000 C 
BRANCH  12  13
ATOM     13  C   UNL     1      63.577  29.555   9.073  1.00  0.00    -0.000 C 
BRANCH  13  14
ATOM     14  C   UNL     1      64.011  30.913   9.649  1.00  0.00    -0.000 C 
BRANCH  14  15
ATOM     15  C   UNL     1      64.185  30.879  11.176  1.00  0.00    -0.003 C 
ATOM     16  C   UNL     1      63.544  32.078  11.873  1.00  0.00     0.004 C 
ENDBRANCH  14  15
ENDBRANCH  13  14
ENDBRANCH  12  13
ENDBRANCH  11  12
ENDBRANCH  10  11
ENDBRANCH   1  10
TORSDOF 12
ENDMDL
