MODEL 1
REMARK VINA RESULT:    -2.959      0.000      0.000
REMARK INTER + INTRA:          -8.586
REMARK INTER:                  -5.726
REMARK INTRA:                  -2.860
REMARK UNBOUND:                -2.860
REMARK SMILES CCCCCCCCCCCCCCCCCC(=O)[O-]
REMARK SMILES IDX 10 1 11 2 12 3 13 4 14 5 15 6 16 7 17 8 18 9 19 10 20 11
REMARK SMILES IDX 9 12 8 13 7 14 6 15 5 16 4 17 3 18 2 19 1 20
REMARK H PARENT
REMARK Flexibility Score: inf
ROOT
ATOM      1  C   UNL     1    -105.109 -27.453 -13.350  1.00  0.00     0.000 C 
ENDROOT
BRANCH   1   2
ATOM      2  C   UNL     1    -104.035 -26.551 -12.724  1.00  0.00     0.000 C 
BRANCH   2   3
ATOM      3  C   UNL     1    -102.619 -27.144 -12.847  1.00  0.00     0.000 C 
BRANCH   3   4
ATOM      4  C   UNL     1    -102.294 -28.118 -11.695  1.00  0.00     0.000 C 
BRANCH   4   5
ATOM      5  C   UNL     1    -100.869 -28.695 -11.762  1.00  0.00     0.000 C 
BRANCH   5   6
ATOM      6  C   UNL     1    -100.125 -28.304 -13.046  1.00  0.00     0.000 C 
BRANCH   6   7
ATOM      7  C   UNL     1     -99.062 -29.349 -13.406  1.00  0.00     0.006 C 
BRANCH   7   8
ATOM      8  C   UNL     1     -98.231 -29.731 -12.178  1.00  0.00     0.053 C 
BRANCH   8   9
ATOM      9  C   UNL     1     -96.831 -30.074 -12.578  1.00  0.00     0.041 C 
ATOM     10  O   UNL     1     -95.859 -29.699 -11.870  1.00  0.00    -0.550 OA
ATOM     11  O   UNL     1     -96.600 -30.847 -13.710  1.00  0.00    -0.550 OA
ENDBRANCH   8   9
ENDBRANCH   7   8
ENDBRANCH   6   7
ENDBRANCH   5   6
ENDBRANCH   4   5
ENDBRANCH   3   4
ENDBRANCH   2   3
ENDBRANCH   1   2
BRANCH   1  12
ATOM     12  C   UNL     1    -105.309 -27.179 -14.851  1.00  0.00     0.000 C 
BRANCH  12  13
ATOM     13  C   UNL     1    -104.823 -25.782 -15.268  1.00  0.00    -0.000 C 
BRANCH  13  14
ATOM     14  C   UNL     1    -103.723 -25.836 -16.344  1.00  0.00    -0.000 C 
BRANCH  14  15
ATOM     15  C   UNL     1    -103.380 -27.275 -16.762  1.00  0.00    -0.000 C 
BRANCH  15  16
ATOM     16  C   UNL     1    -101.966 -27.693 -16.324  1.00  0.00    -0.000 C 
BRANCH  16  17
ATOM     17  C   UNL     1    -101.790 -29.221 -16.245  1.00  0.00    -0.000 C 
BRANCH  17  18
ATOM     18  C   UNL     1    -103.069 -30.008 -15.906  1.00  0.00    -0.000 C 
BRANCH  18  19
ATOM     19  C   UNL     1    -103.124 -30.456 -14.439  1.00  0.00    -0.003 C 
ATOM     20  C   UNL     1    -102.056 -31.507 -14.145  1.00  0.00     0.004 C 
ENDBRANCH  18  19
ENDBRANCH  17  18
ENDBRANCH  16  17
ENDBRANCH  15  16
ENDBRANCH  14  15
ENDBRANCH  13  14
ENDBRANCH  12  13
ENDBRANCH   1  12
TORSDOF 16
ENDMDL
MODEL 2
REMARK VINA RESULT:    -2.904      3.542      6.556
REMARK INTER + INTRA:          -8.480
REMARK INTER:                  -5.493
REMARK INTRA:                  -2.987
REMARK UNBOUND:                -2.860
REMARK SMILES CCCCCCCCCCCCCCCCCC(=O)[O-]
REMARK SMILES IDX 10 1 11 2 12 3 13 4 14 5 15 6 16 7 17 8 18 9 19 10 20 11
REMARK SMILES IDX 9 12 8 13 7 14 6 15 5 16 4 17 3 18 2 19 1 20
REMARK H PARENT
REMARK Flexibility Score: inf
ROOT
ATOM      1  C   UNL     1    -102.152 -31.743 -13.397  1.00  0.00     0.000 C 
ENDROOT
BRANCH   1   2
ATOM      2  C   UNL     1    -101.403 -31.462 -14.708  1.00  0.00     0.000 C 
BRANCH   2   3
ATOM      3  C   UNL     1    -102.249 -30.661 -15.715  1.00  0.00     0.000 C 
BRANCH   3   4
ATOM      4  C   UNL     1    -101.585 -29.322 -16.097  1.00  0.00     0.000 C 
BRANCH   4   5
ATOM      5  C   UNL     1    -102.561 -28.307 -16.718  1.00  0.00     0.000 C 
BRANCH   5   6
ATOM      6  C   UNL     1    -102.536 -26.944 -16.013  1.00  0.00     0.000 C 
BRANCH   6   7
ATOM      7  C   UNL     1    -103.443 -25.937 -16.730  1.00  0.00     0.006 C 
BRANCH   7   8
ATOM      8  C   UNL     1    -104.728 -25.693 -15.933  1.00  0.00     0.053 C 
BRANCH   8   9
ATOM      9  C   UNL     1    -104.587 -24.477 -15.072  1.00  0.00     0.041 C 
ATOM     10  O   UNL     1    -104.246 -24.592 -13.864  1.00  0.00    -0.550 OA
ATOM     11  O   UNL     1    -104.789 -23.213 -15.613  1.00  0.00    -0.550 OA
ENDBRANCH   8   9
ENDBRANCH   7   8
ENDBRANCH   6   7
ENDBRANCH   5   6
ENDBRANCH   4   5
ENDBRANCH   3   4
ENDBRANCH   2   3
ENDBRANCH   1   2
BRANCH   1  12
ATOM     12  C   UNL     1    -101.219 -31.749 -12.173  1.00  0.00     0.000 C 
BRANCH  12  13
ATOM     13  C   UNL     1     -99.776 -31.356 -12.526  1.00  0.00    -0.000 C 
BRANCH  13  14
ATOM     14  C   UNL     1     -99.382 -29.981 -11.956  1.00  0.00    -0.000 C 
BRANCH  14  15
ATOM     15  C   UNL     1     -99.045 -28.963 -13.057  1.00  0.00    -0.000 C 
BRANCH  15  16
ATOM     16  C   UNL     1    -100.168 -27.933 -13.269  1.00  0.00    -0.000 C 
BRANCH  16  17
ATOM     17  C   UNL     1    -101.263 -28.011 -12.189  1.00  0.00    -0.000 C 
BRANCH  17  18
ATOM     18  C   UNL     1    -102.661 -27.552 -12.642  1.00  0.00    -0.000 C 
BRANCH  18  19
ATOM     19  C   UNL     1    -103.746 -28.613 -12.405  1.00  0.00    -0.003 C 
ATOM     20  C   UNL     1    -104.664 -28.740 -13.618  1.00  0.00     0.004 C 
ENDBRANCH  18  19
ENDBRANCH  17  18
ENDBRANCH  16  17
ENDBRANCH  15  16
ENDBRANCH  14  15
ENDBRANCH  13  14
ENDBRANCH  12  13
ENDBRANCH   1  12
TORSDOF 16
ENDMDL
MODEL 3
REMARK VINA RESULT:    -2.886      3.424      6.530
REMARK INTER + INTRA:          -8.446
REMARK INTER:                  -5.315
REMARK INTRA:                  -3.131
REMARK UNBOUND:                -2.860
REMARK SMILES CCCCCCCCCCCCCCCCCC(=O)[O-]
REMARK SMILES IDX 10 1 11 2 12 3 13 4 14 5 15 6 16 7 17 8 18 9 19 10 20 11
REMARK SMILES IDX 9 12 8 13 7 14 6 15 5 16 4 17 3 18 2 19 1 20
REMARK H PARENT
REMARK Flexibility Score: inf
ROOT
ATOM      1  C   UNL     1    -102.030 -31.316 -14.241  1.00  0.00     0.000 C 
ENDROOT
BRANCH   1   2
ATOM      2  C   UNL     1    -102.613 -30.198 -15.119  1.00  0.00     0.000 C 
BRANCH   2   3
ATOM      3  C   UNL     1    -101.653 -29.766 -16.242  1.00  0.00     0.000 C 
BRANCH   3   4
ATOM      4  C   UNL     1    -101.644 -28.235 -16.441  1.00  0.00     0.000 C 
BRANCH   4   5
ATOM      5  C   UNL     1    -101.961 -27.447 -15.158  1.00  0.00     0.000 C 
BRANCH   5   6
ATOM      6  C   UNL     1    -103.051 -26.386 -15.361  1.00  0.00     0.000 C 
BRANCH   6   7
ATOM      7  C   UNL     1    -103.425 -26.259 -16.842  1.00  0.00     0.006 C 
BRANCH   7   8
ATOM      8  C   UNL     1    -104.945 -26.184 -17.019  1.00  0.00     0.053 C 
BRANCH   8   9
ATOM      9  C   UNL     1    -105.605 -27.368 -16.387  1.00  0.00     0.041 C 
ATOM     10  O   UNL     1    -105.316 -28.534 -16.768  1.00  0.00    -0.550 OA
ATOM     11  O   UNL     1    -106.506 -27.189 -15.345  1.00  0.00    -0.550 OA
ENDBRANCH   8   9
ENDBRANCH   7   8
ENDBRANCH   6   7
ENDBRANCH   5   6
ENDBRANCH   4   5
ENDBRANCH   3   4
ENDBRANCH   2   3
ENDBRANCH   1   2
BRANCH   1  12
ATOM     12  C   UNL     1    -100.579 -31.665 -14.615  1.00  0.00     0.000 C 
BRANCH  12  13
ATOM     13  C   UNL     1     -99.575 -31.283 -13.515  1.00  0.00    -0.000 C 
BRANCH  13  14
ATOM     14  C   UNL     1     -98.794 -29.999 -13.849  1.00  0.00    -0.000 C 
BRANCH  14  15
ATOM     15  C   UNL     1     -99.262 -28.794 -13.017  1.00  0.00    -0.000 C 
BRANCH  15  16
ATOM     16  C   UNL     1    -100.239 -29.196 -11.899  1.00  0.00    -0.000 C 
BRANCH  16  17
ATOM     17  C   UNL     1    -101.374 -28.174 -11.701  1.00  0.00    -0.000 C 
BRANCH  17  18
ATOM     18  C   UNL     1    -102.753 -28.784 -11.388  1.00  0.00    -0.000 C 
BRANCH  18  19
ATOM     19  C   UNL     1    -103.911 -28.001 -12.024  1.00  0.00    -0.003 C 
ATOM     20  C   UNL     1    -104.960 -28.946 -12.606  1.00  0.00     0.004 C 
ENDBRANCH  18  19
ENDBRANCH  17  18
ENDBRANCH  16  17
ENDBRANCH  15  16
ENDBRANCH  14  15
ENDBRANCH  13  14
ENDBRANCH  12  13
ENDBRANCH   1  12
TORSDOF 16
ENDMDL
MODEL 4
REMARK VINA RESULT:    -2.872      3.186      5.823
REMARK INTER + INTRA:          -8.420
REMARK INTER:                  -6.583
REMARK INTRA:                  -1.836
REMARK UNBOUND:                -2.860
REMARK SMILES CCCCCCCCCCCCCCCCCC(=O)[O-]
REMARK SMILES IDX 10 1 11 2 12 3 13 4 14 5 15 6 16 7 17 8 18 9 19 10 20 11
REMARK SMILES IDX 9 12 8 13 7 14 6 15 5 16 4 17 3 18 2 19 1 20
REMARK H PARENT
REMARK Flexibility Score: inf
ROOT
ATOM      1  C   UNL     1    -101.861 -28.057 -16.392  1.00  0.00     0.000 C 
ENDROOT
BRANCH   1   2
ATOM      2  C   UNL     1    -102.257 -29.469 -15.935  1.00  0.00     0.000 C 
BRANCH   2   3
ATOM      3  C   UNL     1    -101.240 -30.540 -16.371  1.00  0.00     0.000 C 
BRANCH   3   4
ATOM      4  C   UNL     1     -99.930 -30.463 -15.558  1.00  0.00     0.000 C 
BRANCH   4   5
ATOM      5  C   UNL     1    -100.155 -30.333 -14.041  1.00  0.00     0.000 C 
BRANCH   5   6
ATOM      6  C   UNL     1     -99.381 -29.163 -13.420  1.00  0.00     0.000 C 
BRANCH   6   7
ATOM      7  C   UNL     1    -100.333 -28.038 -12.996  1.00  0.00     0.006 C 
BRANCH   7   8
ATOM      8  C   UNL     1    -101.264 -28.502 -11.872  1.00  0.00     0.053 C 
BRANCH   8   9
ATOM      9  C   UNL     1    -102.651 -27.987 -12.094  1.00  0.00     0.041 C 
ATOM     10  O   UNL     1    -103.500 -28.693 -12.700  1.00  0.00    -0.550 OA
ATOM     11  O   UNL     1    -103.021 -26.744 -11.594  1.00  0.00    -0.550 OA
ENDBRANCH   8   9
ENDBRANCH   7   8
ENDBRANCH   6   7
ENDBRANCH   5   6
ENDBRANCH   4   5
ENDBRANCH   3   4
ENDBRANCH   2   3
ENDBRANCH   1   2
BRANCH   1  12
ATOM     12  C   UNL     1    -102.658 -26.957 -15.669  1.00  0.00     0.000 C 
BRANCH  12  13
ATOM     13  C   UNL     1    -103.436 -26.054 -16.640  1.00  0.00    -0.000 C 
BRANCH  13  14
ATOM     14  C   UNL     1    -104.255 -24.972 -15.912  1.00  0.00    -0.000 C 
BRANCH  14  15
ATOM     15  C   UNL     1    -104.446 -25.285 -14.420  1.00  0.00    -0.000 C 
BRANCH  15  16
ATOM     16  C   UNL     1    -104.819 -24.037 -13.601  1.00  0.00    -0.000 C 
BRANCH  16  17
ATOM     17  C   UNL     1    -105.894 -23.172 -14.285  1.00  0.00    -0.000 C 
BRANCH  17  18
ATOM     18  C   UNL     1    -105.483 -21.713 -14.554  1.00  0.00    -0.000 C 
BRANCH  18  19
ATOM     19  C   UNL     1    -105.395 -21.383 -16.051  1.00  0.00    -0.003 C 
ATOM     20  C   UNL     1    -106.676 -21.784 -16.779  1.00  0.00     0.004 C 
ENDBRANCH  18  19
ENDBRANCH  17  18
ENDBRANCH  16  17
ENDBRANCH  15  16
ENDBRANCH  14  15
ENDBRANCH  13  14
ENDBRANCH  12  13
ENDBRANCH   1  12
TORSDOF 16
ENDMDL
MODEL 5
REMARK VINA RESULT:    -2.871      2.686      4.870
REMARK INTER + INTRA:          -8.417
REMARK INTER:                  -5.854
REMARK INTRA:                  -2.562
REMARK UNBOUND:                -2.860
REMARK SMILES CCCCCCCCCCCCCCCCCC(=O)[O-]
REMARK SMILES IDX 10 1 11 2 12 3 13 4 14 5 15 6 16 7 17 8 18 9 19 10 20 11
REMARK SMILES IDX 9 12 8 13 7 14 6 15 5 16 4 17 3 18 2 19 1 20
REMARK H PARENT
REMARK Flexibility Score: inf
ROOT
ATOM      1  C   UNL     1    -101.840 -30.523 -15.483  1.00  0.00     0.000 C 
ENDROOT
BRANCH   1   2
ATOM      2  C   UNL     1    -100.424 -30.373 -16.059  1.00  0.00     0.000 C 
BRANCH   2   3
ATOM      3  C   UNL     1     -99.331 -30.811 -15.067  1.00  0.00     0.000 C 
BRANCH   3   4
ATOM      4  C   UNL     1     -99.647 -30.371 -13.623  1.00  0.00     0.000 C 
BRANCH   4   5
ATOM      5  C   UNL     1     -99.071 -28.990 -13.261  1.00  0.00     0.000 C 
BRANCH   5   6
ATOM      6  C   UNL     1    -100.139 -27.888 -13.221  1.00  0.00     0.000 C 
BRANCH   6   7
ATOM      7  C   UNL     1    -101.437 -28.402 -12.587  1.00  0.00     0.006 C 
BRANCH   7   8
ATOM      8  C   UNL     1    -102.346 -27.239 -12.180  1.00  0.00     0.053 C 
BRANCH   8   9
ATOM      9  C   UNL     1    -102.689 -27.326 -10.727  1.00  0.00     0.041 C 
ATOM     10  O   UNL     1    -102.323 -28.322 -10.047  1.00  0.00    -0.550 OA
ATOM     11  O   UNL     1    -103.376 -26.288 -10.110  1.00  0.00    -0.550 OA
ENDBRANCH   8   9
ENDBRANCH   7   8
ENDBRANCH   6   7
ENDBRANCH   5   6
ENDBRANCH   4   5
ENDBRANCH   3   4
ENDBRANCH   2   3
ENDBRANCH   1   2
BRANCH   1  12
ATOM     12  C   UNL     1    -102.787 -29.402 -15.946  1.00  0.00     0.000 C 
BRANCH  12  13
ATOM     13  C   UNL     1    -102.035 -28.168 -16.468  1.00  0.00    -0.000 C 
BRANCH  13  14
ATOM     14  C   UNL     1    -102.517 -26.861 -15.813  1.00  0.00    -0.000 C 
BRANCH  14  15
ATOM     15  C   UNL     1    -103.452 -26.055 -16.729  1.00  0.00    -0.000 C 
BRANCH  15  16
ATOM     16  C   UNL     1    -104.285 -25.020 -15.954  1.00  0.00    -0.000 C 
BRANCH  16  17
ATOM     17  C   UNL     1    -105.802 -25.256 -16.081  1.00  0.00    -0.000 C 
BRANCH  17  18
ATOM     18  C   UNL     1    -106.513 -25.647 -14.773  1.00  0.00    -0.000 C 
BRANCH  18  19
ATOM     19  C   UNL     1    -105.584 -26.354 -13.775  1.00  0.00    -0.003 C 
ATOM     20  C   UNL     1    -105.637 -27.869 -13.953  1.00  0.00     0.004 C 
ENDBRANCH  18  19
ENDBRANCH  17  18
ENDBRANCH  16  17
ENDBRANCH  15  16
ENDBRANCH  14  15
ENDBRANCH  13  14
ENDBRANCH  12  13
ENDBRANCH   1  12
TORSDOF 16
ENDMDL
MODEL 6
REMARK VINA RESULT:    -2.824      1.406      3.763
REMARK INTER + INTRA:          -8.326
REMARK INTER:                  -5.527
REMARK INTRA:                  -2.799
REMARK UNBOUND:                -2.860
REMARK SMILES CCCCCCCCCCCCCCCCCC(=O)[O-]
REMARK SMILES IDX 10 1 11 2 12 3 13 4 14 5 15 6 16 7 17 8 18 9 19 10 20 11
REMARK SMILES IDX 9 12 8 13 7 14 6 15 5 16 4 17 3 18 2 19 1 20
REMARK H PARENT
REMARK Flexibility Score: inf
ROOT
ATOM      1  C   UNL     1    -102.646 -31.176 -13.974  1.00  0.00     0.000 C 
ENDROOT
BRANCH   1   2
ATOM      2  C   UNL     1    -102.514 -30.894 -12.470  1.00  0.00     0.000 C 
BRANCH   2   3
ATOM      3  C   UNL     1    -103.251 -29.613 -12.040  1.00  0.00     0.000 C 
BRANCH   3   4
ATOM      4  C   UNL     1    -102.651 -28.350 -12.694  1.00  0.00     0.000 C 
BRANCH   4   5
ATOM      5  C   UNL     1    -101.239 -28.008 -12.187  1.00  0.00     0.000 C 
BRANCH   5   6
ATOM      6  C   UNL     1    -100.255 -27.696 -13.322  1.00  0.00     0.000 C 
BRANCH   6   7
ATOM      7  C   UNL     1     -99.083 -28.684 -13.322  1.00  0.00     0.006 C 
BRANCH   7   8
ATOM      8  C   UNL     1     -99.148 -29.610 -12.104  1.00  0.00     0.053 C 
BRANCH   8   9
ATOM      9  C   UNL     1     -98.339 -30.846 -12.342  1.00  0.00     0.041 C 
ATOM     10  O   UNL     1     -98.102 -31.641 -11.394  1.00  0.00    -0.550 OA
ATOM     11  O   UNL     1     -97.884 -31.145 -13.620  1.00  0.00    -0.550 OA
ENDBRANCH   8   9
ENDBRANCH   7   8
ENDBRANCH   6   7
ENDBRANCH   5   6
ENDBRANCH   4   5
ENDBRANCH   3   4
ENDBRANCH   2   3
ENDBRANCH   1   2
BRANCH   1  12
ATOM     12  C   UNL     1    -101.287 -31.435 -14.648  1.00  0.00     0.000 C 
BRANCH  12  13
ATOM     13  C   UNL     1    -101.003 -30.461 -15.802  1.00  0.00    -0.000 C 
BRANCH  13  14
ATOM     14  C   UNL     1    -102.221 -29.587 -16.151  1.00  0.00    -0.000 C 
BRANCH  14  15
ATOM     15  C   UNL     1    -101.838 -28.120 -16.406  1.00  0.00    -0.000 C 
BRANCH  15  16
ATOM     16  C   UNL     1    -103.067 -27.221 -16.625  1.00  0.00    -0.000 C 
BRANCH  16  17
ATOM     17  C   UNL     1    -103.211 -26.130 -15.547  1.00  0.00    -0.000 C 
BRANCH  17  18
ATOM     18  C   UNL     1    -104.187 -24.993 -15.896  1.00  0.00    -0.000 C 
BRANCH  18  19
ATOM     19  C   UNL     1    -105.152 -24.659 -14.749  1.00  0.00    -0.003 C 
ATOM     20  C   UNL     1    -104.549 -25.036 -13.397  1.00  0.00     0.004 C 
ENDBRANCH  18  19
ENDBRANCH  17  18
ENDBRANCH  16  17
ENDBRANCH  15  16
ENDBRANCH  14  15
ENDBRANCH  13  14
ENDBRANCH  12  13
ENDBRANCH   1  12
TORSDOF 16
ENDMDL
MODEL 7
REMARK VINA RESULT:    -2.807      1.574      3.782
REMARK INTER + INTRA:          -8.293
REMARK INTER:                  -5.822
REMARK INTRA:                  -2.470
REMARK UNBOUND:                -2.860
REMARK SMILES CCCCCCCCCCCCCCCCCC(=O)[O-]
REMARK SMILES IDX 10 1 11 2 12 3 13 4 14 5 15 6 16 7 17 8 18 9 19 10 20 11
REMARK SMILES IDX 9 12 8 13 7 14 6 15 5 16 4 17 3 18 2 19 1 20
REMARK H PARENT
REMARK Flexibility Score: inf
ROOT
ATOM      1  C   UNL     1    -103.274 -29.785 -15.195  1.00  0.00     0.000 C 
ENDROOT
BRANCH   1   2
ATOM      2  C   UNL     1    -102.316 -29.398 -16.332  1.00  0.00     0.000 C 
BRANCH   2   3
ATOM      3  C   UNL     1    -101.555 -28.090 -16.046  1.00  0.00     0.000 C 
BRANCH   3   4
ATOM      4  C   UNL     1    -101.808 -27.571 -14.615  1.00  0.00     0.000 C 
BRANCH   4   5
ATOM      5  C   UNL     1    -100.573 -27.663 -13.702  1.00  0.00     0.000 C 
BRANCH   5   6
ATOM      6  C   UNL     1    -100.811 -28.530 -12.458  1.00  0.00     0.000 C 
BRANCH   6   7
ATOM      7  C   UNL     1     -99.656 -29.515 -12.244  1.00  0.00     0.006 C 
BRANCH   7   8
ATOM      8  C   UNL     1     -98.649 -29.437 -13.395  1.00  0.00     0.053 C 
BRANCH   8   9
ATOM      9  C   UNL     1     -98.638 -30.716 -14.170  1.00  0.00     0.041 C 
ATOM     10  O   UNL     1     -99.164 -30.769 -15.314  1.00  0.00    -0.550 OA
ATOM     11  O   UNL     1     -98.009 -31.840 -13.650  1.00  0.00    -0.550 OA
ENDBRANCH   8   9
ENDBRANCH   7   8
ENDBRANCH   6   7
ENDBRANCH   5   6
ENDBRANCH   4   5
ENDBRANCH   3   4
ENDBRANCH   2   3
ENDBRANCH   1   2
BRANCH   1  12
ATOM     12  C   UNL     1    -104.750 -29.749 -15.630  1.00  0.00     0.000 C 
BRANCH  12  13
ATOM     13  C   UNL     1    -105.369 -28.347 -15.510  1.00  0.00    -0.000 C 
BRANCH  13  14
ATOM     14  C   UNL     1    -105.776 -27.762 -16.874  1.00  0.00    -0.000 C 
BRANCH  14  15
ATOM     15  C   UNL     1    -105.664 -26.230 -16.914  1.00  0.00    -0.000 C 
BRANCH  15  16
ATOM     16  C   UNL     1    -104.230 -25.738 -16.649  1.00  0.00    -0.000 C 
BRANCH  16  17
ATOM     17  C   UNL     1    -104.166 -24.626 -15.586  1.00  0.00    -0.000 C 
BRANCH  17  18
ATOM     18  C   UNL     1    -105.472 -24.394 -14.803  1.00  0.00    -0.000 C 
BRANCH  18  19
ATOM     19  C   UNL     1    -105.282 -24.490 -13.283  1.00  0.00    -0.003 C 
ATOM     20  C   UNL     1    -104.454 -25.716 -12.908  1.00  0.00     0.004 C 
ENDBRANCH  18  19
ENDBRANCH  17  18
ENDBRANCH  16  17
ENDBRANCH  15  16
ENDBRANCH  14  15
ENDBRANCH  13  14
ENDBRANCH  12  13
ENDBRANCH   1  12
TORSDOF 16
ENDMDL
MODEL 8
REMARK VINA RESULT:    -2.799      1.658      3.205
REMARK INTER + INTRA:          -8.278
REMARK INTER:                  -5.219
REMARK INTRA:                  -3.059
REMARK UNBOUND:                -2.860
REMARK SMILES CCCCCCCCCCCCCCCCCC(=O)[O-]
REMARK SMILES IDX 10 1 11 2 12 3 13 4 14 5 15 6 16 7 17 8 18 9 19 10 20 11
REMARK SMILES IDX 9 12 8 13 7 14 6 15 5 16 4 17 3 18 2 19 1 20
REMARK H PARENT
REMARK Flexibility Score: inf
ROOT
ATOM      1  C   UNL     1    -105.340 -28.786 -12.755  1.00  0.00     0.000 C 
ENDROOT
BRANCH   1   2
ATOM      2  C   UNL     1    -104.114 -29.014 -11.857  1.00  0.00     0.000 C 
BRANCH   2   3
ATOM      3  C   UNL     1    -103.786 -27.793 -10.979  1.00  0.00     0.000 C 
BRANCH   3   4
ATOM      4  C   UNL     1    -102.347 -27.283 -11.206  1.00  0.00     0.000 C 
BRANCH   4   5
ATOM      5  C   UNL     1    -101.452 -28.286 -11.956  1.00  0.00     0.000 C 
BRANCH   5   6
ATOM      6  C   UNL     1    -100.611 -27.628 -13.058  1.00  0.00     0.000 C 
BRANCH   6   7
ATOM      7  C   UNL     1     -99.360 -28.459 -13.365  1.00  0.00     0.006 C 
BRANCH   7   8
ATOM      8  C   UNL     1     -99.550 -29.916 -12.935  1.00  0.00     0.053 C 
BRANCH   8   9
ATOM      9  C   UNL     1     -99.469 -30.827 -14.119  1.00  0.00     0.041 C 
ATOM     10  O   UNL     1    -100.520 -31.291 -14.636  1.00  0.00    -0.550 OA
ATOM     11  O   UNL     1     -98.235 -31.130 -14.681  1.00  0.00    -0.550 OA
ENDBRANCH   8   9
ENDBRANCH   7   8
ENDBRANCH   6   7
ENDBRANCH   5   6
ENDBRANCH   4   5
ENDBRANCH   3   4
ENDBRANCH   2   3
ENDBRANCH   1   2
BRANCH   1  12
ATOM     12  C   UNL     1    -105.172 -29.407 -14.152  1.00  0.00     0.000 C 
BRANCH  12  13
ATOM     13  C   UNL     1    -103.698 -29.583 -14.550  1.00  0.00    -0.000 C 
BRANCH  13  14
ATOM     14  C   UNL     1    -103.485 -29.508 -16.073  1.00  0.00    -0.000 C 
BRANCH  14  15
ATOM     15  C   UNL     1    -102.172 -28.802 -16.448  1.00  0.00    -0.000 C 
BRANCH  15  16
ATOM     16  C   UNL     1    -102.204 -27.297 -16.132  1.00  0.00    -0.000 C 
BRANCH  16  17
ATOM     17  C   UNL     1    -103.401 -26.574 -16.776  1.00  0.00    -0.000 C 
BRANCH  17  18
ATOM     18  C   UNL     1    -104.155 -25.604 -15.848  1.00  0.00    -0.000 C 
BRANCH  18  19
ATOM     19  C   UNL     1    -103.804 -25.800 -14.366  1.00  0.00    -0.003 C 
ATOM     20  C   UNL     1    -104.880 -25.201 -13.463  1.00  0.00     0.004 C 
ENDBRANCH  18  19
ENDBRANCH  17  18
ENDBRANCH  16  17
ENDBRANCH  15  16
ENDBRANCH  14  15
ENDBRANCH  13  14
ENDBRANCH  12  13
ENDBRANCH   1  12
TORSDOF 16
ENDMDL
MODEL 9
REMARK VINA RESULT:    -2.781      1.401      3.569
REMARK INTER + INTRA:          -8.243
REMARK INTER:                  -5.619
REMARK INTRA:                  -2.624
REMARK UNBOUND:                -2.860
REMARK SMILES CCCCCCCCCCCCCCCCCC(=O)[O-]
REMARK SMILES IDX 10 1 11 2 12 3 13 4 14 5 15 6 16 7 17 8 18 9 19 10 20 11
REMARK SMILES IDX 9 12 8 13 7 14 6 15 5 16 4 17 3 18 2 19 1 20
REMARK H PARENT
REMARK Flexibility Score: inf
ROOT
ATOM      1  C   UNL     1    -102.388 -26.840 -15.766  1.00  0.00     0.000 C 
ENDROOT
BRANCH   1   2
ATOM      2  C   UNL     1    -101.982 -28.147 -16.462  1.00  0.00     0.000 C 
BRANCH   2   3
ATOM      3  C   UNL     1    -102.841 -29.346 -16.020  1.00  0.00     0.000 C 
BRANCH   3   4
ATOM      4  C   UNL     1    -101.979 -30.552 -15.591  1.00  0.00     0.000 C 
BRANCH   4   5
ATOM      5  C   UNL     1    -100.505 -30.435 -16.017  1.00  0.00     0.000 C 
BRANCH   5   6
ATOM      6  C   UNL     1     -99.670 -31.661 -15.623  1.00  0.00     0.000 C 
BRANCH   6   7
ATOM      7  C   UNL     1     -98.240 -31.255 -15.247  1.00  0.00     0.006 C 
BRANCH   7   8
ATOM      8  C   UNL     1     -97.913 -31.672 -13.810  1.00  0.00     0.053 C 
BRANCH   8   9
ATOM      9  C   UNL     1     -96.698 -30.949 -13.318  1.00  0.00     0.041 C 
ATOM     10  O   UNL     1     -95.566 -31.501 -13.375  1.00  0.00    -0.550 OA
ATOM     11  O   UNL     1     -96.807 -29.650 -12.839  1.00  0.00    -0.550 OA
ENDBRANCH   8   9
ENDBRANCH   7   8
ENDBRANCH   6   7
ENDBRANCH   5   6
ENDBRANCH   4   5
ENDBRANCH   3   4
ENDBRANCH   2   3
ENDBRANCH   1   2
BRANCH   1  12
ATOM     12  C   UNL     1    -103.655 -26.214 -16.376  1.00  0.00     0.000 C 
BRANCH  12  13
ATOM     13  C   UNL     1    -104.768 -25.998 -15.339  1.00  0.00    -0.000 C 
BRANCH  13  14
ATOM     14  C   UNL     1    -104.257 -26.114 -13.891  1.00  0.00    -0.000 C 
BRANCH  14  15
ATOM     15  C   UNL     1    -104.879 -27.303 -13.142  1.00  0.00    -0.000 C 
BRANCH  15  16
ATOM     16  C   UNL     1    -103.817 -28.248 -12.553  1.00  0.00    -0.000 C 
BRANCH  16  17
ATOM     17  C   UNL     1    -102.516 -27.519 -12.167  1.00  0.00    -0.000 C 
BRANCH  17  18
ATOM     18  C   UNL     1    -101.446 -28.404 -11.502  1.00  0.00    -0.000 C 
BRANCH  18  19
ATOM     19  C   UNL     1    -100.470 -29.024 -12.512  1.00  0.00    -0.003 C 
ATOM     20  C   UNL     1     -99.812 -27.948 -13.373  1.00  0.00     0.004 C 
ENDBRANCH  18  19
ENDBRANCH  17  18
ENDBRANCH  16  17
ENDBRANCH  15  16
ENDBRANCH  14  15
ENDBRANCH  13  14
ENDBRANCH  12  13
ENDBRANCH   1  12
TORSDOF 16
ENDMDL
