MODEL 1
REMARK VINA RESULT:    66.346      0.000      0.000
REMARK INTER + INTRA:          97.324
REMARK INTER:                  97.375
REMARK INTRA:                  -0.051
REMARK UNBOUND:                -0.051
REMARK SMILES O=c1c(O[C@@H]2O[C@@H](CO)[C@H](O)[C@H](O)[C@H]2O)c(-c2ccc(O)c(O)c2)oc2cc(O)cc(O)c12
REMARK SMILES IDX 4 1 3 2 16 3 25 4 2 5 26 6 1 7 33 8 27 9 31 10 28 11 30 12
REMARK SMILES IDX 17 13 18 14 19 15 20 16 24 17 22 18 21 19 23 21 32 23 29 25
REMARK SMILES IDX 5 27 14 28 6 29 12 30 7 31 10 32 15 33 13 35 8 37 9 38 11 40
REMARK H PARENT 21 20 23 22 32 24 29 26 15 34 13 36 9 39 11 41
REMARK Flexibility Score: inf
ROOT
ATOM      1  O   UNL     1      20.348  40.111   9.820  1.00  0.00    -0.454 OA
ENDROOT
BRANCH   1   2
ATOM      2  C   UNL     1      18.965  40.345   9.954  1.00  0.00     0.214 A 
ATOM      3  C   UNL     1      18.551  41.505  10.639  1.00  0.00     0.180 A 
ATOM      4  O   UNL     1      17.257  41.798  10.742  1.00  0.00    -0.452 OA
ATOM      5  C   UNL     1      17.973  39.498   9.411  1.00  0.00     0.239 A 
ATOM      6  C   UNL     1      16.296  41.030  10.248  1.00  0.00     0.146 A 
ATOM      7  O   UNL     1      18.300  38.454   8.789  1.00  0.00    -0.285 OA
ATOM      8  C   UNL     1      16.610  39.836   9.559  1.00  0.00     0.111 A 
ATOM      9  C   UNL     1      14.962  41.412  10.429  1.00  0.00     0.094 A 
ATOM     10  C   UNL     1      15.556  39.040   9.047  1.00  0.00     0.134 A 
ATOM     11  C   UNL     1      13.927  40.608   9.945  1.00  0.00     0.123 A 
ATOM     12  C   UNL     1      14.225  39.432   9.254  1.00  0.00     0.093 A 
BRANCH   3  13
ATOM     13  C   UNL     1      19.522  42.427  11.272  1.00  0.00     0.025 A 
ATOM     14  C   UNL     1      19.190  43.778  11.445  1.00  0.00     0.016 A 
ATOM     15  C   UNL     1      20.084  44.653  12.065  1.00  0.00     0.051 A 
ATOM     16  C   UNL     1      21.320  44.193  12.536  1.00  0.00     0.157 A 
ATOM     17  C   UNL     1      20.749  41.955  11.772  1.00  0.00     0.062 A 
ATOM     18  C   UNL     1      21.648  42.822  12.404  1.00  0.00     0.158 A 
BRANCH  16  19
ATOM     19  O   UNL     1      22.187  45.121  13.121  1.00  0.00    -0.504 OA
ATOM     20  H   UNL     1      21.916  46.065  13.361  1.00  0.00     0.293 HD
ENDBRANCH  16  19
BRANCH  18  21
ATOM     21  O   UNL     1      22.841  42.284  12.894  1.00  0.00    -0.504 OA
ATOM     22  H   UNL     1      23.604  41.987  12.304  1.00  0.00     0.293 HD
ENDBRANCH  18  21
ENDBRANCH   3  13
BRANCH  10  23
ATOM     23  O   UNL     1      15.817  37.865   8.335  1.00  0.00    -0.507 OA
ATOM     24  H   UNL     1      16.467  37.852   7.555  1.00  0.00     0.293 HD
ENDBRANCH  10  23
BRANCH  11  25
ATOM     25  O   UNL     1      12.596  40.969  10.149  1.00  0.00    -0.508 OA
ATOM     26  H   UNL     1      11.829  40.394   9.815  1.00  0.00     0.293 HD
ENDBRANCH  11  25
ENDBRANCH   1   2
BRANCH   1  27
ATOM     27  C   UNL     1      21.253  40.773   8.939  1.00  0.00     0.339 C 
ATOM     28  C   UNL     1      21.797  39.725   7.948  1.00  0.00     0.214 C 
ATOM     29  O   UNL     1      20.549  41.800   8.259  1.00  0.00    -0.332 OA
ATOM     30  C   UNL     1      22.773  40.361   6.922  1.00  0.00     0.180 C 
ATOM     31  C   UNL     1      21.257  42.420   7.185  1.00  0.00     0.179 C 
ATOM     32  C   UNL     1      22.713  41.906   6.954  1.00  0.00     0.177 C 
BRANCH  28  33
ATOM     33  O   UNL     1      22.417  38.663   8.633  1.00  0.00    -0.384 OA
ATOM     34  H   UNL     1      22.832  38.068   7.954  1.00  0.00     0.211 HD
ENDBRANCH  28  33
BRANCH  30  35
ATOM     35  O   UNL     1      22.530  39.852   5.633  1.00  0.00    -0.387 OA
ATOM     36  H   UNL     1      22.007  39.012   5.729  1.00  0.00     0.211 HD
ENDBRANCH  30  35
BRANCH  31  37
ATOM     37  C   UNL     1      21.231  43.948   7.407  1.00  0.00     0.191 C 
BRANCH  37  38
ATOM     38  O   UNL     1      21.544  44.637   6.222  1.00  0.00    -0.394 OA
ATOM     39  H   UNL     1      21.908  45.523   6.489  1.00  0.00     0.210 HD
ENDBRANCH  37  38
ENDBRANCH  31  37
BRANCH  32  40
ATOM     40  O   UNL     1      23.295  42.458   5.797  1.00  0.00    -0.387 OA
ATOM     41  H   UNL     1      24.022  43.070   6.079  1.00  0.00     0.211 HD
ENDBRANCH  32  40
ENDBRANCH   1  27
TORSDOF 12
ENDMDL
