MODEL 1
REMARK VINA RESULT:    -6.429      0.000      0.000
REMARK INTER + INTRA:          -8.038
REMARK INTER:                  -7.744
REMARK INTRA:                  -0.294
REMARK UNBOUND:                -0.294
REMARK SMILES O=c1c(O)c(-c2ccc(O)c(O)c2)oc2cc(O)cc(O)c12
REMARK SMILES IDX 5 1 3 2 2 3 1 4 22 5 20 6 19 7 17 8 16 9 15 10 14 11 6 12
REMARK SMILES IDX 7 13 8 14 9 15 13 16 11 17 10 18 12 20 4 22 21 24 18 26
REMARK H PARENT 10 19 12 21 4 23 21 25 18 27
REMARK Flexibility Score: inf
ROOT
ATOM      1  C   UNL     1      27.710  10.567  66.513  1.00  0.00     0.180 A 
ATOM      2  C   UNL     1      28.676  11.588  66.515  1.00  0.00     0.208 A 
ATOM      3  C   UNL     1      28.946  12.274  65.320  1.00  0.00     0.238 A 
ATOM      4  O   UNL     1      29.849  13.150  65.316  1.00  0.00    -0.285 OA
ATOM      5  C   UNL     1      28.234  11.942  64.142  1.00  0.00     0.111 A 
ATOM      6  C   UNL     1      28.397  12.598  62.885  1.00  0.00     0.134 A 
ATOM      7  C   UNL     1      27.736  12.100  61.755  1.00  0.00     0.093 A 
ATOM      8  C   UNL     1      26.867  11.009  61.851  1.00  0.00     0.123 A 
ATOM      9  C   UNL     1      26.657  10.400  63.085  1.00  0.00     0.094 A 
ATOM     10  C   UNL     1      27.330  10.851  64.222  1.00  0.00     0.146 A 
ATOM     11  O   UNL     1      27.108  10.234  65.378  1.00  0.00    -0.452 OA
ENDROOT
BRANCH   1  12
ATOM     12  C   UNL     1      27.355   9.817  67.738  1.00  0.00     0.025 A 
ATOM     13  C   UNL     1      27.910   8.554  68.010  1.00  0.00     0.016 A 
ATOM     14  C   UNL     1      27.578   7.875  69.186  1.00  0.00     0.051 A 
ATOM     15  C   UNL     1      26.701   8.452  70.113  1.00  0.00     0.157 A 
ATOM     16  C   UNL     1      26.492  10.400  68.681  1.00  0.00     0.062 A 
ATOM     17  C   UNL     1      26.158   9.723  69.860  1.00  0.00     0.158 A 
BRANCH  15  18
ATOM     18  O   UNL     1      26.371   7.771  71.283  1.00  0.00    -0.504 OA
ATOM     19  H   UNL     1      26.925   7.866  72.127  1.00  0.00     0.293 HD
ENDBRANCH  15  18
BRANCH  17  20
ATOM     20  O   UNL     1      25.286  10.328  70.765  1.00  0.00    -0.504 OA
ATOM     21  H   UNL     1      24.833   9.806  71.506  1.00  0.00     0.293 HD
ENDBRANCH  17  20
ENDBRANCH   1  12
BRANCH   2  22
ATOM     22  O   UNL     1      29.382  11.885  67.684  1.00  0.00    -0.502 OA
ATOM     23  H   UNL     1      29.105  11.530  68.593  1.00  0.00     0.293 HD
ENDBRANCH   2  22
BRANCH   6  24
ATOM     24  O   UNL     1      29.168  13.750  62.699  1.00  0.00    -0.507 OA
ATOM     25  H   UNL     1      28.995  14.635  63.151  1.00  0.00     0.293 HD
ENDBRANCH   6  24
BRANCH   8  26
ATOM     26  O   UNL     1      26.202  10.530  60.725  1.00  0.00    -0.508 OA
ATOM     27  H   UNL     1      25.483   9.820  60.796  1.00  0.00     0.293 HD
ENDBRANCH   8  26
TORSDOF 6
ENDMDL
MODEL 2
REMARK VINA RESULT:    -6.418      4.290      6.138
REMARK INTER + INTRA:          -8.025
REMARK INTER:                  -7.835
REMARK INTRA:                  -0.190
REMARK UNBOUND:                -0.294
REMARK SMILES O=c1c(O)c(-c2ccc(O)c(O)c2)oc2cc(O)cc(O)c12
REMARK SMILES IDX 5 1 3 2 2 3 1 4 22 5 20 6 19 7 17 8 16 9 15 10 14 11 6 12
REMARK SMILES IDX 7 13 8 14 9 15 13 16 11 17 10 18 12 20 4 22 21 24 18 26
REMARK H PARENT 10 19 12 21 4 23 21 25 18 27
REMARK Flexibility Score: inf
ROOT
ATOM      1  C   UNL     1      29.376  12.132  61.125  1.00  0.00     0.180 A 
ATOM      2  C   UNL     1      30.241  12.663  60.153  1.00  0.00     0.208 A 
ATOM      3  C   UNL     1      29.813  12.717  58.817  1.00  0.00     0.238 A 
ATOM      4  O   UNL     1      30.612  13.143  57.943  1.00  0.00    -0.285 OA
ATOM      5  C   UNL     1      28.520  12.256  58.472  1.00  0.00     0.111 A 
ATOM      6  C   UNL     1      27.967  12.301  57.157  1.00  0.00     0.134 A 
ATOM      7  C   UNL     1      26.729  11.697  56.906  1.00  0.00     0.093 A 
ATOM      8  C   UNL     1      25.994  11.107  57.939  1.00  0.00     0.123 A 
ATOM      9  C   UNL     1      26.498  11.111  59.237  1.00  0.00     0.094 A 
ATOM     10  C   UNL     1      27.747  11.673  59.510  1.00  0.00     0.146 A 
ATOM     11  O   UNL     1      28.196  11.647  60.760  1.00  0.00    -0.452 OA
ENDROOT
BRANCH   1  12
ATOM     12  C   UNL     1      29.747  12.064  62.557  1.00  0.00     0.025 A 
ATOM     13  C   UNL     1      30.769  11.211  63.008  1.00  0.00     0.016 A 
ATOM     14  C   UNL     1      31.118  11.182  64.361  1.00  0.00     0.051 A 
ATOM     15  C   UNL     1      30.464  12.012  65.279  1.00  0.00     0.157 A 
ATOM     16  C   UNL     1      29.108  12.910  63.478  1.00  0.00     0.062 A 
ATOM     17  C   UNL     1      29.456  12.883  64.834  1.00  0.00     0.158 A 
BRANCH  15  18
ATOM     18  O   UNL     1      30.814  11.980  66.628  1.00  0.00    -0.504 OA
ATOM     19  H   UNL     1      31.653  11.509  66.948  1.00  0.00     0.293 HD
ENDBRANCH  15  18
BRANCH  17  20
ATOM     20  O   UNL     1      28.788  13.728  65.721  1.00  0.00    -0.504 OA
ATOM     21  H   UNL     1      29.266  14.471  66.217  1.00  0.00     0.293 HD
ENDBRANCH  17  20
ENDBRANCH   1  12
BRANCH   2  22
ATOM     22  O   UNL     1      31.522  13.093  60.512  1.00  0.00    -0.502 OA
ATOM     23  H   UNL     1      31.766  14.074  60.582  1.00  0.00     0.293 HD
ENDBRANCH   2  22
BRANCH   6  24
ATOM     24  O   UNL     1      28.577  12.945  56.075  1.00  0.00    -0.507 OA
ATOM     25  H   UNL     1      28.194  13.745  55.594  1.00  0.00     0.293 HD
ENDBRANCH   6  24
BRANCH   8  26
ATOM     26  O   UNL     1      24.756  10.522  57.684  1.00  0.00    -0.508 OA
ATOM     27  H   UNL     1      24.674   9.668  57.144  1.00  0.00     0.293 HD
ENDBRANCH   8  26
TORSDOF 6
ENDMDL
MODEL 3
REMARK VINA RESULT:    -6.139      4.333      8.732
REMARK INTER + INTRA:          -7.689
REMARK INTER:                  -7.529
REMARK INTRA:                  -0.160
REMARK UNBOUND:                -0.294
REMARK SMILES O=c1c(O)c(-c2ccc(O)c(O)c2)oc2cc(O)cc(O)c12
REMARK SMILES IDX 5 1 3 2 2 3 1 4 22 5 20 6 19 7 17 8 16 9 15 10 14 11 6 12
REMARK SMILES IDX 7 13 8 14 9 15 13 16 11 17 10 18 12 20 4 22 21 24 18 26
REMARK H PARENT 10 19 12 21 4 23 21 25 18 27
REMARK Flexibility Score: inf
ROOT
ATOM      1  C   UNL     1      29.318  11.640  60.410  1.00  0.00     0.180 A 
ATOM      2  C   UNL     1      30.579  11.021  60.470  1.00  0.00     0.208 A 
ATOM      3  C   UNL     1      31.258  10.973  61.698  1.00  0.00     0.238 A 
ATOM      4  O   UNL     1      32.408  10.465  61.733  1.00  0.00    -0.285 OA
ATOM      5  C   UNL     1      30.661  11.530  62.854  1.00  0.00     0.111 A 
ATOM      6  C   UNL     1      31.240  11.503  64.158  1.00  0.00     0.134 A 
ATOM      7  C   UNL     1      30.623  12.200  65.204  1.00  0.00     0.093 A 
ATOM      8  C   UNL     1      29.412  12.870  65.006  1.00  0.00     0.123 A 
ATOM      9  C   UNL     1      28.808  12.852  63.751  1.00  0.00     0.094 A 
ATOM     10  C   UNL     1      29.419  12.196  62.680  1.00  0.00     0.146 A 
ATOM     11  O   UNL     1      28.816  12.212  61.497  1.00  0.00    -0.452 OA
ENDROOT
BRANCH   1  12
ATOM     12  C   UNL     1      28.533  11.708  59.158  1.00  0.00     0.025 A 
ATOM     13  C   UNL     1      27.290  11.060  59.037  1.00  0.00     0.016 A 
ATOM     14  C   UNL     1      26.555  11.158  57.853  1.00  0.00     0.051 A 
ATOM     15  C   UNL     1      27.040  11.915  56.779  1.00  0.00     0.157 A 
ATOM     16  C   UNL     1      29.005  12.482  58.085  1.00  0.00     0.062 A 
ATOM     17  C   UNL     1      28.270  12.583  56.898  1.00  0.00     0.158 A 
BRANCH  15  18
ATOM     18  O   UNL     1      26.305  12.009  55.599  1.00  0.00    -0.504 OA
ATOM     19  H   UNL     1      25.492  11.428  55.432  1.00  0.00     0.293 HD
ENDBRANCH  15  18
BRANCH  17  20
ATOM     20  O   UNL     1      28.780  13.350  55.850  1.00  0.00    -0.504 OA
ATOM     21  H   UNL     1      28.661  14.355  55.814  1.00  0.00     0.293 HD
ENDBRANCH  17  20
ENDBRANCH   1  12
BRANCH   2  22
ATOM     22  O   UNL     1      31.159  10.495  59.311  1.00  0.00    -0.502 OA
ATOM     23  H   UNL     1      31.619   9.592  59.295  1.00  0.00     0.293 HD
ENDBRANCH   2  22
BRANCH   6  24
ATOM     24  O   UNL     1      32.398  10.788  64.484  1.00  0.00    -0.507 OA
ATOM     25  H   UNL     1      33.133  11.130  65.084  1.00  0.00     0.293 HD
ENDBRANCH   6  24
BRANCH   8  26
ATOM     26  O   UNL     1      28.796  13.548  66.055  1.00  0.00    -0.508 OA
ATOM     27  H   UNL     1      29.296  13.774  66.907  1.00  0.00     0.293 HD
ENDBRANCH   8  26
TORSDOF 6
ENDMDL
MODEL 4
REMARK VINA RESULT:    -6.075      2.588      7.689
REMARK INTER + INTRA:          -7.611
REMARK INTER:                  -7.421
REMARK INTRA:                  -0.190
REMARK UNBOUND:                -0.294
REMARK SMILES O=c1c(O)c(-c2ccc(O)c(O)c2)oc2cc(O)cc(O)c12
REMARK SMILES IDX 5 1 3 2 2 3 1 4 22 5 20 6 19 7 17 8 16 9 15 10 14 11 6 12
REMARK SMILES IDX 7 13 8 14 9 15 13 16 11 17 10 18 12 20 4 22 21 24 18 26
REMARK H PARENT 10 19 12 21 4 23 21 25 18 27
REMARK Flexibility Score: inf
ROOT
ATOM      1  C   UNL     1      28.242  11.758  61.967  1.00  0.00     0.180 A 
ATOM      2  C   UNL     1      28.493  12.821  62.852  1.00  0.00     0.208 A 
ATOM      3  C   UNL     1      28.586  12.555  64.227  1.00  0.00     0.238 A 
ATOM      4  O   UNL     1      28.757  13.519  65.019  1.00  0.00    -0.285 OA
ATOM      5  C   UNL     1      28.441  11.229  64.699  1.00  0.00     0.111 A 
ATOM      6  C   UNL     1      28.556  10.839  66.068  1.00  0.00     0.134 A 
ATOM      7  C   UNL     1      28.264   9.520  66.437  1.00  0.00     0.093 A 
ATOM      8  C   UNL     1      27.926   8.561  65.477  1.00  0.00     0.123 A 
ATOM      9  C   UNL     1      27.870   8.919  64.133  1.00  0.00     0.094 A 
ATOM     10  C   UNL     1      28.120  10.235  63.738  1.00  0.00     0.146 A 
ATOM     11  O   UNL     1      28.045  10.536  62.447  1.00  0.00    -0.452 OA
ENDROOT
BRANCH   1  12
ATOM     12  C   UNL     1      28.155  11.956  60.503  1.00  0.00     0.025 A 
ATOM     13  C   UNL     1      29.267  12.381  59.754  1.00  0.00     0.016 A 
ATOM     14  C   UNL     1      29.168  12.537  58.369  1.00  0.00     0.051 A 
ATOM     15  C   UNL     1      27.965  12.259  57.710  1.00  0.00     0.157 A 
ATOM     16  C   UNL     1      26.957  11.658  59.833  1.00  0.00     0.062 A 
ATOM     17  C   UNL     1      26.854  11.814  58.446  1.00  0.00     0.158 A 
BRANCH  15  18
ATOM     18  O   UNL     1      27.869  12.417  56.328  1.00  0.00    -0.504 OA
ATOM     19  H   UNL     1      28.694  12.468  55.741  1.00  0.00     0.293 HD
ENDBRANCH  15  18
BRANCH  17  20
ATOM     20  O   UNL     1      25.643  11.522  57.820  1.00  0.00    -0.504 OA
ATOM     21  H   UNL     1      24.751  11.729  58.253  1.00  0.00     0.293 HD
ENDBRANCH  17  20
ENDBRANCH   1  12
BRANCH   2  22
ATOM     22  O   UNL     1      28.612  14.126  62.366  1.00  0.00    -0.502 OA
ATOM     23  H   UNL     1      27.822  14.642  61.994  1.00  0.00     0.293 HD
ENDBRANCH   2  22
BRANCH   6  24
ATOM     24  O   UNL     1      28.975  11.694  67.091  1.00  0.00    -0.507 OA
ATOM     25  H   UNL     1      29.923  12.014  67.219  1.00  0.00     0.293 HD
ENDBRANCH   6  24
BRANCH   8  26
ATOM     26  O   UNL     1      27.653   7.248  65.851  1.00  0.00    -0.508 OA
ATOM     27  H   UNL     1      27.841   6.469  65.230  1.00  0.00     0.293 HD
ENDBRANCH   8  26
TORSDOF 6
ENDMDL
MODEL 5
REMARK VINA RESULT:    -5.850      2.659      8.328
REMARK INTER + INTRA:          -7.340
REMARK INTER:                  -7.534
REMARK INTRA:                   0.194
REMARK UNBOUND:                -0.294
REMARK SMILES O=c1c(O)c(-c2ccc(O)c(O)c2)oc2cc(O)cc(O)c12
REMARK SMILES IDX 5 1 3 2 2 3 1 4 22 5 20 6 19 7 17 8 16 9 15 10 14 11 6 12
REMARK SMILES IDX 7 13 8 14 9 15 13 16 11 17 10 18 12 20 4 22 21 24 18 26
REMARK H PARENT 10 19 12 21 4 23 21 25 18 27
REMARK Flexibility Score: inf
ROOT
ATOM      1  C   UNL     1      27.801  11.418  61.444  1.00  0.00     0.180 A 
ATOM      2  C   UNL     1      26.974  10.348  61.825  1.00  0.00     0.208 A 
ATOM      3  C   UNL     1      26.849  10.034  63.187  1.00  0.00     0.238 A 
ATOM      4  O   UNL     1      26.149   9.042  63.518  1.00  0.00    -0.285 OA
ATOM      5  C   UNL     1      27.540  10.804  64.154  1.00  0.00     0.111 A 
ATOM      6  C   UNL     1      27.454  10.602  65.564  1.00  0.00     0.134 A 
ATOM      7  C   UNL     1      28.283  11.338  66.420  1.00  0.00     0.093 A 
ATOM      8  C   UNL     1      29.146  12.317  65.919  1.00  0.00     0.123 A 
ATOM      9  C   UNL     1      29.193  12.563  64.549  1.00  0.00     0.094 A 
ATOM     10  C   UNL     1      28.405  11.819  63.668  1.00  0.00     0.146 A 
ATOM     11  O   UNL     1      28.488  12.079  62.368  1.00  0.00    -0.452 OA
ENDROOT
BRANCH   1  12
ATOM     12  C   UNL     1      27.964  11.823  60.030  1.00  0.00     0.025 A 
ATOM     13  C   UNL     1      29.218  12.198  59.515  1.00  0.00     0.016 A 
ATOM     14  C   UNL     1      29.351  12.553  58.170  1.00  0.00     0.051 A 
ATOM     15  C   UNL     1      28.240  12.526  57.317  1.00  0.00     0.157 A 
ATOM     16  C   UNL     1      26.858  11.778  59.165  1.00  0.00     0.062 A 
ATOM     17  C   UNL     1      26.988  12.133  57.817  1.00  0.00     0.158 A 
BRANCH  15  18
ATOM     18  O   UNL     1      28.377  12.883  55.977  1.00  0.00    -0.504 OA
ATOM     19  H   UNL     1      28.383  13.853  55.683  1.00  0.00     0.293 HD
ENDBRANCH  15  18
BRANCH  17  20
ATOM     20  O   UNL     1      25.863  12.089  56.994  1.00  0.00    -0.504 OA
ATOM     21  H   UNL     1      25.935  12.122  55.984  1.00  0.00     0.293 HD
ENDBRANCH  17  20
ENDBRANCH   1  12
BRANCH   2  22
ATOM     22  O   UNL     1      26.317   9.587  60.853  1.00  0.00    -0.502 OA
ATOM     23  H   UNL     1      26.217   8.581  60.926  1.00  0.00     0.293 HD
ENDBRANCH   2  22
BRANCH   6  24
ATOM     24  O   UNL     1      26.560   9.715  66.173  1.00  0.00    -0.507 OA
ATOM     25  H   UNL     1      25.559   9.737  66.051  1.00  0.00     0.293 HD
ENDBRANCH   6  24
BRANCH   8  26
ATOM     26  O   UNL     1      29.956  13.056  66.778  1.00  0.00    -0.508 OA
ATOM     27  H   UNL     1      30.955  12.897  66.833  1.00  0.00     0.293 HD
ENDBRANCH   8  26
TORSDOF 6
ENDMDL
MODEL 6
REMARK VINA RESULT:    -5.820      4.831      7.027
REMARK INTER + INTRA:          -7.304
REMARK INTER:                  -7.009
REMARK INTRA:                  -0.296
REMARK UNBOUND:                -0.294
REMARK SMILES O=c1c(O)c(-c2ccc(O)c(O)c2)oc2cc(O)cc(O)c12
REMARK SMILES IDX 5 1 3 2 2 3 1 4 22 5 20 6 19 7 17 8 16 9 15 10 14 11 6 12
REMARK SMILES IDX 7 13 8 14 9 15 13 16 11 17 10 18 12 20 4 22 21 24 18 26
REMARK H PARENT 10 19 12 21 4 23 21 25 18 27
REMARK Flexibility Score: inf
ROOT
ATOM      1  C   UNL     1      28.402  11.541  60.150  1.00  0.00     0.180 A 
ATOM      2  C   UNL     1      28.769  12.266  59.004  1.00  0.00     0.208 A 
ATOM      3  C   UNL     1      27.992  12.145  57.841  1.00  0.00     0.238 A 
ATOM      4  O   UNL     1      28.357  12.754  56.803  1.00  0.00    -0.285 OA
ATOM      5  C   UNL     1      26.847  11.312  57.844  1.00  0.00     0.111 A 
ATOM      6  C   UNL     1      25.963  11.146  56.736  1.00  0.00     0.134 A 
ATOM      7  C   UNL     1      24.935  10.197  56.808  1.00  0.00     0.093 A 
ATOM      8  C   UNL     1      24.721   9.455  57.973  1.00  0.00     0.123 A 
ATOM      9  C   UNL     1      25.541   9.654  59.080  1.00  0.00     0.094 A 
ATOM     10  C   UNL     1      26.596  10.567  59.026  1.00  0.00     0.146 A 
ATOM     11  O   UNL     1      27.362  10.718  60.101  1.00  0.00    -0.452 OA
ENDROOT
BRANCH   1  12
ATOM     12  C   UNL     1      29.158  11.636  61.419  1.00  0.00     0.025 A 
ATOM     13  C   UNL     1      30.350  10.917  61.616  1.00  0.00     0.016 A 
ATOM     14  C   UNL     1      31.060  11.043  62.813  1.00  0.00     0.051 A 
ATOM     15  C   UNL     1      30.600  11.896  63.823  1.00  0.00     0.157 A 
ATOM     16  C   UNL     1      28.712  12.507  62.427  1.00  0.00     0.062 A 
ATOM     17  C   UNL     1      29.421  12.635  63.627  1.00  0.00     0.158 A 
BRANCH  15  18
ATOM     18  O   UNL     1      31.309  12.018  65.017  1.00  0.00    -0.504 OA
ATOM     19  H   UNL     1      31.099  11.437  65.821  1.00  0.00     0.293 HD
ENDBRANCH  15  18
BRANCH  17  20
ATOM     20  O   UNL     1      28.938  13.499  64.609  1.00  0.00    -0.504 OA
ATOM     21  H   UNL     1      27.948  13.686  64.721  1.00  0.00     0.293 HD
ENDBRANCH  17  20
ENDBRANCH   1  12
BRANCH   2  22
ATOM     22  O   UNL     1      29.916  13.066  59.016  1.00  0.00    -0.502 OA
ATOM     23  H   UNL     1      30.571  13.066  59.790  1.00  0.00     0.293 HD
ENDBRANCH   2  22
BRANCH   6  24
ATOM     24  O   UNL     1      26.033  11.901  55.561  1.00  0.00    -0.507 OA
ATOM     25  H   UNL     1      25.513  12.748  55.392  1.00  0.00     0.293 HD
ENDBRANCH   6  24
BRANCH   8  26
ATOM     26  O   UNL     1      23.687   8.524  58.041  1.00  0.00    -0.508 OA
ATOM     27  H   UNL     1      23.225   8.182  57.206  1.00  0.00     0.293 HD
ENDBRANCH   8  26
TORSDOF 6
ENDMDL
MODEL 7
REMARK VINA RESULT:    -5.679      1.449      7.075
REMARK INTER + INTRA:          -7.134
REMARK INTER:                  -6.835
REMARK INTRA:                  -0.299
REMARK UNBOUND:                -0.294
REMARK SMILES O=c1c(O)c(-c2ccc(O)c(O)c2)oc2cc(O)cc(O)c12
REMARK SMILES IDX 5 1 3 2 2 3 1 4 22 5 20 6 19 7 17 8 16 9 15 10 14 11 6 12
REMARK SMILES IDX 7 13 8 14 9 15 13 16 11 17 10 18 12 20 4 22 21 24 18 26
REMARK H PARENT 10 19 12 21 4 23 21 25 18 27
REMARK Flexibility Score: inf
ROOT
ATOM      1  C   UNL     1      27.903  10.360  65.998  1.00  0.00     0.180 A 
ATOM      2  C   UNL     1      28.508   9.096  66.102  1.00  0.00     0.208 A 
ATOM      3  C   UNL     1      28.314   8.340  67.269  1.00  0.00     0.238 A 
ATOM      4  O   UNL     1      28.903   7.233  67.378  1.00  0.00    -0.285 OA
ATOM      5  C   UNL     1      27.504   8.851  68.311  1.00  0.00     0.111 A 
ATOM      6  C   UNL     1      27.205   8.155  69.521  1.00  0.00     0.134 A 
ATOM      7  C   UNL     1      26.500   8.809  70.539  1.00  0.00     0.093 A 
ATOM      8  C   UNL     1      26.026  10.112  70.363  1.00  0.00     0.123 A 
ATOM      9  C   UNL     1      26.261  10.778  69.163  1.00  0.00     0.094 A 
ATOM     10  C   UNL     1      26.993  10.165  68.144  1.00  0.00     0.146 A 
ATOM     11  O   UNL     1      27.203  10.839  67.019  1.00  0.00    -0.452 OA
ENDROOT
BRANCH   1  12
ATOM     12  C   UNL     1      28.042  11.203  64.789  1.00  0.00     0.025 A 
ATOM     13  C   UNL     1      28.996  12.233  64.721  1.00  0.00     0.016 A 
ATOM     14  C   UNL     1      29.125  13.000  63.561  1.00  0.00     0.051 A 
ATOM     15  C   UNL     1      28.316  12.741  62.447  1.00  0.00     0.157 A 
ATOM     16  C   UNL     1      27.247  10.934  63.663  1.00  0.00     0.062 A 
ATOM     17  C   UNL     1      27.374  11.700  62.498  1.00  0.00     0.158 A 
BRANCH  15  18
ATOM     18  O   UNL     1      28.447  13.509  61.291  1.00  0.00    -0.504 OA
ATOM     19  H   UNL     1      28.088  13.190  60.398  1.00  0.00     0.293 HD
ENDBRANCH  15  18
BRANCH  17  20
ATOM     20  O   UNL     1      26.558  11.411  61.405  1.00  0.00    -0.504 OA
ATOM     21  H   UNL     1      26.827  11.645  60.457  1.00  0.00     0.293 HD
ENDBRANCH  17  20
ENDBRANCH   1  12
BRANCH   2  22
ATOM     22  O   UNL     1      29.322   8.619  65.069  1.00  0.00    -0.502 OA
ATOM     23  H   UNL     1      29.007   8.567  64.107  1.00  0.00     0.293 HD
ENDBRANCH   2  22
BRANCH   6  24
ATOM     24  O   UNL     1      27.552   6.821  69.761  1.00  0.00    -0.507 OA
ATOM     25  H   UNL     1      28.245   6.306  69.239  1.00  0.00     0.293 HD
ENDBRANCH   6  24
BRANCH   8  26
ATOM     26  O   UNL     1      25.312  10.750  71.375  1.00  0.00    -0.508 OA
ATOM     27  H   UNL     1      24.331  10.553  71.537  1.00  0.00     0.293 HD
ENDBRANCH   8  26
TORSDOF 6
ENDMDL
MODEL 8
REMARK VINA RESULT:    -5.655      1.664      6.835
REMARK INTER + INTRA:          -7.106
REMARK INTER:                  -6.873
REMARK INTRA:                  -0.233
REMARK UNBOUND:                -0.294
REMARK SMILES O=c1c(O)c(-c2ccc(O)c(O)c2)oc2cc(O)cc(O)c12
REMARK SMILES IDX 5 1 3 2 2 3 1 4 22 5 20 6 19 7 17 8 16 9 15 10 14 11 6 12
REMARK SMILES IDX 7 13 8 14 9 15 13 16 11 17 10 18 12 20 4 22 21 24 18 26
REMARK H PARENT 10 19 12 21 4 23 21 25 18 27
REMARK Flexibility Score: inf
ROOT
ATOM      1  C   UNL     1      28.038  10.419  65.319  1.00  0.00     0.180 A 
ATOM      2  C   UNL     1      29.326   9.929  65.593  1.00  0.00     0.208 A 
ATOM      3  C   UNL     1      29.594   9.386  66.859  1.00  0.00     0.238 A 
ATOM      4  O   UNL     1      30.764   8.999  67.116  1.00  0.00    -0.285 OA
ATOM      5  C   UNL     1      28.567   9.324  67.830  1.00  0.00     0.111 A 
ATOM      6  C   UNL     1      28.715   8.757  69.132  1.00  0.00     0.134 A 
ATOM      7  C   UNL     1      27.669   8.868  70.057  1.00  0.00     0.093 A 
ATOM      8  C   UNL     1      26.456   9.467  69.704  1.00  0.00     0.123 A 
ATOM      9  C   UNL     1      26.281   9.969  68.417  1.00  0.00     0.094 A 
ATOM     10  C   UNL     1      27.319   9.906  67.485  1.00  0.00     0.146 A 
ATOM     11  O   UNL     1      27.114  10.407  66.272  1.00  0.00    -0.452 OA
ENDROOT
BRANCH   1  12
ATOM     12  C   UNL     1      27.673  10.983  64.000  1.00  0.00     0.025 A 
ATOM     13  C   UNL     1      26.810  10.301  63.124  1.00  0.00     0.016 A 
ATOM     14  C   UNL     1      26.461  10.865  61.895  1.00  0.00     0.051 A 
ATOM     15  C   UNL     1      26.956  12.123  61.527  1.00  0.00     0.157 A 
ATOM     16  C   UNL     1      28.150  12.253  63.635  1.00  0.00     0.062 A 
ATOM     17  C   UNL     1      27.803  12.821  62.403  1.00  0.00     0.158 A 
BRANCH  15  18
ATOM     18  O   UNL     1      26.607  12.682  60.299  1.00  0.00    -0.504 OA
ATOM     19  H   UNL     1      26.188  12.126  59.562  1.00  0.00     0.293 HD
ENDBRANCH  15  18
BRANCH  17  20
ATOM     20  O   UNL     1      28.308  14.078  62.071  1.00  0.00    -0.504 OA
ATOM     21  H   UNL     1      27.776  14.742  61.521  1.00  0.00     0.293 HD
ENDBRANCH  17  20
ENDBRANCH   1  12
BRANCH   2  22
ATOM     22  O   UNL     1      30.333  10.020  64.626  1.00  0.00    -0.502 OA
ATOM     23  H   UNL     1      30.902  10.851  64.510  1.00  0.00     0.293 HD
ENDBRANCH   2  22
BRANCH   6  24
ATOM     24  O   UNL     1      29.849   8.057  69.554  1.00  0.00    -0.507 OA
ATOM     25  H   UNL     1      30.584   8.446  70.126  1.00  0.00     0.293 HD
ENDBRANCH   6  24
BRANCH   8  26
ATOM     26  O   UNL     1      25.416   9.559  70.625  1.00  0.00    -0.508 OA
ATOM     27  H   UNL     1      24.754   8.802  70.756  1.00  0.00     0.293 HD
ENDBRANCH   8  26
TORSDOF 6
ENDMDL
MODEL 9
REMARK VINA RESULT:    -5.632      4.296      8.542
REMARK INTER + INTRA:          -7.078
REMARK INTER:                  -6.775
REMARK INTRA:                  -0.304
REMARK UNBOUND:                -0.294
REMARK SMILES O=c1c(O)c(-c2ccc(O)c(O)c2)oc2cc(O)cc(O)c12
REMARK SMILES IDX 5 1 3 2 2 3 1 4 22 5 20 6 19 7 17 8 16 9 15 10 14 11 6 12
REMARK SMILES IDX 7 13 8 14 9 15 13 16 11 17 10 18 12 20 4 22 21 24 18 26
REMARK H PARENT 10 19 12 21 4 23 21 25 18 27
REMARK Flexibility Score: inf
ROOT
ATOM      1  C   UNL     1      26.227   9.455  59.942  1.00  0.00     0.180 A 
ATOM      2  C   UNL     1      26.369   8.752  61.150  1.00  0.00     0.208 A 
ATOM      3  C   UNL     1      26.839   9.433  62.284  1.00  0.00     0.238 A 
ATOM      4  O   UNL     1      27.015   8.785  63.349  1.00  0.00    -0.285 OA
ATOM      5  C   UNL     1      27.147  10.812  62.200  1.00  0.00     0.111 A 
ATOM      6  C   UNL     1      27.592  11.611  63.295  1.00  0.00     0.134 A 
ATOM      7  C   UNL     1      27.992  12.934  63.068  1.00  0.00     0.093 A 
ATOM      8  C   UNL     1      27.900  13.506  61.796  1.00  0.00     0.123 A 
ATOM      9  C   UNL     1      27.410  12.751  60.733  1.00  0.00     0.094 A 
ATOM     10  C   UNL     1      27.038  11.419  60.921  1.00  0.00     0.146 A 
ATOM     11  O   UNL     1      26.586  10.731  59.878  1.00  0.00    -0.452 OA
ENDROOT
BRANCH   1  12
ATOM     12  C   UNL     1      25.714   8.812  58.711  1.00  0.00     0.025 A 
ATOM     13  C   UNL     1      26.553   8.050  57.879  1.00  0.00     0.016 A 
ATOM     14  C   UNL     1      26.041   7.431  56.736  1.00  0.00     0.051 A 
ATOM     15  C   UNL     1      24.683   7.551  56.414  1.00  0.00     0.157 A 
ATOM     16  C   UNL     1      24.349   8.912  58.395  1.00  0.00     0.062 A 
ATOM     17  C   UNL     1      23.833   8.293  57.250  1.00  0.00     0.158 A 
BRANCH  15  18
ATOM     18  O   UNL     1      24.176   6.935  55.272  1.00  0.00    -0.504 OA
ATOM     19  H   UNL     1      24.255   5.934  55.129  1.00  0.00     0.293 HD
ENDBRANCH  15  18
BRANCH  17  20
ATOM     20  O   UNL     1      22.475   8.428  56.962  1.00  0.00    -0.504 OA
ATOM     21  H   UNL     1      22.134   9.095  56.280  1.00  0.00     0.293 HD
ENDBRANCH  17  20
ENDBRANCH   1  12
BRANCH   2  22
ATOM     22  O   UNL     1      26.080   7.385  61.206  1.00  0.00    -0.502 OA
ATOM     23  H   UNL     1      26.039   6.803  60.377  1.00  0.00     0.293 HD
ENDBRANCH   2  22
BRANCH   6  24
ATOM     24  O   UNL     1      27.635  11.166  64.621  1.00  0.00    -0.507 OA
ATOM     25  H   UNL     1      27.747  10.204  64.899  1.00  0.00     0.293 HD
ENDBRANCH   6  24
BRANCH   8  26
ATOM     26  O   UNL     1      28.285  14.827  61.581  1.00  0.00    -0.508 OA
ATOM     27  H   UNL     1      27.961  15.350  60.776  1.00  0.00     0.293 HD
ENDBRANCH   8  26
TORSDOF 6
ENDMDL
