MODEL 1
REMARK VINA RESULT:    -4.549      0.000      0.000
REMARK INTER + INTRA:          -7.932
REMARK INTER:                  -7.209
REMARK INTRA:                  -0.724
REMARK UNBOUND:                -0.724
REMARK SMILES CCCCCCCCCCCC(=O)[O-]
REMARK SMILES IDX 7 1 8 2 9 3 10 4 11 5 12 6 13 7 14 8 6 9 5 10 4 11 3 12 2 13
REMARK SMILES IDX 1 14
REMARK H PARENT
REMARK Flexibility Score: inf
ROOT
ATOM      1  C   UNL     1     -20.274  -3.719  24.019  1.00  0.00     0.000 C 
ENDROOT
BRANCH   1   2
ATOM      2  C   UNL     1     -18.948  -3.393  23.315  1.00  0.00     0.000 C 
BRANCH   2   3
ATOM      3  C   UNL     1     -18.395  -4.628  22.588  1.00  0.00     0.000 C 
BRANCH   3   4
ATOM      4  C   UNL     1     -16.866  -4.593  22.439  1.00  0.00     0.006 C 
BRANCH   4   5
ATOM      5  C   UNL     1     -16.232  -5.988  22.522  1.00  0.00     0.053 C 
BRANCH   5   6
ATOM      6  C   UNL     1     -15.433  -6.271  21.289  1.00  0.00     0.041 C 
ATOM      7  O   UNL     1     -14.272  -6.750  21.383  1.00  0.00    -0.550 OA
ATOM      8  O   UNL     1     -15.950  -5.962  20.038  1.00  0.00    -0.550 OA
ENDBRANCH   5   6
ENDBRANCH   4   5
ENDBRANCH   3   4
ENDBRANCH   2   3
ENDBRANCH   1   2
BRANCH   1   9
ATOM      9  C   UNL     1     -20.702  -5.182  23.828  1.00  0.00     0.000 C 
BRANCH   9  10
ATOM     10  C   UNL     1     -22.162  -5.317  23.366  1.00  0.00    -0.000 C 
BRANCH  10  11
ATOM     11  C   UNL     1     -23.127  -5.589  24.530  1.00  0.00    -0.000 C 
BRANCH  11  12
ATOM     12  C   UNL     1     -22.489  -6.449  25.635  1.00  0.00    -0.000 C 
BRANCH  12  13
ATOM     13  C   UNL     1     -22.758  -5.892  27.042  1.00  0.00    -0.003 C 
ATOM     14  C   UNL     1     -22.788  -4.364  27.076  1.00  0.00     0.004 C 
ENDBRANCH  12  13
ENDBRANCH  11  12
ENDBRANCH  10  11
ENDBRANCH   9  10
ENDBRANCH   1   9
TORSDOF 10
ENDMDL
MODEL 2
REMARK VINA RESULT:    -4.487      0.992      1.549
REMARK INTER + INTRA:          -7.833
REMARK INTER:                  -7.260
REMARK INTRA:                  -0.573
REMARK UNBOUND:                -0.724
REMARK SMILES CCCCCCCCCCCC(=O)[O-]
REMARK SMILES IDX 7 1 8 2 9 3 10 4 11 5 12 6 13 7 14 8 6 9 5 10 4 11 3 12 2 13
REMARK SMILES IDX 1 14
REMARK H PARENT
REMARK Flexibility Score: inf
ROOT
ATOM      1  C   UNL     1     -18.967  -3.698  23.204  1.00  0.00     0.000 C 
ENDROOT
BRANCH   1   2
ATOM      2  C   UNL     1     -18.329  -4.902  22.495  1.00  0.00     0.000 C 
BRANCH   2   3
ATOM      3  C   UNL     1     -16.799  -4.767  22.452  1.00  0.00     0.000 C 
BRANCH   3   4
ATOM      4  C   UNL     1     -16.085  -6.128  22.434  1.00  0.00     0.006 C 
BRANCH   4   5
ATOM      5  C   UNL     1     -15.058  -6.240  21.299  1.00  0.00     0.053 C 
BRANCH   5   6
ATOM      6  C   UNL     1     -15.672  -5.822  19.999  1.00  0.00     0.041 C 
ATOM      7  O   UNL     1     -15.243  -4.802  19.396  1.00  0.00    -0.550 OA
ATOM      8  O   UNL     1     -16.748  -6.528  19.478  1.00  0.00    -0.550 OA
ENDBRANCH   5   6
ENDBRANCH   4   5
ENDBRANCH   3   4
ENDBRANCH   2   3
ENDBRANCH   1   2
BRANCH   1   9
ATOM      9  C   UNL     1     -20.232  -4.075  23.990  1.00  0.00     0.000 C 
BRANCH   9  10
ATOM     10  C   UNL     1     -20.977  -5.272  23.375  1.00  0.00    -0.000 C 
BRANCH  10  11
ATOM     11  C   UNL     1     -21.386  -6.316  24.425  1.00  0.00    -0.000 C 
BRANCH  11  12
ATOM     12  C   UNL     1     -22.804  -6.078  24.972  1.00  0.00    -0.000 C 
BRANCH  12  13
ATOM     13  C   UNL     1     -22.841  -6.026  26.507  1.00  0.00    -0.003 C 
ATOM     14  C   UNL     1     -22.767  -4.600  27.051  1.00  0.00     0.004 C 
ENDBRANCH  12  13
ENDBRANCH  11  12
ENDBRANCH  10  11
ENDBRANCH   9  10
ENDBRANCH   1   9
TORSDOF 10
ENDMDL
MODEL 3
REMARK VINA RESULT:    -4.479      4.030      7.284
REMARK INTER + INTRA:          -7.820
REMARK INTER:                  -7.235
REMARK INTRA:                  -0.585
REMARK UNBOUND:                -0.724
REMARK SMILES CCCCCCCCCCCC(=O)[O-]
REMARK SMILES IDX 7 1 8 2 9 3 10 4 11 5 12 6 13 7 14 8 6 9 5 10 4 11 3 12 2 13
REMARK SMILES IDX 1 14
REMARK H PARENT
REMARK Flexibility Score: inf
ROOT
ATOM      1  C   UNL     1     -19.960  -5.918  23.027  1.00  0.00     0.000 C 
ENDROOT
BRANCH   1   2
ATOM      2  C   UNL     1     -20.120  -4.575  23.756  1.00  0.00     0.000 C 
BRANCH   2   3
ATOM      3  C   UNL     1     -21.469  -4.508  24.491  1.00  0.00     0.000 C 
BRANCH   3   4
ATOM      4  C   UNL     1     -22.321  -5.769  24.280  1.00  0.00     0.006 C 
BRANCH   4   5
ATOM      5  C   UNL     1     -22.264  -6.727  25.477  1.00  0.00     0.053 C 
BRANCH   5   6
ATOM      6  C   UNL     1     -23.087  -6.196  26.609  1.00  0.00     0.041 C 
ATOM      7  O   UNL     1     -24.262  -5.791  26.402  1.00  0.00    -0.550 OA
ATOM      8  O   UNL     1     -22.540  -6.101  27.882  1.00  0.00    -0.550 OA
ENDBRANCH   5   6
ENDBRANCH   4   5
ENDBRANCH   3   4
ENDBRANCH   2   3
ENDBRANCH   1   2
BRANCH   1   9
ATOM      9  C   UNL     1     -18.803  -5.907  22.015  1.00  0.00     0.000 C 
BRANCH   9  10
ATOM     10  C   UNL     1     -18.027  -4.580  22.018  1.00  0.00    -0.000 C 
BRANCH  10  11
ATOM     11  C   UNL     1     -16.545  -4.765  22.381  1.00  0.00    -0.000 C 
BRANCH  11  12
ATOM     12  C   UNL     1     -16.139  -6.246  22.465  1.00  0.00    -0.000 C 
BRANCH  12  13
ATOM     13  C   UNL     1     -15.257  -6.682  21.284  1.00  0.00    -0.003 C 
ATOM     14  C   UNL     1     -15.196  -5.633  20.175  1.00  0.00     0.004 C 
ENDBRANCH  12  13
ENDBRANCH  11  12
ENDBRANCH  10  11
ENDBRANCH   9  10
ENDBRANCH   1   9
TORSDOF 10
ENDMDL
MODEL 4
REMARK VINA RESULT:    -4.439      0.875      1.878
REMARK INTER + INTRA:          -7.758
REMARK INTER:                  -7.017
REMARK INTRA:                  -0.741
REMARK UNBOUND:                -0.724
REMARK SMILES CCCCCCCCCCCC(=O)[O-]
REMARK SMILES IDX 7 1 8 2 9 3 10 4 11 5 12 6 13 7 14 8 6 9 5 10 4 11 3 12 2 13
REMARK SMILES IDX 1 14
REMARK H PARENT
REMARK Flexibility Score: inf
ROOT
ATOM      1  C   UNL     1     -20.685  -5.615  23.632  1.00  0.00     0.000 C 
ENDROOT
BRANCH   1   2
ATOM      2  C   UNL     1     -20.383  -4.114  23.501  1.00  0.00     0.000 C 
BRANCH   2   3
ATOM      3  C   UNL     1     -18.907  -3.881  23.144  1.00  0.00     0.000 C 
BRANCH   3   4
ATOM      4  C   UNL     1     -18.273  -5.085  22.429  1.00  0.00     0.006 C 
BRANCH   4   5
ATOM      5  C   UNL     1     -16.751  -4.954  22.287  1.00  0.00     0.053 C 
BRANCH   5   6
ATOM      6  C   UNL     1     -16.224  -5.991  21.347  1.00  0.00     0.041 C 
ATOM      7  O   UNL     1     -16.988  -6.522  20.497  1.00  0.00    -0.550 OA
ATOM      8  O   UNL     1     -14.903  -6.409  21.440  1.00  0.00    -0.550 OA
ENDBRANCH   5   6
ENDBRANCH   4   5
ENDBRANCH   3   4
ENDBRANCH   2   3
ENDBRANCH   1   2
BRANCH   1   9
ATOM      9  C   UNL     1     -22.130  -5.891  24.078  1.00  0.00     0.000 C 
BRANCH   9  10
ATOM     10  C   UNL     1     -22.202  -6.635  25.423  1.00  0.00    -0.000 C 
BRANCH  10  11
ATOM     11  C   UNL     1     -23.299  -6.081  26.345  1.00  0.00    -0.000 C 
BRANCH  11  12
ATOM     12  C   UNL     1     -22.758  -5.056  27.356  1.00  0.00    -0.000 C 
BRANCH  12  13
ATOM     13  C   UNL     1     -23.227  -3.625  27.051  1.00  0.00    -0.003 C 
ATOM     14  C   UNL     1     -22.110  -2.746  26.489  1.00  0.00     0.004 C 
ENDBRANCH  12  13
ENDBRANCH  11  12
ENDBRANCH  10  11
ENDBRANCH   9  10
ENDBRANCH   1   9
TORSDOF 10
ENDMDL
MODEL 5
REMARK VINA RESULT:    -4.436     15.401     16.825
REMARK INTER + INTRA:          -7.753
REMARK INTER:                  -6.325
REMARK INTRA:                  -1.428
REMARK UNBOUND:                -0.724
REMARK SMILES CCCCCCCCCCCC(=O)[O-]
REMARK SMILES IDX 7 1 8 2 9 3 10 4 11 5 12 6 13 7 14 8 6 9 5 10 4 11 3 12 2 13
REMARK SMILES IDX 1 14
REMARK H PARENT
REMARK Flexibility Score: inf
ROOT
ATOM      1  C   UNL     1     -14.778   6.984  30.724  1.00  0.00     0.000 C 
ENDROOT
BRANCH   1   2
ATOM      2  C   UNL     1     -14.516   6.927  29.211  1.00  0.00     0.000 C 
BRANCH   2   3
ATOM      3  C   UNL     1     -13.189   7.617  28.859  1.00  0.00     0.000 C 
BRANCH   3   4
ATOM      4  C   UNL     1     -13.278   8.447  27.568  1.00  0.00     0.006 C 
BRANCH   4   5
ATOM      5  C   UNL     1     -12.880   9.913  27.780  1.00  0.00     0.053 C 
BRANCH   5   6
ATOM      6  C   UNL     1     -13.268  10.735  26.591  1.00  0.00     0.041 C 
ATOM      7  O   UNL     1     -13.693  11.911  26.745  1.00  0.00    -0.550 OA
ATOM      8  O   UNL     1     -13.206  10.188  25.316  1.00  0.00    -0.550 OA
ENDBRANCH   5   6
ENDBRANCH   4   5
ENDBRANCH   3   4
ENDBRANCH   2   3
ENDBRANCH   1   2
BRANCH   1   9
ATOM      9  C   UNL     1     -14.005   8.117  31.417  1.00  0.00     0.000 C 
BRANCH   9  10
ATOM     10  C   UNL     1     -14.823   8.802  32.524  1.00  0.00    -0.000 C 
BRANCH  10  11
ATOM     11  C   UNL     1     -15.556  10.056  32.025  1.00  0.00    -0.000 C 
BRANCH  11  12
ATOM     12  C   UNL     1     -15.008  10.565  30.680  1.00  0.00    -0.000 C 
BRANCH  12  13
ATOM     13  C   UNL     1     -16.051  10.492  29.554  1.00  0.00    -0.003 C 
ATOM     14  C   UNL     1     -17.259   9.631  29.924  1.00  0.00     0.004 C 
ENDBRANCH  12  13
ENDBRANCH  11  12
ENDBRANCH  10  11
ENDBRANCH   9  10
ENDBRANCH   1   9
TORSDOF 10
ENDMDL
MODEL 6
REMARK VINA RESULT:    -4.382     14.898     16.364
REMARK INTER + INTRA:          -7.667
REMARK INTER:                  -6.427
REMARK INTRA:                  -1.240
REMARK UNBOUND:                -0.724
REMARK SMILES CCCCCCCCCCCC(=O)[O-]
REMARK SMILES IDX 7 1 8 2 9 3 10 4 11 5 12 6 13 7 14 8 6 9 5 10 4 11 3 12 2 13
REMARK SMILES IDX 1 14
REMARK H PARENT
REMARK Flexibility Score: inf
ROOT
ATOM      1  C   UNL     1     -12.980   9.959  28.068  1.00  0.00     0.000 C 
ENDROOT
BRANCH   1   2
ATOM      2  C   UNL     1     -13.407   8.523  27.724  1.00  0.00     0.000 C 
BRANCH   2   3
ATOM      3  C   UNL     1     -13.349   7.621  28.967  1.00  0.00     0.000 C 
BRANCH   3   4
ATOM      4  C   UNL     1     -14.730   7.083  29.373  1.00  0.00     0.006 C 
BRANCH   4   5
ATOM      5  C   UNL     1     -14.729   6.450  30.770  1.00  0.00     0.053 C 
BRANCH   5   6
ATOM      6  C   UNL     1     -15.791   5.400  30.867  1.00  0.00     0.041 C 
ATOM      7  O   UNL     1     -15.491   4.225  31.207  1.00  0.00    -0.550 OA
ATOM      8  O   UNL     1     -17.105   5.706  30.536  1.00  0.00    -0.550 OA
ENDBRANCH   5   6
ENDBRANCH   4   5
ENDBRANCH   3   4
ENDBRANCH   2   3
ENDBRANCH   1   2
BRANCH   1   9
ATOM      9  C   UNL     1     -14.153  10.951  28.030  1.00  0.00     0.000 C 
BRANCH   9  10
ATOM     10  C   UNL     1     -14.506  11.504  29.421  1.00  0.00    -0.000 C 
BRANCH  10  11
ATOM     11  C   UNL     1     -15.436  10.568  30.208  1.00  0.00    -0.000 C 
BRANCH  11  12
ATOM     12  C   UNL     1     -15.023  10.432  31.684  1.00  0.00    -0.000 C 
BRANCH  12  13
ATOM     13  C   UNL     1     -15.992   9.548  32.487  1.00  0.00    -0.003 C 
ATOM     14  C   UNL     1     -17.194   9.091  31.661  1.00  0.00     0.004 C 
ENDBRANCH  12  13
ENDBRANCH  11  12
ENDBRANCH  10  11
ENDBRANCH   9  10
ENDBRANCH   1   9
TORSDOF 10
ENDMDL
MODEL 7
REMARK VINA RESULT:    -4.357     13.550     14.821
REMARK INTER + INTRA:          -7.628
REMARK INTER:                  -6.454
REMARK INTRA:                  -1.174
REMARK UNBOUND:                -0.724
REMARK SMILES CCCCCCCCCCCC(=O)[O-]
REMARK SMILES IDX 7 1 8 2 9 3 10 4 11 5 12 6 13 7 14 8 6 9 5 10 4 11 3 12 2 13
REMARK SMILES IDX 1 14
REMARK H PARENT
REMARK Flexibility Score: inf
ROOT
ATOM      1  C   UNL     1     -14.058   7.797  31.366  1.00  0.00     0.000 C 
ENDROOT
BRANCH   1   2
ATOM      2  C   UNL     1     -13.953   8.383  29.950  1.00  0.00     0.000 C 
BRANCH   2   3
ATOM      3  C   UNL     1     -14.522   7.406  28.909  1.00  0.00     0.000 C 
BRANCH   3   4
ATOM      4  C   UNL     1     -14.397   5.938  29.344  1.00  0.00     0.006 C 
BRANCH   4   5
ATOM      5  C   UNL     1     -13.708   5.066  28.287  1.00  0.00     0.053 C 
BRANCH   5   6
ATOM      6  C   UNL     1     -14.195   3.654  28.378  1.00  0.00     0.041 C 
ATOM      7  O   UNL     1     -13.375   2.708  28.522  1.00  0.00    -0.550 OA
ATOM      8  O   UNL     1     -15.551   3.376  28.255  1.00  0.00    -0.550 OA
ENDBRANCH   5   6
ENDBRANCH   4   5
ENDBRANCH   3   4
ENDBRANCH   2   3
ENDBRANCH   1   2
BRANCH   1   9
ATOM      9  C   UNL     1     -14.168   8.882  32.449  1.00  0.00     0.000 C 
BRANCH   9  10
ATOM     10  C   UNL     1     -15.305   9.881  32.173  1.00  0.00    -0.000 C 
BRANCH  10  11
ATOM     11  C   UNL     1     -16.691   9.300  32.495  1.00  0.00    -0.000 C 
BRANCH  11  12
ATOM     12  C   UNL     1     -17.503   8.976  31.229  1.00  0.00    -0.000 C 
BRANCH  12  13
ATOM     13  C   UNL     1     -17.725   7.466  31.043  1.00  0.00    -0.003 C 
ATOM     14  C   UNL     1     -18.236   7.114  29.647  1.00  0.00     0.004 C 
ENDBRANCH  12  13
ENDBRANCH  11  12
ENDBRANCH  10  11
ENDBRANCH   9  10
ENDBRANCH   1   9
TORSDOF 10
ENDMDL
MODEL 8
REMARK VINA RESULT:    -4.352     15.582     17.149
REMARK INTER + INTRA:          -7.620
REMARK INTER:                  -6.053
REMARK INTRA:                  -1.566
REMARK UNBOUND:                -0.724
REMARK SMILES CCCCCCCCCCCC(=O)[O-]
REMARK SMILES IDX 7 1 8 2 9 3 10 4 11 5 12 6 13 7 14 8 6 9 5 10 4 11 3 12 2 13
REMARK SMILES IDX 1 14
REMARK H PARENT
REMARK Flexibility Score: inf
ROOT
ATOM      1  C   UNL     1     -17.310   8.354  31.506  1.00  0.00     0.000 C 
ENDROOT
BRANCH   1   2
ATOM      2  C   UNL     1     -18.140   9.082  30.437  1.00  0.00     0.000 C 
BRANCH   2   3
ATOM      3  C   UNL     1     -17.337   9.245  29.137  1.00  0.00     0.000 C 
BRANCH   3   4
ATOM      4  C   UNL     1     -16.782  10.668  28.959  1.00  0.00     0.006 C 
BRANCH   4   5
ATOM      5  C   UNL     1     -15.594  10.720  27.990  1.00  0.00     0.053 C 
BRANCH   5   6
ATOM      6  C   UNL     1     -14.383  11.268  28.679  1.00  0.00     0.041 C 
ATOM      7  O   UNL     1     -14.508  11.960  29.724  1.00  0.00    -0.550 OA
ATOM      8  O   UNL     1     -13.120  11.055  28.142  1.00  0.00    -0.550 OA
ENDBRANCH   5   6
ENDBRANCH   4   5
ENDBRANCH   3   4
ENDBRANCH   2   3
ENDBRANCH   1   2
BRANCH   1   9
ATOM      9  C   UNL     1     -16.637   9.320  32.493  1.00  0.00     0.000 C 
BRANCH   9  10
ATOM     10  C   UNL     1     -15.154   9.562  32.167  1.00  0.00    -0.000 C 
BRANCH  10  11
ATOM     11  C   UNL     1     -14.400   8.261  31.852  1.00  0.00    -0.000 C 
BRANCH  11  12
ATOM     12  C   UNL     1     -13.872   8.221  30.407  1.00  0.00    -0.000 C 
BRANCH  12  13
ATOM     13  C   UNL     1     -14.355   6.980  29.639  1.00  0.00    -0.003 C 
ATOM     14  C   UNL     1     -14.392   7.200  28.127  1.00  0.00     0.004 C 
ENDBRANCH  12  13
ENDBRANCH  11  12
ENDBRANCH  10  11
ENDBRANCH   9  10
ENDBRANCH   1   9
TORSDOF 10
ENDMDL
MODEL 9
REMARK VINA RESULT:    -4.338     15.411     16.771
REMARK INTER + INTRA:          -7.598
REMARK INTER:                  -6.455
REMARK INTRA:                  -1.143
REMARK UNBOUND:                -0.724
REMARK SMILES CCCCCCCCCCCC(=O)[O-]
REMARK SMILES IDX 7 1 8 2 9 3 10 4 11 5 12 6 13 7 14 8 6 9 5 10 4 11 3 12 2 13
REMARK SMILES IDX 1 14
REMARK H PARENT
REMARK Flexibility Score: inf
ROOT
ATOM      1  C   UNL     1     -15.350  10.571  30.255  1.00  0.00     0.000 C 
ENDROOT
BRANCH   1   2
ATOM      2  C   UNL     1     -14.693  11.723  29.478  1.00  0.00     0.000 C 
BRANCH   2   3
ATOM      3  C   UNL     1     -13.628  11.191  28.506  1.00  0.00     0.000 C 
BRANCH   3   4
ATOM      4  C   UNL     1     -13.546   9.656  28.500  1.00  0.00     0.006 C 
BRANCH   4   5
ATOM      5  C   UNL     1     -12.990   9.100  27.183  1.00  0.00     0.053 C 
BRANCH   5   6
ATOM      6  C   UNL     1     -13.707   9.707  26.017  1.00  0.00     0.041 C 
ATOM      7  O   UNL     1     -13.059  10.300  25.114  1.00  0.00    -0.550 OA
ATOM      8  O   UNL     1     -15.094   9.662  25.953  1.00  0.00    -0.550 OA
ENDBRANCH   5   6
ENDBRANCH   4   5
ENDBRANCH   3   4
ENDBRANCH   2   3
ENDBRANCH   1   2
BRANCH   1   9
ATOM      9  C   UNL     1     -15.026  10.609  31.756  1.00  0.00     0.000 C 
BRANCH   9  10
ATOM     10  C   UNL     1     -15.100   9.221  32.413  1.00  0.00    -0.000 C 
BRANCH  10  11
ATOM     11  C   UNL     1     -13.979   8.283  31.938  1.00  0.00    -0.000 C 
BRANCH  11  12
ATOM     12  C   UNL     1     -14.511   7.099  31.112  1.00  0.00    -0.000 C 
BRANCH  12  13
ATOM     13  C   UNL     1     -16.047   7.044  31.084  1.00  0.00    -0.003 C 
ATOM     14  C   UNL     1     -16.612   7.090  29.665  1.00  0.00     0.004 C 
ENDBRANCH  12  13
ENDBRANCH  11  12
ENDBRANCH  10  11
ENDBRANCH   9  10
ENDBRANCH   1   9
TORSDOF 10
ENDMDL
