MODEL 1
REMARK VINA RESULT:    -4.467      0.000      0.000
REMARK INTER + INTRA:         -10.226
REMARK INTER:                  -8.645
REMARK INTRA:                  -1.581
REMARK UNBOUND:                -1.581
REMARK SMILES CCCCCCCCCCCCCCCCCC(=O)[O-]
REMARK SMILES IDX 10 1 11 2 12 3 13 4 14 5 15 6 16 7 17 8 18 9 19 10 20 11
REMARK SMILES IDX 9 12 8 13 7 14 6 15 5 16 4 17 3 18 2 19 1 20
REMARK H PARENT
REMARK Flexibility Score: inf
ROOT
ATOM      1  C   UNL     1      45.051  27.095   1.472  1.00  0.00     0.000 C 
ENDROOT
BRANCH   1   2
ATOM      2  C   UNL     1      43.693  27.322   2.145  1.00  0.00     0.000 C 
BRANCH   2   3
ATOM      3  C   UNL     1      42.628  27.726   1.114  1.00  0.00     0.000 C 
BRANCH   3   4
ATOM      4  C   UNL     1      42.312  29.231   1.140  1.00  0.00     0.000 C 
BRANCH   4   5
ATOM      5  C   UNL     1      42.369  29.936  -0.231  1.00  0.00     0.000 C 
BRANCH   5   6
ATOM      6  C   UNL     1      42.608  29.008  -1.435  1.00  0.00     0.000 C 
BRANCH   6   7
ATOM      7  C   UNL     1      43.987  29.217  -2.086  1.00  0.00     0.006 C 
BRANCH   7   8
ATOM      8  C   UNL     1      44.866  27.963  -1.992  1.00  0.00     0.053 C 
BRANCH   8   9
ATOM      9  C   UNL     1      44.137  26.736  -2.449  1.00  0.00     0.041 C 
ATOM     10  O   UNL     1      43.870  25.816  -1.632  1.00  0.00    -0.550 OA
ATOM     11  O   UNL     1      43.728  26.623  -3.771  1.00  0.00    -0.550 OA
ENDBRANCH   8   9
ENDBRANCH   7   8
ENDBRANCH   6   7
ENDBRANCH   5   6
ENDBRANCH   4   5
ENDBRANCH   3   4
ENDBRANCH   2   3
ENDBRANCH   1   2
BRANCH   1  12
ATOM     12  C   UNL     1      46.038  26.424   2.438  1.00  0.00     0.000 C 
BRANCH  12  13
ATOM     13  C   UNL     1      45.340  25.546   3.492  1.00  0.00    -0.000 C 
BRANCH  13  14
ATOM     14  C   UNL     1      45.609  25.950   4.955  1.00  0.00    -0.000 C 
BRANCH  14  15
ATOM     15  C   UNL     1      46.013  27.424   5.167  1.00  0.00    -0.000 C 
BRANCH  15  16
ATOM     16  C   UNL     1      46.604  27.748   6.551  1.00  0.00    -0.000 C 
BRANCH  16  17
ATOM     17  C   UNL     1      45.700  28.674   7.384  1.00  0.00    -0.000 C 
BRANCH  17  18
ATOM     18  C   UNL     1      45.123  27.981   8.633  1.00  0.00    -0.000 C 
BRANCH  18  19
ATOM     19  C   UNL     1      45.355  26.461   8.701  1.00  0.00    -0.003 C 
ATOM     20  C   UNL     1      46.321  26.051   9.813  1.00  0.00     0.004 C 
ENDBRANCH  18  19
ENDBRANCH  17  18
ENDBRANCH  16  17
ENDBRANCH  15  16
ENDBRANCH  14  15
ENDBRANCH  13  14
ENDBRANCH  12  13
ENDBRANCH   1  12
TORSDOF 16
ENDMDL
MODEL 2
REMARK VINA RESULT:    -4.244      1.605      2.756
REMARK INTER + INTRA:          -9.795
REMARK INTER:                  -8.178
REMARK INTRA:                  -1.617
REMARK UNBOUND:                -1.581
REMARK SMILES CCCCCCCCCCCCCCCCCC(=O)[O-]
REMARK SMILES IDX 10 1 11 2 12 3 13 4 14 5 15 6 16 7 17 8 18 9 19 10 20 11
REMARK SMILES IDX 9 12 8 13 7 14 6 15 5 16 4 17 3 18 2 19 1 20
REMARK H PARENT
REMARK Flexibility Score: inf
ROOT
ATOM      1  C   UNL     1      42.793  27.738   1.732  1.00  0.00     0.000 C 
ENDROOT
BRANCH   1   2
ATOM      2  C   UNL     1      42.621  27.897   0.217  1.00  0.00     0.000 C 
BRANCH   2   3
ATOM      3  C   UNL     1      42.939  26.584  -0.514  1.00  0.00     0.000 C 
BRANCH   3   4
ATOM      4  C   UNL     1      44.146  26.704  -1.461  1.00  0.00     0.000 C 
BRANCH   4   5
ATOM      5  C   UNL     1      44.909  28.043  -1.382  1.00  0.00     0.000 C 
BRANCH   5   6
ATOM      6  C   UNL     1      45.560  28.504  -2.698  1.00  0.00     0.000 C 
BRANCH   6   7
ATOM      7  C   UNL     1      45.009  27.763  -3.928  1.00  0.00     0.006 C 
BRANCH   7   8
ATOM      8  C   UNL     1      44.141  28.670  -4.810  1.00  0.00     0.053 C 
BRANCH   8   9
ATOM      9  C   UNL     1      42.688  28.556  -4.465  1.00  0.00     0.041 C 
ATOM     10  O   UNL     1      42.253  29.031  -3.383  1.00  0.00    -0.550 OA
ATOM     11  O   UNL     1      41.808  27.950  -5.353  1.00  0.00    -0.550 OA
ENDBRANCH   8   9
ENDBRANCH   7   8
ENDBRANCH   6   7
ENDBRANCH   5   6
ENDBRANCH   4   5
ENDBRANCH   3   4
ENDBRANCH   2   3
ENDBRANCH   1   2
BRANCH   1  12
ATOM     12  C   UNL     1      44.100  28.387   2.208  1.00  0.00     0.000 C 
BRANCH  12  13
ATOM     13  C   UNL     1      45.231  27.365   2.426  1.00  0.00    -0.000 C 
BRANCH  13  14
ATOM     14  C   UNL     1      44.779  26.014   3.016  1.00  0.00    -0.000 C 
BRANCH  14  15
ATOM     15  C   UNL     1      45.893  25.185   3.687  1.00  0.00    -0.000 C 
BRANCH  15  16
ATOM     16  C   UNL     1      46.717  25.933   4.751  1.00  0.00    -0.000 C 
BRANCH  16  17
ATOM     17  C   UNL     1      45.916  26.219   6.033  1.00  0.00    -0.000 C 
BRANCH  17  18
ATOM     18  C   UNL     1      45.976  27.698   6.458  1.00  0.00    -0.000 C 
BRANCH  18  19
ATOM     19  C   UNL     1      45.421  27.996   7.862  1.00  0.00    -0.003 C 
ATOM     20  C   UNL     1      45.243  26.741   8.716  1.00  0.00     0.004 C 
ENDBRANCH  18  19
ENDBRANCH  17  18
ENDBRANCH  16  17
ENDBRANCH  15  16
ENDBRANCH  14  15
ENDBRANCH  13  14
ENDBRANCH  12  13
ENDBRANCH   1  12
TORSDOF 16
ENDMDL
MODEL 3
REMARK VINA RESULT:    -4.226      0.846      2.218
REMARK INTER + INTRA:          -9.759
REMARK INTER:                  -7.938
REMARK INTRA:                  -1.821
REMARK UNBOUND:                -1.581
REMARK SMILES CCCCCCCCCCCCCCCCCC(=O)[O-]
REMARK SMILES IDX 10 1 11 2 12 3 13 4 14 5 15 6 16 7 17 8 18 9 19 10 20 11
REMARK SMILES IDX 9 12 8 13 7 14 6 15 5 16 4 17 3 18 2 19 1 20
REMARK H PARENT
REMARK Flexibility Score: inf
ROOT
ATOM      1  C   UNL     1      45.484  25.375   3.717  1.00  0.00     0.000 C 
ENDROOT
BRANCH   1   2
ATOM      2  C   UNL     1      46.400  26.013   2.667  1.00  0.00     0.000 C 
BRANCH   2   3
ATOM      3  C   UNL     1      45.603  26.919   1.718  1.00  0.00     0.000 C 
BRANCH   3   4
ATOM      4  C   UNL     1      44.122  27.047   2.116  1.00  0.00     0.000 C 
BRANCH   4   5
ATOM      5  C   UNL     1      43.427  28.341   1.647  1.00  0.00     0.000 C 
BRANCH   5   6
ATOM      6  C   UNL     1      42.341  28.150   0.573  1.00  0.00     0.000 C 
BRANCH   6   7
ATOM      7  C   UNL     1      42.692  28.834  -0.759  1.00  0.00     0.006 C 
BRANCH   7   8
ATOM      8  C   UNL     1      44.089  28.443  -1.259  1.00  0.00     0.053 C 
BRANCH   8   9
ATOM      9  C   UNL     1      44.051  27.209  -2.109  1.00  0.00     0.041 C 
ATOM     10  O   UNL     1      44.136  27.299  -3.362  1.00  0.00    -0.550 OA
ATOM     11  O   UNL     1      43.950  25.958  -1.514  1.00  0.00    -0.550 OA
ENDBRANCH   8   9
ENDBRANCH   7   8
ENDBRANCH   6   7
ENDBRANCH   5   6
ENDBRANCH   4   5
ENDBRANCH   3   4
ENDBRANCH   2   3
ENDBRANCH   1   2
BRANCH   1  12
ATOM     12  C   UNL     1      45.842  25.863   5.129  1.00  0.00     0.000 C 
BRANCH  12  13
ATOM     13  C   UNL     1      46.751  27.106   5.119  1.00  0.00    -0.000 C 
BRANCH  13  14
ATOM     14  C   UNL     1      46.021  28.445   5.340  1.00  0.00    -0.000 C 
BRANCH  14  15
ATOM     15  C   UNL     1      46.816  29.505   6.130  1.00  0.00    -0.000 C 
BRANCH  15  16
ATOM     16  C   UNL     1      46.341  29.739   7.576  1.00  0.00    -0.000 C 
BRANCH  16  17
ATOM     17  C   UNL     1      45.090  28.916   7.932  1.00  0.00    -0.000 C 
BRANCH  17  18
ATOM     18  C   UNL     1      45.340  27.910   9.071  1.00  0.00    -0.000 C 
BRANCH  18  19
ATOM     19  C   UNL     1      45.328  26.430   8.649  1.00  0.00    -0.003 C 
ATOM     20  C   UNL     1      46.566  25.664   9.113  1.00  0.00     0.004 C 
ENDBRANCH  18  19
ENDBRANCH  17  18
ENDBRANCH  16  17
ENDBRANCH  15  16
ENDBRANCH  14  15
ENDBRANCH  13  14
ENDBRANCH  12  13
ENDBRANCH   1  12
TORSDOF 16
ENDMDL
MODEL 4
REMARK VINA RESULT:    -4.178      1.523      2.556
REMARK INTER + INTRA:          -9.667
REMARK INTER:                  -8.375
REMARK INTRA:                  -1.292
REMARK UNBOUND:                -1.581
REMARK SMILES CCCCCCCCCCCCCCCCCC(=O)[O-]
REMARK SMILES IDX 10 1 11 2 12 3 13 4 14 5 15 6 16 7 17 8 18 9 19 10 20 11
REMARK SMILES IDX 9 12 8 13 7 14 6 15 5 16 4 17 3 18 2 19 1 20
REMARK H PARENT
REMARK Flexibility Score: inf
ROOT
ATOM      1  C   UNL     1      43.076  27.110   0.397  1.00  0.00     0.000 C 
ENDROOT
BRANCH   1   2
ATOM      2  C   UNL     1      42.300  28.310   0.952  1.00  0.00     0.000 C 
BRANCH   2   3
ATOM      3  C   UNL     1      42.567  29.572   0.119  1.00  0.00     0.000 C 
BRANCH   3   4
ATOM      4  C   UNL     1      42.662  29.284  -1.389  1.00  0.00     0.000 C 
BRANCH   4   5
ATOM      5  C   UNL     1      43.987  29.709  -2.054  1.00  0.00     0.000 C 
BRANCH   5   6
ATOM      6  C   UNL     1      44.447  28.822  -3.225  1.00  0.00     0.000 C 
BRANCH   6   7
ATOM      7  C   UNL     1      43.809  27.423  -3.200  1.00  0.00     0.006 C 
BRANCH   7   8
ATOM      8  C   UNL     1      43.855  26.742  -4.574  1.00  0.00     0.053 C 
BRANCH   8   9
ATOM      9  C   UNL     1      42.987  27.445  -5.573  1.00  0.00     0.041 C 
ATOM     10  O   UNL     1      43.387  27.609  -6.756  1.00  0.00    -0.550 OA
ATOM     11  O   UNL     1      41.726  27.894  -5.205  1.00  0.00    -0.550 OA
ENDBRANCH   8   9
ENDBRANCH   7   8
ENDBRANCH   6   7
ENDBRANCH   5   6
ENDBRANCH   4   5
ENDBRANCH   3   4
ENDBRANCH   2   3
ENDBRANCH   1   2
BRANCH   1  12
ATOM     12  C   UNL     1      44.426  26.949   1.110  1.00  0.00     0.000 C 
BRANCH  12  13
ATOM     13  C   UNL     1      44.279  26.757   2.631  1.00  0.00    -0.000 C 
BRANCH  13  14
ATOM     14  C   UNL     1      45.047  25.552   3.209  1.00  0.00    -0.000 C 
BRANCH  14  15
ATOM     15  C   UNL     1      45.951  25.867   4.418  1.00  0.00    -0.000 C 
BRANCH  15  16
ATOM     16  C   UNL     1      46.014  27.352   4.820  1.00  0.00    -0.000 C 
BRANCH  16  17
ATOM     17  C   UNL     1      46.746  27.577   6.155  1.00  0.00    -0.000 C 
BRANCH  17  18
ATOM     18  C   UNL     1      46.701  26.345   7.078  1.00  0.00    -0.000 C 
BRANCH  18  19
ATOM     19  C   UNL     1      45.559  26.342   8.108  1.00  0.00    -0.003 C 
ATOM     20  C   UNL     1      45.240  27.734   8.654  1.00  0.00     0.004 C 
ENDBRANCH  18  19
ENDBRANCH  17  18
ENDBRANCH  16  17
ENDBRANCH  15  16
ENDBRANCH  14  15
ENDBRANCH  13  14
ENDBRANCH  12  13
ENDBRANCH   1  12
TORSDOF 16
ENDMDL
MODEL 5
REMARK VINA RESULT:    -4.168      1.072      1.908
REMARK INTER + INTRA:          -9.647
REMARK INTER:                  -8.150
REMARK INTRA:                  -1.498
REMARK UNBOUND:                -1.581
REMARK SMILES CCCCCCCCCCCCCCCCCC(=O)[O-]
REMARK SMILES IDX 10 1 11 2 12 3 13 4 14 5 15 6 16 7 17 8 18 9 19 10 20 11
REMARK SMILES IDX 9 12 8 13 7 14 6 15 5 16 4 17 3 18 2 19 1 20
REMARK H PARENT
REMARK Flexibility Score: inf
ROOT
ATOM      1  C   UNL     1      43.418  27.162   1.559  1.00  0.00     0.000 C 
ENDROOT
BRANCH   1   2
ATOM      2  C   UNL     1      42.391  28.218   1.133  1.00  0.00     0.000 C 
BRANCH   2   3
ATOM      3  C   UNL     1      43.020  29.618   1.108  1.00  0.00     0.000 C 
BRANCH   3   4
ATOM      4  C   UNL     1      43.422  30.068  -0.307  1.00  0.00     0.000 C 
BRANCH   4   5
ATOM      5  C   UNL     1      42.291  30.020  -1.355  1.00  0.00     0.000 C 
BRANCH   5   6
ATOM      6  C   UNL     1      42.481  28.983  -2.476  1.00  0.00     0.000 C 
BRANCH   6   7
ATOM      7  C   UNL     1      43.861  29.078  -3.149  1.00  0.00     0.006 C 
BRANCH   7   8
ATOM      8  C   UNL     1      44.512  27.700  -3.330  1.00  0.00     0.053 C 
BRANCH   8   9
ATOM      9  C   UNL     1      44.714  27.004  -2.018  1.00  0.00     0.041 C 
ATOM     10  O   UNL     1      45.625  27.379  -1.234  1.00  0.00    -0.550 OA
ATOM     11  O   UNL     1      43.877  25.959  -1.650  1.00  0.00    -0.550 OA
ENDBRANCH   8   9
ENDBRANCH   7   8
ENDBRANCH   6   7
ENDBRANCH   5   6
ENDBRANCH   4   5
ENDBRANCH   3   4
ENDBRANCH   2   3
ENDBRANCH   1   2
BRANCH   1  12
ATOM     12  C   UNL     1      44.437  27.752   2.544  1.00  0.00     0.000 C 
BRANCH  12  13
ATOM     13  C   UNL     1      45.882  27.311   2.244  1.00  0.00    -0.000 C 
BRANCH  13  14
ATOM     14  C   UNL     1      46.264  25.922   2.792  1.00  0.00    -0.000 C 
BRANCH  14  15
ATOM     15  C   UNL     1      45.724  25.599   4.200  1.00  0.00    -0.000 C 
BRANCH  15  16
ATOM     16  C   UNL     1      46.643  26.012   5.365  1.00  0.00    -0.000 C 
BRANCH  16  17
ATOM     17  C   UNL     1      45.962  26.982   6.346  1.00  0.00    -0.000 C 
BRANCH  17  18
ATOM     18  C   UNL     1      45.624  26.325   7.698  1.00  0.00    -0.000 C 
BRANCH  18  19
ATOM     19  C   UNL     1      45.538  27.294   8.891  1.00  0.00    -0.003 C 
ATOM     20  C   UNL     1      45.090  28.700   8.490  1.00  0.00     0.004 C 
ENDBRANCH  18  19
ENDBRANCH  17  18
ENDBRANCH  16  17
ENDBRANCH  15  16
ENDBRANCH  14  15
ENDBRANCH  13  14
ENDBRANCH  12  13
ENDBRANCH   1  12
TORSDOF 16
ENDMDL
MODEL 6
REMARK VINA RESULT:    -4.127      3.834      9.133
REMARK INTER + INTRA:          -9.568
REMARK INTER:                  -8.128
REMARK INTRA:                  -1.440
REMARK UNBOUND:                -1.581
REMARK SMILES CCCCCCCCCCCCCCCCCC(=O)[O-]
REMARK SMILES IDX 10 1 11 2 12 3 13 4 14 5 15 6 16 7 17 8 18 9 19 10 20 11
REMARK SMILES IDX 9 12 8 13 7 14 6 15 5 16 4 17 3 18 2 19 1 20
REMARK H PARENT
REMARK Flexibility Score: inf
ROOT
ATOM      1  C   UNL     1      42.503  27.398   0.742  1.00  0.00     0.000 C 
ENDROOT
BRANCH   1   2
ATOM      2  C   UNL     1      43.916  26.914   1.088  1.00  0.00     0.000 C 
BRANCH   2   3
ATOM      3  C   UNL     1      44.127  26.873   2.608  1.00  0.00     0.000 C 
BRANCH   3   4
ATOM      4  C   UNL     1      44.999  25.689   3.060  1.00  0.00     0.000 C 
BRANCH   4   5
ATOM      5  C   UNL     1      46.007  26.009   4.182  1.00  0.00     0.000 C 
BRANCH   5   6
ATOM      6  C   UNL     1      46.004  27.469   4.669  1.00  0.00     0.000 C 
BRANCH   6   7
ATOM      7  C   UNL     1      46.200  27.591   6.190  1.00  0.00     0.006 C 
BRANCH   7   8
ATOM      8  C   UNL     1      45.746  26.329   6.934  1.00  0.00     0.053 C 
BRANCH   8   9
ATOM      9  C   UNL     1      45.518  26.593   8.391  1.00  0.00     0.041 C 
ATOM     10  O   UNL     1      45.604  25.655   9.227  1.00  0.00    -0.550 OA
ATOM     11  O   UNL     1      45.239  27.882   8.829  1.00  0.00    -0.550 OA
ENDBRANCH   8   9
ENDBRANCH   7   8
ENDBRANCH   6   7
ENDBRANCH   5   6
ENDBRANCH   4   5
ENDBRANCH   3   4
ENDBRANCH   2   3
ENDBRANCH   1   2
BRANCH   1  12
ATOM     12  C   UNL     1      42.314  28.870   1.137  1.00  0.00     0.000 C 
BRANCH  12  13
ATOM     13  C   UNL     1      42.818  29.847   0.059  1.00  0.00    -0.000 C 
BRANCH  13  14
ATOM     14  C   UNL     1      42.659  29.352  -1.392  1.00  0.00    -0.000 C 
BRANCH  14  15
ATOM     15  C   UNL     1      43.925  29.460  -2.266  1.00  0.00    -0.000 C 
BRANCH  15  16
ATOM     16  C   UNL     1      45.019  28.419  -1.968  1.00  0.00    -0.000 C 
BRANCH  16  17
ATOM     17  C   UNL     1      44.861  27.134  -2.800  1.00  0.00    -0.000 C 
BRANCH  17  18
ATOM     18  C   UNL     1      44.605  27.415  -4.292  1.00  0.00    -0.000 C 
BRANCH  18  19
ATOM     19  C   UNL     1      43.312  26.803  -4.859  1.00  0.00    -0.003 C 
ATOM     20  C   UNL     1      42.311  27.854  -5.340  1.00  0.00     0.004 C 
ENDBRANCH  18  19
ENDBRANCH  17  18
ENDBRANCH  16  17
ENDBRANCH  15  16
ENDBRANCH  14  15
ENDBRANCH  13  14
ENDBRANCH  12  13
ENDBRANCH   1  12
TORSDOF 16
ENDMDL
MODEL 7
REMARK VINA RESULT:    -4.062      2.017      2.975
REMARK INTER + INTRA:          -9.443
REMARK INTER:                  -8.352
REMARK INTRA:                  -1.091
REMARK UNBOUND:                -1.581
REMARK SMILES CCCCCCCCCCCCCCCCCC(=O)[O-]
REMARK SMILES IDX 10 1 11 2 12 3 13 4 14 5 15 6 16 7 17 8 18 9 19 10 20 11
REMARK SMILES IDX 9 12 8 13 7 14 6 15 5 16 4 17 3 18 2 19 1 20
REMARK H PARENT
REMARK Flexibility Score: inf
ROOT
ATOM      1  C   UNL     1      42.876  27.507   1.528  1.00  0.00     0.000 C 
ENDROOT
BRANCH   1   2
ATOM      2  C   UNL     1      42.654  27.590   0.014  1.00  0.00     0.000 C 
BRANCH   2   3
ATOM      3  C   UNL     1      43.748  26.825  -0.745  1.00  0.00     0.000 C 
BRANCH   3   4
ATOM      4  C   UNL     1      44.019  27.401  -2.146  1.00  0.00     0.000 C 
BRANCH   4   5
ATOM      5  C   UNL     1      43.085  28.553  -2.571  1.00  0.00     0.000 C 
BRANCH   5   6
ATOM      6  C   UNL     1      42.836  28.669  -4.086  1.00  0.00     0.000 C 
BRANCH   6   7
ATOM      7  C   UNL     1      42.940  27.318  -4.813  1.00  0.00     0.006 C 
BRANCH   7   8
ATOM      8  C   UNL     1      43.609  27.451  -6.187  1.00  0.00     0.053 C 
BRANCH   8   9
ATOM      9  C   UNL     1      45.103  27.439  -6.083  1.00  0.00     0.041 C 
ATOM     10  O   UNL     1      45.675  26.695  -5.243  1.00  0.00    -0.550 OA
ATOM     11  O   UNL     1      45.866  28.228  -6.934  1.00  0.00    -0.550 OA
ENDBRANCH   8   9
ENDBRANCH   7   8
ENDBRANCH   6   7
ENDBRANCH   5   6
ENDBRANCH   4   5
ENDBRANCH   3   4
ENDBRANCH   2   3
ENDBRANCH   1   2
BRANCH   1  12
ATOM     12  C   UNL     1      44.083  28.355   1.954  1.00  0.00     0.000 C 
BRANCH  12  13
ATOM     13  C   UNL     1      45.200  27.519   2.606  1.00  0.00    -0.000 C 
BRANCH  13  14
ATOM     14  C   UNL     1      44.766  26.123   3.092  1.00  0.00    -0.000 C 
BRANCH  14  15
ATOM     15  C   UNL     1      45.839  25.335   3.872  1.00  0.00    -0.000 C 
BRANCH  15  16
ATOM     16  C   UNL     1      46.701  26.175   4.831  1.00  0.00    -0.000 C 
BRANCH  16  17
ATOM     17  C   UNL     1      45.889  26.776   5.991  1.00  0.00    -0.000 C 
BRANCH  17  18
ATOM     18  C   UNL     1      46.172  26.087   7.340  1.00  0.00    -0.000 C 
BRANCH  18  19
ATOM     19  C   UNL     1      45.473  26.721   8.555  1.00  0.00    -0.003 C 
ATOM     20  C   UNL     1      45.188  28.211   8.373  1.00  0.00     0.004 C 
ENDBRANCH  18  19
ENDBRANCH  17  18
ENDBRANCH  16  17
ENDBRANCH  15  16
ENDBRANCH  14  15
ENDBRANCH  13  14
ENDBRANCH  12  13
ENDBRANCH   1  12
TORSDOF 16
ENDMDL
MODEL 8
REMARK VINA RESULT:    -4.014      3.338      8.575
REMARK INTER + INTRA:          -9.349
REMARK INTER:                  -7.132
REMARK INTRA:                  -2.217
REMARK UNBOUND:                -1.581
REMARK SMILES CCCCCCCCCCCCCCCCCC(=O)[O-]
REMARK SMILES IDX 10 1 11 2 12 3 13 4 14 5 15 6 16 7 17 8 18 9 19 10 20 11
REMARK SMILES IDX 9 12 8 13 7 14 6 15 5 16 4 17 3 18 2 19 1 20
REMARK H PARENT
REMARK Flexibility Score: inf
ROOT
ATOM      1  C   UNL     1      42.237  28.071   1.423  1.00  0.00     0.000 C 
ENDROOT
BRANCH   1   2
ATOM      2  C   UNL     1      43.281  29.192   1.476  1.00  0.00     0.000 C 
BRANCH   2   3
ATOM      3  C   UNL     1      44.364  28.887   2.521  1.00  0.00     0.000 C 
BRANCH   3   4
ATOM      4  C   UNL     1      45.666  28.356   1.895  1.00  0.00     0.000 C 
BRANCH   4   5
ATOM      5  C   UNL     1      45.797  26.819   1.863  1.00  0.00     0.000 C 
BRANCH   5   6
ATOM      6  C   UNL     1      44.831  26.059   2.790  1.00  0.00     0.000 C 
BRANCH   6   7
ATOM      7  C   UNL     1      45.560  25.175   3.816  1.00  0.00     0.006 C 
BRANCH   7   8
ATOM      8  C   UNL     1      46.663  25.941   4.559  1.00  0.00     0.053 C 
BRANCH   8   9
ATOM      9  C   UNL     1      46.111  26.754   5.690  1.00  0.00     0.041 C 
ATOM     10  O   UNL     1      45.760  26.194   6.762  1.00  0.00    -0.550 OA
ATOM     11  O   UNL     1      46.011  28.135   5.570  1.00  0.00    -0.550 OA
ENDBRANCH   8   9
ENDBRANCH   7   8
ENDBRANCH   6   7
ENDBRANCH   5   6
ENDBRANCH   4   5
ENDBRANCH   3   4
ENDBRANCH   2   3
ENDBRANCH   1   2
BRANCH   1  12
ATOM     12  C   UNL     1      42.484  27.145   0.223  1.00  0.00     0.000 C 
BRANCH  12  13
ATOM     13  C   UNL     1      43.090  27.882  -0.985  1.00  0.00    -0.000 C 
BRANCH  13  14
ATOM     14  C   UNL     1      44.210  27.118  -1.717  1.00  0.00    -0.000 C 
BRANCH  14  15
ATOM     15  C   UNL     1      45.560  27.859  -1.811  1.00  0.00    -0.000 C 
BRANCH  15  16
ATOM     16  C   UNL     1      46.242  27.804  -3.190  1.00  0.00    -0.000 C 
BRANCH  16  17
ATOM     17  C   UNL     1      45.396  27.072  -4.245  1.00  0.00    -0.000 C 
BRANCH  17  18
ATOM     18  C   UNL     1      45.126  27.929  -5.497  1.00  0.00    -0.000 C 
BRANCH  18  19
ATOM     19  C   UNL     1      43.721  27.773  -6.103  1.00  0.00    -0.003 C 
ATOM     20  C   UNL     1      42.634  27.559  -5.050  1.00  0.00     0.004 C 
ENDBRANCH  18  19
ENDBRANCH  17  18
ENDBRANCH  16  17
ENDBRANCH  15  16
ENDBRANCH  14  15
ENDBRANCH  13  14
ENDBRANCH  12  13
ENDBRANCH   1  12
TORSDOF 16
ENDMDL
