MODEL 1
REMARK VINA RESULT:     2.434      0.000      0.000
REMARK INTER + INTRA:           2.935
REMARK INTER:                   2.860
REMARK INTRA:                   0.075
REMARK UNBOUND:                 0.075
REMARK SMILES O=c1c(O)c(-c2ccc(O)cc2)oc2cc(O)cc(O)c12
REMARK SMILES IDX 5 1 3 2 2 3 1 4 21 5 19 6 18 7 16 8 15 9 14 10 13 11 6 12
REMARK SMILES IDX 7 13 8 14 9 15 12 16 11 17 10 18 4 20 20 22 17 24
REMARK H PARENT 10 19 4 21 20 23 17 25
REMARK Flexibility Score: inf
ROOT
ATOM      1  C   UNL     1      25.300  10.775 122.470  1.00  0.00     0.180 A 
ATOM      2  C   UNL     1      23.934  11.050 122.290  1.00  0.00     0.208 A 
ATOM      3  C   UNL     1      23.043   9.981 122.104  1.00  0.00     0.238 A 
ATOM      4  O   UNL     1      21.829  10.237 121.890  1.00  0.00    -0.285 OA
ATOM      5  C   UNL     1      23.526   8.651 122.119  1.00  0.00     0.111 A 
ATOM      6  C   UNL     1      22.707   7.490 121.982  1.00  0.00     0.134 A 
ATOM      7  C   UNL     1      23.308   6.229 121.878  1.00  0.00     0.093 A 
ATOM      8  C   UNL     1      24.690   6.080 121.974  1.00  0.00     0.123 A 
ATOM      9  C   UNL     1      25.497   7.203 122.168  1.00  0.00     0.094 A 
ATOM     10  C   UNL     1      24.929   8.478 122.238  1.00  0.00     0.146 A 
ATOM     11  O   UNL     1      25.732   9.521 122.413  1.00  0.00    -0.452 OA
ENDROOT
BRANCH   1  12
ATOM     12  C   UNL     1      26.297  11.847 122.696  1.00  0.00     0.021 A 
ATOM     13  C   UNL     1      27.182  11.750 123.783  1.00  0.00     0.016 A 
ATOM     14  C   UNL     1      28.116  12.762 124.028  1.00  0.00     0.047 A 
ATOM     15  C   UNL     1      28.166  13.889 123.199  1.00  0.00     0.115 A 
ATOM     16  C   UNL     1      26.341  12.992 121.879  1.00  0.00     0.016 A 
ATOM     17  C   UNL     1      27.275  14.002 122.128  1.00  0.00     0.047 A 
BRANCH  15  18
ATOM     18  O   UNL     1      29.093  14.903 123.434  1.00  0.00    -0.508 OA
ATOM     19  H   UNL     1      30.080  14.704 123.544  1.00  0.00     0.293 HD
ENDBRANCH  15  18
ENDBRANCH   1  12
BRANCH   2  20
ATOM     20  O   UNL     1      23.481  12.372 122.257  1.00  0.00    -0.502 OA
ATOM     21  H   UNL     1      23.914  13.081 121.678  1.00  0.00     0.293 HD
ENDBRANCH   2  20
BRANCH   6  22
ATOM     22  O   UNL     1      21.309   7.518 121.968  1.00  0.00    -0.507 OA
ATOM     23  H   UNL     1      20.726   6.859 121.474  1.00  0.00     0.293 HD
ENDBRANCH   6  22
BRANCH   8  24
ATOM     24  O   UNL     1      25.253   4.809 121.884  1.00  0.00    -0.508 OA
ATOM     25  H   UNL     1      24.805   4.067 121.359  1.00  0.00     0.293 HD
ENDBRANCH   8  24
TORSDOF 5
ENDMDL
MODEL 2
REMARK VINA RESULT:     2.589      1.593      6.571
REMARK INTER + INTRA:           3.118
REMARK INTER:                   2.583
REMARK INTRA:                   0.535
REMARK UNBOUND:                 0.075
REMARK SMILES O=c1c(O)c(-c2ccc(O)cc2)oc2cc(O)cc(O)c12
REMARK SMILES IDX 5 1 3 2 2 3 1 4 21 5 19 6 18 7 16 8 15 9 14 10 13 11 6 12
REMARK SMILES IDX 7 13 8 14 9 15 12 16 11 17 10 18 4 20 20 22 17 24
REMARK H PARENT 10 19 4 21 20 23 17 25
REMARK Flexibility Score: inf
ROOT
ATOM      1  C   UNL     1      23.705   9.652 122.142  1.00  0.00     0.180 A 
ATOM      2  C   UNL     1      22.940  10.825 122.024  1.00  0.00     0.208 A 
ATOM      3  C   UNL     1      23.586  12.070 122.098  1.00  0.00     0.238 A 
ATOM      4  O   UNL     1      22.888  13.116 122.045  1.00  0.00    -0.285 OA
ATOM      5  C   UNL     1      24.989  12.126 122.271  1.00  0.00     0.111 A 
ATOM      6  C   UNL     1      25.752  13.331 122.319  1.00  0.00     0.134 A 
ATOM      7  C   UNL     1      27.117  13.273 122.627  1.00  0.00     0.093 A 
ATOM      8  C   UNL     1      27.759  12.052 122.822  1.00  0.00     0.123 A 
ATOM      9  C   UNL     1      27.035  10.862 122.720  1.00  0.00     0.094 A 
ATOM     10  C   UNL     1      25.664  10.891 122.450  1.00  0.00     0.146 A 
ATOM     11  O   UNL     1      25.011   9.739 122.370  1.00  0.00    -0.452 OA
ENDROOT
BRANCH   1  12
ATOM     12  C   UNL     1      23.100   8.304 122.050  1.00  0.00     0.021 A 
ATOM     13  C   UNL     1      21.704   8.165 122.129  1.00  0.00     0.016 A 
ATOM     14  C   UNL     1      21.113   6.899 122.067  1.00  0.00     0.047 A 
ATOM     15  C   UNL     1      21.911   5.756 121.939  1.00  0.00     0.115 A 
ATOM     16  C   UNL     1      23.896   7.148 121.941  1.00  0.00     0.016 A 
ATOM     17  C   UNL     1      23.301   5.884 121.880  1.00  0.00     0.047 A 
BRANCH  15  18
ATOM     18  O   UNL     1      21.333   4.490 121.875  1.00  0.00    -0.508 OA
ATOM     19  H   UNL     1      20.359   4.339 122.108  1.00  0.00     0.293 HD
ENDBRANCH  15  18
ENDBRANCH   1  12
BRANCH   2  20
ATOM     20  O   UNL     1      21.553  10.747 121.875  1.00  0.00    -0.502 OA
ATOM     21  H   UNL     1      21.067  11.139 121.078  1.00  0.00     0.293 HD
ENDBRANCH   2  20
BRANCH   6  22
ATOM     22  O   UNL     1      25.227  14.599 122.048  1.00  0.00    -0.507 OA
ATOM     23  H   UNL     1      24.322  14.769 121.638  1.00  0.00     0.293 HD
ENDBRANCH   6  22
BRANCH   8  24
ATOM     24  O   UNL     1      29.123  12.030 123.110  1.00  0.00    -0.508 OA
ATOM     25  H   UNL     1      29.811  12.360 122.444  1.00  0.00     0.293 HD
ENDBRANCH   8  24
TORSDOF 5
ENDMDL
MODEL 3
REMARK VINA RESULT:     2.708      1.871      6.681
REMARK INTER + INTRA:           3.257
REMARK INTER:                   2.684
REMARK INTRA:                   0.573
REMARK UNBOUND:                 0.075
REMARK SMILES O=c1c(O)c(-c2ccc(O)cc2)oc2cc(O)cc(O)c12
REMARK SMILES IDX 5 1 3 2 2 3 1 4 21 5 19 6 18 7 16 8 15 9 14 10 13 11 6 12
REMARK SMILES IDX 7 13 8 14 9 15 12 16 11 17 10 18 4 20 20 22 17 24
REMARK H PARENT 10 19 4 21 20 23 17 25
REMARK Flexibility Score: inf
ROOT
ATOM      1  C   UNL     1      23.443   8.693 121.975  1.00  0.00     0.180 A 
ATOM      2  C   UNL     1      22.772   9.922 122.106  1.00  0.00     0.208 A 
ATOM      3  C   UNL     1      23.522  11.109 122.121  1.00  0.00     0.238 A 
ATOM      4  O   UNL     1      22.921  12.201 122.293  1.00  0.00    -0.285 OA
ATOM      5  C   UNL     1      24.930  11.054 121.987  1.00  0.00     0.111 A 
ATOM      6  C   UNL     1      25.786  12.196 121.948  1.00  0.00     0.134 A 
ATOM      7  C   UNL     1      27.175  12.019 121.945  1.00  0.00     0.093 A 
ATOM      8  C   UNL     1      27.738  10.744 121.913  1.00  0.00     0.123 A 
ATOM      9  C   UNL     1      26.910   9.620 121.891  1.00  0.00     0.094 A 
ATOM     10  C   UNL     1      25.520   9.765 121.930  1.00  0.00     0.146 A 
ATOM     11  O   UNL     1      24.769   8.671 121.918  1.00  0.00    -0.452 OA
ENDROOT
BRANCH   1  12
ATOM     12  C   UNL     1      22.719   7.402 121.927  1.00  0.00     0.021 A 
ATOM     13  C   UNL     1      21.314   7.394 121.969  1.00  0.00     0.016 A 
ATOM     14  C   UNL     1      20.612   6.185 121.947  1.00  0.00     0.047 A 
ATOM     15  C   UNL     1      21.305   4.970 121.898  1.00  0.00     0.115 A 
ATOM     16  C   UNL     1      23.408   6.176 121.898  1.00  0.00     0.016 A 
ATOM     17  C   UNL     1      22.703   4.969 121.877  1.00  0.00     0.047 A 
BRANCH  15  18
ATOM     18  O   UNL     1      20.616   3.759 121.875  1.00  0.00    -0.508 OA
ATOM     19  H   UNL     1      21.087   2.885 121.674  1.00  0.00     0.293 HD
ENDBRANCH  15  18
ENDBRANCH   1  12
BRANCH   2  20
ATOM     20  O   UNL     1      21.384   9.952 122.259  1.00  0.00    -0.502 OA
ATOM     21  H   UNL     1      20.805  10.667 121.838  1.00  0.00     0.293 HD
ENDBRANCH   2  20
BRANCH   6  22
ATOM     22  O   UNL     1      25.325  13.515 121.884  1.00  0.00    -0.507 OA
ATOM     23  H   UNL     1      24.646  13.917 122.512  1.00  0.00     0.293 HD
ENDBRANCH   6  22
BRANCH   8  24
ATOM     24  O   UNL     1      29.125  10.605 121.894  1.00  0.00    -0.508 OA
ATOM     25  H   UNL     1      29.682  10.748 122.728  1.00  0.00     0.293 HD
ENDBRANCH   8  24
TORSDOF 5
ENDMDL
MODEL 4
REMARK VINA RESULT:     4.965      1.570      3.237
REMARK INTER + INTRA:           5.911
REMARK INTER:                   5.327
REMARK INTRA:                   0.584
REMARK UNBOUND:                 0.075
REMARK SMILES O=c1c(O)c(-c2ccc(O)cc2)oc2cc(O)cc(O)c12
REMARK SMILES IDX 5 1 3 2 2 3 1 4 21 5 19 6 18 7 16 8 15 9 14 10 13 11 6 12
REMARK SMILES IDX 7 13 8 14 9 15 12 16 11 17 10 18 4 20 20 22 17 24
REMARK H PARENT 10 19 4 21 20 23 17 25
REMARK Flexibility Score: inf
ROOT
ATOM      1  C   UNL     1      24.752   9.542 122.137  1.00  0.00     0.180 A 
ATOM      2  C   UNL     1      25.681   8.494 122.259  1.00  0.00     0.208 A 
ATOM      3  C   UNL     1      25.220   7.168 122.232  1.00  0.00     0.238 A 
ATOM      4  O   UNL     1      26.050   6.237 122.396  1.00  0.00    -0.285 OA
ATOM      5  C   UNL     1      23.839   6.906 122.064  1.00  0.00     0.111 A 
ATOM      6  C   UNL     1      23.267   5.601 121.980  1.00  0.00     0.134 A 
ATOM      7  C   UNL     1      21.874   5.459 121.947  1.00  0.00     0.093 A 
ATOM      8  C   UNL     1      21.037   6.573 121.926  1.00  0.00     0.123 A 
ATOM      9  C   UNL     1      21.588   7.855 121.948  1.00  0.00     0.094 A 
ATOM     10  C   UNL     1      22.973   8.029 122.018  1.00  0.00     0.146 A 
ATOM     11  O   UNL     1      23.456   9.264 122.047  1.00  0.00    -0.452 OA
ENDROOT
BRANCH   1  12
ATOM     12  C   UNL     1      25.163  10.964 122.132  1.00  0.00     0.021 A 
ATOM     13  C   UNL     1      26.514  11.294 122.341  1.00  0.00     0.016 A 
ATOM     14  C   UNL     1      26.920  12.632 122.363  1.00  0.00     0.047 A 
ATOM     15  C   UNL     1      25.981  13.656 122.192  1.00  0.00     0.115 A 
ATOM     16  C   UNL     1      24.223  12.000 121.981  1.00  0.00     0.016 A 
ATOM     17  C   UNL     1      24.634  13.336 122.005  1.00  0.00     0.047 A 
BRANCH  15  18
ATOM     18  O   UNL     1      26.375  14.992 122.212  1.00  0.00    -0.508 OA
ATOM     19  H   UNL     1      25.809  15.718 121.789  1.00  0.00     0.293 HD
ENDBRANCH  15  18
ENDBRANCH   1  12
BRANCH   2  20
ATOM     20  O   UNL     1      27.037   8.776 122.446  1.00  0.00    -0.502 OA
ATOM     21  H   UNL     1      27.530   9.466 121.894  1.00  0.00     0.293 HD
ENDBRANCH   2  20
BRANCH   6  22
ATOM     22  O   UNL     1      24.017   4.423 121.901  1.00  0.00    -0.507 OA
ATOM     23  H   UNL     1      25.013   4.386 121.749  1.00  0.00     0.293 HD
ENDBRANCH   6  22
BRANCH   8  24
ATOM     24  O   UNL     1      19.655   6.394 121.876  1.00  0.00    -0.508 OA
ATOM     25  H   UNL     1      19.215   5.882 121.121  1.00  0.00     0.293 HD
ENDBRANCH   8  24
TORSDOF 5
ENDMDL
