MODEL 1
REMARK VINA RESULT:    -6.412      0.000      0.000
REMARK INTER + INTRA:          -6.787
REMARK INTER:                  -6.787
REMARK INTRA:                   0.000
REMARK UNBOUND:                 0.000
REMARK SMILES O=c1ccc2cc(O)c(O)cc2o1
REMARK SMILES IDX 4 1 3 2 2 3 1 4 13 5 12 6 11 7 9 8 7 9 6 10 5 11 8 12 10 14
REMARK H PARENT 8 13 10 15
REMARK Flexibility Score: inf
ROOT
ATOM      1  C   UNL     1      72.922  41.253  -3.964  1.00  0.00     0.019 A 
ATOM      2  C   UNL     1      73.357  40.813  -5.214  1.00  0.00     0.094 A 
ATOM      3  C   UNL     1      74.153  41.660  -5.991  1.00  0.00     0.336 A 
ATOM      4  O   UNL     1      74.556  41.281  -7.121  1.00  0.00    -0.246 OA
ATOM      5  O   UNL     1      74.489  42.867  -5.544  1.00  0.00    -0.423 OA
ATOM      6  C   UNL     1      74.095  43.326  -4.358  1.00  0.00     0.142 A 
ATOM      7  C   UNL     1      74.480  44.604  -3.941  1.00  0.00     0.098 A 
ATOM      8  C   UNL     1      74.067  45.093  -2.691  1.00  0.00     0.161 A 
ATOM      9  C   UNL     1      73.267  44.298  -1.857  1.00  0.00     0.158 A 
ATOM     10  C   UNL     1      72.879  43.016  -2.271  1.00  0.00     0.062 A 
ATOM     11  C   UNL     1      73.290  42.527  -3.518  1.00  0.00     0.022 A 
ENDROOT
BRANCH   9  12
ATOM     12  O   UNL     1      72.862  44.791  -0.618  1.00  0.00    -0.504 OA
ATOM     13  H   UNL     1      72.404  44.199   0.065  1.00  0.00     0.293 HD
ENDBRANCH   9  12
BRANCH   8  14
ATOM     14  O   UNL     1      74.449  46.366  -2.273  1.00  0.00    -0.504 OA
ATOM     15  H   UNL     1      75.415  46.589  -2.065  1.00  0.00     0.293 HD
ENDBRANCH   8  14
TORSDOF 2
ENDMDL
MODEL 2
REMARK VINA RESULT:    -6.270      1.200      5.010
REMARK INTER + INTRA:          -6.637
REMARK INTER:                  -6.637
REMARK INTRA:                   0.000
REMARK UNBOUND:                 0.000
REMARK SMILES O=c1ccc2cc(O)c(O)cc2o1
REMARK SMILES IDX 4 1 3 2 2 3 1 4 13 5 12 6 11 7 9 8 7 9 6 10 5 11 8 12 10 14
REMARK H PARENT 8 13 10 15
REMARK Flexibility Score: inf
ROOT
ATOM      1  C   UNL     1      74.217  45.131  -3.475  1.00  0.00     0.019 A 
ATOM      2  C   UNL     1      73.633  45.430  -2.244  1.00  0.00     0.094 A 
ATOM      3  C   UNL     1      72.907  44.436  -1.581  1.00  0.00     0.336 A 
ATOM      4  O   UNL     1      72.373  44.685  -0.469  1.00  0.00    -0.246 OA
ATOM      5  O   UNL     1      72.774  43.225  -2.117  1.00  0.00    -0.423 OA
ATOM      6  C   UNL     1      73.315  42.899  -3.290  1.00  0.00     0.142 A 
ATOM      7  C   UNL     1      73.143  41.611  -3.805  1.00  0.00     0.098 A 
ATOM      8  C   UNL     1      73.710  41.262  -5.040  1.00  0.00     0.161 A 
ATOM      9  C   UNL     1      74.453  42.208  -5.763  1.00  0.00     0.158 A 
ATOM     10  C   UNL     1      74.629  43.502  -5.250  1.00  0.00     0.062 A 
ATOM     11  C   UNL     1      74.062  43.852  -4.017  1.00  0.00     0.022 A 
ENDROOT
BRANCH   9  12
ATOM     12  O   UNL     1      75.013  41.854  -6.988  1.00  0.00    -0.504 OA
ATOM     13  H   UNL     1      75.229  42.549  -7.694  1.00  0.00     0.293 HD
ENDBRANCH   9  12
BRANCH   8  14
ATOM     14  O   UNL     1      73.540  39.979  -5.556  1.00  0.00    -0.504 OA
ATOM     15  H   UNL     1      73.185  39.221  -4.985  1.00  0.00     0.293 HD
ENDBRANCH   8  14
TORSDOF 2
ENDMDL
MODEL 3
REMARK VINA RESULT:    -6.186      1.335      2.322
REMARK INTER + INTRA:          -6.547
REMARK INTER:                  -6.547
REMARK INTRA:                   0.000
REMARK UNBOUND:                 0.000
REMARK SMILES O=c1ccc2cc(O)c(O)cc2o1
REMARK SMILES IDX 4 1 3 2 2 3 1 4 13 5 12 6 11 7 9 8 7 9 6 10 5 11 8 12 10 14
REMARK H PARENT 8 13 10 15
REMARK Flexibility Score: inf
ROOT
ATOM      1  C   UNL     1      74.454  42.556  -5.404  1.00  0.00     0.019 A 
ATOM      2  C   UNL     1      73.881  41.318  -5.693  1.00  0.00     0.094 A 
ATOM      3  C   UNL     1      72.897  40.810  -4.839  1.00  0.00     0.336 A 
ATOM      4  O   UNL     1      72.368  39.695  -5.083  1.00  0.00    -0.246 OA
ATOM      5  O   UNL     1      72.514  41.499  -3.767  1.00  0.00    -0.423 OA
ATOM      6  C   UNL     1      73.035  42.685  -3.454  1.00  0.00     0.142 A 
ATOM      7  C   UNL     1      72.593  43.363  -2.315  1.00  0.00     0.098 A 
ATOM      8  C   UNL     1      73.139  44.612  -1.981  1.00  0.00     0.161 A 
ATOM      9  C   UNL     1      74.131  45.184  -2.792  1.00  0.00     0.158 A 
ATOM     10  C   UNL     1      74.577  44.507  -3.936  1.00  0.00     0.062 A 
ATOM     11  C   UNL     1      74.033  43.259  -4.271  1.00  0.00     0.022 A 
ENDROOT
BRANCH   9  12
ATOM     12  O   UNL     1      74.667  46.425  -2.453  1.00  0.00    -0.504 OA
ATOM     13  H   UNL     1      74.788  47.156  -3.143  1.00  0.00     0.293 HD
ENDBRANCH   9  12
BRANCH   8  14
ATOM     14  O   UNL     1      72.700  45.291  -0.845  1.00  0.00    -0.504 OA
ATOM     15  H   UNL     1      72.751  44.872   0.076  1.00  0.00     0.293 HD
ENDBRANCH   8  14
TORSDOF 2
ENDMDL
MODEL 4
REMARK VINA RESULT:    -5.971      2.752      6.031
REMARK INTER + INTRA:          -6.321
REMARK INTER:                  -6.321
REMARK INTRA:                   0.000
REMARK UNBOUND:                 0.000
REMARK SMILES O=c1ccc2cc(O)c(O)cc2o1
REMARK SMILES IDX 4 1 3 2 2 3 1 4 13 5 12 6 11 7 9 8 7 9 6 10 5 11 8 12 10 14
REMARK H PARENT 8 13 10 15
REMARK Flexibility Score: inf
ROOT
ATOM      1  C   UNL     1      71.471  39.839  -5.153  1.00  0.00     0.019 A 
ATOM      2  C   UNL     1      71.730  40.621  -4.028  1.00  0.00     0.094 A 
ATOM      3  C   UNL     1      72.884  41.410  -4.002  1.00  0.00     0.336 A 
ATOM      4  O   UNL     1      73.135  42.124  -2.997  1.00  0.00    -0.246 OA
ATOM      5  O   UNL     1      73.722  41.412  -5.036  1.00  0.00    -0.423 OA
ATOM      6  C   UNL     1      73.513  40.680  -6.128  1.00  0.00     0.142 A 
ATOM      7  C   UNL     1      74.429  40.722  -7.184  1.00  0.00     0.098 A 
ATOM      8  C   UNL     1      74.214  39.952  -8.337  1.00  0.00     0.161 A 
ATOM      9  C   UNL     1      73.076  39.137  -8.434  1.00  0.00     0.158 A 
ATOM     10  C   UNL     1      72.154  39.092  -7.378  1.00  0.00     0.062 A 
ATOM     11  C   UNL     1      72.368  39.859  -6.225  1.00  0.00     0.022 A 
ENDROOT
BRANCH   9  12
ATOM     12  O   UNL     1      72.869  38.376  -9.583  1.00  0.00    -0.504 OA
ATOM     13  H   UNL     1      73.490  37.616  -9.834  1.00  0.00     0.293 HD
ENDBRANCH   9  12
BRANCH   8  14
ATOM     14  O   UNL     1      75.125  39.993  -9.390  1.00  0.00    -0.504 OA
ATOM     15  H   UNL     1      75.994  39.474  -9.360  1.00  0.00     0.293 HD
ENDBRANCH   8  14
TORSDOF 2
ENDMDL
MODEL 5
REMARK VINA RESULT:    -5.921      2.318      6.013
REMARK INTER + INTRA:          -6.267
REMARK INTER:                  -6.267
REMARK INTRA:                   0.000
REMARK UNBOUND:                 0.000
REMARK SMILES O=c1ccc2cc(O)c(O)cc2o1
REMARK SMILES IDX 4 1 3 2 2 3 1 4 13 5 12 6 11 7 9 8 7 9 6 10 5 11 8 12 10 14
REMARK H PARENT 8 13 10 15
REMARK Flexibility Score: inf
ROOT
ATOM      1  C   UNL     1      74.756  42.223  -5.599  1.00  0.00     0.019 A 
ATOM      2  C   UNL     1      74.438  42.718  -4.334  1.00  0.00     0.094 A 
ATOM      3  C   UNL     1      73.373  42.147  -3.631  1.00  0.00     0.336 A 
ATOM      4  O   UNL     1      73.071  42.579  -2.488  1.00  0.00    -0.246 OA
ATOM      5  O   UNL     1      72.674  41.147  -4.161  1.00  0.00    -0.423 OA
ATOM      6  C   UNL     1      72.944  40.645  -5.365  1.00  0.00     0.142 A 
ATOM      7  C   UNL     1      72.174  39.593  -5.872  1.00  0.00     0.098 A 
ATOM      8  C   UNL     1      72.454  39.060  -7.140  1.00  0.00     0.161 A 
ATOM      9  C   UNL     1      73.509  39.583  -7.903  1.00  0.00     0.158 A 
ATOM     10  C   UNL     1      74.283  40.638  -7.399  1.00  0.00     0.062 A 
ATOM     11  C   UNL     1      74.005  41.171  -6.133  1.00  0.00     0.022 A 
ENDROOT
BRANCH   9  12
ATOM     12  O   UNL     1      73.780  39.049  -9.161  1.00  0.00    -0.504 OA
ATOM     13  H   UNL     1      74.218  39.601  -9.889  1.00  0.00     0.293 HD
ENDBRANCH   9  12
BRANCH   8  14
ATOM     14  O   UNL     1      71.689  38.013  -7.647  1.00  0.00    -0.504 OA
ATOM     15  H   UNL     1      71.847  37.642  -8.577  1.00  0.00     0.293 HD
ENDBRANCH   8  14
TORSDOF 2
ENDMDL
MODEL 6
REMARK VINA RESULT:    -5.830      2.822      4.393
REMARK INTER + INTRA:          -6.171
REMARK INTER:                  -6.171
REMARK INTRA:                   0.000
REMARK UNBOUND:                 0.000
REMARK SMILES O=c1ccc2cc(O)c(O)cc2o1
REMARK SMILES IDX 4 1 3 2 2 3 1 4 13 5 12 6 11 7 9 8 7 9 6 10 5 11 8 12 10 14
REMARK H PARENT 8 13 10 15
REMARK Flexibility Score: inf
ROOT
ATOM      1  C   UNL     1      74.939  40.980  -7.302  1.00  0.00     0.019 A 
ATOM      2  C   UNL     1      74.833  40.233  -8.475  1.00  0.00     0.094 A 
ATOM      3  C   UNL     1      73.740  39.375  -8.635  1.00  0.00     0.336 A 
ATOM      4  O   UNL     1      73.626  38.694  -9.687  1.00  0.00    -0.246 OA
ATOM      5  O   UNL     1      72.818  39.273  -7.681  1.00  0.00    -0.423 OA
ATOM      6  C   UNL     1      72.882  39.967  -6.547  1.00  0.00     0.142 A 
ATOM      7  C   UNL     1      71.883  39.818  -5.580  1.00  0.00     0.098 A 
ATOM      8  C   UNL     1      71.946  40.547  -4.382  1.00  0.00     0.161 A 
ATOM      9  C   UNL     1      73.013  41.428  -4.152  1.00  0.00     0.158 A 
ATOM     10  C   UNL     1      74.017  41.580  -5.120  1.00  0.00     0.062 A 
ATOM     11  C   UNL     1      73.957  40.853  -6.315  1.00  0.00     0.022 A 
ENDROOT
BRANCH   9  12
ATOM     12  O   UNL     1      73.068  42.148  -2.960  1.00  0.00    -0.504 OA
ATOM     13  H   UNL     1      72.228  42.492  -2.510  1.00  0.00     0.293 HD
ENDBRANCH   9  12
BRANCH   8  14
ATOM     14  O   UNL     1      70.953  40.400  -3.416  1.00  0.00    -0.504 OA
ATOM     15  H   UNL     1      69.970  40.473  -3.651  1.00  0.00     0.293 HD
ENDBRANCH   8  14
TORSDOF 2
ENDMDL
MODEL 7
REMARK VINA RESULT:    -5.719      1.208      4.492
REMARK INTER + INTRA:          -6.053
REMARK INTER:                  -6.053
REMARK INTRA:                   0.000
REMARK UNBOUND:                 0.000
REMARK SMILES O=c1ccc2cc(O)c(O)cc2o1
REMARK SMILES IDX 4 1 3 2 2 3 1 4 13 5 12 6 11 7 9 8 7 9 6 10 5 11 8 12 10 14
REMARK H PARENT 8 13 10 15
REMARK Flexibility Score: inf
ROOT
ATOM      1  C   UNL     1      72.677  43.475  -2.269  1.00  0.00     0.019 A 
ATOM      2  C   UNL     1      73.178  44.746  -1.990  1.00  0.00     0.094 A 
ATOM      3  C   UNL     1      74.116  45.311  -2.860  1.00  0.00     0.336 A 
ATOM      4  O   UNL     1      74.580  46.457  -2.625  1.00  0.00    -0.246 OA
ATOM      5  O   UNL     1      74.524  44.645  -3.937  1.00  0.00    -0.423 OA
ATOM      6  C   UNL     1      74.071  43.430  -4.240  1.00  0.00     0.142 A 
ATOM      7  C   UNL     1      74.536  42.777  -5.386  1.00  0.00     0.098 A 
ATOM      8  C   UNL     1      74.062  41.496  -5.710  1.00  0.00     0.161 A 
ATOM      9  C   UNL     1      73.120  40.867  -4.884  1.00  0.00     0.158 A 
ATOM     10  C   UNL     1      72.650  41.518  -3.734  1.00  0.00     0.062 A 
ATOM     11  C   UNL     1      73.122  42.796  -3.408  1.00  0.00     0.022 A 
ENDROOT
BRANCH   9  12
ATOM     12  O   UNL     1      72.654  39.595  -5.213  1.00  0.00    -0.504 OA
ATOM     13  H   UNL     1      71.915  39.461  -5.893  1.00  0.00     0.293 HD
ENDBRANCH   9  12
BRANCH   8  14
ATOM     14  O   UNL     1      74.524  40.844  -6.851  1.00  0.00    -0.504 OA
ATOM     15  H   UNL     1      74.895  41.357  -7.642  1.00  0.00     0.293 HD
ENDBRANCH   8  14
TORSDOF 2
ENDMDL
MODEL 8
REMARK VINA RESULT:    -5.549      1.977      3.008
REMARK INTER + INTRA:          -5.874
REMARK INTER:                  -5.874
REMARK INTRA:                   0.000
REMARK UNBOUND:                 0.000
REMARK SMILES O=c1ccc2cc(O)c(O)cc2o1
REMARK SMILES IDX 4 1 3 2 2 3 1 4 13 5 12 6 11 7 9 8 7 9 6 10 5 11 8 12 10 14
REMARK H PARENT 8 13 10 15
REMARK Flexibility Score: inf
ROOT
ATOM      1  C   UNL     1      71.336  39.503  -5.259  1.00  0.00     0.019 A 
ATOM      2  C   UNL     1      71.500  38.797  -6.450  1.00  0.00     0.094 A 
ATOM      3  C   UNL     1      72.592  39.098  -7.271  1.00  0.00     0.336 A 
ATOM      4  O   UNL     1      72.758  38.472  -8.350  1.00  0.00    -0.246 OA
ATOM      5  O   UNL     1      73.459  40.044  -6.920  1.00  0.00    -0.423 OA
ATOM      6  C   UNL     1      73.339  40.742  -5.792  1.00  0.00     0.142 A 
ATOM      7  C   UNL     1      74.281  41.724  -5.475  1.00  0.00     0.098 A 
ATOM      8  C   UNL     1      74.160  42.463  -4.287  1.00  0.00     0.161 A 
ATOM      9  C   UNL     1      73.090  42.215  -3.414  1.00  0.00     0.158 A 
ATOM     10  C   UNL     1      72.142  41.230  -3.729  1.00  0.00     0.062 A 
ATOM     11  C   UNL     1      72.262  40.493  -4.914  1.00  0.00     0.022 A 
ENDROOT
BRANCH   9  12
ATOM     12  O   UNL     1      72.976  42.953  -2.237  1.00  0.00    -0.504 OA
ATOM     13  H   UNL     1      73.563  43.759  -2.058  1.00  0.00     0.293 HD
ENDBRANCH   9  12
BRANCH   8  14
ATOM     14  O   UNL     1      75.097  43.443  -3.969  1.00  0.00    -0.504 OA
ATOM     15  H   UNL     1      76.092  43.250  -3.984  1.00  0.00     0.293 HD
ENDBRANCH   8  14
TORSDOF 2
ENDMDL
MODEL 9
REMARK VINA RESULT:    -5.548      1.831      3.202
REMARK INTER + INTRA:          -5.872
REMARK INTER:                  -5.872
REMARK INTRA:                   0.000
REMARK UNBOUND:                 0.000
REMARK SMILES O=c1ccc2cc(O)c(O)cc2o1
REMARK SMILES IDX 4 1 3 2 2 3 1 4 13 5 12 6 11 7 9 8 7 9 6 10 5 11 8 12 10 14
REMARK H PARENT 8 13 10 15
REMARK Flexibility Score: inf
ROOT
ATOM      1  C   UNL     1      74.711  41.383  -7.186  1.00  0.00     0.019 A 
ATOM      2  C   UNL     1      74.189  40.243  -7.796  1.00  0.00     0.094 A 
ATOM      3  C   UNL     1      73.198  39.512  -7.133  1.00  0.00     0.336 A 
ATOM      4  O   UNL     1      72.713  38.481  -7.667  1.00  0.00    -0.246 OA
ATOM      5  O   UNL     1      72.762  39.900  -5.937  1.00  0.00    -0.423 OA
ATOM      6  C   UNL     1      73.233  40.981  -5.319  1.00  0.00     0.142 A 
ATOM      7  C   UNL     1      72.737  41.340  -4.062  1.00  0.00     0.098 A 
ATOM      8  C   UNL     1      73.231  42.478  -3.407  1.00  0.00     0.161 A 
ATOM      9  C   UNL     1      74.225  43.260  -4.012  1.00  0.00     0.158 A 
ATOM     10  C   UNL     1      74.726  42.904  -5.273  1.00  0.00     0.062 A 
ATOM     11  C   UNL     1      74.235  41.768  -5.929  1.00  0.00     0.022 A 
ENDROOT
BRANCH   9  12
ATOM     12  O   UNL     1      74.710  44.389  -3.355  1.00  0.00    -0.504 OA
ATOM     13  H   UNL     1      74.087  45.111  -3.011  1.00  0.00     0.293 HD
ENDBRANCH   9  12
BRANCH   8  14
ATOM     14  O   UNL     1      72.738  42.838  -2.154  1.00  0.00    -0.504 OA
ATOM     15  H   UNL     1      72.920  43.751  -1.754  1.00  0.00     0.293 HD
ENDBRANCH   8  14
TORSDOF 2
ENDMDL
