MODEL 1
REMARK VINA RESULT:    -3.702      0.000      0.000
REMARK INTER + INTRA:          -9.282
REMARK INTER:                  -8.029
REMARK INTRA:                  -1.253
REMARK UNBOUND:                -1.253
REMARK SMILES CCCCCCCCCCCCCCCCCCCCCC(=O)[O-]
REMARK SMILES IDX 12 1 11 2 10 3 9 4 8 5 7 6 6 7 5 8 4 9 3 10 2 11 1 12 13 13
REMARK SMILES IDX 14 14 15 15 16 16 17 17 18 18 19 19 20 20 21 21 22 22 23 23
REMARK SMILES IDX 24 24
REMARK H PARENT
REMARK Flexibility Score: inf
ROOT
ATOM      1  C   UNL     1      -2.872   4.554  -2.528  1.00  0.00     0.000 C 
ENDROOT
BRANCH   1   2
ATOM      2  C   UNL     1      -3.299   5.321  -1.267  1.00  0.00     0.000 C 
BRANCH   2   3
ATOM      3  C   UNL     1      -2.799   4.652   0.023  1.00  0.00     0.000 C 
BRANCH   3   4
ATOM      4  C   UNL     1      -2.857   3.115  -0.053  1.00  0.00    -0.000 C 
BRANCH   4   5
ATOM      5  C   UNL     1      -4.078   2.534   0.678  1.00  0.00    -0.000 C 
BRANCH   5   6
ATOM      6  C   UNL     1      -4.234   1.019   0.450  1.00  0.00    -0.000 C 
BRANCH   6   7
ATOM      7  C   UNL     1      -3.769   0.584  -0.956  1.00  0.00    -0.000 C 
BRANCH   7   8
ATOM      8  C   UNL     1      -3.414  -0.913  -1.054  1.00  0.00    -0.000 C 
BRANCH   8   9
ATOM      9  C   UNL     1      -4.189  -1.696  -2.133  1.00  0.00    -0.000 C 
BRANCH   9  10
ATOM     10  C   UNL     1      -3.922  -3.214  -2.149  1.00  0.00    -0.000 C 
BRANCH  10  11
ATOM     11  C   UNL     1      -3.359  -3.735  -0.818  1.00  0.00    -0.003 C 
ATOM     12  C   UNL     1      -4.478  -4.224   0.099  1.00  0.00     0.004 C 
ENDBRANCH  10  11
ENDBRANCH   9  10
ENDBRANCH   8   9
ENDBRANCH   7   8
ENDBRANCH   6   7
ENDBRANCH   5   6
ENDBRANCH   4   5
ENDBRANCH   3   4
ENDBRANCH   2   3
ENDBRANCH   1   2
BRANCH   1  13
ATOM     13  C   UNL     1      -3.721   4.966  -3.739  1.00  0.00     0.000 C 
BRANCH  13  14
ATOM     14  C   UNL     1      -5.076   5.576  -3.337  1.00  0.00     0.000 C 
BRANCH  14  15
ATOM     15  C   UNL     1      -5.708   6.513  -4.388  1.00  0.00     0.000 C 
BRANCH  15  16
ATOM     16  C   UNL     1      -6.176   5.821  -5.680  1.00  0.00     0.000 C 
BRANCH  16  17
ATOM     17  C   UNL     1      -7.344   6.555  -6.356  1.00  0.00     0.000 C 
BRANCH  17  18
ATOM     18  C   UNL     1      -7.553   6.060  -7.791  1.00  0.00     0.000 C 
BRANCH  18  19
ATOM     19  C   UNL     1      -8.546   6.961  -8.541  1.00  0.00     0.000 C 
BRANCH  19  20
ATOM     20  C   UNL     1      -8.205   8.454  -8.416  1.00  0.00     0.006 C 
BRANCH  20  21
ATOM     21  C   UNL     1      -7.304   8.953  -9.555  1.00  0.00     0.053 C 
BRANCH  21  22
ATOM     22  C   UNL     1      -5.912   9.186  -9.057  1.00  0.00     0.041 C 
ATOM     23  O   UNL     1      -4.923   8.923  -9.795  1.00  0.00    -0.550 OA
ATOM     24  O   UNL     1      -5.702   9.641  -7.760  1.00  0.00    -0.550 OA
ENDBRANCH  21  22
ENDBRANCH  20  21
ENDBRANCH  19  20
ENDBRANCH  18  19
ENDBRANCH  17  18
ENDBRANCH  16  17
ENDBRANCH  15  16
ENDBRANCH  14  15
ENDBRANCH  13  14
ENDBRANCH   1  13
TORSDOF 20
ENDMDL
MODEL 2
REMARK VINA RESULT:    -3.492      0.616      1.412
REMARK INTER + INTRA:          -8.828
REMARK INTER:                  -7.536
REMARK INTRA:                  -1.292
REMARK UNBOUND:                -1.253
REMARK SMILES CCCCCCCCCCCCCCCCCCCCCC(=O)[O-]
REMARK SMILES IDX 12 1 11 2 10 3 9 4 8 5 7 6 6 7 5 8 4 9 3 10 2 11 1 12 13 13
REMARK SMILES IDX 14 14 15 15 16 16 17 17 18 18 19 19 20 20 21 21 22 22 23 23
REMARK SMILES IDX 24 24
REMARK H PARENT
REMARK Flexibility Score: inf
ROOT
ATOM      1  C   UNL     1      -3.683   4.872  -3.873  1.00  0.00     0.000 C 
ENDROOT
BRANCH   1   2
ATOM      2  C   UNL     1      -2.952   4.314  -2.643  1.00  0.00     0.000 C 
BRANCH   2   3
ATOM      3  C   UNL     1      -2.910   5.319  -1.480  1.00  0.00     0.000 C 
BRANCH   3   4
ATOM      4  C   UNL     1      -3.101   4.640  -0.112  1.00  0.00    -0.000 C 
BRANCH   4   5
ATOM      5  C   UNL     1      -3.066   3.106  -0.204  1.00  0.00    -0.000 C 
BRANCH   5   6
ATOM      6  C   UNL     1      -3.991   2.433   0.826  1.00  0.00    -0.000 C 
BRANCH   6   7
ATOM      7  C   UNL     1      -4.354   0.985   0.435  1.00  0.00    -0.000 C 
BRANCH   7   8
ATOM      8  C   UNL     1      -3.604   0.474  -0.811  1.00  0.00    -0.000 C 
BRANCH   8   9
ATOM      9  C   UNL     1      -3.638  -1.054  -1.011  1.00  0.00    -0.000 C 
BRANCH   9  10
ATOM     10  C   UNL     1      -4.066  -1.515  -2.417  1.00  0.00    -0.000 C 
BRANCH  10  11
ATOM     11  C   UNL     1      -3.639  -2.957  -2.728  1.00  0.00    -0.003 C 
ATOM     12  C   UNL     1      -3.793  -3.853  -1.501  1.00  0.00     0.004 C 
ENDBRANCH  10  11
ENDBRANCH   9  10
ENDBRANCH   8   9
ENDBRANCH   7   8
ENDBRANCH   6   7
ENDBRANCH   5   6
ENDBRANCH   4   5
ENDBRANCH   3   4
ENDBRANCH   2   3
ENDBRANCH   1   2
BRANCH   1  13
ATOM     13  C   UNL     1      -4.955   5.628  -3.464  1.00  0.00     0.000 C 
BRANCH  13  14
ATOM     14  C   UNL     1      -5.580   6.418  -4.629  1.00  0.00     0.000 C 
BRANCH  14  15
ATOM     15  C   UNL     1      -6.716   5.691  -5.377  1.00  0.00     0.000 C 
BRANCH  15  16
ATOM     16  C   UNL     1      -6.848   6.049  -6.868  1.00  0.00     0.000 C 
BRANCH  16  17
ATOM     17  C   UNL     1      -8.117   6.859  -7.172  1.00  0.00     0.000 C 
BRANCH  17  18
ATOM     18  C   UNL     1      -8.523   6.721  -8.644  1.00  0.00     0.000 C 
BRANCH  18  19
ATOM     19  C   UNL     1      -9.177   8.014  -9.154  1.00  0.00     0.000 C 
BRANCH  19  20
ATOM     20  C   UNL     1      -8.357   9.268  -8.816  1.00  0.00     0.006 C 
BRANCH  20  21
ATOM     21  C   UNL     1      -7.209   9.512  -9.806  1.00  0.00     0.053 C 
BRANCH  21  22
ATOM     22  C   UNL     1      -5.886   9.324  -9.131  1.00  0.00     0.041 C 
ATOM     23  O   UNL     1      -4.874   8.984  -9.803  1.00  0.00    -0.550 OA
ATOM     24  O   UNL     1      -5.781   9.471  -7.753  1.00  0.00    -0.550 OA
ENDBRANCH  21  22
ENDBRANCH  20  21
ENDBRANCH  19  20
ENDBRANCH  18  19
ENDBRANCH  17  18
ENDBRANCH  16  17
ENDBRANCH  15  16
ENDBRANCH  14  15
ENDBRANCH  13  14
ENDBRANCH   1  13
TORSDOF 20
ENDMDL
MODEL 3
REMARK VINA RESULT:    -3.246      0.984      2.000
REMARK INTER + INTRA:          -8.295
REMARK INTER:                  -6.901
REMARK INTRA:                  -1.393
REMARK UNBOUND:                -1.253
REMARK SMILES CCCCCCCCCCCCCCCCCCCCCC(=O)[O-]
REMARK SMILES IDX 12 1 11 2 10 3 9 4 8 5 7 6 6 7 5 8 4 9 3 10 2 11 1 12 13 13
REMARK SMILES IDX 14 14 15 15 16 16 17 17 18 18 19 19 20 20 21 21 22 22 23 23
REMARK SMILES IDX 24 24
REMARK H PARENT
REMARK Flexibility Score: inf
ROOT
ATOM      1  C   UNL     1      -2.694   5.085  -0.375  1.00  0.00     0.000 C 
ENDROOT
BRANCH   1   2
ATOM      2  C   UNL     1      -2.621   3.695   0.273  1.00  0.00     0.000 C 
BRANCH   2   3
ATOM      3  C   UNL     1      -3.983   3.228   0.812  1.00  0.00     0.000 C 
BRANCH   3   4
ATOM      4  C   UNL     1      -4.243   1.736   0.535  1.00  0.00    -0.000 C 
BRANCH   4   5
ATOM      5  C   UNL     1      -3.187   1.115  -0.394  1.00  0.00    -0.000 C 
BRANCH   5   6
ATOM      6  C   UNL     1      -3.544  -0.322  -0.813  1.00  0.00    -0.000 C 
BRANCH   6   7
ATOM      7  C   UNL     1      -4.023  -0.408  -2.278  1.00  0.00    -0.000 C 
BRANCH   7   8
ATOM      8  C   UNL     1      -4.504  -1.813  -2.690  1.00  0.00    -0.000 C 
BRANCH   8   9
ATOM      9  C   UNL     1      -3.426  -2.913  -2.634  1.00  0.00    -0.000 C 
BRANCH   9  10
ATOM     10  C   UNL     1      -3.775  -4.120  -1.742  1.00  0.00    -0.000 C 
BRANCH  10  11
ATOM     11  C   UNL     1      -3.645  -3.810  -0.243  1.00  0.00    -0.003 C 
ATOM     12  C   UNL     1      -4.710  -4.548   0.566  1.00  0.00     0.004 C 
ENDBRANCH  10  11
ENDBRANCH   9  10
ENDBRANCH   8   9
ENDBRANCH   7   8
ENDBRANCH   6   7
ENDBRANCH   5   6
ENDBRANCH   4   5
ENDBRANCH   3   4
ENDBRANCH   2   3
ENDBRANCH   1   2
BRANCH   1  13
ATOM     13  C   UNL     1      -3.697   5.102  -1.537  1.00  0.00     0.000 C 
BRANCH  13  14
ATOM     14  C   UNL     1      -3.045   4.777  -2.893  1.00  0.00     0.000 C 
BRANCH  14  15
ATOM     15  C   UNL     1      -3.979   4.906  -4.115  1.00  0.00     0.000 C 
BRANCH  15  16
ATOM     16  C   UNL     1      -5.298   5.654  -3.850  1.00  0.00     0.000 C 
BRANCH  16  17
ATOM     17  C   UNL     1      -5.741   6.513  -5.043  1.00  0.00     0.000 C 
BRANCH  17  18
ATOM     18  C   UNL     1      -6.973   5.913  -5.731  1.00  0.00     0.000 C 
BRANCH  18  19
ATOM     19  C   UNL     1      -6.797   5.906  -7.257  1.00  0.00     0.000 C 
BRANCH  19  20
ATOM     20  C   UNL     1      -7.915   6.667  -7.987  1.00  0.00     0.006 C 
BRANCH  20  21
ATOM     21  C   UNL     1      -7.412   7.942  -8.678  1.00  0.00     0.053 C 
BRANCH  21  22
ATOM     22  C   UNL     1      -7.228   9.041  -7.679  1.00  0.00     0.041 C 
ATOM     23  O   UNL     1      -6.076   9.497  -7.442  1.00  0.00    -0.550 OA
ATOM     24  O   UNL     1      -8.320   9.527  -6.969  1.00  0.00    -0.550 OA
ENDBRANCH  21  22
ENDBRANCH  20  21
ENDBRANCH  19  20
ENDBRANCH  18  19
ENDBRANCH  17  18
ENDBRANCH  16  17
ENDBRANCH  15  16
ENDBRANCH  14  15
ENDBRANCH  13  14
ENDBRANCH   1  13
TORSDOF 20
ENDMDL
MODEL 4
REMARK VINA RESULT:    -3.134      4.292     10.741
REMARK INTER + INTRA:          -8.051
REMARK INTER:                  -6.622
REMARK INTRA:                  -1.429
REMARK UNBOUND:                -1.253
REMARK SMILES CCCCCCCCCCCCCCCCCCCCCC(=O)[O-]
REMARK SMILES IDX 12 1 11 2 10 3 9 4 8 5 7 6 6 7 5 8 4 9 3 10 2 11 1 12 13 13
REMARK SMILES IDX 14 14 15 15 16 16 17 17 18 18 19 19 20 20 21 21 22 22 23 23
REMARK SMILES IDX 24 24
REMARK H PARENT
REMARK Flexibility Score: inf
ROOT
ATOM      1  C   UNL     1      -2.920   4.756  -2.474  1.00  0.00     0.000 C 
ENDROOT
BRANCH   1   2
ATOM      2  C   UNL     1      -3.885   4.838  -3.666  1.00  0.00     0.000 C 
BRANCH   2   3
ATOM      3  C   UNL     1      -5.144   5.660  -3.346  1.00  0.00     0.000 C 
BRANCH   3   4
ATOM      4  C   UNL     1      -5.618   6.499  -4.546  1.00  0.00    -0.000 C 
BRANCH   4   5
ATOM      5  C   UNL     1      -6.355   5.658  -5.601  1.00  0.00    -0.000 C 
BRANCH   5   6
ATOM      6  C   UNL     1      -7.504   6.430  -6.273  1.00  0.00    -0.000 C 
BRANCH   6   7
ATOM      7  C   UNL     1      -7.482   6.299  -7.810  1.00  0.00    -0.000 C 
BRANCH   7   8
ATOM      8  C   UNL     1      -7.742   7.627  -8.549  1.00  0.00    -0.000 C 
BRANCH   8   9
ATOM      9  C   UNL     1      -7.549   8.895  -7.695  1.00  0.00    -0.000 C 
BRANCH   9  10
ATOM     10  C   UNL     1      -6.242   9.666  -7.964  1.00  0.00    -0.000 C 
BRANCH  10  11
ATOM     11  C   UNL     1      -5.933   9.811  -9.461  1.00  0.00    -0.003 C 
ATOM     12  C   UNL     1      -4.428   9.820  -9.715  1.00  0.00     0.004 C 
ENDBRANCH  10  11
ENDBRANCH   9  10
ENDBRANCH   8   9
ENDBRANCH   7   8
ENDBRANCH   6   7
ENDBRANCH   5   6
ENDBRANCH   4   5
ENDBRANCH   3   4
ENDBRANCH   2   3
ENDBRANCH   1   2
BRANCH   1  13
ATOM     13  C   UNL     1      -3.364   5.687  -1.338  1.00  0.00     0.000 C 
BRANCH  13  14
ATOM     14  C   UNL     1      -3.016   5.135   0.056  1.00  0.00     0.000 C 
BRANCH  14  15
ATOM     15  C   UNL     1      -2.872   3.601   0.134  1.00  0.00     0.000 C 
BRANCH  15  16
ATOM     16  C   UNL     1      -4.058   2.868   0.785  1.00  0.00     0.000 C 
BRANCH  16  17
ATOM     17  C   UNL     1      -4.110   1.378   0.413  1.00  0.00     0.000 C 
BRANCH  17  18
ATOM     18  C   UNL     1      -3.115   1.053  -0.707  1.00  0.00     0.000 C 
BRANCH  18  19
ATOM     19  C   UNL     1      -2.901  -0.464  -0.823  1.00  0.00     0.000 C 
BRANCH  19  20
ATOM     20  C   UNL     1      -4.190  -1.221  -1.178  1.00  0.00     0.006 C 
BRANCH  20  21
ATOM     21  C   UNL     1      -4.169  -1.792  -2.602  1.00  0.00     0.053 C 
BRANCH  21  22
ATOM     22  C   UNL     1      -3.782  -3.238  -2.581  1.00  0.00     0.041 C 
ATOM     23  O   UNL     1      -3.510  -3.837  -3.658  1.00  0.00    -0.550 OA
ATOM     24  O   UNL     1      -3.773  -3.939  -1.381  1.00  0.00    -0.550 OA
ENDBRANCH  21  22
ENDBRANCH  20  21
ENDBRANCH  19  20
ENDBRANCH  18  19
ENDBRANCH  17  18
ENDBRANCH  16  17
ENDBRANCH  15  16
ENDBRANCH  14  15
ENDBRANCH  13  14
ENDBRANCH   1  13
TORSDOF 20
ENDMDL
MODEL 5
REMARK VINA RESULT:    -2.759      4.887     11.259
REMARK INTER + INTRA:          -7.239
REMARK INTER:                  -6.037
REMARK INTRA:                  -1.202
REMARK UNBOUND:                -1.253
REMARK SMILES CCCCCCCCCCCCCCCCCCCCCC(=O)[O-]
REMARK SMILES IDX 12 1 11 2 10 3 9 4 8 5 7 6 6 7 5 8 4 9 3 10 2 11 1 12 13 13
REMARK SMILES IDX 14 14 15 15 16 16 17 17 18 18 19 19 20 20 21 21 22 22 23 23
REMARK SMILES IDX 24 24
REMARK H PARENT
REMARK Flexibility Score: inf
ROOT
ATOM      1  C   UNL     1      -2.626   4.607  -2.470  1.00  0.00     0.000 C 
ENDROOT
BRANCH   1   2
ATOM      2  C   UNL     1      -3.681   4.611  -3.586  1.00  0.00     0.000 C 
BRANCH   2   3
ATOM      3  C   UNL     1      -4.876   5.521  -3.260  1.00  0.00     0.000 C 
BRANCH   3   4
ATOM      4  C   UNL     1      -5.347   6.331  -4.481  1.00  0.00    -0.000 C 
BRANCH   4   5
ATOM      5  C   UNL     1      -6.375   5.570  -5.334  1.00  0.00    -0.000 C 
BRANCH   5   6
ATOM      6  C   UNL     1      -7.424   6.504  -5.964  1.00  0.00    -0.000 C 
BRANCH   6   7
ATOM      7  C   UNL     1      -7.517   6.336  -7.496  1.00  0.00    -0.000 C 
BRANCH   7   8
ATOM      8  C   UNL     1      -6.912   7.514  -8.285  1.00  0.00    -0.000 C 
BRANCH   8   9
ATOM      9  C   UNL     1      -6.916   8.865  -7.542  1.00  0.00    -0.000 C 
BRANCH   9  10
ATOM     10  C   UNL     1      -5.860   9.876  -8.030  1.00  0.00    -0.000 C 
BRANCH  10  11
ATOM     11  C   UNL     1      -5.635   9.818  -9.548  1.00  0.00    -0.003 C 
ATOM     12  C   UNL     1      -4.198   9.417  -9.877  1.00  0.00     0.004 C 
ENDBRANCH  10  11
ENDBRANCH   9  10
ENDBRANCH   8   9
ENDBRANCH   7   8
ENDBRANCH   6   7
ENDBRANCH   5   6
ENDBRANCH   4   5
ENDBRANCH   3   4
ENDBRANCH   2   3
ENDBRANCH   1   2
BRANCH   1  13
ATOM     13  C   UNL     1      -3.205   5.159  -1.161  1.00  0.00     0.000 C 
BRANCH  13  14
ATOM     14  C   UNL     1      -3.387   4.073  -0.084  1.00  0.00     0.000 C 
BRANCH  14  15
ATOM     15  C   UNL     1      -2.638   2.751  -0.357  1.00  0.00     0.000 C 
BRANCH  15  16
ATOM     16  C   UNL     1      -3.445   1.474  -0.064  1.00  0.00     0.000 C 
BRANCH  16  17
ATOM     17  C   UNL     1      -3.012   0.287  -0.938  1.00  0.00     0.000 C 
BRANCH  17  18
ATOM     18  C   UNL     1      -4.089  -0.803  -0.963  1.00  0.00     0.000 C 
BRANCH  18  19
ATOM     19  C   UNL     1      -4.059  -1.570  -2.294  1.00  0.00     0.000 C 
BRANCH  19  20
ATOM     20  C   UNL     1      -3.714  -3.057  -2.115  1.00  0.00     0.006 C 
BRANCH  20  21
ATOM     21  C   UNL     1      -3.400  -3.422  -0.658  1.00  0.00     0.053 C 
BRANCH  21  22
ATOM     22  C   UNL     1      -4.417  -4.386  -0.129  1.00  0.00     0.041 C 
ATOM     23  O   UNL     1      -4.864  -4.256   1.044  1.00  0.00    -0.550 OA
ATOM     24  O   UNL     1      -4.832  -5.458  -0.910  1.00  0.00    -0.550 OA
ENDBRANCH  21  22
ENDBRANCH  20  21
ENDBRANCH  19  20
ENDBRANCH  18  19
ENDBRANCH  17  18
ENDBRANCH  16  17
ENDBRANCH  15  16
ENDBRANCH  14  15
ENDBRANCH  13  14
ENDBRANCH   1  13
TORSDOF 20
ENDMDL
MODEL 6
REMARK VINA RESULT:    -2.635      1.062      2.791
REMARK INTER + INTRA:          -6.969
REMARK INTER:                  -6.186
REMARK INTRA:                  -0.783
REMARK UNBOUND:                -1.253
REMARK SMILES CCCCCCCCCCCCCCCCCCCCCC(=O)[O-]
REMARK SMILES IDX 12 1 11 2 10 3 9 4 8 5 7 6 6 7 5 8 4 9 3 10 2 11 1 12 13 13
REMARK SMILES IDX 14 14 15 15 16 16 17 17 18 18 19 19 20 20 21 21 22 22 23 23
REMARK SMILES IDX 24 24
REMARK H PARENT
REMARK Flexibility Score: inf
ROOT
ATOM      1  C   UNL     1      -2.720   3.890   0.505  1.00  0.00     0.000 C 
ENDROOT
BRANCH   1   2
ATOM      2  C   UNL     1      -4.125   3.383   0.861  1.00  0.00     0.000 C 
BRANCH   2   3
ATOM      3  C   UNL     1      -4.197   1.848   0.915  1.00  0.00     0.000 C 
BRANCH   3   4
ATOM      4  C   UNL     1      -3.121   1.179   0.042  1.00  0.00    -0.000 C 
BRANCH   4   5
ATOM      5  C   UNL     1      -3.691   0.620  -1.272  1.00  0.00    -0.000 C 
BRANCH   5   6
ATOM      6  C   UNL     1      -3.875  -0.908  -1.231  1.00  0.00    -0.000 C 
BRANCH   6   7
ATOM      7  C   UNL     1      -3.425  -1.591  -2.540  1.00  0.00    -0.000 C 
BRANCH   7   8
ATOM      8  C   UNL     1      -4.155  -2.918  -2.828  1.00  0.00    -0.000 C 
BRANCH   8   9
ATOM      9  C   UNL     1      -3.735  -4.099  -1.933  1.00  0.00    -0.000 C 
BRANCH   9  10
ATOM     10  C   UNL     1      -3.711  -3.792  -0.423  1.00  0.00    -0.000 C 
BRANCH  10  11
ATOM     11  C   UNL     1      -4.685  -4.668   0.379  1.00  0.00    -0.003 C 
ATOM     12  C   UNL     1      -5.246  -3.911   1.581  1.00  0.00     0.004 C 
ENDBRANCH  10  11
ENDBRANCH   9  10
ENDBRANCH   8   9
ENDBRANCH   7   8
ENDBRANCH   6   7
ENDBRANCH   5   6
ENDBRANCH   4   5
ENDBRANCH   3   4
ENDBRANCH   2   3
ENDBRANCH   1   2
BRANCH   1  13
ATOM     13  C   UNL     1      -2.786   5.251  -0.202  1.00  0.00     0.000 C 
BRANCH  13  14
ATOM     14  C   UNL     1      -3.722   5.242  -1.425  1.00  0.00     0.000 C 
BRANCH  14  15
ATOM     15  C   UNL     1      -3.119   4.625  -2.704  1.00  0.00     0.000 C 
BRANCH  15  16
ATOM     16  C   UNL     1      -3.943   4.848  -3.985  1.00  0.00     0.000 C 
BRANCH  16  17
ATOM     17  C   UNL     1      -5.234   5.640  -3.729  1.00  0.00     0.000 C 
BRANCH  17  18
ATOM     18  C   UNL     1      -5.630   6.465  -4.958  1.00  0.00     0.000 C 
BRANCH  18  19
ATOM     19  C   UNL     1      -6.927   5.927  -5.582  1.00  0.00     0.000 C 
BRANCH  19  20
ATOM     20  C   UNL     1      -7.028   6.216  -7.087  1.00  0.00     0.006 C 
BRANCH  20  21
ATOM     21  C   UNL     1      -7.103   7.717  -7.400  1.00  0.00     0.053 C 
BRANCH  21  22
ATOM     22  C   UNL     1      -6.857   7.962  -8.856  1.00  0.00     0.041 C 
ATOM     23  O   UNL     1      -7.814   7.914  -9.677  1.00  0.00    -0.550 OA
ATOM     24  O   UNL     1      -5.566   8.190  -9.316  1.00  0.00    -0.550 OA
ENDBRANCH  21  22
ENDBRANCH  20  21
ENDBRANCH  19  20
ENDBRANCH  18  19
ENDBRANCH  17  18
ENDBRANCH  16  17
ENDBRANCH  15  16
ENDBRANCH  14  15
ENDBRANCH  13  14
ENDBRANCH   1  13
TORSDOF 20
ENDMDL
MODEL 7
REMARK VINA RESULT:    -2.244      4.091     11.283
REMARK INTER + INTRA:          -6.121
REMARK INTER:                  -4.928
REMARK INTRA:                  -1.194
REMARK UNBOUND:                -1.253
REMARK SMILES CCCCCCCCCCCCCCCCCCCCCC(=O)[O-]
REMARK SMILES IDX 12 1 11 2 10 3 9 4 8 5 7 6 6 7 5 8 4 9 3 10 2 11 1 12 13 13
REMARK SMILES IDX 14 14 15 15 16 16 17 17 18 18 19 19 20 20 21 21 22 22 23 23
REMARK SMILES IDX 24 24
REMARK H PARENT
REMARK Flexibility Score: inf
ROOT
ATOM      1  C   UNL     1      -5.377   6.022  -3.826  1.00  0.00     0.000 C 
ENDROOT
BRANCH   1   2
ATOM      2  C   UNL     1      -5.879   5.613  -5.219  1.00  0.00     0.000 C 
BRANCH   2   3
ATOM      3  C   UNL     1      -7.011   6.522  -5.724  1.00  0.00     0.000 C 
BRANCH   3   4
ATOM      4  C   UNL     1      -6.809   6.952  -7.188  1.00  0.00    -0.000 C 
BRANCH   4   5
ATOM      5  C   UNL     1      -7.811   6.284  -8.144  1.00  0.00    -0.000 C 
BRANCH   5   6
ATOM      6  C   UNL     1      -9.025   7.181  -8.445  1.00  0.00    -0.000 C 
BRANCH   6   7
ATOM      7  C   UNL     1      -8.906   7.895  -9.809  1.00  0.00    -0.000 C 
BRANCH   7   8
ATOM      8  C   UNL     1      -9.070   9.425  -9.722  1.00  0.00    -0.000 C 
BRANCH   8   9
ATOM      9  C   UNL     1      -8.651  10.050  -8.377  1.00  0.00    -0.000 C 
BRANCH   9  10
ATOM     10  C   UNL     1      -7.130  10.124  -8.142  1.00  0.00    -0.000 C 
BRANCH  10  11
ATOM     11  C   UNL     1      -6.324  10.125  -9.449  1.00  0.00    -0.003 C 
ATOM     12  C   UNL     1      -5.165   9.133  -9.382  1.00  0.00     0.004 C 
ENDBRANCH  10  11
ENDBRANCH   9  10
ENDBRANCH   8   9
ENDBRANCH   7   8
ENDBRANCH   6   7
ENDBRANCH   5   6
ENDBRANCH   4   5
ENDBRANCH   3   4
ENDBRANCH   2   3
ENDBRANCH   1   2
BRANCH   1  13
ATOM     13  C   UNL     1      -4.107   5.247  -3.447  1.00  0.00     0.000 C 
BRANCH  13  14
ATOM     14  C   UNL     1      -3.737   5.401  -1.961  1.00  0.00     0.000 C 
BRANCH  14  15
ATOM     15  C   UNL     1      -2.784   4.319  -1.410  1.00  0.00     0.000 C 
BRANCH  15  16
ATOM     16  C   UNL     1      -3.123   3.809   0.002  1.00  0.00     0.000 C 
BRANCH  16  17
ATOM     17  C   UNL     1      -3.711   2.390  -0.007  1.00  0.00     0.000 C 
BRANCH  17  18
ATOM     18  C   UNL     1      -2.656   1.352   0.393  1.00  0.00     0.000 C 
BRANCH  18  19
ATOM     19  C   UNL     1      -2.437   0.333  -0.735  1.00  0.00     0.000 C 
BRANCH  19  20
ATOM     20  C   UNL     1      -3.754  -0.191  -1.327  1.00  0.00     0.006 C 
BRANCH  20  21
ATOM     21  C   UNL     1      -3.975  -1.685  -1.051  1.00  0.00     0.053 C 
BRANCH  21  22
ATOM     22  C   UNL     1      -3.685  -2.493  -2.278  1.00  0.00     0.041 C 
ATOM     23  O   UNL     1      -3.197  -1.939  -3.301  1.00  0.00    -0.550 OA
ATOM     24  O   UNL     1      -4.001  -3.846  -2.311  1.00  0.00    -0.550 OA
ENDBRANCH  21  22
ENDBRANCH  20  21
ENDBRANCH  19  20
ENDBRANCH  18  19
ENDBRANCH  17  18
ENDBRANCH  16  17
ENDBRANCH  15  16
ENDBRANCH  14  15
ENDBRANCH  13  14
ENDBRANCH   1  13
TORSDOF 20
ENDMDL
MODEL 8
REMARK VINA RESULT:    -2.104      4.887     10.977
REMARK INTER + INTRA:          -5.817
REMARK INTER:                  -5.312
REMARK INTRA:                  -0.505
REMARK UNBOUND:                -1.253
REMARK SMILES CCCCCCCCCCCCCCCCCCCCCC(=O)[O-]
REMARK SMILES IDX 12 1 11 2 10 3 9 4 8 5 7 6 6 7 5 8 4 9 3 10 2 11 1 12 13 13
REMARK SMILES IDX 14 14 15 15 16 16 17 17 18 18 19 19 20 20 21 21 22 22 23 23
REMARK SMILES IDX 24 24
REMARK H PARENT
REMARK Flexibility Score: inf
ROOT
ATOM      1  C   UNL     1      -2.603   3.277  -0.564  1.00  0.00     0.000 C 
ENDROOT
BRANCH   1   2
ATOM      2  C   UNL     1      -2.901   3.804  -1.975  1.00  0.00     0.000 C 
BRANCH   2   3
ATOM      3  C   UNL     1      -3.200   5.313  -1.986  1.00  0.00     0.000 C 
BRANCH   3   4
ATOM      4  C   UNL     1      -4.621   5.625  -2.490  1.00  0.00    -0.000 C 
BRANCH   4   5
ATOM      5  C   UNL     1      -4.747   5.500  -4.016  1.00  0.00    -0.000 C 
BRANCH   5   6
ATOM      6  C   UNL     1      -6.032   6.151  -4.556  1.00  0.00    -0.000 C 
BRANCH   6   7
ATOM      7  C   UNL     1      -6.206   5.942  -6.075  1.00  0.00    -0.000 C 
BRANCH   7   8
ATOM      8  C   UNL     1      -7.630   6.243  -6.583  1.00  0.00    -0.000 C 
BRANCH   8   9
ATOM      9  C   UNL     1      -7.731   6.564  -8.087  1.00  0.00    -0.000 C 
BRANCH   9  10
ATOM     10  C   UNL     1      -8.174   8.003  -8.415  1.00  0.00    -0.000 C 
BRANCH  10  11
ATOM     11  C   UNL     1      -7.102   9.049  -8.076  1.00  0.00    -0.003 C 
ATOM     12  C   UNL     1      -5.899   8.927  -9.009  1.00  0.00     0.004 C 
ENDBRANCH  10  11
ENDBRANCH   9  10
ENDBRANCH   8   9
ENDBRANCH   7   8
ENDBRANCH   6   7
ENDBRANCH   5   6
ENDBRANCH   4   5
ENDBRANCH   3   4
ENDBRANCH   2   3
ENDBRANCH   1   2
BRANCH   1  13
ATOM     13  C   UNL     1      -3.716   3.665   0.418  1.00  0.00     0.000 C 
BRANCH  13  14
ATOM     14  C   UNL     1      -4.315   2.451   1.152  1.00  0.00     0.000 C 
BRANCH  14  15
ATOM     15  C   UNL     1      -4.384   1.153   0.319  1.00  0.00     0.000 C 
BRANCH  15  16
ATOM     16  C   UNL     1      -3.020   0.549  -0.059  1.00  0.00     0.000 C 
BRANCH  16  17
ATOM     17  C   UNL     1      -3.046  -0.168  -1.417  1.00  0.00     0.000 C 
BRANCH  17  18
ATOM     18  C   UNL     1      -4.157  -1.223  -1.465  1.00  0.00     0.000 C 
BRANCH  18  19
ATOM     19  C   UNL     1      -3.835  -2.308  -2.503  1.00  0.00     0.000 C 
BRANCH  19  20
ATOM     20  C   UNL     1      -3.907  -3.728  -1.921  1.00  0.00     0.006 C 
BRANCH  20  21
ATOM     21  C   UNL     1      -3.538  -3.778  -0.432  1.00  0.00     0.053 C 
BRANCH  21  22
ATOM     22  C   UNL     1      -4.600  -4.490   0.347  1.00  0.00     0.041 C 
ATOM     23  O   UNL     1      -4.968  -5.647   0.006  1.00  0.00    -0.550 OA
ATOM     24  O   UNL     1      -5.221  -3.856   1.417  1.00  0.00    -0.550 OA
ENDBRANCH  21  22
ENDBRANCH  20  21
ENDBRANCH  19  20
ENDBRANCH  18  19
ENDBRANCH  17  18
ENDBRANCH  16  17
ENDBRANCH  15  16
ENDBRANCH  14  15
ENDBRANCH  13  14
ENDBRANCH   1  13
TORSDOF 20
ENDMDL
MODEL 9
REMARK VINA RESULT:    -1.170      4.923     10.559
REMARK INTER + INTRA:          -3.790
REMARK INTER:                  -2.449
REMARK INTRA:                  -1.342
REMARK UNBOUND:                -1.253
REMARK SMILES CCCCCCCCCCCCCCCCCCCCCC(=O)[O-]
REMARK SMILES IDX 12 1 11 2 10 3 9 4 8 5 7 6 6 7 5 8 4 9 3 10 2 11 1 12 13 13
REMARK SMILES IDX 14 14 15 15 16 16 17 17 18 18 19 19 20 20 21 21 22 22 23 23
REMARK SMILES IDX 24 24
REMARK H PARENT
REMARK Flexibility Score: inf
ROOT
ATOM      1  C   UNL     1      -3.754   2.710   1.030  1.00  0.00     0.000 C 
ENDROOT
BRANCH   1   2
ATOM      2  C   UNL     1      -2.768   3.268  -0.007  1.00  0.00     0.000 C 
BRANCH   2   3
ATOM      3  C   UNL     1      -2.652   4.799   0.059  1.00  0.00     0.000 C 
BRANCH   3   4
ATOM      4  C   UNL     1      -3.225   5.485  -1.194  1.00  0.00    -0.000 C 
BRANCH   4   5
ATOM      5  C   UNL     1      -3.664   4.479  -2.270  1.00  0.00    -0.000 C 
BRANCH   5   6
ATOM      6  C   UNL     1      -3.820   5.129  -3.656  1.00  0.00    -0.000 C 
BRANCH   6   7
ATOM      7  C   UNL     1      -5.202   5.790  -3.844  1.00  0.00    -0.000 C 
BRANCH   7   8
ATOM      8  C   UNL     1      -5.548   6.093  -5.315  1.00  0.00    -0.000 C 
BRANCH   8   9
ATOM      9  C   UNL     1      -7.053   6.071  -5.648  1.00  0.00    -0.000 C 
BRANCH   9  10
ATOM     10  C   UNL     1      -7.384   5.909  -7.145  1.00  0.00    -0.000 C 
BRANCH  10  11
ATOM     11  C   UNL     1      -6.909   7.099  -7.992  1.00  0.00    -0.003 C 
ATOM     12  C   UNL     1      -7.218   8.425  -7.302  1.00  0.00     0.004 C 
ENDBRANCH  10  11
ENDBRANCH   9  10
ENDBRANCH   8   9
ENDBRANCH   7   8
ENDBRANCH   6   7
ENDBRANCH   5   6
ENDBRANCH   4   5
ENDBRANCH   3   4
ENDBRANCH   2   3
ENDBRANCH   1   2
BRANCH   1  13
ATOM     13  C   UNL     1      -4.667   1.645   0.408  1.00  0.00     0.000 C 
BRANCH  13  14
ATOM     14  C   UNL     1      -3.997   0.261   0.323  1.00  0.00     0.000 C 
BRANCH  14  15
ATOM     15  C   UNL     1      -3.171   0.013  -0.957  1.00  0.00     0.000 C 
BRANCH  15  16
ATOM     16  C   UNL     1      -3.938   0.217  -2.276  1.00  0.00     0.000 C 
BRANCH  16  17
ATOM     17  C   UNL     1      -4.365  -1.109  -2.923  1.00  0.00     0.000 C 
BRANCH  17  18
ATOM     18  C   UNL     1      -3.333  -2.212  -2.660  1.00  0.00     0.000 C 
BRANCH  18  19
ATOM     19  C   UNL     1      -3.917  -3.595  -2.982  1.00  0.00     0.000 C 
BRANCH  19  20
ATOM     20  C   UNL     1      -3.903  -4.543  -1.773  1.00  0.00     0.006 C 
BRANCH  20  21
ATOM     21  C   UNL     1      -3.834  -3.796  -0.434  1.00  0.00     0.053 C 
BRANCH  21  22
ATOM     22  C   UNL     1      -4.760  -4.419   0.562  1.00  0.00     0.041 C 
ATOM     23  O   UNL     1      -5.078  -5.636   0.458  1.00  0.00    -0.550 OA
ATOM     24  O   UNL     1      -5.316  -3.646   1.575  1.00  0.00    -0.550 OA
ENDBRANCH  21  22
ENDBRANCH  20  21
ENDBRANCH  19  20
ENDBRANCH  18  19
ENDBRANCH  17  18
ENDBRANCH  16  17
ENDBRANCH  15  16
ENDBRANCH  14  15
ENDBRANCH  13  14
ENDBRANCH   1  13
TORSDOF 20
ENDMDL
