MODEL 1
REMARK VINA RESULT:    -4.551      0.000      0.000
REMARK INTER + INTRA:          -5.541
REMARK INTER:                  -5.349
REMARK INTRA:                  -0.192
REMARK UNBOUND:                -0.192
REMARK SMILES O=c1c(O)c(-c2ccc(O)cc2)oc2cc(O)cc(O)c12
REMARK SMILES IDX 5 1 3 2 2 3 1 4 21 5 19 6 18 7 16 8 15 9 14 10 13 11 6 12
REMARK SMILES IDX 7 13 8 14 9 15 12 16 11 17 10 18 4 20 20 22 17 24
REMARK H PARENT 10 19 4 21 20 23 17 25
REMARK Flexibility Score: inf
ROOT
ATOM      1  C   UNL     1     -14.256 -41.275   8.503  1.00  0.00     0.180 A 
ATOM      2  C   UNL     1     -13.681 -40.779   9.686  1.00  0.00     0.208 A 
ATOM      3  C   UNL     1     -13.334 -39.420   9.756  1.00  0.00     0.238 A 
ATOM      4  O   UNL     1     -12.771 -38.993  10.798  1.00  0.00    -0.285 OA
ATOM      5  C   UNL     1     -13.581 -38.571   8.650  1.00  0.00     0.111 A 
ATOM      6  C   UNL     1     -13.308 -37.171   8.627  1.00  0.00     0.134 A 
ATOM      7  C   UNL     1     -13.471 -36.456   7.434  1.00  0.00     0.093 A 
ATOM      8  C   UNL     1     -13.959 -37.075   6.284  1.00  0.00     0.123 A 
ATOM      9  C   UNL     1     -14.287 -38.431   6.312  1.00  0.00     0.094 A 
ATOM     10  C   UNL     1     -14.100 -39.179   7.477  1.00  0.00     0.146 A 
ATOM     11  O   UNL     1     -14.415 -40.468   7.460  1.00  0.00    -0.452 OA
ENDROOT
BRANCH   1  12
ATOM     12  C   UNL     1     -14.671 -42.690   8.361  1.00  0.00     0.021 A 
ATOM     13  C   UNL     1     -16.037 -43.016   8.385  1.00  0.00     0.016 A 
ATOM     14  C   UNL     1     -16.449 -44.347   8.275  1.00  0.00     0.047 A 
ATOM     15  C   UNL     1     -15.500 -45.371   8.155  1.00  0.00     0.115 A 
ATOM     16  C   UNL     1     -13.723 -43.724   8.259  1.00  0.00     0.016 A 
ATOM     17  C   UNL     1     -14.138 -45.056   8.151  1.00  0.00     0.047 A 
BRANCH  15  18
ATOM     18  O   UNL     1     -15.899 -46.701   8.045  1.00  0.00    -0.508 OA
ATOM     19  H   UNL     1     -16.309 -47.062   7.192  1.00  0.00     0.293 HD
ENDBRANCH  15  18
ENDBRANCH   1  12
BRANCH   2  20
ATOM     20  O   UNL     1     -13.426 -41.638  10.758  1.00  0.00    -0.502 OA
ATOM     21  H   UNL     1     -14.142 -42.225  11.168  1.00  0.00     0.293 HD
ENDBRANCH   2  20
BRANCH   6  22
ATOM     22  O   UNL     1     -12.904 -36.436   9.744  1.00  0.00    -0.507 OA
ATOM     23  H   UNL     1     -11.953 -36.158   9.936  1.00  0.00     0.293 HD
ENDBRANCH   6  22
BRANCH   8  24
ATOM     24  O   UNL     1     -14.124 -36.329   5.119  1.00  0.00    -0.508 OA
ATOM     25  H   UNL     1     -13.536 -36.476   4.307  1.00  0.00     0.293 HD
ENDBRANCH   8  24
TORSDOF 5
ENDMDL
MODEL 2
REMARK VINA RESULT:    -4.549      0.069      1.059
REMARK INTER + INTRA:          -5.539
REMARK INTER:                  -5.343
REMARK INTRA:                  -0.196
REMARK UNBOUND:                -0.192
REMARK SMILES O=c1c(O)c(-c2ccc(O)cc2)oc2cc(O)cc(O)c12
REMARK SMILES IDX 5 1 3 2 2 3 1 4 21 5 19 6 18 7 16 8 15 9 14 10 13 11 6 12
REMARK SMILES IDX 7 13 8 14 9 15 12 16 11 17 10 18 4 20 20 22 17 24
REMARK H PARENT 10 19 4 21 20 23 17 25
REMARK Flexibility Score: inf
ROOT
ATOM      1  C   UNL     1     -14.270 -41.263   8.526  1.00  0.00     0.180 A 
ATOM      2  C   UNL     1     -13.651 -40.752   9.680  1.00  0.00     0.208 A 
ATOM      3  C   UNL     1     -13.289 -39.396   9.715  1.00  0.00     0.238 A 
ATOM      4  O   UNL     1     -12.687 -38.957  10.730  1.00  0.00    -0.285 OA
ATOM      5  C   UNL     1     -13.566 -38.564   8.603  1.00  0.00     0.111 A 
ATOM      6  C   UNL     1     -13.281 -37.167   8.547  1.00  0.00     0.134 A 
ATOM      7  C   UNL     1     -13.477 -36.470   7.347  1.00  0.00     0.093 A 
ATOM      8  C   UNL     1     -14.010 -37.104   6.225  1.00  0.00     0.123 A 
ATOM      9  C   UNL     1     -14.348 -38.456   6.288  1.00  0.00     0.094 A 
ATOM     10  C   UNL     1     -14.129 -39.186   7.459  1.00  0.00     0.146 A 
ATOM     11  O   UNL     1     -14.456 -40.472   7.475  1.00  0.00    -0.452 OA
ENDROOT
BRANCH   1  12
ATOM     12  C   UNL     1     -14.702 -42.675   8.422  1.00  0.00     0.021 A 
ATOM     13  C   UNL     1     -13.738 -43.685   8.268  1.00  0.00     0.016 A 
ATOM     14  C   UNL     1     -14.125 -45.022   8.145  1.00  0.00     0.047 A 
ATOM     15  C   UNL     1     -15.484 -45.367   8.162  1.00  0.00     0.115 A 
ATOM     16  C   UNL     1     -16.065 -43.026   8.419  1.00  0.00     0.016 A 
ATOM     17  C   UNL     1     -16.450 -44.365   8.295  1.00  0.00     0.047 A 
BRANCH  15  18
ATOM     18  O   UNL     1     -15.882 -46.695   8.041  1.00  0.00    -0.508 OA
ATOM     19  H   UNL     1     -16.813 -46.943   7.728  1.00  0.00     0.293 HD
ENDBRANCH  15  18
ENDBRANCH   1  12
BRANCH   2  20
ATOM     20  O   UNL     1     -13.367 -41.596  10.757  1.00  0.00    -0.502 OA
ATOM     21  H   UNL     1     -13.528 -41.323  11.719  1.00  0.00     0.293 HD
ENDBRANCH   2  20
BRANCH   6  22
ATOM     22  O   UNL     1     -12.832 -36.417   9.637  1.00  0.00    -0.507 OA
ATOM     23  H   UNL     1     -11.862 -36.250   9.859  1.00  0.00     0.293 HD
ENDBRANCH   6  22
BRANCH   8  24
ATOM     24  O   UNL     1     -14.206 -36.376   5.054  1.00  0.00    -0.508 OA
ATOM     25  H   UNL     1     -14.999 -35.756   4.942  1.00  0.00     0.293 HD
ENDBRANCH   8  24
TORSDOF 5
ENDMDL
MODEL 3
REMARK VINA RESULT:    -4.504      2.228      3.455
REMARK INTER + INTRA:          -5.486
REMARK INTER:                  -5.195
REMARK INTRA:                  -0.291
REMARK UNBOUND:                -0.192
REMARK SMILES O=c1c(O)c(-c2ccc(O)cc2)oc2cc(O)cc(O)c12
REMARK SMILES IDX 5 1 3 2 2 3 1 4 21 5 19 6 18 7 16 8 15 9 14 10 13 11 6 12
REMARK SMILES IDX 7 13 8 14 9 15 12 16 11 17 10 18 4 20 20 22 17 24
REMARK H PARENT 10 19 4 21 20 23 17 25
REMARK Flexibility Score: inf
ROOT
ATOM      1  C   UNL     1     -13.229 -41.196   9.373  1.00  0.00     0.180 A 
ATOM      2  C   UNL     1     -13.960 -40.076   8.937  1.00  0.00     0.208 A 
ATOM      3  C   UNL     1     -13.350 -38.812   8.968  1.00  0.00     0.238 A 
ATOM      4  O   UNL     1     -14.027 -37.806   8.628  1.00  0.00    -0.285 OA
ATOM      5  C   UNL     1     -12.014 -38.684   9.419  1.00  0.00     0.111 A 
ATOM      6  C   UNL     1     -11.284 -37.458   9.453  1.00  0.00     0.134 A 
ATOM      7  C   UNL     1     -10.013 -37.428  10.040  1.00  0.00     0.093 A 
ATOM      8  C   UNL     1      -9.419 -38.589  10.533  1.00  0.00     0.123 A 
ATOM      9  C   UNL     1     -10.100 -39.805  10.450  1.00  0.00     0.094 A 
ATOM     10  C   UNL     1     -11.384 -39.860   9.903  1.00  0.00     0.146 A 
ATOM     11  O   UNL     1     -12.001 -41.034   9.851  1.00  0.00    -0.452 OA
ENDROOT
BRANCH   1  12
ATOM     12  C   UNL     1     -13.794 -42.564   9.347  1.00  0.00     0.021 A 
ATOM     13  C   UNL     1     -14.502 -43.042  10.462  1.00  0.00     0.016 A 
ATOM     14  C   UNL     1     -15.024 -44.339  10.468  1.00  0.00     0.047 A 
ATOM     15  C   UNL     1     -14.833 -45.180   9.364  1.00  0.00     0.115 A 
ATOM     16  C   UNL     1     -13.589 -43.421   8.249  1.00  0.00     0.016 A 
ATOM     17  C   UNL     1     -14.112 -44.718   8.258  1.00  0.00     0.047 A 
BRANCH  15  18
ATOM     18  O   UNL     1     -15.349 -46.474   9.358  1.00  0.00    -0.508 OA
ATOM     19  H   UNL     1     -16.339 -46.649   9.239  1.00  0.00     0.293 HD
ENDBRANCH  15  18
ENDBRANCH   1  12
BRANCH   2  20
ATOM     20  O   UNL     1     -15.285 -40.221   8.518  1.00  0.00    -0.502 OA
ATOM     21  H   UNL     1     -15.926 -39.439   8.459  1.00  0.00     0.293 HD
ENDBRANCH   2  20
BRANCH   6  22
ATOM     22  O   UNL     1     -11.747 -36.259   8.906  1.00  0.00    -0.507 OA
ATOM     23  H   UNL     1     -12.039 -36.139   7.948  1.00  0.00     0.293 HD
ENDBRANCH   6  22
BRANCH   8  24
ATOM     24  O   UNL     1      -8.147 -38.525  11.096  1.00  0.00    -0.508 OA
ATOM     25  H   UNL     1      -7.323 -38.362  10.529  1.00  0.00     0.293 HD
ENDBRANCH   8  24
TORSDOF 5
ENDMDL
MODEL 4
REMARK VINA RESULT:    -4.472     19.013     21.257
REMARK INTER + INTRA:          -5.449
REMARK INTER:                  -5.633
REMARK INTRA:                   0.184
REMARK UNBOUND:                -0.192
REMARK SMILES O=c1c(O)c(-c2ccc(O)cc2)oc2cc(O)cc(O)c12
REMARK SMILES IDX 5 1 3 2 2 3 1 4 21 5 19 6 18 7 16 8 15 9 14 10 13 11 6 12
REMARK SMILES IDX 7 13 8 14 9 15 12 16 11 17 10 18 4 20 20 22 17 24
REMARK H PARENT 10 19 4 21 20 23 17 25
REMARK Flexibility Score: inf
ROOT
ATOM      1  C   UNL     1     -10.150 -51.850  -8.342  1.00  0.00     0.180 A 
ATOM      2  C   UNL     1     -10.027 -53.208  -7.997  1.00  0.00     0.208 A 
ATOM      3  C   UNL     1      -8.744 -53.766  -7.882  1.00  0.00     0.238 A 
ATOM      4  O   UNL     1      -8.641 -54.995  -7.625  1.00  0.00    -0.285 OA
ATOM      5  C   UNL     1      -7.601 -52.959  -8.097  1.00  0.00     0.111 A 
ATOM      6  C   UNL     1      -6.254 -53.411  -7.966  1.00  0.00     0.134 A 
ATOM      7  C   UNL     1      -5.203 -52.560  -8.330  1.00  0.00     0.093 A 
ATOM      8  C   UNL     1      -5.446 -51.255  -8.756  1.00  0.00     0.123 A 
ATOM      9  C   UNL     1      -6.757 -50.783  -8.830  1.00  0.00     0.094 A 
ATOM     10  C   UNL     1      -7.829 -51.620  -8.509  1.00  0.00     0.146 A 
ATOM     11  O   UNL     1      -9.061 -51.136  -8.601  1.00  0.00    -0.452 OA
ENDROOT
BRANCH   1  12
ATOM     12  C   UNL     1     -11.467 -51.183  -8.458  1.00  0.00     0.021 A 
ATOM     13  C   UNL     1     -11.642 -49.897  -7.920  1.00  0.00     0.016 A 
ATOM     14  C   UNL     1     -12.883 -49.259  -7.999  1.00  0.00     0.047 A 
ATOM     15  C   UNL     1     -13.970 -49.904  -8.605  1.00  0.00     0.115 A 
ATOM     16  C   UNL     1     -12.568 -51.833  -9.047  1.00  0.00     0.016 A 
ATOM     17  C   UNL     1     -13.809 -51.192  -9.124  1.00  0.00     0.047 A 
BRANCH  15  18
ATOM     18  O   UNL     1     -15.211 -49.278  -8.689  1.00  0.00    -0.508 OA
ATOM     19  H   UNL     1     -15.793 -49.142  -7.871  1.00  0.00     0.293 HD
ENDBRANCH  15  18
ENDBRANCH   1  12
BRANCH   2  20
ATOM     20  O   UNL     1     -11.168 -53.992  -7.810  1.00  0.00    -0.502 OA
ATOM     21  H   UNL     1     -11.382 -54.441  -6.929  1.00  0.00     0.293 HD
ENDBRANCH   2  20
BRANCH   6  22
ATOM     22  O   UNL     1      -5.896 -54.664  -7.463  1.00  0.00    -0.507 OA
ATOM     23  H   UNL     1      -4.981 -54.903  -7.113  1.00  0.00     0.293 HD
ENDBRANCH   6  22
BRANCH   8  24
ATOM     24  O   UNL     1      -4.375 -50.431  -9.095  1.00  0.00    -0.508 OA
ATOM     25  H   UNL     1      -4.272 -49.505  -8.699  1.00  0.00     0.293 HD
ENDBRANCH   8  24
TORSDOF 5
ENDMDL
MODEL 5
REMARK VINA RESULT:    -4.364     18.170     20.624
REMARK INTER + INTRA:          -5.322
REMARK INTER:                  -5.589
REMARK INTRA:                   0.267
REMARK UNBOUND:                -0.192
REMARK SMILES O=c1c(O)c(-c2ccc(O)cc2)oc2cc(O)cc(O)c12
REMARK SMILES IDX 5 1 3 2 2 3 1 4 21 5 19 6 18 7 16 8 15 9 14 10 13 11 6 12
REMARK SMILES IDX 7 13 8 14 9 15 12 16 11 17 10 18 4 20 20 22 17 24
REMARK H PARENT 10 19 4 21 20 23 17 25
REMARK Flexibility Score: inf
ROOT
ATOM      1  C   UNL     1     -11.226 -51.866  -8.456  1.00  0.00     0.180 A 
ATOM      2  C   UNL     1     -12.233 -52.809  -8.727  1.00  0.00     0.208 A 
ATOM      3  C   UNL     1     -13.568 -52.379  -8.794  1.00  0.00     0.238 A 
ATOM      4  O   UNL     1     -14.470 -53.236  -8.984  1.00  0.00    -0.285 OA
ATOM      5  C   UNL     1     -13.878 -51.010  -8.607  1.00  0.00     0.111 A 
ATOM      6  C   UNL     1     -15.191 -50.458  -8.695  1.00  0.00     0.134 A 
ATOM      7  C   UNL     1     -15.397 -49.113  -8.362  1.00  0.00     0.093 A 
ATOM      8  C   UNL     1     -14.331 -48.286  -8.010  1.00  0.00     0.123 A 
ATOM      9  C   UNL     1     -13.035 -48.802  -7.979  1.00  0.00     0.094 A 
ATOM     10  C   UNL     1     -12.802 -50.148  -8.270  1.00  0.00     0.146 A 
ATOM     11  O   UNL     1     -11.556 -50.601  -8.220  1.00  0.00    -0.452 OA
ENDROOT
BRANCH   1  12
ATOM     12  C   UNL     1      -9.794 -52.238  -8.393  1.00  0.00     0.021 A 
ATOM     13  C   UNL     1      -8.825 -51.345  -8.880  1.00  0.00     0.016 A 
ATOM     14  C   UNL     1      -7.470 -51.686  -8.851  1.00  0.00     0.047 A 
ATOM     15  C   UNL     1      -7.066 -52.930  -8.348  1.00  0.00     0.115 A 
ATOM     16  C   UNL     1      -9.384 -53.493  -7.907  1.00  0.00     0.016 A 
ATOM     17  C   UNL     1      -8.027 -53.832  -7.880  1.00  0.00     0.047 A 
BRANCH  15  18
ATOM     18  O   UNL     1      -5.719 -53.280  -8.314  1.00  0.00    -0.508 OA
ATOM     19  H   UNL     1      -4.994 -52.585  -8.182  1.00  0.00     0.293 HD
ENDBRANCH  15  18
ENDBRANCH   1  12
BRANCH   2  20
ATOM     20  O   UNL     1     -11.908 -54.159  -8.886  1.00  0.00    -0.502 OA
ATOM     21  H   UNL     1     -11.899 -54.613  -9.791  1.00  0.00     0.293 HD
ENDBRANCH   2  20
BRANCH   6  22
ATOM     22  O   UNL     1     -16.311 -51.173  -9.125  1.00  0.00    -0.507 OA
ATOM     23  H   UNL     1     -16.523 -51.385 -10.088  1.00  0.00     0.293 HD
ENDBRANCH   6  22
BRANCH   8  24
ATOM     24  O   UNL     1     -14.571 -46.950  -7.700  1.00  0.00    -0.508 OA
ATOM     25  H   UNL     1     -14.843 -46.662  -6.768  1.00  0.00     0.293 HD
ENDBRANCH   8  24
TORSDOF 5
ENDMDL
MODEL 6
REMARK VINA RESULT:    -4.340      1.942      6.673
REMARK INTER + INTRA:          -5.294
REMARK INTER:                  -5.041
REMARK INTRA:                  -0.253
REMARK UNBOUND:                -0.192
REMARK SMILES O=c1c(O)c(-c2ccc(O)cc2)oc2cc(O)cc(O)c12
REMARK SMILES IDX 5 1 3 2 2 3 1 4 21 5 19 6 18 7 16 8 15 9 14 10 13 11 6 12
REMARK SMILES IDX 7 13 8 14 9 15 12 16 11 17 10 18 4 20 20 22 17 24
REMARK H PARENT 10 19 4 21 20 23 17 25
REMARK Flexibility Score: inf
ROOT
ATOM      1  C   UNL     1     -14.623 -39.475   7.959  1.00  0.00     0.180 A 
ATOM      2  C   UNL     1     -15.657 -39.308   8.897  1.00  0.00     0.208 A 
ATOM      3  C   UNL     1     -16.132 -40.430   9.593  1.00  0.00     0.238 A 
ATOM      4  O   UNL     1     -17.094 -40.283  10.392  1.00  0.00    -0.285 OA
ATOM      5  C   UNL     1     -15.557 -41.703   9.357  1.00  0.00     0.111 A 
ATOM      6  C   UNL     1     -15.933 -42.900  10.036  1.00  0.00     0.134 A 
ATOM      7  C   UNL     1     -15.388 -44.124   9.629  1.00  0.00     0.093 A 
ATOM      8  C   UNL     1     -14.434 -44.186   8.614  1.00  0.00     0.123 A 
ATOM      9  C   UNL     1     -14.016 -43.014   7.984  1.00  0.00     0.094 A 
ATOM     10  C   UNL     1     -14.568 -41.782   8.343  1.00  0.00     0.146 A 
ATOM     11  O   UNL     1     -14.149 -40.691   7.712  1.00  0.00    -0.452 OA
ENDROOT
BRANCH   1  12
ATOM     12  C   UNL     1     -14.052 -38.337   7.203  1.00  0.00     0.021 A 
ATOM     13  C   UNL     1     -12.851 -37.751   7.636  1.00  0.00     0.016 A 
ATOM     14  C   UNL     1     -12.307 -36.661   6.951  1.00  0.00     0.047 A 
ATOM     15  C   UNL     1     -12.964 -36.134   5.831  1.00  0.00     0.115 A 
ATOM     16  C   UNL     1     -14.717 -37.790   6.090  1.00  0.00     0.016 A 
ATOM     17  C   UNL     1     -14.171 -36.699   5.407  1.00  0.00     0.047 A 
BRANCH  15  18
ATOM     18  O   UNL     1     -12.432 -35.048   5.140  1.00  0.00    -0.508 OA
ATOM     19  H   UNL     1     -12.563 -34.098   5.465  1.00  0.00     0.293 HD
ENDBRANCH  15  18
ENDBRANCH   1  12
BRANCH   2  20
ATOM     20  O   UNL     1     -16.226 -38.048   9.099  1.00  0.00    -0.502 OA
ATOM     21  H   UNL     1     -16.655 -37.778   9.975  1.00  0.00     0.293 HD
ENDBRANCH   2  20
BRANCH   6  22
ATOM     22  O   UNL     1     -16.809 -42.938  11.124  1.00  0.00    -0.507 OA
ATOM     23  H   UNL     1     -17.806 -42.798  11.065  1.00  0.00     0.293 HD
ENDBRANCH   6  22
BRANCH   8  24
ATOM     24  O   UNL     1     -13.902 -45.419   8.245  1.00  0.00    -0.508 OA
ATOM     25  H   UNL     1     -13.196 -45.881   8.805  1.00  0.00     0.293 HD
ENDBRANCH   8  24
TORSDOF 5
ENDMDL
MODEL 7
REMARK VINA RESULT:    -4.016      1.872      2.612
REMARK INTER + INTRA:          -4.912
REMARK INTER:                  -4.720
REMARK INTRA:                  -0.192
REMARK UNBOUND:                -0.192
REMARK SMILES O=c1c(O)c(-c2ccc(O)cc2)oc2cc(O)cc(O)c12
REMARK SMILES IDX 5 1 3 2 2 3 1 4 21 5 19 6 18 7 16 8 15 9 14 10 13 11 6 12
REMARK SMILES IDX 7 13 8 14 9 15 12 16 11 17 10 18 4 20 20 22 17 24
REMARK H PARENT 10 19 4 21 20 23 17 25
REMARK Flexibility Score: inf
ROOT
ATOM      1  C   UNL     1     -14.824 -41.624   8.575  1.00  0.00     0.180 A 
ATOM      2  C   UNL     1     -13.778 -41.089   7.803  1.00  0.00     0.208 A 
ATOM      3  C   UNL     1     -13.555 -39.703   7.827  1.00  0.00     0.238 A 
ATOM      4  O   UNL     1     -12.652 -39.223   7.093  1.00  0.00    -0.285 OA
ATOM      5  C   UNL     1     -14.370 -38.871   8.634  1.00  0.00     0.111 A 
ATOM      6  C   UNL     1     -14.206 -37.460   8.766  1.00  0.00     0.134 A 
ATOM      7  C   UNL     1     -15.151 -36.721   9.490  1.00  0.00     0.093 A 
ATOM      8  C   UNL     1     -16.213 -37.348  10.139  1.00  0.00     0.123 A 
ATOM      9  C   UNL     1     -16.348 -38.735  10.066  1.00  0.00     0.094 A 
ATOM     10  C   UNL     1     -15.443 -39.496   9.322  1.00  0.00     0.146 A 
ATOM     11  O   UNL     1     -15.612 -40.811   9.269  1.00  0.00    -0.452 OA
ENDROOT
BRANCH   1  12
ATOM     12  C   UNL     1     -15.106 -43.077   8.620  1.00  0.00     0.021 A 
ATOM     13  C   UNL     1     -16.319 -43.564   8.105  1.00  0.00     0.016 A 
ATOM     14  C   UNL     1     -16.615 -44.929   8.159  1.00  0.00     0.047 A 
ATOM     15  C   UNL     1     -15.708 -45.824   8.741  1.00  0.00     0.115 A 
ATOM     16  C   UNL     1     -14.209 -43.979   9.221  1.00  0.00     0.016 A 
ATOM     17  C   UNL     1     -14.508 -45.344   9.275  1.00  0.00     0.047 A 
BRANCH  15  18
ATOM     18  O   UNL     1     -15.992 -47.186   8.801  1.00  0.00    -0.508 OA
ATOM     19  H   UNL     1     -15.574 -47.843   8.152  1.00  0.00     0.293 HD
ENDBRANCH  15  18
ENDBRANCH   1  12
BRANCH   2  20
ATOM     20  O   UNL     1     -13.001 -41.924   6.996  1.00  0.00    -0.502 OA
ATOM     21  H   UNL     1     -12.328 -41.565   6.331  1.00  0.00     0.293 HD
ENDBRANCH   2  20
BRANCH   6  22
ATOM     22  O   UNL     1     -13.130 -36.746   8.234  1.00  0.00    -0.507 OA
ATOM     23  H   UNL     1     -12.877 -35.805   8.498  1.00  0.00     0.293 HD
ENDBRANCH   6  22
BRANCH   8  24
ATOM     24  O   UNL     1     -17.125 -36.584  10.862  1.00  0.00    -0.508 OA
ATOM     25  H   UNL     1     -16.847 -35.728  11.329  1.00  0.00     0.293 HD
ENDBRANCH   8  24
TORSDOF 5
ENDMDL
MODEL 8
REMARK VINA RESULT:    -3.955      1.993      3.148
REMARK INTER + INTRA:          -4.841
REMARK INTER:                  -4.573
REMARK INTRA:                  -0.268
REMARK UNBOUND:                -0.192
REMARK SMILES O=c1c(O)c(-c2ccc(O)cc2)oc2cc(O)cc(O)c12
REMARK SMILES IDX 5 1 3 2 2 3 1 4 21 5 19 6 18 7 16 8 15 9 14 10 13 11 6 12
REMARK SMILES IDX 7 13 8 14 9 15 12 16 11 17 10 18 4 20 20 22 17 24
REMARK H PARENT 10 19 4 21 20 23 17 25
REMARK Flexibility Score: inf
ROOT
ATOM      1  C   UNL     1     -14.596 -42.243   9.475  1.00  0.00     0.180 A 
ATOM      2  C   UNL     1     -15.537 -41.235   9.199  1.00  0.00     0.208 A 
ATOM      3  C   UNL     1     -15.107 -39.901   9.137  1.00  0.00     0.238 A 
ATOM      4  O   UNL     1     -15.963 -38.998   8.943  1.00  0.00    -0.285 OA
ATOM      5  C   UNL     1     -13.740 -39.590   9.335  1.00  0.00     0.111 A 
ATOM      6  C   UNL     1     -13.187 -38.277   9.253  1.00  0.00     0.134 A 
ATOM      7  C   UNL     1     -11.845 -38.071   9.596  1.00  0.00     0.093 A 
ATOM      8  C   UNL     1     -11.021 -39.137   9.952  1.00  0.00     0.123 A 
ATOM      9  C   UNL     1     -11.536 -40.433   9.978  1.00  0.00     0.094 A 
ATOM     10  C   UNL     1     -12.879 -40.666   9.676  1.00  0.00     0.146 A 
ATOM     11  O   UNL     1     -13.333 -41.913   9.721  1.00  0.00    -0.452 OA
ENDROOT
BRANCH   1  12
ATOM     12  C   UNL     1     -14.967 -43.675   9.533  1.00  0.00     0.021 A 
ATOM     13  C   UNL     1     -15.109 -44.403   8.340  1.00  0.00     0.016 A 
ATOM     14  C   UNL     1     -15.481 -45.749   8.371  1.00  0.00     0.047 A 
ATOM     15  C   UNL     1     -15.731 -46.383   9.595  1.00  0.00     0.115 A 
ATOM     16  C   UNL     1     -15.239 -44.312  10.758  1.00  0.00     0.016 A 
ATOM     17  C   UNL     1     -15.613 -45.660  10.786  1.00  0.00     0.047 A 
BRANCH  15  18
ATOM     18  O   UNL     1     -16.103 -47.724   9.639  1.00  0.00    -0.508 OA
ATOM     19  H   UNL     1     -16.519 -48.132  10.468  1.00  0.00     0.293 HD
ENDBRANCH  15  18
ENDBRANCH   1  12
BRANCH   2  20
ATOM     20  O   UNL     1     -16.886 -41.561   9.029  1.00  0.00    -0.502 OA
ATOM     21  H   UNL     1     -17.290 -41.745   8.120  1.00  0.00     0.293 HD
ENDBRANCH   2  20
BRANCH   6  22
ATOM     22  O   UNL     1     -13.900 -37.156   8.819  1.00  0.00    -0.507 OA
ATOM     23  H   UNL     1     -14.597 -36.672   9.365  1.00  0.00     0.293 HD
ENDBRANCH   6  22
BRANCH   8  24
ATOM     24  O   UNL     1      -9.686 -38.897  10.272  1.00  0.00    -0.508 OA
ATOM     25  H   UNL     1      -9.316 -39.103  11.192  1.00  0.00     0.293 HD
ENDBRANCH   8  24
TORSDOF 5
ENDMDL
MODEL 9
REMARK VINA RESULT:    -3.880      2.663      6.779
REMARK INTER + INTRA:          -4.753
REMARK INTER:                  -4.779
REMARK INTRA:                   0.026
REMARK UNBOUND:                -0.192
REMARK SMILES O=c1c(O)c(-c2ccc(O)cc2)oc2cc(O)cc(O)c12
REMARK SMILES IDX 5 1 3 2 2 3 1 4 21 5 19 6 18 7 16 8 15 9 14 10 13 11 6 12
REMARK SMILES IDX 7 13 8 14 9 15 12 16 11 17 10 18 4 20 20 22 17 24
REMARK H PARENT 10 19 4 21 20 23 17 25
REMARK Flexibility Score: inf
ROOT
ATOM      1  C   UNL     1     -12.714 -40.395  10.014  1.00  0.00     0.180 A 
ATOM      2  C   UNL     1     -13.958 -40.017  10.549  1.00  0.00     0.208 A 
ATOM      3  C   UNL     1     -15.037 -40.909  10.458  1.00  0.00     0.238 A 
ATOM      4  O   UNL     1     -16.162 -40.543  10.891  1.00  0.00    -0.285 OA
ATOM      5  C   UNL     1     -14.857 -42.175   9.850  1.00  0.00     0.111 A 
ATOM      6  C   UNL     1     -15.870 -43.173   9.742  1.00  0.00     0.134 A 
ATOM      7  C   UNL     1     -15.617 -44.337   9.004  1.00  0.00     0.093 A 
ATOM      8  C   UNL     1     -14.368 -44.567   8.429  1.00  0.00     0.123 A 
ATOM      9  C   UNL     1     -13.351 -43.625   8.580  1.00  0.00     0.094 A 
ATOM     10  C   UNL     1     -13.584 -42.438   9.279  1.00  0.00     0.146 A 
ATOM     11  O   UNL     1     -12.593 -41.562   9.392  1.00  0.00    -0.452 OA
ENDROOT
BRANCH   1  12
ATOM     12  C   UNL     1     -11.522 -39.519  10.092  1.00  0.00     0.021 A 
ATOM     13  C   UNL     1     -10.336 -40.012  10.661  1.00  0.00     0.016 A 
ATOM     14  C   UNL     1      -9.207 -39.195  10.766  1.00  0.00     0.047 A 
ATOM     15  C   UNL     1      -9.253 -37.869  10.315  1.00  0.00     0.115 A 
ATOM     16  C   UNL     1     -11.567 -38.181   9.660  1.00  0.00     0.016 A 
ATOM     17  C   UNL     1     -10.436 -37.365   9.766  1.00  0.00     0.047 A 
BRANCH  15  18
ATOM     18  O   UNL     1      -8.135 -37.045  10.413  1.00  0.00    -0.508 OA
ATOM     19  H   UNL     1      -7.336 -37.161   9.801  1.00  0.00     0.293 HD
ENDBRANCH  15  18
ENDBRANCH   1  12
BRANCH   2  20
ATOM     20  O   UNL     1     -14.120 -38.754  11.125  1.00  0.00    -0.502 OA
ATOM     21  H   UNL     1     -14.945 -38.187  10.971  1.00  0.00     0.293 HD
ENDBRANCH   2  20
BRANCH   6  22
ATOM     22  O   UNL     1     -17.123 -43.084  10.355  1.00  0.00    -0.507 OA
ATOM     23  H   UNL     1     -17.933 -43.624  10.089  1.00  0.00     0.293 HD
ENDBRANCH   6  22
BRANCH   8  24
ATOM     24  O   UNL     1     -14.146 -45.743   7.716  1.00  0.00    -0.508 OA
ATOM     25  H   UNL     1     -13.431 -45.803   7.001  1.00  0.00     0.293 HD
ENDBRANCH   8  24
TORSDOF 5
ENDMDL
