MODEL 1
REMARK VINA RESULT:    -7.242      0.000      0.000
REMARK INTER + INTRA:          -8.972
REMARK INTER:                  -8.724
REMARK INTRA:                  -0.248
REMARK UNBOUND:                -0.248
REMARK SMILES O=c1c(O)c(-c2ccc(O)c(O)c2)oc2cc(O)cc(O)c12
REMARK SMILES IDX 5 1 3 2 2 3 1 4 22 5 20 6 19 7 17 8 16 9 15 10 14 11 6 12
REMARK SMILES IDX 7 13 8 14 9 15 13 16 11 17 10 18 12 20 4 22 21 24 18 26
REMARK H PARENT 10 19 12 21 4 23 21 25 18 27
REMARK Flexibility Score: inf
ROOT
ATOM      1  C   UNL     1      72.134  -2.934  24.379  1.00  0.00     0.180 A 
ATOM      2  C   UNL     1      73.518  -3.148  24.509  1.00  0.00     0.208 A 
ATOM      3  C   UNL     1      74.247  -3.586  23.392  1.00  0.00     0.238 A 
ATOM      4  O   UNL     1      75.475  -3.828  23.529  1.00  0.00    -0.285 OA
ATOM      5  C   UNL     1      73.589  -3.791  22.156  1.00  0.00     0.111 A 
ATOM      6  C   UNL     1      74.236  -4.195  20.950  1.00  0.00     0.134 A 
ATOM      7  C   UNL     1      73.465  -4.492  19.819  1.00  0.00     0.093 A 
ATOM      8  C   UNL     1      72.076  -4.337  19.832  1.00  0.00     0.123 A 
ATOM      9  C   UNL     1      71.442  -3.886  20.987  1.00  0.00     0.094 A 
ATOM     10  C   UNL     1      72.180  -3.616  22.142  1.00  0.00     0.146 A 
ATOM     11  O   UNL     1      71.534  -3.198  23.224  1.00  0.00    -0.452 OA
ENDROOT
BRANCH   1  12
ATOM     12  C   UNL     1      71.303  -2.449  25.504  1.00  0.00     0.025 A 
ATOM     13  C   UNL     1      71.419  -1.113  25.920  1.00  0.00     0.016 A 
ATOM     14  C   UNL     1      70.660  -0.638  26.994  1.00  0.00     0.051 A 
ATOM     15  C   UNL     1      69.789  -1.492  27.677  1.00  0.00     0.157 A 
ATOM     16  C   UNL     1      70.443  -3.312  26.206  1.00  0.00     0.062 A 
ATOM     17  C   UNL     1      69.683  -2.837  27.284  1.00  0.00     0.158 A 
BRANCH  15  18
ATOM     18  O   UNL     1      69.044  -0.991  28.743  1.00  0.00    -0.504 OA
ATOM     19  H   UNL     1      68.031  -1.015  28.751  1.00  0.00     0.293 HD
ENDBRANCH  15  18
BRANCH  17  20
ATOM     20  O   UNL     1      68.827  -3.699  27.971  1.00  0.00    -0.504 OA
ATOM     21  H   UNL     1      68.868  -4.703  27.841  1.00  0.00     0.293 HD
ENDBRANCH  17  20
ENDBRANCH   1  12
BRANCH   2  22
ATOM     22  O   UNL     1      74.145  -2.962  25.745  1.00  0.00    -0.502 OA
ATOM     23  H   UNL     1      73.851  -2.249  26.401  1.00  0.00     0.293 HD
ENDBRANCH   2  22
BRANCH   6  24
ATOM     24  O   UNL     1      75.622  -4.292  20.803  1.00  0.00    -0.507 OA
ATOM     25  H   UNL     1      76.261  -3.511  20.843  1.00  0.00     0.293 HD
ENDBRANCH   6  24
BRANCH   8  26
ATOM     26  O   UNL     1      71.319  -4.620  18.697  1.00  0.00    -0.508 OA
ATOM     27  H   UNL     1      71.714  -4.556  17.767  1.00  0.00     0.293 HD
ENDBRANCH   8  26
TORSDOF 6
ENDMDL
MODEL 2
REMARK VINA RESULT:    -7.092      1.558      6.890
REMARK INTER + INTRA:          -8.791
REMARK INTER:                  -8.468
REMARK INTRA:                  -0.323
REMARK UNBOUND:                -0.248
REMARK SMILES O=c1c(O)c(-c2ccc(O)c(O)c2)oc2cc(O)cc(O)c12
REMARK SMILES IDX 5 1 3 2 2 3 1 4 22 5 20 6 19 7 17 8 16 9 15 10 14 11 6 12
REMARK SMILES IDX 7 13 8 14 9 15 13 16 11 17 10 18 12 20 4 22 21 24 18 26
REMARK H PARENT 10 19 12 21 4 23 21 25 18 27
REMARK Flexibility Score: inf
ROOT
ATOM      1  C   UNL     1      72.114  -2.709  23.378  1.00  0.00     0.180 A 
ATOM      2  C   UNL     1      72.522  -1.372  23.535  1.00  0.00     0.208 A 
ATOM      3  C   UNL     1      72.116  -0.666  24.679  1.00  0.00     0.238 A 
ATOM      4  O   UNL     1      72.439   0.546  24.787  1.00  0.00    -0.285 OA
ATOM      5  C   UNL     1      71.320  -1.307  25.658  1.00  0.00     0.111 A 
ATOM      6  C   UNL     1      70.885  -0.700  26.874  1.00  0.00     0.134 A 
ATOM      7  C   UNL     1      69.993  -1.386  27.707  1.00  0.00     0.093 A 
ATOM      8  C   UNL     1      69.573  -2.683  27.401  1.00  0.00     0.123 A 
ATOM      9  C   UNL     1      70.039  -3.306  26.247  1.00  0.00     0.094 A 
ATOM     10  C   UNL     1      70.901  -2.634  25.377  1.00  0.00     0.146 A 
ATOM     11  O   UNL     1      71.313  -3.262  24.282  1.00  0.00    -0.452 OA
ENDROOT
BRANCH   1  12
ATOM     12  C   UNL     1      72.523  -3.526  22.213  1.00  0.00     0.025 A 
ATOM     13  C   UNL     1      73.721  -4.254  22.268  1.00  0.00     0.016 A 
ATOM     14  C   UNL     1      74.138  -5.015  21.172  1.00  0.00     0.051 A 
ATOM     15  C   UNL     1      73.374  -5.046  20.002  1.00  0.00     0.157 A 
ATOM     16  C   UNL     1      71.767  -3.541  21.027  1.00  0.00     0.062 A 
ATOM     17  C   UNL     1      72.185  -4.302  19.926  1.00  0.00     0.158 A 
BRANCH  15  18
ATOM     18  O   UNL     1      73.813  -5.815  18.925  1.00  0.00    -0.504 OA
ATOM     19  H   UNL     1      74.752  -5.735  18.553  1.00  0.00     0.293 HD
ENDBRANCH  15  18
BRANCH  17  20
ATOM     20  O   UNL     1      71.425  -4.317  18.757  1.00  0.00    -0.504 OA
ATOM     21  H   UNL     1      70.592  -3.748  18.656  1.00  0.00     0.293 HD
ENDBRANCH  17  20
ENDBRANCH   1  12
BRANCH   2  22
ATOM     22  O   UNL     1      73.290  -0.751  22.545  1.00  0.00    -0.502 OA
ATOM     23  H   UNL     1      73.458  -1.177  21.642  1.00  0.00     0.293 HD
ENDBRANCH   2  22
BRANCH   6  24
ATOM     24  O   UNL     1      71.317   0.553  27.318  1.00  0.00    -0.507 OA
ATOM     25  H   UNL     1      71.224   0.891  28.264  1.00  0.00     0.293 HD
ENDBRANCH   6  24
BRANCH   8  26
ATOM     26  O   UNL     1      68.697  -3.364  28.245  1.00  0.00    -0.508 OA
ATOM     27  H   UNL     1      67.714  -3.463  28.020  1.00  0.00     0.293 HD
ENDBRANCH   8  26
TORSDOF 6
ENDMDL
MODEL 3
REMARK VINA RESULT:    -7.075      4.370      6.604
REMARK INTER + INTRA:          -8.771
REMARK INTER:                  -8.493
REMARK INTRA:                  -0.278
REMARK UNBOUND:                -0.248
REMARK SMILES O=c1c(O)c(-c2ccc(O)c(O)c2)oc2cc(O)cc(O)c12
REMARK SMILES IDX 5 1 3 2 2 3 1 4 22 5 20 6 19 7 17 8 16 9 15 10 14 11 6 12
REMARK SMILES IDX 7 13 8 14 9 15 13 16 11 17 10 18 12 20 4 22 21 24 18 26
REMARK H PARENT 10 19 12 21 4 23 21 25 18 27
REMARK Flexibility Score: inf
ROOT
ATOM      1  C   UNL     1      74.209  -5.087  18.633  1.00  0.00     0.180 A 
ATOM      2  C   UNL     1      75.514  -4.652  18.923  1.00  0.00     0.208 A 
ATOM      3  C   UNL     1      76.538  -4.905  17.995  1.00  0.00     0.238 A 
ATOM      4  O   UNL     1      77.714  -4.561  18.285  1.00  0.00    -0.285 OA
ATOM      5  C   UNL     1      76.243  -5.577  16.785  1.00  0.00     0.111 A 
ATOM      6  C   UNL     1      77.194  -5.851  15.757  1.00  0.00     0.134 A 
ATOM      7  C   UNL     1      76.818  -6.636  14.660  1.00  0.00     0.093 A 
ATOM      8  C   UNL     1      75.507  -7.102  14.522  1.00  0.00     0.123 A 
ATOM      9  C   UNL     1      74.557  -6.789  15.491  1.00  0.00     0.094 A 
ATOM     10  C   UNL     1      74.911  -6.038  16.615  1.00  0.00     0.146 A 
ATOM     11  O   UNL     1      73.976  -5.772  17.519  1.00  0.00    -0.452 OA
ENDROOT
BRANCH   1  12
ATOM     12  C   UNL     1      73.073  -4.835  19.549  1.00  0.00     0.025 A 
ATOM     13  C   UNL     1      72.512  -3.550  19.613  1.00  0.00     0.016 A 
ATOM     14  C   UNL     1      71.453  -3.283  20.486  1.00  0.00     0.051 A 
ATOM     15  C   UNL     1      70.952  -4.288  21.318  1.00  0.00     0.157 A 
ATOM     16  C   UNL     1      72.582  -5.839  20.402  1.00  0.00     0.062 A 
ATOM     17  C   UNL     1      71.522  -5.572  21.280  1.00  0.00     0.158 A 
BRANCH  15  18
ATOM     18  O   UNL     1      69.895  -3.994  22.177  1.00  0.00    -0.504 OA
ATOM     19  H   UNL     1      69.296  -4.715  22.562  1.00  0.00     0.293 HD
ENDBRANCH  15  18
BRANCH  17  20
ATOM     20  O   UNL     1      71.037  -6.576  22.118  1.00  0.00    -0.504 OA
ATOM     21  H   UNL     1      70.332  -6.387  22.821  1.00  0.00     0.293 HD
ENDBRANCH  17  20
ENDBRANCH   1  12
BRANCH   2  22
ATOM     22  O   UNL     1      75.789  -4.010  20.134  1.00  0.00    -0.502 OA
ATOM     23  H   UNL     1      76.629  -3.463  20.281  1.00  0.00     0.293 HD
ENDBRANCH   2  22
BRANCH   6  24
ATOM     24  O   UNL     1      78.501  -5.356  15.752  1.00  0.00    -0.507 OA
ATOM     25  H   UNL     1      78.747  -4.380  15.816  1.00  0.00     0.293 HD
ENDBRANCH   6  24
BRANCH   8  26
ATOM     26  O   UNL     1      75.138  -7.870  13.420  1.00  0.00    -0.508 OA
ATOM     27  H   UNL     1      75.630  -7.799  12.537  1.00  0.00     0.293 HD
ENDBRANCH   8  26
TORSDOF 6
ENDMDL
MODEL 4
REMARK VINA RESULT:    -7.018      8.605     11.116
REMARK INTER + INTRA:          -8.702
REMARK INTER:                  -8.442
REMARK INTRA:                  -0.260
REMARK UNBOUND:                -0.248
REMARK SMILES O=c1c(O)c(-c2ccc(O)c(O)c2)oc2cc(O)cc(O)c12
REMARK SMILES IDX 5 1 3 2 2 3 1 4 22 5 20 6 19 7 17 8 16 9 15 10 14 11 6 12
REMARK SMILES IDX 7 13 8 14 9 15 13 16 11 17 10 18 12 20 4 22 21 24 18 26
REMARK H PARENT 10 19 12 21 4 23 21 25 18 27
REMARK Flexibility Score: inf
ROOT
ATOM      1  C   UNL     1      76.436  -8.065  17.368  1.00  0.00     0.180 A 
ATOM      2  C   UNL     1      76.617  -7.332  18.555  1.00  0.00     0.208 A 
ATOM      3  C   UNL     1      77.227  -7.958  19.655  1.00  0.00     0.238 A 
ATOM      4  O   UNL     1      77.336  -7.315  20.731  1.00  0.00    -0.285 OA
ATOM      5  C   UNL     1      77.660  -9.301  19.551  1.00  0.00     0.111 A 
ATOM      6  C   UNL     1      78.325 -10.021  20.588  1.00  0.00     0.134 A 
ATOM      7  C   UNL     1      78.592 -11.386  20.420  1.00  0.00     0.093 A 
ATOM      8  C   UNL     1      78.277 -12.040  19.226  1.00  0.00     0.123 A 
ATOM      9  C   UNL     1      77.682 -11.331  18.185  1.00  0.00     0.094 A 
ATOM     10  C   UNL     1      77.371  -9.978  18.336  1.00  0.00     0.146 A 
ATOM     11  O   UNL     1      76.794  -9.343  17.323  1.00  0.00    -0.452 OA
ENDROOT
BRANCH   1  12
ATOM     12  C   UNL     1      75.825  -7.466  16.159  1.00  0.00     0.025 A 
ATOM     13  C   UNL     1      74.552  -7.889  15.748  1.00  0.00     0.016 A 
ATOM     14  C   UNL     1      73.965  -7.353  14.599  1.00  0.00     0.051 A 
ATOM     15  C   UNL     1      74.646  -6.401  13.836  1.00  0.00     0.157 A 
ATOM     16  C   UNL     1      76.518  -6.523  15.378  1.00  0.00     0.062 A 
ATOM     17  C   UNL     1      75.931  -5.986  14.224  1.00  0.00     0.158 A 
BRANCH  15  18
ATOM     18  O   UNL     1      74.035  -5.882  12.695  1.00  0.00    -0.504 OA
ATOM     19  H   UNL     1      74.235  -6.236  11.768  1.00  0.00     0.293 HD
ENDBRANCH  15  18
BRANCH  17  20
ATOM     20  O   UNL     1      76.623  -5.047  13.459  1.00  0.00    -0.504 OA
ATOM     21  H   UNL     1      77.611  -5.149  13.259  1.00  0.00     0.293 HD
ENDBRANCH  17  20
ENDBRANCH   1  12
BRANCH   2  22
ATOM     22  O   UNL     1      76.161  -6.013  18.644  1.00  0.00    -0.502 OA
ATOM     23  H   UNL     1      75.577  -5.691  19.406  1.00  0.00     0.293 HD
ENDBRANCH   2  22
BRANCH   6  24
ATOM     24  O   UNL     1      78.765  -9.442  21.782  1.00  0.00    -0.507 OA
ATOM     25  H   UNL     1      78.436  -8.561  22.149  1.00  0.00     0.293 HD
ENDBRANCH   6  24
BRANCH   8  26
ATOM     26  O   UNL     1      78.561 -13.394  19.061  1.00  0.00    -0.508 OA
ATOM     27  H   UNL     1      79.514 -13.737  19.034  1.00  0.00     0.293 HD
ENDBRANCH   8  26
TORSDOF 6
ENDMDL
MODEL 5
REMARK VINA RESULT:    -6.925      3.456      7.681
REMARK INTER + INTRA:          -8.590
REMARK INTER:                  -8.491
REMARK INTRA:                  -0.099
REMARK UNBOUND:                -0.248
REMARK SMILES O=c1c(O)c(-c2ccc(O)c(O)c2)oc2cc(O)cc(O)c12
REMARK SMILES IDX 5 1 3 2 2 3 1 4 22 5 20 6 19 7 17 8 16 9 15 10 14 11 6 12
REMARK SMILES IDX 7 13 8 14 9 15 13 16 11 17 10 18 12 20 4 22 21 24 18 26
REMARK H PARENT 10 19 12 21 4 23 21 25 18 27
REMARK Flexibility Score: inf
ROOT
ATOM      1  C   UNL     1      75.557  -2.120  23.274  1.00  0.00     0.180 A 
ATOM      2  C   UNL     1      74.493  -2.719  22.576  1.00  0.00     0.208 A 
ATOM      3  C   UNL     1      73.324  -3.058  23.277  1.00  0.00     0.238 A 
ATOM      4  O   UNL     1      72.397  -3.643  22.658  1.00  0.00    -0.285 OA
ATOM      5  C   UNL     1      73.227  -2.781  24.662  1.00  0.00     0.111 A 
ATOM      6  C   UNL     1      72.076  -3.046  25.462  1.00  0.00     0.134 A 
ATOM      7  C   UNL     1      72.140  -2.851  26.848  1.00  0.00     0.093 A 
ATOM      8  C   UNL     1      73.291  -2.339  27.452  1.00  0.00     0.123 A 
ATOM      9  C   UNL     1      74.399  -2.022  26.671  1.00  0.00     0.094 A 
ATOM     10  C   UNL     1      74.379  -2.239  25.291  1.00  0.00     0.146 A 
ATOM     11  O   UNL     1      75.461  -1.933  24.585  1.00  0.00    -0.452 OA
ENDROOT
BRANCH   1  12
ATOM     12  C   UNL     1      76.810  -1.711  22.598  1.00  0.00     0.025 A 
ATOM     13  C   UNL     1      77.606  -2.685  21.974  1.00  0.00     0.016 A 
ATOM     14  C   UNL     1      78.803  -2.325  21.349  1.00  0.00     0.051 A 
ATOM     15  C   UNL     1      79.230  -0.995  21.351  1.00  0.00     0.157 A 
ATOM     16  C   UNL     1      77.252  -0.376  22.618  1.00  0.00     0.062 A 
ATOM     17  C   UNL     1      78.453  -0.015  21.993  1.00  0.00     0.158 A 
BRANCH  15  18
ATOM     18  O   UNL     1      80.427  -0.665  20.718  1.00  0.00    -0.504 OA
ATOM     19  H   UNL     1      80.688   0.294  20.523  1.00  0.00     0.293 HD
ENDBRANCH  15  18
BRANCH  17  20
ATOM     20  O   UNL     1      78.881   1.313  22.012  1.00  0.00    -0.504 OA
ATOM     21  H   UNL     1      79.860   1.557  21.917  1.00  0.00     0.293 HD
ENDBRANCH  17  20
ENDBRANCH   1  12
BRANCH   2  22
ATOM     22  O   UNL     1      74.618  -3.004  21.213  1.00  0.00    -0.502 OA
ATOM     23  H   UNL     1      74.813  -2.288  20.524  1.00  0.00     0.293 HD
ENDBRANCH   2  22
BRANCH   6  24
ATOM     24  O   UNL     1      70.848  -3.470  24.947  1.00  0.00    -0.507 OA
ATOM     25  H   UNL     1      69.994  -2.935  24.982  1.00  0.00     0.293 HD
ENDBRANCH   6  24
BRANCH   8  26
ATOM     26  O   UNL     1      73.340  -2.134  28.829  1.00  0.00    -0.508 OA
ATOM     27  H   UNL     1      74.073  -2.538  29.400  1.00  0.00     0.293 HD
ENDBRANCH   8  26
TORSDOF 6
ENDMDL
MODEL 6
REMARK VINA RESULT:    -6.894      9.194     11.651
REMARK INTER + INTRA:          -8.553
REMARK INTER:                  -8.490
REMARK INTRA:                  -0.063
REMARK UNBOUND:                -0.248
REMARK SMILES O=c1c(O)c(-c2ccc(O)c(O)c2)oc2cc(O)cc(O)c12
REMARK SMILES IDX 5 1 3 2 2 3 1 4 22 5 20 6 19 7 17 8 16 9 15 10 14 11 6 12
REMARK SMILES IDX 7 13 8 14 9 15 13 16 11 17 10 18 12 20 4 22 21 24 18 26
REMARK H PARENT 10 19 12 21 4 23 21 25 18 27
REMARK Flexibility Score: inf
ROOT
ATOM      1  C   UNL     1      77.437  -8.922  17.533  1.00  0.00     0.180 A 
ATOM      2  C   UNL     1      77.453 -10.302  17.259  1.00  0.00     0.208 A 
ATOM      3  C   UNL     1      77.625 -11.205  18.321  1.00  0.00     0.238 A 
ATOM      4  O   UNL     1      77.693 -12.435  18.062  1.00  0.00    -0.285 OA
ATOM      5  C   UNL     1      77.764 -10.720  19.643  1.00  0.00     0.111 A 
ATOM      6  C   UNL     1      77.904 -11.546  20.798  1.00  0.00     0.134 A 
ATOM      7  C   UNL     1      78.166 -10.955  22.041  1.00  0.00     0.093 A 
ATOM      8  C   UNL     1      78.227  -9.566  22.181  1.00  0.00     0.123 A 
ATOM      9  C   UNL     1      78.032  -8.750  21.069  1.00  0.00     0.094 A 
ATOM     10  C   UNL     1      77.805  -9.311  19.810  1.00  0.00     0.146 A 
ATOM     11  O   UNL     1      77.635  -8.496  18.775  1.00  0.00    -0.452 OA
ENDROOT
BRANCH   1  12
ATOM     12  C   UNL     1      77.234  -7.911  16.470  1.00  0.00     0.025 A 
ATOM     13  C   UNL     1      78.127  -6.833  16.365  1.00  0.00     0.016 A 
ATOM     14  C   UNL     1      77.943  -5.855  15.383  1.00  0.00     0.051 A 
ATOM     15  C   UNL     1      76.859  -5.931  14.504  1.00  0.00     0.157 A 
ATOM     16  C   UNL     1      76.132  -7.975  15.599  1.00  0.00     0.062 A 
ATOM     17  C   UNL     1      75.946  -6.994  14.615  1.00  0.00     0.158 A 
BRANCH  15  18
ATOM     18  O   UNL     1      76.702  -4.944  13.533  1.00  0.00    -0.504 OA
ATOM     19  H   UNL     1      75.795  -4.561  13.296  1.00  0.00     0.293 HD
ENDBRANCH  15  18
BRANCH  17  20
ATOM     20  O   UNL     1      74.853  -7.068  13.751  1.00  0.00    -0.504 OA
ATOM     21  H   UNL     1      74.112  -6.376  13.770  1.00  0.00     0.293 HD
ENDBRANCH  17  20
ENDBRANCH   1  12
BRANCH   2  22
ATOM     22  O   UNL     1      77.336 -10.759  15.943  1.00  0.00    -0.502 OA
ATOM     23  H   UNL     1      76.663 -11.465  15.671  1.00  0.00     0.293 HD
ENDBRANCH   2  22
BRANCH   6  24
ATOM     24  O   UNL     1      77.769 -12.937  20.785  1.00  0.00    -0.507 OA
ATOM     25  H   UNL     1      76.888 -13.429  20.772  1.00  0.00     0.293 HD
ENDBRANCH   6  24
BRANCH   8  26
ATOM     26  O   UNL     1      78.472  -8.987  23.424  1.00  0.00    -0.508 OA
ATOM     27  H   UNL     1      79.153  -8.246  23.539  1.00  0.00     0.293 HD
ENDBRANCH   8  26
TORSDOF 6
ENDMDL
MODEL 7
REMARK VINA RESULT:    -6.890      4.481      5.541
REMARK INTER + INTRA:          -8.548
REMARK INTER:                  -8.214
REMARK INTRA:                  -0.334
REMARK UNBOUND:                -0.248
REMARK SMILES O=c1c(O)c(-c2ccc(O)c(O)c2)oc2cc(O)cc(O)c12
REMARK SMILES IDX 5 1 3 2 2 3 1 4 22 5 20 6 19 7 17 8 16 9 15 10 14 11 6 12
REMARK SMILES IDX 7 13 8 14 9 15 13 16 11 17 10 18 12 20 4 22 21 24 18 26
REMARK H PARENT 10 19 12 21 4 23 21 25 18 27
REMARK Flexibility Score: inf
ROOT
ATOM      1  C   UNL     1      75.567  -0.346  25.199  1.00  0.00     0.180 A 
ATOM      2  C   UNL     1      75.900   1.020  25.179  1.00  0.00     0.208 A 
ATOM      3  C   UNL     1      76.884   1.468  24.283  1.00  0.00     0.238 A 
ATOM      4  O   UNL     1      77.216   2.682  24.308  1.00  0.00    -0.285 OA
ATOM      5  C   UNL     1      77.512   0.549  23.409  1.00  0.00     0.111 A 
ATOM      6  C   UNL     1      78.493   0.899  22.433  1.00  0.00     0.134 A 
ATOM      7  C   UNL     1      79.141  -0.112  21.712  1.00  0.00     0.093 A 
ATOM      8  C   UNL     1      78.796  -1.455  21.885  1.00  0.00     0.123 A 
ATOM      9  C   UNL     1      77.798  -1.801  22.792  1.00  0.00     0.094 A 
ATOM     10  C   UNL     1      77.159  -0.819  23.552  1.00  0.00     0.146 A 
ATOM     11  O   UNL     1      76.220  -1.194  24.413  1.00  0.00    -0.452 OA
ENDROOT
BRANCH   1  12
ATOM     12  C   UNL     1      74.522  -0.889  26.098  1.00  0.00     0.025 A 
ATOM     13  C   UNL     1      74.893  -1.428  27.340  1.00  0.00     0.016 A 
ATOM     14  C   UNL     1      73.926  -1.964  28.195  1.00  0.00     0.051 A 
ATOM     15  C   UNL     1      72.581  -1.985  27.817  1.00  0.00     0.157 A 
ATOM     16  C   UNL     1      73.171  -0.930  25.710  1.00  0.00     0.062 A 
ATOM     17  C   UNL     1      72.201  -1.469  26.566  1.00  0.00     0.158 A 
BRANCH  15  18
ATOM     18  O   UNL     1      71.639  -2.524  28.691  1.00  0.00    -0.504 OA
ATOM     19  H   UNL     1      71.569  -3.521  28.861  1.00  0.00     0.293 HD
ENDBRANCH  15  18
BRANCH  17  20
ATOM     20  O   UNL     1      70.862  -1.501  26.176  1.00  0.00    -0.504 OA
ATOM     21  H   UNL     1      70.594  -1.536  25.199  1.00  0.00     0.293 HD
ENDBRANCH  17  20
ENDBRANCH   1  12
BRANCH   2  22
ATOM     22  O   UNL     1      75.283   1.907  26.067  1.00  0.00    -0.502 OA
ATOM     23  H   UNL     1      74.695   1.592  26.829  1.00  0.00     0.293 HD
ENDBRANCH   2  22
BRANCH   6  24
ATOM     24  O   UNL     1      78.844   2.215  22.117  1.00  0.00    -0.507 OA
ATOM     25  H   UNL     1      78.920   2.966  22.786  1.00  0.00     0.293 HD
ENDBRANCH   6  24
BRANCH   8  26
ATOM     26  O   UNL     1      79.435  -2.453  21.152  1.00  0.00    -0.508 OA
ATOM     27  H   UNL     1      80.153  -2.233  20.471  1.00  0.00     0.293 HD
ENDBRANCH   8  26
TORSDOF 6
ENDMDL
MODEL 8
REMARK VINA RESULT:    -6.765      5.709      6.852
REMARK INTER + INTRA:          -8.398
REMARK INTER:                  -8.080
REMARK INTRA:                  -0.318
REMARK UNBOUND:                -0.248
REMARK SMILES O=c1c(O)c(-c2ccc(O)c(O)c2)oc2cc(O)cc(O)c12
REMARK SMILES IDX 5 1 3 2 2 3 1 4 22 5 20 6 19 7 17 8 16 9 15 10 14 11 6 12
REMARK SMILES IDX 7 13 8 14 9 15 13 16 11 17 10 18 12 20 4 22 21 24 18 26
REMARK H PARENT 10 19 12 21 4 23 21 25 18 27
REMARK Flexibility Score: inf
ROOT
ATOM      1  C   UNL     1      75.562  -7.724  22.142  1.00  0.00     0.180 A 
ATOM      2  C   UNL     1      76.611  -7.670  21.207  1.00  0.00     0.208 A 
ATOM      3  C   UNL     1      76.424  -6.952  20.014  1.00  0.00     0.238 A 
ATOM      4  O   UNL     1      77.347  -6.953  19.159  1.00  0.00    -0.285 OA
ATOM      5  C   UNL     1      75.198  -6.286  19.777  1.00  0.00     0.111 A 
ATOM      6  C   UNL     1      74.915  -5.497  18.622  1.00  0.00     0.134 A 
ATOM      7  C   UNL     1      73.623  -4.991  18.432  1.00  0.00     0.093 A 
ATOM      8  C   UNL     1      72.622  -5.191  19.388  1.00  0.00     0.123 A 
ATOM      9  C   UNL     1      72.906  -5.910  20.546  1.00  0.00     0.094 A 
ATOM     10  C   UNL     1      74.176  -6.457  20.747  1.00  0.00     0.146 A 
ATOM     11  O   UNL     1      74.401  -7.144  21.861  1.00  0.00    -0.452 OA
ENDROOT
BRANCH   1  12
ATOM     12  C   UNL     1      75.693  -8.440  23.431  1.00  0.00     0.025 A 
ATOM     13  C   UNL     1      75.125  -9.716  23.573  1.00  0.00     0.016 A 
ATOM     14  C   UNL     1      75.219 -10.401  24.788  1.00  0.00     0.051 A 
ATOM     15  C   UNL     1      75.864  -9.817  25.881  1.00  0.00     0.157 A 
ATOM     16  C   UNL     1      76.323  -7.845  24.539  1.00  0.00     0.062 A 
ATOM     17  C   UNL     1      76.416  -8.530  25.758  1.00  0.00     0.158 A 
BRANCH  15  18
ATOM     18  O   UNL     1      75.944 -10.524  27.080  1.00  0.00    -0.504 OA
ATOM     19  H   UNL     1      75.982 -10.059  27.979  1.00  0.00     0.293 HD
ENDBRANCH  15  18
BRANCH  17  20
ATOM     20  O   UNL     1      77.048  -7.934  26.850  1.00  0.00    -0.504 OA
ATOM     21  H   UNL     1      77.800  -8.398  27.347  1.00  0.00     0.293 HD
ENDBRANCH  17  20
ENDBRANCH   1  12
BRANCH   2  22
ATOM     22  O   UNL     1      77.806  -8.354  21.451  1.00  0.00    -0.502 OA
ATOM     23  H   UNL     1      78.194  -8.456  22.381  1.00  0.00     0.293 HD
ENDBRANCH   2  22
BRANCH   6  24
ATOM     24  O   UNL     1      75.866  -5.160  17.655  1.00  0.00    -0.507 OA
ATOM     25  H   UNL     1      76.736  -5.649  17.510  1.00  0.00     0.293 HD
ENDBRANCH   6  24
BRANCH   8  26
ATOM     26  O   UNL     1      71.344  -4.671  19.197  1.00  0.00    -0.508 OA
ATOM     27  H   UNL     1      71.000  -4.434  18.274  1.00  0.00     0.293 HD
ENDBRANCH   8  26
TORSDOF 6
ENDMDL
MODEL 9
REMARK VINA RESULT:    -6.714      2.005      3.402
REMARK INTER + INTRA:          -8.336
REMARK INTER:                  -8.185
REMARK INTRA:                  -0.152
REMARK UNBOUND:                -0.248
REMARK SMILES O=c1c(O)c(-c2ccc(O)c(O)c2)oc2cc(O)cc(O)c12
REMARK SMILES IDX 5 1 3 2 2 3 1 4 22 5 20 6 19 7 17 8 16 9 15 10 14 11 6 12
REMARK SMILES IDX 7 13 8 14 9 15 13 16 11 17 10 18 12 20 4 22 21 24 18 26
REMARK H PARENT 10 19 12 21 4 23 21 25 18 27
REMARK Flexibility Score: inf
ROOT
ATOM      1  C   UNL     1      73.156  -3.086  23.668  1.00  0.00     0.180 A 
ATOM      2  C   UNL     1      72.105  -2.552  22.899  1.00  0.00     0.208 A 
ATOM      3  C   UNL     1      71.874  -3.066  21.612  1.00  0.00     0.238 A 
ATOM      4  O   UNL     1      70.968  -2.547  20.909  1.00  0.00    -0.285 OA
ATOM      5  C   UNL     1      72.685  -4.113  21.115  1.00  0.00     0.111 A 
ATOM      6  C   UNL     1      72.515  -4.736  19.842  1.00  0.00     0.134 A 
ATOM      7  C   UNL     1      73.457  -5.674  19.401  1.00  0.00     0.093 A 
ATOM      8  C   UNL     1      74.526  -6.060  20.215  1.00  0.00     0.123 A 
ATOM      9  C   UNL     1      74.666  -5.502  21.483  1.00  0.00     0.094 A 
ATOM     10  C   UNL     1      73.763  -4.537  21.937  1.00  0.00     0.146 A 
ATOM     11  O   UNL     1      73.940  -4.023  23.148  1.00  0.00    -0.452 OA
ENDROOT
BRANCH   1  12
ATOM     12  C   UNL     1      73.444  -2.614  25.041  1.00  0.00     0.025 A 
ATOM     13  C   UNL     1      74.713  -2.094  25.340  1.00  0.00     0.016 A 
ATOM     14  C   UNL     1      75.014  -1.663  26.635  1.00  0.00     0.051 A 
ATOM     15  C   UNL     1      74.060  -1.759  27.652  1.00  0.00     0.157 A 
ATOM     16  C   UNL     1      72.492  -2.730  26.071  1.00  0.00     0.062 A 
ATOM     17  C   UNL     1      72.794  -2.299  27.370  1.00  0.00     0.158 A 
BRANCH  15  18
ATOM     18  O   UNL     1      74.388  -1.319  28.933  1.00  0.00    -0.504 OA
ATOM     19  H   UNL     1      74.515  -0.337  29.150  1.00  0.00     0.293 HD
ENDBRANCH  15  18
BRANCH  17  20
ATOM     20  O   UNL     1      71.842  -2.412  28.383  1.00  0.00    -0.504 OA
ATOM     21  H   UNL     1      71.923  -1.891  29.249  1.00  0.00     0.293 HD
ENDBRANCH  17  20
ENDBRANCH   1  12
BRANCH   2  22
ATOM     22  O   UNL     1      71.330  -1.502  23.400  1.00  0.00    -0.502 OA
ATOM     23  H   UNL     1      71.443  -0.546  23.086  1.00  0.00     0.293 HD
ENDBRANCH   2  22
BRANCH   6  24
ATOM     24  O   UNL     1      71.434  -4.490  18.992  1.00  0.00    -0.507 OA
ATOM     25  H   UNL     1      70.983  -5.188  18.419  1.00  0.00     0.293 HD
ENDBRANCH   6  24
BRANCH   8  26
ATOM     26  O   UNL     1      75.449  -7.006  19.774  1.00  0.00    -0.508 OA
ATOM     27  H   UNL     1      75.161  -7.933  19.484  1.00  0.00     0.293 HD
ENDBRANCH   8  26
TORSDOF 6
ENDMDL
