MODEL 1
REMARK VINA RESULT:    -3.671      0.000      0.000
REMARK INTER + INTRA:          -6.696
REMARK INTER:                  -5.817
REMARK INTRA:                  -0.879
REMARK UNBOUND:                -0.879
REMARK SMILES CCCCCCCCCCCC(=O)[O-]
REMARK SMILES IDX 7 1 8 2 9 3 10 4 11 5 12 6 13 7 14 8 6 9 5 10 4 11 3 12 2 13
REMARK SMILES IDX 1 14
REMARK H PARENT
REMARK Flexibility Score: inf
ROOT
ATOM      1  C   UNL     1       4.243 -33.841  20.644  1.00  0.00     0.000 C 
ENDROOT
BRANCH   1   2
ATOM      2  C   UNL     1       4.902 -34.595  19.477  1.00  0.00     0.000 C 
BRANCH   2   3
ATOM      3  C   UNL     1       5.655 -35.853  19.939  1.00  0.00     0.000 C 
BRANCH   3   4
ATOM      4  C   UNL     1       4.854 -37.145  19.702  1.00  0.00     0.006 C 
BRANCH   4   5
ATOM      5  C   UNL     1       4.617 -37.925  21.001  1.00  0.00     0.053 C 
BRANCH   5   6
ATOM      6  C   UNL     1       5.431 -39.182  21.051  1.00  0.00     0.041 C 
ATOM      7  O   UNL     1       5.535 -39.828  22.127  1.00  0.00    -0.550 OA
ATOM      8  O   UNL     1       6.045 -39.658  19.901  1.00  0.00    -0.550 OA
ENDBRANCH   5   6
ENDBRANCH   4   5
ENDBRANCH   3   4
ENDBRANCH   2   3
ENDBRANCH   1   2
BRANCH   1   9
ATOM      9  C   UNL     1       4.632 -34.420  22.014  1.00  0.00     0.000 C 
BRANCH   9  10
ATOM     10  C   UNL     1       5.404 -33.418  22.886  1.00  0.00    -0.000 C 
BRANCH  10  11
ATOM     11  C   UNL     1       6.124 -34.131  24.036  1.00  0.00    -0.000 C 
BRANCH  11  12
ATOM     12  C   UNL     1       5.936 -35.652  23.946  1.00  0.00    -0.000 C 
BRANCH  12  13
ATOM     13  C   UNL     1       5.963 -36.334  25.323  1.00  0.00    -0.003 C 
ATOM     14  C   UNL     1       4.751 -37.235  25.561  1.00  0.00     0.004 C 
ENDBRANCH  12  13
ENDBRANCH  11  12
ENDBRANCH  10  11
ENDBRANCH   9  10
ENDBRANCH   1   9
TORSDOF 10
ENDMDL
MODEL 2
REMARK VINA RESULT:    -3.050      1.775      4.333
REMARK INTER + INTRA:          -5.712
REMARK INTER:                  -4.810
REMARK INTRA:                  -0.902
REMARK UNBOUND:                -0.879
REMARK SMILES CCCCCCCCCCCC(=O)[O-]
REMARK SMILES IDX 7 1 8 2 9 3 10 4 11 5 12 6 13 7 14 8 6 9 5 10 4 11 3 12 2 13
REMARK SMILES IDX 1 14
REMARK H PARENT
REMARK Flexibility Score: inf
ROOT
ATOM      1  C   UNL     1       4.219 -33.741  22.492  1.00  0.00     0.000 C 
ENDROOT
BRANCH   1   2
ATOM      2  C   UNL     1       5.741 -33.792  22.705  1.00  0.00     0.000 C 
BRANCH   2   3
ATOM      3  C   UNL     1       6.125 -34.371  24.077  1.00  0.00     0.000 C 
BRANCH   3   4
ATOM      4  C   UNL     1       5.923 -35.894  24.156  1.00  0.00     0.006 C 
BRANCH   4   5
ATOM      5  C   UNL     1       5.796 -36.386  25.604  1.00  0.00     0.053 C 
BRANCH   5   6
ATOM      6  C   UNL     1       4.801 -37.499  25.727  1.00  0.00     0.041 C 
ATOM      7  O   UNL     1       3.758 -37.345  26.416  1.00  0.00    -0.550 OA
ATOM      8  O   UNL     1       5.009 -38.694  25.052  1.00  0.00    -0.550 OA
ENDBRANCH   5   6
ENDBRANCH   4   5
ENDBRANCH   3   4
ENDBRANCH   2   3
ENDBRANCH   1   2
BRANCH   1   9
ATOM      9  C   UNL     1       3.757 -34.627  21.324  1.00  0.00     0.000 C 
BRANCH   9  10
ATOM     10  C   UNL     1       4.693 -34.545  20.109  1.00  0.00    -0.000 C 
BRANCH  10  11
ATOM     11  C   UNL     1       5.247 -35.928  19.747  1.00  0.00    -0.000 C 
BRANCH  11  12
ATOM     12  C   UNL     1       4.830 -36.978  20.787  1.00  0.00    -0.000 C 
BRANCH  12  13
ATOM     13  C   UNL     1       5.026 -38.417  20.285  1.00  0.00    -0.003 C 
ATOM     14  C   UNL     1       5.473 -39.374  21.392  1.00  0.00     0.004 C 
ENDBRANCH  12  13
ENDBRANCH  11  12
ENDBRANCH  10  11
ENDBRANCH   9  10
ENDBRANCH   1   9
TORSDOF 10
ENDMDL
MODEL 3
REMARK VINA RESULT:    -2.968      1.762      4.438
REMARK INTER + INTRA:          -5.583
REMARK INTER:                  -5.309
REMARK INTRA:                  -0.274
REMARK UNBOUND:                -0.879
REMARK SMILES CCCCCCCCCCCC(=O)[O-]
REMARK SMILES IDX 7 1 8 2 9 3 10 4 11 5 12 6 13 7 14 8 6 9 5 10 4 11 3 12 2 13
REMARK SMILES IDX 1 14
REMARK H PARENT
REMARK Flexibility Score: inf
ROOT
ATOM      1  C   UNL     1       5.091 -34.130  20.072  1.00  0.00     0.000 C 
ENDROOT
BRANCH   1   2
ATOM      2  C   UNL     1       3.903 -33.755  20.974  1.00  0.00     0.000 C 
BRANCH   2   3
ATOM      3  C   UNL     1       4.270 -33.772  22.467  1.00  0.00     0.000 C 
BRANCH   3   4
ATOM      4  C   UNL     1       5.787 -33.867  22.704  1.00  0.00     0.006 C 
BRANCH   4   5
ATOM      5  C   UNL     1       6.121 -34.409  24.100  1.00  0.00     0.053 C 
BRANCH   5   6
ATOM      6  C   UNL     1       5.797 -35.867  24.222  1.00  0.00     0.041 C 
ATOM      7  O   UNL     1       5.806 -36.606  23.202  1.00  0.00    -0.550 OA
ATOM      8  O   UNL     1       5.521 -36.415  25.467  1.00  0.00    -0.550 OA
ENDBRANCH   5   6
ENDBRANCH   4   5
ENDBRANCH   3   4
ENDBRANCH   2   3
ENDBRANCH   1   2
BRANCH   1   9
ATOM      9  C   UNL     1       4.645 -34.695  18.713  1.00  0.00     0.000 C 
BRANCH   9  10
ATOM     10  C   UNL     1       4.475 -36.221  18.731  1.00  0.00    -0.000 C 
BRANCH  10  11
ATOM     11  C   UNL     1       5.046 -36.823  20.020  1.00  0.00    -0.000 C 
BRANCH  11  12
ATOM     12  C   UNL     1       5.057 -38.357  19.954  1.00  0.00    -0.000 C 
BRANCH  12  13
ATOM     13  C   UNL     1       5.257 -39.007  21.332  1.00  0.00    -0.003 C 
ATOM     14  C   UNL     1       6.119 -40.269  21.272  1.00  0.00     0.004 C 
ENDBRANCH  12  13
ENDBRANCH  11  12
ENDBRANCH  10  11
ENDBRANCH   9  10
ENDBRANCH   1   9
TORSDOF 10
ENDMDL
MODEL 4
REMARK VINA RESULT:    -2.936      0.656      1.542
REMARK INTER + INTRA:          -5.532
REMARK INTER:                  -4.692
REMARK INTRA:                  -0.840
REMARK UNBOUND:                -0.879
REMARK SMILES CCCCCCCCCCCC(=O)[O-]
REMARK SMILES IDX 7 1 8 2 9 3 10 4 11 5 12 6 13 7 14 8 6 9 5 10 4 11 3 12 2 13
REMARK SMILES IDX 1 14
REMARK H PARENT
REMARK Flexibility Score: inf
ROOT
ATOM      1  C   UNL     1       4.328 -33.788  22.236  1.00  0.00     0.000 C 
ENDROOT
BRANCH   1   2
ATOM      2  C   UNL     1       4.234 -34.263  20.776  1.00  0.00     0.000 C 
BRANCH   2   3
ATOM      3  C   UNL     1       5.500 -35.003  20.316  1.00  0.00     0.000 C 
BRANCH   3   4
ATOM      4  C   UNL     1       5.210 -36.437  19.840  1.00  0.00     0.006 C 
BRANCH   4   5
ATOM      5  C   UNL     1       4.688 -37.328  20.975  1.00  0.00     0.053 C 
BRANCH   5   6
ATOM      6  C   UNL     1       5.241 -38.718  20.888  1.00  0.00     0.041 C 
ATOM      7  O   UNL     1       5.760 -39.129  19.817  1.00  0.00    -0.550 OA
ATOM      8  O   UNL     1       5.216 -39.546  22.002  1.00  0.00    -0.550 OA
ENDBRANCH   5   6
ENDBRANCH   4   5
ENDBRANCH   3   4
ENDBRANCH   2   3
ENDBRANCH   1   2
BRANCH   1   9
ATOM      9  C   UNL     1       5.779 -33.549  22.685  1.00  0.00     0.000 C 
BRANCH   9  10
ATOM     10  C   UNL     1       6.124 -34.278  23.992  1.00  0.00    -0.000 C 
BRANCH  10  11
ATOM     11  C   UNL     1       5.623 -35.726  23.963  1.00  0.00    -0.000 C 
BRANCH  11  12
ATOM     12  C   UNL     1       5.659 -36.351  25.366  1.00  0.00    -0.000 C 
BRANCH  12  13
ATOM     13  C   UNL     1       4.911 -37.691  25.436  1.00  0.00    -0.003 C 
ATOM     14  C   UNL     1       3.816 -37.701  26.504  1.00  0.00     0.004 C 
ENDBRANCH  12  13
ENDBRANCH  11  12
ENDBRANCH  10  11
ENDBRANCH   9  10
ENDBRANCH   1   9
TORSDOF 10
ENDMDL
MODEL 5
REMARK VINA RESULT:    -2.657      0.912      1.123
REMARK INTER + INTRA:          -5.090
REMARK INTER:                  -4.361
REMARK INTRA:                  -0.729
REMARK UNBOUND:                -0.879
REMARK SMILES CCCCCCCCCCCC(=O)[O-]
REMARK SMILES IDX 7 1 8 2 9 3 10 4 11 5 12 6 13 7 14 8 6 9 5 10 4 11 3 12 2 13
REMARK SMILES IDX 1 14
REMARK H PARENT
REMARK Flexibility Score: inf
ROOT
ATOM      1  C   UNL     1       4.394 -34.285  19.722  1.00  0.00     0.000 C 
ENDROOT
BRANCH   1   2
ATOM      2  C   UNL     1       4.441 -35.673  19.062  1.00  0.00     0.000 C 
BRANCH   2   3
ATOM      3  C   UNL     1       5.388 -36.640  19.792  1.00  0.00     0.000 C 
BRANCH   3   4
ATOM      4  C   UNL     1       4.713 -37.975  20.150  1.00  0.00     0.006 C 
BRANCH   4   5
ATOM      5  C   UNL     1       5.685 -39.158  20.056  1.00  0.00     0.053 C 
BRANCH   5   6
ATOM      6  C   UNL     1       5.727 -39.946  21.330  1.00  0.00     0.041 C 
ATOM      7  O   UNL     1       5.372 -39.415  22.416  1.00  0.00    -0.550 OA
ATOM      8  O   UNL     1       6.123 -41.276  21.312  1.00  0.00    -0.550 OA
ENDBRANCH   5   6
ENDBRANCH   4   5
ENDBRANCH   3   4
ENDBRANCH   2   3
ENDBRANCH   1   2
BRANCH   1   9
ATOM      9  C   UNL     1       5.335 -34.176  20.933  1.00  0.00     0.000 C 
BRANCH   9  10
ATOM     10  C   UNL     1       4.594 -33.831  22.233  1.00  0.00    -0.000 C 
BRANCH  10  11
ATOM     11  C   UNL     1       5.448 -34.170  23.460  1.00  0.00    -0.000 C 
BRANCH  11  12
ATOM     12  C   UNL     1       5.542 -35.690  23.664  1.00  0.00    -0.000 C 
BRANCH  12  13
ATOM     13  C   UNL     1       5.909 -36.072  25.106  1.00  0.00    -0.003 C 
ATOM     14  C   UNL     1       5.021 -37.183  25.668  1.00  0.00     0.004 C 
ENDBRANCH  12  13
ENDBRANCH  11  12
ENDBRANCH  10  11
ENDBRANCH   9  10
ENDBRANCH   1   9
TORSDOF 10
ENDMDL
MODEL 6
REMARK VINA RESULT:    -2.387      1.180      4.121
REMARK INTER + INTRA:          -4.662
REMARK INTER:                  -4.078
REMARK INTRA:                  -0.584
REMARK UNBOUND:                -0.879
REMARK SMILES CCCCCCCCCCCC(=O)[O-]
REMARK SMILES IDX 7 1 8 2 9 3 10 4 11 5 12 6 13 7 14 8 6 9 5 10 4 11 3 12 2 13
REMARK SMILES IDX 1 14
REMARK H PARENT
REMARK Flexibility Score: inf
ROOT
ATOM      1  C   UNL     1       5.581 -33.551  23.134  1.00  0.00     0.000 C 
ENDROOT
BRANCH   1   2
ATOM      2  C   UNL     1       6.124 -34.710  23.987  1.00  0.00     0.000 C 
BRANCH   2   3
ATOM      3  C   UNL     1       5.208 -35.945  23.951  1.00  0.00     0.000 C 
BRANCH   3   4
ATOM      4  C   UNL     1       5.721 -37.038  22.998  1.00  0.00     0.006 C 
BRANCH   4   5
ATOM      5  C   UNL     1       4.756 -37.287  21.831  1.00  0.00     0.053 C 
BRANCH   5   6
ATOM      6  C   UNL     1       5.113 -38.528  21.070  1.00  0.00     0.041 C 
ATOM      7  O   UNL     1       5.193 -38.500  19.814  1.00  0.00    -0.550 OA
ATOM      8  O   UNL     1       5.393 -39.704  21.752  1.00  0.00    -0.550 OA
ENDBRANCH   5   6
ENDBRANCH   4   5
ENDBRANCH   3   4
ENDBRANCH   2   3
ENDBRANCH   1   2
BRANCH   1   9
ATOM      9  C   UNL     1       4.289 -33.922  22.388  1.00  0.00     0.000 C 
BRANCH   9  10
ATOM     10  C   UNL     1       4.479 -33.986  20.866  1.00  0.00    -0.000 C 
BRANCH  10  11
ATOM     11  C   UNL     1       5.891 -34.462  20.507  1.00  0.00    -0.000 C 
BRANCH  11  12
ATOM     12  C   UNL     1       5.991 -34.818  19.016  1.00  0.00    -0.000 C 
BRANCH  12  13
ATOM     13  C   UNL     1       4.746 -34.395  18.222  1.00  0.00    -0.003 C 
ATOM     14  C   UNL     1       4.073 -35.567  17.508  1.00  0.00     0.004 C 
ENDBRANCH  12  13
ENDBRANCH  11  12
ENDBRANCH  10  11
ENDBRANCH   9  10
ENDBRANCH   1   9
TORSDOF 10
ENDMDL
MODEL 7
REMARK VINA RESULT:    -1.914      2.735      5.528
REMARK INTER + INTRA:          -3.913
REMARK INTER:                  -3.284
REMARK INTRA:                  -0.629
REMARK UNBOUND:                -0.879
REMARK SMILES CCCCCCCCCCCC(=O)[O-]
REMARK SMILES IDX 7 1 8 2 9 3 10 4 11 5 12 6 13 7 14 8 6 9 5 10 4 11 3 12 2 13
REMARK SMILES IDX 1 14
REMARK H PARENT
REMARK Flexibility Score: inf
ROOT
ATOM      1  C   UNL     1       5.008 -37.477  22.607  1.00  0.00     0.000 C 
ENDROOT
BRANCH   1   2
ATOM      2  C   UNL     1       6.058 -36.367  22.776  1.00  0.00     0.000 C 
BRANCH   2   3
ATOM      3  C   UNL     1       5.770 -35.463  23.985  1.00  0.00     0.000 C 
BRANCH   3   4
ATOM      4  C   UNL     1       5.395 -34.027  23.577  1.00  0.00     0.006 C 
BRANCH   4   5
ATOM      5  C   UNL     1       5.218 -33.885  22.060  1.00  0.00     0.053 C 
BRANCH   5   6
ATOM      6  C   UNL     1       3.771 -33.825  21.673  1.00  0.00     0.041 C 
ATOM      7  O   UNL     1       3.022 -34.818  21.864  1.00  0.00    -0.550 OA
ATOM      8  O   UNL     1       3.245 -32.658  21.136  1.00  0.00    -0.550 OA
ENDBRANCH   5   6
ENDBRANCH   4   5
ENDBRANCH   3   4
ENDBRANCH   2   3
ENDBRANCH   1   2
BRANCH   1   9
ATOM      9  C   UNL     1       5.372 -38.469  21.490  1.00  0.00     0.000 C 
BRANCH   9  10
ATOM     10  C   UNL     1       4.809 -38.055  20.122  1.00  0.00    -0.000 C 
BRANCH  10  11
ATOM     11  C   UNL     1       5.225 -36.624  19.766  1.00  0.00    -0.000 C 
BRANCH  11  12
ATOM     12  C   UNL     1       4.273 -36.015  18.726  1.00  0.00    -0.000 C 
BRANCH  12  13
ATOM     13  C   UNL     1       4.698 -34.604  18.289  1.00  0.00    -0.003 C 
ATOM     14  C   UNL     1       6.125 -34.258  18.715  1.00  0.00     0.004 C 
ENDBRANCH  12  13
ENDBRANCH  11  12
ENDBRANCH  10  11
ENDBRANCH   9  10
ENDBRANCH   1   9
TORSDOF 10
ENDMDL
MODEL 8
REMARK VINA RESULT:    -1.861      2.399      3.165
REMARK INTER + INTRA:          -3.828
REMARK INTER:                  -4.184
REMARK INTRA:                   0.355
REMARK UNBOUND:                -0.879
REMARK SMILES CCCCCCCCCCCC(=O)[O-]
REMARK SMILES IDX 7 1 8 2 9 3 10 4 11 5 12 6 13 7 14 8 6 9 5 10 4 11 3 12 2 13
REMARK SMILES IDX 1 14
REMARK H PARENT
REMARK Flexibility Score: inf
ROOT
ATOM      1  C   UNL     1       4.007 -34.044  22.399  1.00  0.00     0.000 C 
ENDROOT
BRANCH   1   2
ATOM      2  C   UNL     1       3.708 -35.189  21.416  1.00  0.00     0.000 C 
BRANCH   2   3
ATOM      3  C   UNL     1       4.794 -36.277  21.433  1.00  0.00     0.000 C 
BRANCH   3   4
ATOM      4  C   UNL     1       5.054 -36.877  20.040  1.00  0.00     0.006 C 
BRANCH   4   5
ATOM      5  C   UNL     1       4.276 -36.144  18.940  1.00  0.00     0.053 C 
BRANCH   5   6
ATOM      6  C   UNL     1       4.960 -34.876  18.527  1.00  0.00     0.041 C 
ATOM      7  O   UNL     1       4.464 -34.154  17.622  1.00  0.00    -0.550 OA
ATOM      8  O   UNL     1       6.125 -34.476  19.166  1.00  0.00    -0.550 OA
ENDBRANCH   5   6
ENDBRANCH   4   5
ENDBRANCH   3   4
ENDBRANCH   2   3
ENDBRANCH   1   2
BRANCH   1   9
ATOM      9  C   UNL     1       5.513 -33.847  22.634  1.00  0.00     0.000 C 
BRANCH   9  10
ATOM     10  C   UNL     1       5.965 -34.321  24.024  1.00  0.00    -0.000 C 
BRANCH  10  11
ATOM     11  C   UNL     1       6.010 -35.851  24.096  1.00  0.00    -0.000 C 
BRANCH  11  12
ATOM     12  C   UNL     1       5.852 -36.340  25.543  1.00  0.00    -0.000 C 
BRANCH  12  13
ATOM     13  C   UNL     1       5.021 -37.628  25.645  1.00  0.00    -0.003 C 
ATOM     14  C   UNL     1       3.753 -37.449  26.481  1.00  0.00     0.004 C 
ENDBRANCH  12  13
ENDBRANCH  11  12
ENDBRANCH  10  11
ENDBRANCH   9  10
ENDBRANCH   1   9
TORSDOF 10
ENDMDL
MODEL 9
REMARK VINA RESULT:    -1.535      2.045      3.940
REMARK INTER + INTRA:          -3.312
REMARK INTER:                  -2.855
REMARK INTRA:                  -0.457
REMARK UNBOUND:                -0.879
REMARK SMILES CCCCCCCCCCCC(=O)[O-]
REMARK SMILES IDX 7 1 8 2 9 3 10 4 11 5 12 6 13 7 14 8 6 9 5 10 4 11 3 12 2 13
REMARK SMILES IDX 1 14
REMARK H PARENT
REMARK Flexibility Score: inf
ROOT
ATOM      1  C   UNL     1       5.624 -34.028  23.147  1.00  0.00     0.000 C 
ENDROOT
BRANCH   1   2
ATOM      2  C   UNL     1       4.253 -33.866  22.470  1.00  0.00     0.000 C 
BRANCH   2   3
ATOM      3  C   UNL     1       4.333 -33.997  20.940  1.00  0.00     0.000 C 
BRANCH   3   4
ATOM      4  C   UNL     1       5.729 -34.423  20.453  1.00  0.00     0.006 C 
BRANCH   4   5
ATOM      5  C   UNL     1       5.797 -34.543  18.925  1.00  0.00     0.053 C 
BRANCH   5   6
ATOM      6  C   UNL     1       4.698 -35.407  18.386  1.00  0.00     0.041 C 
ATOM      7  O   UNL     1       3.869 -34.939  17.562  1.00  0.00    -0.550 OA
ATOM      8  O   UNL     1       4.612 -36.739  18.767  1.00  0.00    -0.550 OA
ENDBRANCH   5   6
ENDBRANCH   4   5
ENDBRANCH   3   4
ENDBRANCH   2   3
ENDBRANCH   1   2
BRANCH   1   9
ATOM      9  C   UNL     1       5.706 -35.292  24.018  1.00  0.00     0.000 C 
BRANCH   9  10
ATOM     10  C   UNL     1       6.125 -36.537  23.222  1.00  0.00    -0.000 C 
BRANCH  10  11
ATOM     11  C   UNL     1       4.899 -37.321  22.742  1.00  0.00    -0.000 C 
BRANCH  11  12
ATOM     12  C   UNL     1       5.096 -37.829  21.306  1.00  0.00    -0.000 C 
BRANCH  12  13
ATOM     13  C   UNL     1       5.612 -39.276  21.256  1.00  0.00    -0.003 C 
ATOM     14  C   UNL     1       5.082 -40.133  22.406  1.00  0.00     0.004 C 
ENDBRANCH  12  13
ENDBRANCH  11  12
ENDBRANCH  10  11
ENDBRANCH   9  10
ENDBRANCH   1   9
TORSDOF 10
ENDMDL
