MODEL 1
REMARK VINA RESULT:    -4.223      0.000      0.000
REMARK INTER + INTRA:         -15.786
REMARK INTER:                 -11.135
REMARK INTRA:                  -4.651
REMARK UNBOUND:                -4.651
REMARK SMILES CCCCCCCCCCCCCCCCCCCCCCCCCCCCCC(=O)[O-]
REMARK SMILES IDX 16 1 17 2 18 3 19 4 20 5 21 6 22 7 23 8 24 9 25 10 26 11
REMARK SMILES IDX 27 12 28 13 29 14 30 15 31 16 32 17 15 18 14 19 13 20 12 21
REMARK SMILES IDX 11 22 10 23 9 24 8 25 7 26 6 27 5 28 4 29 3 30 2 31 1 32
REMARK H PARENT
REMARK Flexibility Score: inf
ROOT
ATOM      1  C   UNL     1      29.591   9.871 -10.870  1.00  0.00     0.000 C 
ENDROOT
BRANCH   1   2
ATOM      2  C   UNL     1      30.824   8.980 -11.094  1.00  0.00     0.000 C 
BRANCH   2   3
ATOM      3  C   UNL     1      30.727   8.153 -12.387  1.00  0.00     0.000 C 
BRANCH   3   4
ATOM      4  C   UNL     1      29.283   8.096 -12.904  1.00  0.00     0.000 C 
BRANCH   4   5
ATOM      5  C   UNL     1      29.188   7.592 -14.357  1.00  0.00     0.000 C 
BRANCH   5   6
ATOM      6  C   UNL     1      30.530   7.528 -15.109  1.00  0.00     0.000 C 
BRANCH   6   7
ATOM      7  C   UNL     1      30.440   8.076 -16.546  1.00  0.00     0.000 C 
BRANCH   7   8
ATOM      8  C   UNL     1      29.012   7.965 -17.124  1.00  0.00     0.000 C 
BRANCH   8   9
ATOM      9  C   UNL     1      28.751   6.672 -17.918  1.00  0.00     0.000 C 
BRANCH   9  10
ATOM     10  C   UNL     1      27.254   6.355 -18.067  1.00  0.00     0.000 C 
BRANCH  10  11
ATOM     11  C   UNL     1      26.852   5.026 -17.398  1.00  0.00     0.000 C 
BRANCH  11  12
ATOM     12  C   UNL     1      27.201   4.911 -15.901  1.00  0.00     0.000 C 
BRANCH  12  13
ATOM     13  C   UNL     1      26.077   5.404 -14.978  1.00  0.00     0.006 C 
BRANCH  13  14
ATOM     14  C   UNL     1      26.479   5.292 -13.504  1.00  0.00     0.053 C 
BRANCH  14  15
ATOM     15  C   UNL     1      25.925   4.037 -12.902  1.00  0.00     0.041 C 
ATOM     16  O   UNL     1      25.015   3.395 -13.495  1.00  0.00    -0.550 OA
ATOM     17  O   UNL     1      26.445   3.551 -11.708  1.00  0.00    -0.550 OA
ENDBRANCH  14  15
ENDBRANCH  13  14
ENDBRANCH  12  13
ENDBRANCH  11  12
ENDBRANCH  10  11
ENDBRANCH   9  10
ENDBRANCH   8   9
ENDBRANCH   7   8
ENDBRANCH   6   7
ENDBRANCH   5   6
ENDBRANCH   4   5
ENDBRANCH   3   4
ENDBRANCH   2   3
ENDBRANCH   1   2
BRANCH   1  18
ATOM     18  C   UNL     1      29.874  11.385 -10.794  1.00  0.00     0.000 C 
BRANCH  18  19
ATOM     19  C   UNL     1      30.325  12.012 -12.132  1.00  0.00     0.000 C 
BRANCH  19  20
ATOM     20  C   UNL     1      29.281  11.842 -13.251  1.00  0.00     0.000 C 
BRANCH  20  21
ATOM     21  C   UNL     1      29.903  11.298 -14.549  1.00  0.00     0.000 C 
BRANCH  21  22
ATOM     22  C   UNL     1      28.940  11.402 -15.742  1.00  0.00     0.000 C 
BRANCH  22  23
ATOM     23  C   UNL     1      29.596  12.142 -16.919  1.00  0.00     0.000 C 
BRANCH  23  24
ATOM     24  C   UNL     1      28.862  13.442 -17.298  1.00  0.00    -0.000 C 
BRANCH  24  25
ATOM     25  C   UNL     1      29.694  14.732 -17.154  1.00  0.00    -0.000 C 
BRANCH  25  26
ATOM     26  C   UNL     1      30.816  14.671 -16.102  1.00  0.00    -0.000 C 
BRANCH  26  27
ATOM     27  C   UNL     1      30.775  15.854 -15.118  1.00  0.00    -0.000 C 
BRANCH  27  28
ATOM     28  C   UNL     1      29.353  16.145 -14.612  1.00  0.00    -0.000 C 
BRANCH  28  29
ATOM     29  C   UNL     1      28.881  15.122 -13.564  1.00  0.00    -0.000 C 
BRANCH  29  30
ATOM     30  C   UNL     1      27.600  15.565 -12.842  1.00  0.00    -0.000 C 
BRANCH  30  31
ATOM     31  C   UNL     1      27.371  14.812 -11.524  1.00  0.00    -0.003 C 
ATOM     32  C   UNL     1      26.411  13.641 -11.723  1.00  0.00     0.004 C 
ENDBRANCH  30  31
ENDBRANCH  29  30
ENDBRANCH  28  29
ENDBRANCH  27  28
ENDBRANCH  26  27
ENDBRANCH  25  26
ENDBRANCH  24  25
ENDBRANCH  23  24
ENDBRANCH  22  23
ENDBRANCH  21  22
ENDBRANCH  20  21
ENDBRANCH  19  20
ENDBRANCH  18  19
ENDBRANCH   1  18
TORSDOF 28
ENDMDL
MODEL 2
REMARK VINA RESULT:    -4.096      9.986     15.709
REMARK INTER + INTRA:         -15.451
REMARK INTER:                 -10.665
REMARK INTRA:                  -4.785
REMARK UNBOUND:                -4.651
REMARK SMILES CCCCCCCCCCCCCCCCCCCCCCCCCCCCCC(=O)[O-]
REMARK SMILES IDX 16 1 17 2 18 3 19 4 20 5 21 6 22 7 23 8 24 9 25 10 26 11
REMARK SMILES IDX 27 12 28 13 29 14 30 15 31 16 32 17 15 18 14 19 13 20 12 21
REMARK SMILES IDX 11 22 10 23 9 24 8 25 7 26 6 27 5 28 4 29 3 30 2 31 1 32
REMARK H PARENT
REMARK Flexibility Score: inf
ROOT
ATOM      1  C   UNL     1      17.831   0.686 -16.693  1.00  0.00     0.000 C 
ENDROOT
BRANCH   1   2
ATOM      2  C   UNL     1      17.366  -0.465 -17.600  1.00  0.00     0.000 C 
BRANCH   2   3
ATOM      3  C   UNL     1      18.336  -1.657 -17.585  1.00  0.00     0.000 C 
BRANCH   3   4
ATOM      4  C   UNL     1      19.575  -1.377 -18.447  1.00  0.00     0.000 C 
BRANCH   4   5
ATOM      5  C   UNL     1      20.849  -2.046 -17.896  1.00  0.00     0.000 C 
BRANCH   5   6
ATOM      6  C   UNL     1      21.212  -1.658 -16.450  1.00  0.00     0.000 C 
BRANCH   6   7
ATOM      7  C   UNL     1      21.439  -0.145 -16.274  1.00  0.00     0.000 C 
BRANCH   7   8
ATOM      8  C   UNL     1      22.086   0.193 -14.913  1.00  0.00     0.000 C 
BRANCH   8   9
ATOM      9  C   UNL     1      21.987  -0.935 -13.869  1.00  0.00     0.000 C 
BRANCH   9  10
ATOM     10  C   UNL     1      22.000  -0.413 -12.423  1.00  0.00     0.000 C 
BRANCH  10  11
ATOM     11  C   UNL     1      21.956   1.124 -12.338  1.00  0.00     0.000 C 
BRANCH  11  12
ATOM     12  C   UNL     1      23.286   1.799 -11.949  1.00  0.00     0.000 C 
BRANCH  12  13
ATOM     13  C   UNL     1      24.369   0.800 -11.516  1.00  0.00     0.006 C 
BRANCH  13  14
ATOM     14  C   UNL     1      25.725   1.489 -11.341  1.00  0.00     0.053 C 
BRANCH  14  15
ATOM     15  C   UNL     1      26.452   1.559 -12.649  1.00  0.00     0.041 C 
ATOM     16  O   UNL     1      27.139   0.579 -13.048  1.00  0.00    -0.550 OA
ATOM     17  O   UNL     1      26.334   2.688 -13.451  1.00  0.00    -0.550 OA
ENDBRANCH  14  15
ENDBRANCH  13  14
ENDBRANCH  12  13
ENDBRANCH  11  12
ENDBRANCH  10  11
ENDBRANCH   9  10
ENDBRANCH   8   9
ENDBRANCH   7   8
ENDBRANCH   6   7
ENDBRANCH   5   6
ENDBRANCH   4   5
ENDBRANCH   3   4
ENDBRANCH   2   3
ENDBRANCH   1   2
BRANCH   1  18
ATOM     18  C   UNL     1      17.350   0.613 -15.230  1.00  0.00     0.000 C 
BRANCH  18  19
ATOM     19  C   UNL     1      18.435   0.161 -14.230  1.00  0.00     0.000 C 
BRANCH  19  20
ATOM     20  C   UNL     1      18.247  -1.296 -13.764  1.00  0.00     0.000 C 
BRANCH  20  21
ATOM     21  C   UNL     1      18.114  -1.405 -12.235  1.00  0.00     0.000 C 
BRANCH  21  22
ATOM     22  C   UNL     1      16.662  -1.648 -11.795  1.00  0.00     0.000 C 
BRANCH  22  23
ATOM     23  C   UNL     1      15.905  -0.320 -11.633  1.00  0.00     0.000 C 
BRANCH  23  24
ATOM     24  C   UNL     1      14.701  -0.194 -12.585  1.00  0.00    -0.000 C 
BRANCH  24  25
ATOM     25  C   UNL     1      14.494  -1.384 -13.545  1.00  0.00    -0.000 C 
BRANCH  25  26
ATOM     26  C   UNL     1      14.142  -0.999 -14.993  1.00  0.00    -0.000 C 
BRANCH  26  27
ATOM     27  C   UNL     1      12.801  -0.252 -15.101  1.00  0.00    -0.000 C 
BRANCH  27  28
ATOM     28  C   UNL     1      12.763   0.710 -16.300  1.00  0.00    -0.000 C 
BRANCH  28  29
ATOM     29  C   UNL     1      14.164   0.991 -16.873  1.00  0.00    -0.000 C 
BRANCH  29  30
ATOM     30  C   UNL     1      14.150   2.077 -17.959  1.00  0.00    -0.000 C 
BRANCH  30  31
ATOM     31  C   UNL     1      15.025   3.286 -17.598  1.00  0.00    -0.003 C 
ATOM     32  C   UNL     1      16.188   3.430 -18.577  1.00  0.00     0.004 C 
ENDBRANCH  30  31
ENDBRANCH  29  30
ENDBRANCH  28  29
ENDBRANCH  27  28
ENDBRANCH  26  27
ENDBRANCH  25  26
ENDBRANCH  24  25
ENDBRANCH  23  24
ENDBRANCH  22  23
ENDBRANCH  21  22
ENDBRANCH  20  21
ENDBRANCH  19  20
ENDBRANCH  18  19
ENDBRANCH   1  18
TORSDOF 28
ENDMDL
MODEL 3
REMARK VINA RESULT:    -4.074      1.759      4.374
REMARK INTER + INTRA:         -15.394
REMARK INTER:                 -11.862
REMARK INTRA:                  -3.532
REMARK UNBOUND:                -4.651
REMARK SMILES CCCCCCCCCCCCCCCCCCCCCCCCCCCCCC(=O)[O-]
REMARK SMILES IDX 16 1 17 2 18 3 19 4 20 5 21 6 22 7 23 8 24 9 25 10 26 11
REMARK SMILES IDX 27 12 28 13 29 14 30 15 31 16 32 17 15 18 14 19 13 20 12 21
REMARK SMILES IDX 11 22 10 23 9 24 8 25 7 26 6 27 5 28 4 29 3 30 2 31 1 32
REMARK H PARENT
REMARK Flexibility Score: inf
ROOT
ATOM      1  C   UNL     1      28.549  11.379 -10.885  1.00  0.00     0.000 C 
ENDROOT
BRANCH   1   2
ATOM      2  C   UNL     1      29.260  10.496  -9.847  1.00  0.00     0.000 C 
BRANCH   2   3
ATOM      3  C   UNL     1      30.409   9.677 -10.456  1.00  0.00     0.000 C 
BRANCH   3   4
ATOM      4  C   UNL     1      30.897  10.297 -11.772  1.00  0.00     0.000 C 
BRANCH   4   5
ATOM      5  C   UNL     1      30.760   9.337 -12.971  1.00  0.00     0.000 C 
BRANCH   5   6
ATOM      6  C   UNL     1      29.428   8.567 -13.036  1.00  0.00     0.000 C 
BRANCH   6   7
ATOM      7  C   UNL     1      29.612   7.040 -12.956  1.00  0.00     0.000 C 
BRANCH   7   8
ATOM      8  C   UNL     1      28.552   6.281 -13.783  1.00  0.00     0.000 C 
BRANCH   8   9
ATOM      9  C   UNL     1      28.439   4.784 -13.442  1.00  0.00     0.000 C 
BRANCH   9  10
ATOM     10  C   UNL     1      27.006   4.246 -13.583  1.00  0.00     0.000 C 
BRANCH  10  11
ATOM     11  C   UNL     1      25.938   5.354 -13.514  1.00  0.00     0.000 C 
BRANCH  11  12
ATOM     12  C   UNL     1      24.872   5.310 -14.627  1.00  0.00     0.000 C 
BRANCH  12  13
ATOM     13  C   UNL     1      23.620   4.513 -14.236  1.00  0.00     0.006 C 
BRANCH  13  14
ATOM     14  C   UNL     1      23.774   3.029 -14.583  1.00  0.00     0.053 C 
BRANCH  14  15
ATOM     15  C   UNL     1      23.912   2.209 -13.336  1.00  0.00     0.041 C 
ATOM     16  O   UNL     1      23.188   2.453 -12.332  1.00  0.00    -0.550 OA
ATOM     17  O   UNL     1      24.806   1.146 -13.299  1.00  0.00    -0.550 OA
ENDBRANCH  14  15
ENDBRANCH  13  14
ENDBRANCH  12  13
ENDBRANCH  11  12
ENDBRANCH  10  11
ENDBRANCH   9  10
ENDBRANCH   8   9
ENDBRANCH   7   8
ENDBRANCH   6   7
ENDBRANCH   5   6
ENDBRANCH   4   5
ENDBRANCH   3   4
ENDBRANCH   2   3
ENDBRANCH   1   2
BRANCH   1  18
ATOM     18  C   UNL     1      27.094  11.761 -10.545  1.00  0.00     0.000 C 
BRANCH  18  19
ATOM     19  C   UNL     1      26.604  13.056 -11.228  1.00  0.00     0.000 C 
BRANCH  19  20
ATOM     20  C   UNL     1      27.762  13.962 -11.688  1.00  0.00     0.000 C 
BRANCH  20  21
ATOM     21  C   UNL     1      27.796  14.132 -13.217  1.00  0.00     0.000 C 
BRANCH  21  22
ATOM     22  C   UNL     1      29.104  13.611 -13.829  1.00  0.00     0.000 C 
BRANCH  22  23
ATOM     23  C   UNL     1      28.884  12.268 -14.543  1.00  0.00     0.000 C 
BRANCH  23  24
ATOM     24  C   UNL     1      28.447  12.430 -16.011  1.00  0.00    -0.000 C 
BRANCH  24  25
ATOM     25  C   UNL     1      29.089  13.615 -16.761  1.00  0.00    -0.000 C 
BRANCH  25  26
ATOM     26  C   UNL     1      29.901  13.231 -18.011  1.00  0.00    -0.000 C 
BRANCH  26  27
ATOM     27  C   UNL     1      30.804  12.006 -17.782  1.00  0.00    -0.000 C 
BRANCH  27  28
ATOM     28  C   UNL     1      30.715  10.990 -18.934  1.00  0.00    -0.000 C 
BRANCH  28  29
ATOM     29  C   UNL     1      30.680   9.535 -18.433  1.00  0.00    -0.000 C 
BRANCH  29  30
ATOM     30  C   UNL     1      30.099   9.414 -17.016  1.00  0.00    -0.000 C 
BRANCH  30  31
ATOM     31  C   UNL     1      29.227   8.163 -16.839  1.00  0.00    -0.003 C 
ATOM     32  C   UNL     1      29.516   7.136 -17.932  1.00  0.00     0.004 C 
ENDBRANCH  30  31
ENDBRANCH  29  30
ENDBRANCH  28  29
ENDBRANCH  27  28
ENDBRANCH  26  27
ENDBRANCH  25  26
ENDBRANCH  24  25
ENDBRANCH  23  24
ENDBRANCH  22  23
ENDBRANCH  21  22
ENDBRANCH  20  21
ENDBRANCH  19  20
ENDBRANCH  18  19
ENDBRANCH   1  18
TORSDOF 28
ENDMDL
MODEL 4
REMARK VINA RESULT:    -4.068      2.824      8.094
REMARK INTER + INTRA:         -15.377
REMARK INTER:                 -11.818
REMARK INTRA:                  -3.559
REMARK UNBOUND:                -4.651
REMARK SMILES CCCCCCCCCCCCCCCCCCCCCCCCCCCCCC(=O)[O-]
REMARK SMILES IDX 16 1 17 2 18 3 19 4 20 5 21 6 22 7 23 8 24 9 25 10 26 11
REMARK SMILES IDX 27 12 28 13 29 14 30 15 31 16 32 17 15 18 14 19 13 20 12 21
REMARK SMILES IDX 11 22 10 23 9 24 8 25 7 26 6 27 5 28 4 29 3 30 2 31 1 32
REMARK H PARENT
REMARK Flexibility Score: inf
ROOT
ATOM      1  C   UNL     1      29.978  12.528 -11.906  1.00  0.00     0.000 C 
ENDROOT
BRANCH   1   2
ATOM      2  C   UNL     1      30.635  11.884 -13.138  1.00  0.00     0.000 C 
BRANCH   2   3
ATOM      3  C   UNL     1      29.674  11.779 -14.333  1.00  0.00     0.000 C 
BRANCH   3   4
ATOM      4  C   UNL     1      30.359  11.130 -15.543  1.00  0.00     0.000 C 
BRANCH   4   5
ATOM      5  C   UNL     1      29.722  11.544 -16.883  1.00  0.00     0.000 C 
BRANCH   5   6
ATOM      6  C   UNL     1      28.838  12.804 -16.819  1.00  0.00     0.000 C 
BRANCH   6   7
ATOM      7  C   UNL     1      29.234  13.868 -17.858  1.00  0.00     0.000 C 
BRANCH   7   8
ATOM      8  C   UNL     1      29.693  15.187 -17.198  1.00  0.00     0.000 C 
BRANCH   8   9
ATOM      9  C   UNL     1      30.416  15.000 -15.852  1.00  0.00     0.000 C 
BRANCH   9  10
ATOM     10  C   UNL     1      29.904  15.954 -14.761  1.00  0.00     0.000 C 
BRANCH  10  11
ATOM     11  C   UNL     1      28.837  15.312 -13.853  1.00  0.00     0.000 C 
BRANCH  11  12
ATOM     12  C   UNL     1      27.991  16.302 -13.031  1.00  0.00     0.000 C 
BRANCH  12  13
ATOM     13  C   UNL     1      26.790  15.643 -12.337  1.00  0.00     0.006 C 
BRANCH  13  14
ATOM     14  C   UNL     1      26.873  14.115 -12.413  1.00  0.00     0.053 C 
BRANCH  14  15
ATOM     15  C   UNL     1      26.123  13.491 -11.276  1.00  0.00     0.041 C 
ATOM     16  O   UNL     1      26.494  12.383 -10.801  1.00  0.00    -0.550 OA
ATOM     17  O   UNL     1      25.041  14.155 -10.710  1.00  0.00    -0.550 OA
ENDBRANCH  14  15
ENDBRANCH  13  14
ENDBRANCH  12  13
ENDBRANCH  11  12
ENDBRANCH  10  11
ENDBRANCH   9  10
ENDBRANCH   8   9
ENDBRANCH   7   8
ENDBRANCH   6   7
ENDBRANCH   5   6
ENDBRANCH   4   5
ENDBRANCH   3   4
ENDBRANCH   2   3
ENDBRANCH   1   2
BRANCH   1  18
ATOM     18  C   UNL     1      30.377  11.918 -10.548  1.00  0.00     0.000 C 
BRANCH  18  19
ATOM     19  C   UNL     1      29.508  10.717 -10.115  1.00  0.00     0.000 C 
BRANCH  19  20
ATOM     20  C   UNL     1      30.344   9.470  -9.771  1.00  0.00     0.000 C 
BRANCH  20  21
ATOM     21  C   UNL     1      30.822   8.725 -11.030  1.00  0.00     0.000 C 
BRANCH  21  22
ATOM     22  C   UNL     1      29.707   8.583 -12.078  1.00  0.00     0.000 C 
BRANCH  22  23
ATOM     23  C   UNL     1      30.269   8.081 -13.418  1.00  0.00     0.000 C 
BRANCH  23  24
ATOM     24  C   UNL     1      29.184   7.509 -14.349  1.00  0.00    -0.000 C 
BRANCH  24  25
ATOM     25  C   UNL     1      28.091   6.675 -13.651  1.00  0.00    -0.000 C 
BRANCH  25  26
ATOM     26  C   UNL     1      28.001   5.208 -14.107  1.00  0.00    -0.000 C 
BRANCH  26  27
ATOM     27  C   UNL     1      27.127   5.027 -15.361  1.00  0.00    -0.000 C 
BRANCH  27  28
ATOM     28  C   UNL     1      25.687   4.611 -15.016  1.00  0.00    -0.000 C 
BRANCH  28  29
ATOM     29  C   UNL     1      24.871   5.767 -14.408  1.00  0.00    -0.000 C 
BRANCH  29  30
ATOM     30  C   UNL     1      23.548   6.007 -15.150  1.00  0.00    -0.000 C 
BRANCH  30  31
ATOM     31  C   UNL     1      22.543   6.818 -14.319  1.00  0.00    -0.003 C 
ATOM     32  C   UNL     1      23.256   7.871 -13.475  1.00  0.00     0.004 C 
ENDBRANCH  30  31
ENDBRANCH  29  30
ENDBRANCH  28  29
ENDBRANCH  27  28
ENDBRANCH  26  27
ENDBRANCH  25  26
ENDBRANCH  24  25
ENDBRANCH  23  24
ENDBRANCH  22  23
ENDBRANCH  21  22
ENDBRANCH  20  21
ENDBRANCH  19  20
ENDBRANCH  18  19
ENDBRANCH   1  18
TORSDOF 28
ENDMDL
MODEL 5
REMARK VINA RESULT:    -4.038      8.311     14.788
REMARK INTER + INTRA:         -15.300
REMARK INTER:                 -10.778
REMARK INTRA:                  -4.522
REMARK UNBOUND:                -4.651
REMARK SMILES CCCCCCCCCCCCCCCCCCCCCCCCCCCCCC(=O)[O-]
REMARK SMILES IDX 16 1 17 2 18 3 19 4 20 5 21 6 22 7 23 8 24 9 25 10 26 11
REMARK SMILES IDX 27 12 28 13 29 14 30 15 31 16 32 17 15 18 14 19 13 20 12 21
REMARK SMILES IDX 11 22 10 23 9 24 8 25 7 26 6 27 5 28 4 29 3 30 2 31 1 32
REMARK H PARENT
REMARK Flexibility Score: inf
ROOT
ATOM      1  C   UNL     1      20.193  -0.746 -17.035  1.00  0.00     0.000 C 
ENDROOT
BRANCH   1   2
ATOM      2  C   UNL     1      21.334  -1.594 -17.619  1.00  0.00     0.000 C 
BRANCH   2   3
ATOM      3  C   UNL     1      22.365  -2.009 -16.556  1.00  0.00     0.000 C 
BRANCH   3   4
ATOM      4  C   UNL     1      23.617  -1.124 -16.620  1.00  0.00     0.000 C 
BRANCH   4   5
ATOM      5  C   UNL     1      24.101  -0.673 -15.229  1.00  0.00     0.000 C 
BRANCH   5   6
ATOM      6  C   UNL     1      23.509  -1.465 -14.048  1.00  0.00     0.000 C 
BRANCH   6   7
ATOM      7  C   UNL     1      23.785  -0.806 -12.684  1.00  0.00     0.000 C 
BRANCH   7   8
ATOM      8  C   UNL     1      22.537  -0.092 -12.118  1.00  0.00     0.000 C 
BRANCH   8   9
ATOM      9  C   UNL     1      22.521   1.429 -12.350  1.00  0.00     0.000 C 
BRANCH   9  10
ATOM     10  C   UNL     1      23.930   2.040 -12.410  1.00  0.00     0.000 C 
BRANCH  10  11
ATOM     11  C   UNL     1      24.054   3.165 -13.455  1.00  0.00     0.000 C 
BRANCH  11  12
ATOM     12  C   UNL     1      23.557   2.806 -14.869  1.00  0.00     0.000 C 
BRANCH  12  13
ATOM     13  C   UNL     1      23.372   4.032 -15.775  1.00  0.00     0.006 C 
BRANCH  13  14
ATOM     14  C   UNL     1      23.629   5.334 -15.010  1.00  0.00     0.053 C 
BRANCH  14  15
ATOM     15  C   UNL     1      22.517   6.310 -15.245  1.00  0.00     0.041 C 
ATOM     16  O   UNL     1      21.647   6.081 -16.130  1.00  0.00    -0.550 OA
ATOM     17  O   UNL     1      22.414   7.449 -14.456  1.00  0.00    -0.550 OA
ENDBRANCH  14  15
ENDBRANCH  13  14
ENDBRANCH  12  13
ENDBRANCH  11  12
ENDBRANCH  10  11
ENDBRANCH   9  10
ENDBRANCH   8   9
ENDBRANCH   7   8
ENDBRANCH   6   7
ENDBRANCH   5   6
ENDBRANCH   4   5
ENDBRANCH   3   4
ENDBRANCH   2   3
ENDBRANCH   1   2
BRANCH   1  18
ATOM     18  C   UNL     1      20.318  -0.408 -15.536  1.00  0.00     0.000 C 
BRANCH  18  19
ATOM     19  C   UNL     1      19.534  -1.359 -14.606  1.00  0.00     0.000 C 
BRANCH  19  20
ATOM     20  C   UNL     1      19.240  -0.735 -13.228  1.00  0.00     0.000 C 
BRANCH  20  21
ATOM     21  C   UNL     1      19.286  -1.776 -12.097  1.00  0.00     0.000 C 
BRANCH  21  22
ATOM     22  C   UNL     1      18.046  -1.705 -11.192  1.00  0.00     0.000 C 
BRANCH  22  23
ATOM     23  C   UNL     1      16.767  -2.024 -11.981  1.00  0.00     0.000 C 
BRANCH  23  24
ATOM     24  C   UNL     1      15.769  -0.851 -12.010  1.00  0.00    -0.000 C 
BRANCH  24  25
ATOM     25  C   UNL     1      15.506  -0.246 -13.404  1.00  0.00    -0.000 C 
BRANCH  25  26
ATOM     26  C   UNL     1      15.613  -1.239 -14.576  1.00  0.00    -0.000 C 
BRANCH  26  27
ATOM     27  C   UNL     1      16.185  -0.595 -15.852  1.00  0.00    -0.000 C 
BRANCH  27  28
ATOM     28  C   UNL     1      16.774   0.801 -15.588  1.00  0.00    -0.000 C 
BRANCH  28  29
ATOM     29  C   UNL     1      17.229   1.500 -16.882  1.00  0.00    -0.000 C 
BRANCH  29  30
ATOM     30  C   UNL     1      16.176   1.420 -17.997  1.00  0.00    -0.000 C 
BRANCH  30  31
ATOM     31  C   UNL     1      15.036   2.432 -17.809  1.00  0.00    -0.003 C 
ATOM     32  C   UNL     1      13.704   1.719 -17.592  1.00  0.00     0.004 C 
ENDBRANCH  30  31
ENDBRANCH  29  30
ENDBRANCH  28  29
ENDBRANCH  27  28
ENDBRANCH  26  27
ENDBRANCH  25  26
ENDBRANCH  24  25
ENDBRANCH  23  24
ENDBRANCH  22  23
ENDBRANCH  21  22
ENDBRANCH  20  21
ENDBRANCH  19  20
ENDBRANCH  18  19
ENDBRANCH   1  18
TORSDOF 28
ENDMDL
MODEL 6
REMARK VINA RESULT:    -4.010      1.402      4.137
REMARK INTER + INTRA:         -15.225
REMARK INTER:                 -11.052
REMARK INTRA:                  -4.173
REMARK UNBOUND:                -4.651
REMARK SMILES CCCCCCCCCCCCCCCCCCCCCCCCCCCCCC(=O)[O-]
REMARK SMILES IDX 16 1 17 2 18 3 19 4 20 5 21 6 22 7 23 8 24 9 25 10 26 11
REMARK SMILES IDX 27 12 28 13 29 14 30 15 31 16 32 17 15 18 14 19 13 20 12 21
REMARK SMILES IDX 11 22 10 23 9 24 8 25 7 26 6 27 5 28 4 29 3 30 2 31 1 32
REMARK H PARENT
REMARK Flexibility Score: inf
ROOT
ATOM      1  C   UNL     1      27.032  11.791 -10.500  1.00  0.00     0.000 C 
ENDROOT
BRANCH   1   2
ATOM      2  C   UNL     1      28.377  11.328 -11.083  1.00  0.00     0.000 C 
BRANCH   2   3
ATOM      3  C   UNL     1      29.269  10.639 -10.037  1.00  0.00     0.000 C 
BRANCH   3   4
ATOM      4  C   UNL     1      30.628  10.251 -10.633  1.00  0.00     0.000 C 
BRANCH   4   5
ATOM      5  C   UNL     1      30.726   8.751 -10.970  1.00  0.00     0.000 C 
BRANCH   5   6
ATOM      6  C   UNL     1      30.770   8.426 -12.475  1.00  0.00     0.000 C 
BRANCH   6   7
ATOM      7  C   UNL     1      29.631   7.491 -12.921  1.00  0.00     0.000 C 
BRANCH   7   8
ATOM      8  C   UNL     1      29.360   7.583 -14.439  1.00  0.00     0.000 C 
BRANCH   8   9
ATOM      9  C   UNL     1      30.470   6.977 -15.316  1.00  0.00     0.000 C 
BRANCH   9  10
ATOM     10  C   UNL     1      30.196   7.135 -16.820  1.00  0.00     0.000 C 
BRANCH  10  11
ATOM     11  C   UNL     1      28.707   7.368 -17.139  1.00  0.00     0.000 C 
BRANCH  11  12
ATOM     12  C   UNL     1      28.127   6.483 -18.259  1.00  0.00     0.000 C 
BRANCH  12  13
ATOM     13  C   UNL     1      27.185   5.387 -17.738  1.00  0.00     0.006 C 
BRANCH  13  14
ATOM     14  C   UNL     1      27.215   5.307 -16.209  1.00  0.00     0.053 C 
BRANCH  14  15
ATOM     15  C   UNL     1      25.893   4.840 -15.681  1.00  0.00     0.041 C 
ATOM     16  O   UNL     1      24.990   5.674 -15.402  1.00  0.00    -0.550 OA
ATOM     17  O   UNL     1      25.642   3.480 -15.542  1.00  0.00    -0.550 OA
ENDBRANCH  14  15
ENDBRANCH  13  14
ENDBRANCH  12  13
ENDBRANCH  11  12
ENDBRANCH  10  11
ENDBRANCH   9  10
ENDBRANCH   8   9
ENDBRANCH   7   8
ENDBRANCH   6   7
ENDBRANCH   5   6
ENDBRANCH   4   5
ENDBRANCH   3   4
ENDBRANCH   2   3
ENDBRANCH   1   2
BRANCH   1  18
ATOM     18  C   UNL     1      26.248  12.799 -11.363  1.00  0.00     0.000 C 
BRANCH  18  19
ATOM     19  C   UNL     1      26.381  14.266 -10.900  1.00  0.00     0.000 C 
BRANCH  19  20
ATOM     20  C   UNL     1      27.085  15.158 -11.940  1.00  0.00     0.000 C 
BRANCH  20  21
ATOM     21  C   UNL     1      27.773  14.334 -13.043  1.00  0.00     0.000 C 
BRANCH  21  22
ATOM     22  C   UNL     1      28.875  15.129 -13.759  1.00  0.00     0.000 C 
BRANCH  22  23
ATOM     23  C   UNL     1      30.004  14.201 -14.236  1.00  0.00     0.000 C 
BRANCH  23  24
ATOM     24  C   UNL     1      30.169  12.950 -13.354  1.00  0.00    -0.000 C 
BRANCH  24  25
ATOM     25  C   UNL     1      30.530  11.655 -14.110  1.00  0.00    -0.000 C 
BRANCH  25  26
ATOM     26  C   UNL     1      29.358  10.985 -14.850  1.00  0.00    -0.000 C 
BRANCH  26  27
ATOM     27  C   UNL     1      29.640  10.781 -16.349  1.00  0.00    -0.000 C 
BRANCH  27  28
ATOM     28  C   UNL     1      30.962  11.431 -16.789  1.00  0.00    -0.000 C 
BRANCH  28  29
ATOM     29  C   UNL     1      30.744  12.632 -17.726  1.00  0.00    -0.000 C 
BRANCH  29  30
ATOM     30  C   UNL     1      29.319  13.198 -17.636  1.00  0.00    -0.000 C 
BRANCH  30  31
ATOM     31  C   UNL     1      29.194  14.592 -18.267  1.00  0.00    -0.003 C 
ATOM     32  C   UNL     1      29.827  15.655 -17.372  1.00  0.00     0.004 C 
ENDBRANCH  30  31
ENDBRANCH  29  30
ENDBRANCH  28  29
ENDBRANCH  27  28
ENDBRANCH  26  27
ENDBRANCH  25  26
ENDBRANCH  24  25
ENDBRANCH  23  24
ENDBRANCH  22  23
ENDBRANCH  21  22
ENDBRANCH  20  21
ENDBRANCH  19  20
ENDBRANCH  18  19
ENDBRANCH   1  18
TORSDOF 28
ENDMDL
MODEL 7
REMARK VINA RESULT:    -3.997      1.904      5.447
REMARK INTER + INTRA:         -15.191
REMARK INTER:                 -10.777
REMARK INTRA:                  -4.414
REMARK UNBOUND:                -4.651
REMARK SMILES CCCCCCCCCCCCCCCCCCCCCCCCCCCCCC(=O)[O-]
REMARK SMILES IDX 16 1 17 2 18 3 19 4 20 5 21 6 22 7 23 8 24 9 25 10 26 11
REMARK SMILES IDX 27 12 28 13 29 14 30 15 31 16 32 17 15 18 14 19 13 20 12 21
REMARK SMILES IDX 11 22 10 23 9 24 8 25 7 26 6 27 5 28 4 29 3 30 2 31 1 32
REMARK H PARENT
REMARK Flexibility Score: inf
ROOT
ATOM      1  C   UNL     1      28.764  12.812 -11.253  1.00  0.00     0.000 C 
ENDROOT
BRANCH   1   2
ATOM      2  C   UNL     1      28.371  11.377 -10.867  1.00  0.00     0.000 C 
BRANCH   2   3
ATOM      3  C   UNL     1      29.465  10.664 -10.055  1.00  0.00     0.000 C 
BRANCH   3   4
ATOM      4  C   UNL     1      29.884   9.347 -10.724  1.00  0.00     0.000 C 
BRANCH   4   5
ATOM      5  C   UNL     1      29.979   9.460 -12.258  1.00  0.00     0.000 C 
BRANCH   5   6
ATOM      6  C   UNL     1      29.012   8.547 -13.035  1.00  0.00     0.000 C 
BRANCH   6   7
ATOM      7  C   UNL     1      29.740   7.488 -13.884  1.00  0.00     0.000 C 
BRANCH   7   8
ATOM      8  C   UNL     1      29.730   6.096 -13.216  1.00  0.00     0.000 C 
BRANCH   8   9
ATOM      9  C   UNL     1      28.966   5.020 -14.009  1.00  0.00     0.000 C 
BRANCH   9  10
ATOM     10  C   UNL     1      28.178   4.059 -13.105  1.00  0.00     0.000 C 
BRANCH  10  11
ATOM     11  C   UNL     1      26.677   4.400 -13.030  1.00  0.00     0.000 C 
BRANCH  11  12
ATOM     12  C   UNL     1      26.212   5.533 -13.965  1.00  0.00     0.000 C 
BRANCH  12  13
ATOM     13  C   UNL     1      25.163   5.080 -14.991  1.00  0.00     0.006 C 
BRANCH  13  14
ATOM     14  C   UNL     1      25.465   3.671 -15.511  1.00  0.00     0.053 C 
BRANCH  14  15
ATOM     15  C   UNL     1      24.588   3.344 -16.681  1.00  0.00     0.041 C 
ATOM     16  O   UNL     1      25.080   2.819 -17.717  1.00  0.00    -0.550 OA
ATOM     17  O   UNL     1      23.220   3.574 -16.609  1.00  0.00    -0.550 OA
ENDBRANCH  14  15
ENDBRANCH  13  14
ENDBRANCH  12  13
ENDBRANCH  11  12
ENDBRANCH  10  11
ENDBRANCH   9  10
ENDBRANCH   8   9
ENDBRANCH   7   8
ENDBRANCH   6   7
ENDBRANCH   5   6
ENDBRANCH   4   5
ENDBRANCH   3   4
ENDBRANCH   2   3
ENDBRANCH   1   2
BRANCH   1  18
ATOM     18  C   UNL     1      27.889  13.469 -12.339  1.00  0.00     0.000 C 
BRANCH  18  19
ATOM     19  C   UNL     1      28.655  13.853 -13.623  1.00  0.00     0.000 C 
BRANCH  19  20
ATOM     20  C   UNL     1      29.769  12.849 -13.975  1.00  0.00     0.000 C 
BRANCH  20  21
ATOM     21  C   UNL     1      29.321  11.832 -15.038  1.00  0.00     0.000 C 
BRANCH  21  22
ATOM     22  C   UNL     1      28.511  12.490 -16.165  1.00  0.00     0.000 C 
BRANCH  22  23
ATOM     23  C   UNL     1      29.401  12.797 -17.380  1.00  0.00     0.000 C 
BRANCH  23  24
ATOM     24  C   UNL     1      30.690  11.954 -17.410  1.00  0.00    -0.000 C 
BRANCH  24  25
ATOM     25  C   UNL     1      30.716  10.832 -18.468  1.00  0.00    -0.000 C 
BRANCH  25  26
ATOM     26  C   UNL     1      30.858   9.407 -17.902  1.00  0.00    -0.000 C 
BRANCH  26  27
ATOM     27  C   UNL     1      29.546   8.871 -17.303  1.00  0.00    -0.000 C 
BRANCH  27  28
ATOM     28  C   UNL     1      29.261   7.420 -17.725  1.00  0.00    -0.000 C 
BRANCH  28  29
ATOM     29  C   UNL     1      27.943   6.885 -17.137  1.00  0.00    -0.000 C 
BRANCH  29  30
ATOM     30  C   UNL     1      27.372   5.709 -17.944  1.00  0.00    -0.000 C 
BRANCH  30  31
ATOM     31  C   UNL     1      28.463   4.761 -18.462  1.00  0.00    -0.003 C 
ATOM     32  C   UNL     1      28.687   3.604 -17.491  1.00  0.00     0.004 C 
ENDBRANCH  30  31
ENDBRANCH  29  30
ENDBRANCH  28  29
ENDBRANCH  27  28
ENDBRANCH  26  27
ENDBRANCH  25  26
ENDBRANCH  24  25
ENDBRANCH  23  24
ENDBRANCH  22  23
ENDBRANCH  21  22
ENDBRANCH  20  21
ENDBRANCH  19  20
ENDBRANCH  18  19
ENDBRANCH   1  18
TORSDOF 28
ENDMDL
MODEL 8
REMARK VINA RESULT:    -3.997      1.655      3.183
REMARK INTER + INTRA:         -15.190
REMARK INTER:                 -10.029
REMARK INTRA:                  -5.161
REMARK UNBOUND:                -4.651
REMARK SMILES CCCCCCCCCCCCCCCCCCCCCCCCCCCCCC(=O)[O-]
REMARK SMILES IDX 16 1 17 2 18 3 19 4 20 5 21 6 22 7 23 8 24 9 25 10 26 11
REMARK SMILES IDX 27 12 28 13 29 14 30 15 31 16 32 17 15 18 14 19 13 20 12 21
REMARK SMILES IDX 11 22 10 23 9 24 8 25 7 26 6 27 5 28 4 29 3 30 2 31 1 32
REMARK H PARENT
REMARK Flexibility Score: inf
ROOT
ATOM      1  C   UNL     1      30.049   7.221 -12.536  1.00  0.00     0.000 C 
ENDROOT
BRANCH   1   2
ATOM      2  C   UNL     1      29.174   7.360 -13.792  1.00  0.00     0.000 C 
BRANCH   2   3
ATOM      3  C   UNL     1      29.911   6.939 -15.074  1.00  0.00     0.000 C 
BRANCH   3   4
ATOM      4  C   UNL     1      29.138   7.372 -16.327  1.00  0.00     0.000 C 
BRANCH   4   5
ATOM      5  C   UNL     1      28.215   6.264 -16.871  1.00  0.00     0.000 C 
BRANCH   5   6
ATOM      6  C   UNL     1      28.808   4.843 -16.818  1.00  0.00     0.000 C 
BRANCH   6   7
ATOM      7  C   UNL     1      27.730   3.743 -16.838  1.00  0.00     0.000 C 
BRANCH   7   8
ATOM      8  C   UNL     1      27.610   3.020 -15.478  1.00  0.00     0.000 C 
BRANCH   8   9
ATOM      9  C   UNL     1      28.806   3.244 -14.536  1.00  0.00     0.000 C 
BRANCH   9  10
ATOM     10  C   UNL     1      28.399   3.872 -13.194  1.00  0.00     0.000 C 
BRANCH  10  11
ATOM     11  C   UNL     1      26.873   3.926 -12.992  1.00  0.00     0.000 C 
BRANCH  11  12
ATOM     12  C   UNL     1      26.256   5.338 -13.012  1.00  0.00     0.000 C 
BRANCH  12  13
ATOM     13  C   UNL     1      25.625   5.704 -14.363  1.00  0.00     0.006 C 
BRANCH  13  14
ATOM     14  C   UNL     1      24.131   6.006 -14.217  1.00  0.00     0.053 C 
BRANCH  14  15
ATOM     15  C   UNL     1      23.344   5.288 -15.270  1.00  0.00     0.041 C 
ATOM     16  O   UNL     1      23.780   4.215 -15.769  1.00  0.00    -0.550 OA
ATOM     17  O   UNL     1      22.105   5.778 -15.668  1.00  0.00    -0.550 OA
ENDBRANCH  14  15
ENDBRANCH  13  14
ENDBRANCH  12  13
ENDBRANCH  11  12
ENDBRANCH  10  11
ENDBRANCH   9  10
ENDBRANCH   8   9
ENDBRANCH   7   8
ENDBRANCH   6   7
ENDBRANCH   5   6
ENDBRANCH   4   5
ENDBRANCH   3   4
ENDBRANCH   2   3
ENDBRANCH   1   2
BRANCH   1  18
ATOM     18  C   UNL     1      30.363   8.538 -11.798  1.00  0.00     0.000 C 
BRANCH  18  19
ATOM     19  C   UNL     1      29.679   9.782 -12.406  1.00  0.00     0.000 C 
BRANCH  19  20
ATOM     20  C   UNL     1      30.689  10.829 -12.914  1.00  0.00     0.000 C 
BRANCH  20  21
ATOM     21  C   UNL     1      30.659  10.970 -14.446  1.00  0.00     0.000 C 
BRANCH  21  22
ATOM     22  C   UNL     1      29.254  10.738 -15.022  1.00  0.00     0.000 C 
BRANCH  22  23
ATOM     23  C   UNL     1      28.946  11.740 -16.147  1.00  0.00     0.000 C 
BRANCH  23  24
ATOM     24  C   UNL     1      29.957  11.674 -17.306  1.00  0.00    -0.000 C 
BRANCH  24  25
ATOM     25  C   UNL     1      30.225  13.014 -18.021  1.00  0.00    -0.000 C 
BRANCH  25  26
ATOM     26  C   UNL     1      29.674  14.258 -17.302  1.00  0.00    -0.000 C 
BRANCH  26  27
ATOM     27  C   UNL     1      30.782  15.119 -16.669  1.00  0.00    -0.000 C 
BRANCH  27  28
ATOM     28  C   UNL     1      30.669  15.182 -15.136  1.00  0.00    -0.000 C 
BRANCH  28  29
ATOM     29  C   UNL     1      29.224  14.984 -14.644  1.00  0.00    -0.000 C 
BRANCH  29  30
ATOM     30  C   UNL     1      29.148  14.145 -13.360  1.00  0.00    -0.000 C 
BRANCH  30  31
ATOM     31  C   UNL     1      27.739  13.597 -13.094  1.00  0.00    -0.003 C 
ATOM     32  C   UNL     1      27.674  12.892 -11.741  1.00  0.00     0.004 C 
ENDBRANCH  30  31
ENDBRANCH  29  30
ENDBRANCH  28  29
ENDBRANCH  27  28
ENDBRANCH  26  27
ENDBRANCH  25  26
ENDBRANCH  24  25
ENDBRANCH  23  24
ENDBRANCH  22  23
ENDBRANCH  21  22
ENDBRANCH  20  21
ENDBRANCH  19  20
ENDBRANCH  18  19
ENDBRANCH   1  18
TORSDOF 28
ENDMDL
MODEL 9
REMARK VINA RESULT:    -3.945      8.990     14.378
REMARK INTER + INTRA:         -15.053
REMARK INTER:                  -9.455
REMARK INTRA:                  -5.598
REMARK UNBOUND:                -4.651
REMARK SMILES CCCCCCCCCCCCCCCCCCCCCCCCCCCCCC(=O)[O-]
REMARK SMILES IDX 16 1 17 2 18 3 19 4 20 5 21 6 22 7 23 8 24 9 25 10 26 11
REMARK SMILES IDX 27 12 28 13 29 14 30 15 31 16 32 17 15 18 14 19 13 20 12 21
REMARK SMILES IDX 11 22 10 23 9 24 8 25 7 26 6 27 5 28 4 29 3 30 2 31 1 32
REMARK H PARENT
REMARK Flexibility Score: inf
ROOT
ATOM      1  C   UNL     1      21.693  -1.701 -16.843  1.00  0.00     0.000 C 
ENDROOT
BRANCH   1   2
ATOM      2  C   UNL     1      23.085  -1.074 -16.668  1.00  0.00     0.000 C 
BRANCH   2   3
ATOM      3  C   UNL     1      23.862  -1.681 -15.488  1.00  0.00     0.000 C 
BRANCH   3   4
ATOM      4  C   UNL     1      25.290  -1.124 -15.417  1.00  0.00     0.000 C 
BRANCH   4   5
ATOM      5  C   UNL     1      25.390   0.330 -15.917  1.00  0.00     0.000 C 
BRANCH   5   6
ATOM      6  C   UNL     1      26.539   1.150 -15.300  1.00  0.00     0.000 C 
BRANCH   6   7
ATOM      7  C   UNL     1      27.051   0.561 -13.973  1.00  0.00     0.000 C 
BRANCH   7   8
ATOM      8  C   UNL     1      27.069   1.608 -12.838  1.00  0.00     0.000 C 
BRANCH   8   9
ATOM      9  C   UNL     1      26.051   1.339 -11.715  1.00  0.00     0.000 C 
BRANCH   9  10
ATOM     10  C   UNL     1      25.302   0.009 -11.894  1.00  0.00     0.000 C 
BRANCH  10  11
ATOM     11  C   UNL     1      23.803   0.199 -12.193  1.00  0.00     0.000 C 
BRANCH  11  12
ATOM     12  C   UNL     1      23.340   1.662 -12.332  1.00  0.00     0.000 C 
BRANCH  12  13
ATOM     13  C   UNL     1      23.249   2.133 -13.791  1.00  0.00     0.006 C 
BRANCH  13  14
ATOM     14  C   UNL     1      23.943   3.485 -13.984  1.00  0.00     0.053 C 
BRANCH  14  15
ATOM     15  C   UNL     1      23.615   4.057 -15.329  1.00  0.00     0.041 C 
ATOM     16  O   UNL     1      23.950   5.239 -15.616  1.00  0.00    -0.550 OA
ATOM     17  O   UNL     1      22.981   3.270 -16.283  1.00  0.00    -0.550 OA
ENDBRANCH  14  15
ENDBRANCH  13  14
ENDBRANCH  12  13
ENDBRANCH  11  12
ENDBRANCH  10  11
ENDBRANCH   9  10
ENDBRANCH   8   9
ENDBRANCH   7   8
ENDBRANCH   6   7
ENDBRANCH   5   6
ENDBRANCH   4   5
ENDBRANCH   3   4
ENDBRANCH   2   3
ENDBRANCH   1   2
BRANCH   1  18
ATOM     18  C   UNL     1      20.795  -1.681 -15.589  1.00  0.00     0.000 C 
BRANCH  18  19
ATOM     19  C   UNL     1      20.481  -0.265 -15.059  1.00  0.00     0.000 C 
BRANCH  19  20
ATOM     20  C   UNL     1      20.412  -0.207 -13.521  1.00  0.00     0.000 C 
BRANCH  20  21
ATOM     21  C   UNL     1      19.947  -1.540 -12.909  1.00  0.00     0.000 C 
BRANCH  21  22
ATOM     22  C   UNL     1      19.947  -1.504 -11.373  1.00  0.00     0.000 C 
BRANCH  22  23
ATOM     23  C   UNL     1      18.532  -1.731 -10.815  1.00  0.00     0.000 C 
BRANCH  23  24
ATOM     24  C   UNL     1      17.447  -1.729 -11.907  1.00  0.00    -0.000 C 
BRANCH  24  25
ATOM     25  C   UNL     1      16.184  -0.907 -11.579  1.00  0.00    -0.000 C 
BRANCH  25  26
ATOM     26  C   UNL     1      15.766   0.105 -12.660  1.00  0.00    -0.000 C 
BRANCH  26  27
ATOM     27  C   UNL     1      16.938   0.527 -13.565  1.00  0.00    -0.000 C 
BRANCH  27  28
ATOM     28  C   UNL     1      16.673   0.216 -15.048  1.00  0.00    -0.000 C 
BRANCH  28  29
ATOM     29  C   UNL     1      16.495  -1.290 -15.309  1.00  0.00    -0.000 C 
BRANCH  29  30
ATOM     30  C   UNL     1      17.250  -1.764 -16.560  1.00  0.00    -0.000 C 
BRANCH  30  31
ATOM     31  C   UNL     1      17.239  -0.722 -17.688  1.00  0.00    -0.003 C 
ATOM     32  C   UNL     1      18.513  -0.811 -18.526  1.00  0.00     0.004 C 
ENDBRANCH  30  31
ENDBRANCH  29  30
ENDBRANCH  28  29
ENDBRANCH  27  28
ENDBRANCH  26  27
ENDBRANCH  25  26
ENDBRANCH  24  25
ENDBRANCH  23  24
ENDBRANCH  22  23
ENDBRANCH  21  22
ENDBRANCH  20  21
ENDBRANCH  19  20
ENDBRANCH  18  19
ENDBRANCH   1  18
TORSDOF 28
ENDMDL
