MODEL 1
REMARK VINA RESULT:    -7.298      0.000      0.000
REMARK INTER + INTRA:         -12.465
REMARK INTER:                 -10.072
REMARK INTRA:                  -2.393
REMARK UNBOUND:                -2.393
REMARK SMILES CC[C@H](CC[C@@H](C)[C@H]1CC[C@H]2[C@@H]3CC=C4C[C@H](O)CC[C@@]4(C)[C@@H]3CC[C@@]12C)C(C)C
REMARK SMILES IDX 5 1 4 2 3 3 2 4 1 5 28 6 29 7 30 8 6 9 7 10 8 11 9 12 26 13
REMARK SMILES IDX 10 14 11 15 25 16 27 17 12 18 24 19 23 20 13 21 21 22 14 23
REMARK SMILES IDX 15 24 20 25 22 26 16 27 19 28 17 29 18 30
REMARK H PARENT 18 31
REMARK Flexibility Score: inf
ROOT
ATOM      1  C   UNL     1     181.729 -13.827  28.964  1.00  0.00     0.004 C 
ENDROOT
BRANCH   1   2
ATOM      2  C   UNL     1     183.193 -13.720  29.464  1.00  0.00     0.004 C 
BRANCH   2   3
ATOM      3  C   UNL     1     184.240 -14.183  28.413  1.00  0.00    -0.009 C 
BRANCH   3   4
ATOM      4  C   UNL     1     184.674 -15.647  28.697  1.00  0.00     0.000 C 
ATOM      5  C   UNL     1     184.483 -16.041  30.161  1.00  0.00     0.004 C 
ENDBRANCH   3   4
BRANCH   3   6
ATOM      6  C   UNL     1     183.727 -13.974  26.948  1.00  0.00    -0.014 C 
ATOM      7  C   UNL     1     183.742 -15.258  26.098  1.00  0.00     0.007 C 
ATOM      8  C   UNL     1     184.490 -12.850  26.228  1.00  0.00     0.007 C 
ENDBRANCH   3   6
ENDBRANCH   2   3
ENDBRANCH   1   2
BRANCH   1   9
ATOM      9  C   UNL     1     181.008 -15.108  29.479  1.00  0.00    -0.011 C 
ATOM     10  C   UNL     1     180.221 -14.734  30.752  1.00  0.00     0.008 C 
BRANCH   9  11
ATOM     11  C   UNL     1     180.096 -15.754  28.365  1.00  0.00    -0.002 C 
ATOM     12  C   UNL     1     180.279 -15.055  26.999  1.00  0.00     0.005 C 
ATOM     13  C   UNL     1     180.274 -17.284  28.059  1.00  0.00    -0.026 C 
ATOM     14  C   UNL     1     180.095 -16.096  25.907  1.00  0.00     0.005 C 
ATOM     15  C   UNL     1     179.719 -17.400  26.610  1.00  0.00    -0.001 C 
ATOM     16  C   UNL     1     181.778 -17.698  28.094  1.00  0.00     0.007 C 
ATOM     17  C   UNL     1     179.430 -18.154  29.040  1.00  0.00     0.012 C 
ATOM     18  C   UNL     1     180.146 -18.659  25.797  1.00  0.00     0.000 C 
ATOM     19  C   UNL     1     182.087 -19.022  27.378  1.00  0.00     0.005 C 
ATOM     20  C   UNL     1     181.661 -18.967  25.889  1.00  0.00     0.003 C 
ATOM     21  C   UNL     1     179.319 -19.891  26.203  1.00  0.00     0.031 C 
ATOM     22  C   UNL     1     182.056 -20.230  25.003  1.00  0.00    -0.008 C 
ATOM     23  C   UNL     1     179.709 -21.098  25.415  1.00  0.00    -0.027 C 
ATOM     24  C   UNL     1     180.954 -21.301  24.940  1.00  0.00    -0.065 C 
ATOM     25  C   UNL     1     182.293 -19.750  23.533  1.00  0.00     0.014 C 
ATOM     26  C   UNL     1     183.367 -20.874  25.532  1.00  0.00     0.016 C 
ATOM     27  C   UNL     1     181.174 -22.469  24.001  1.00  0.00     0.063 C 
ATOM     28  C   UNL     1     182.495 -20.896  22.516  1.00  0.00     0.033 C 
ATOM     29  C   UNL     1     181.356 -21.933  22.571  1.00  0.00     0.118 C 
BRANCH  29  30
ATOM     30  O   UNL     1     181.656 -22.987  21.690  1.00  0.00    -0.393 OA
ATOM     31  H   UNL     1     180.798 -23.290  21.300  1.00  0.00     0.210 HD
ENDBRANCH  29  30
ENDBRANCH   9  11
ENDBRANCH   1   9
TORSDOF 7
ENDMDL
MODEL 2
REMARK VINA RESULT:    -7.059      1.284      2.374
REMARK INTER + INTRA:         -12.134
REMARK INTER:                  -9.956
REMARK INTRA:                  -2.178
REMARK UNBOUND:                -2.393
REMARK SMILES CC[C@H](CC[C@@H](C)[C@H]1CC[C@H]2[C@@H]3CC=C4C[C@H](O)CC[C@@]4(C)[C@@H]3CC[C@@]12C)C(C)C
REMARK SMILES IDX 5 1 4 2 3 3 2 4 1 5 28 6 29 7 30 8 6 9 7 10 8 11 9 12 26 13
REMARK SMILES IDX 10 14 11 15 25 16 27 17 12 18 24 19 23 20 13 21 21 22 14 23
REMARK SMILES IDX 15 24 20 25 22 26 16 27 19 28 17 29 18 30
REMARK H PARENT 18 31
REMARK Flexibility Score: inf
ROOT
ATOM      1  C   UNL     1     182.108 -13.284  29.812  1.00  0.00     0.004 C 
ENDROOT
BRANCH   1   2
ATOM      2  C   UNL     1     183.519 -13.716  30.288  1.00  0.00     0.004 C 
BRANCH   2   3
ATOM      3  C   UNL     1     183.601 -15.211  30.700  1.00  0.00    -0.009 C 
BRANCH   3   4
ATOM      4  C   UNL     1     184.607 -15.966  29.787  1.00  0.00     0.000 C 
ATOM      5  C   UNL     1     184.643 -15.404  28.366  1.00  0.00     0.004 C 
ENDBRANCH   3   4
BRANCH   3   6
ATOM      6  C   UNL     1     183.920 -15.379  32.225  1.00  0.00    -0.014 C 
ATOM      7  C   UNL     1     183.640 -14.114  33.057  1.00  0.00     0.007 C 
ATOM      8  C   UNL     1     185.360 -15.862  32.459  1.00  0.00     0.007 C 
ENDBRANCH   3   6
ENDBRANCH   2   3
ENDBRANCH   1   2
BRANCH   1   9
ATOM      9  C   UNL     1     181.057 -14.428  29.922  1.00  0.00    -0.011 C 
ATOM     10  C   UNL     1     180.030 -14.031  31.002  1.00  0.00     0.008 C 
BRANCH   9  11
ATOM     11  C   UNL     1     180.388 -14.744  28.528  1.00  0.00    -0.002 C 
ATOM     12  C   UNL     1     181.195 -14.141  27.357  1.00  0.00     0.005 C 
ATOM     13  C   UNL     1     180.174 -16.249  28.135  1.00  0.00    -0.026 C 
ATOM     14  C   UNL     1     181.051 -15.066  26.159  1.00  0.00     0.005 C 
ATOM     15  C   UNL     1     180.093 -16.179  26.582  1.00  0.00    -0.001 C 
ATOM     16  C   UNL     1     181.388 -17.128  28.571  1.00  0.00     0.007 C 
ATOM     17  C   UNL     1     178.841 -16.800  28.728  1.00  0.00     0.012 C 
ATOM     18  C   UNL     1     180.345 -17.508  25.808  1.00  0.00     0.000 C 
ATOM     19  C   UNL     1     181.483 -18.479  27.848  1.00  0.00     0.005 C 
ATOM     20  C   UNL     1     181.584 -18.289  26.313  1.00  0.00     0.003 C 
ATOM     21  C   UNL     1     179.097 -18.406  25.824  1.00  0.00     0.031 C 
ATOM     22  C   UNL     1     181.828 -19.612  25.460  1.00  0.00    -0.008 C 
ATOM     23  C   UNL     1     179.324 -19.674  25.069  1.00  0.00    -0.027 C 
ATOM     24  C   UNL     1     180.529 -20.269  24.965  1.00  0.00    -0.065 C 
ATOM     25  C   UNL     1     182.649 -19.233  24.183  1.00  0.00     0.014 C 
ATOM     26  C   UNL     1     182.643 -20.645  26.285  1.00  0.00     0.016 C 
ATOM     27  C   UNL     1     180.662 -21.444  24.019  1.00  0.00     0.063 C 
ATOM     28  C   UNL     1     182.796 -20.382  23.160  1.00  0.00     0.033 C 
ATOM     29  C   UNL     1     181.438 -20.995  22.770  1.00  0.00     0.118 C 
BRANCH  29  30
ATOM     30  O   UNL     1     181.660 -22.089  21.915  1.00  0.00    -0.393 OA
ATOM     31  H   UNL     1     180.968 -22.765  22.126  1.00  0.00     0.210 HD
ENDBRANCH  29  30
ENDBRANCH   9  11
ENDBRANCH   1   9
TORSDOF 7
ENDMDL
MODEL 3
REMARK VINA RESULT:    -7.048     10.646     12.623
REMARK INTER + INTRA:         -12.119
REMARK INTER:                  -9.845
REMARK INTRA:                  -2.274
REMARK UNBOUND:                -2.393
REMARK SMILES CC[C@H](CC[C@@H](C)[C@H]1CC[C@H]2[C@@H]3CC=C4C[C@H](O)CC[C@@]4(C)[C@@H]3CC[C@@]12C)C(C)C
REMARK SMILES IDX 5 1 4 2 3 3 2 4 1 5 28 6 29 7 30 8 6 9 7 10 8 11 9 12 26 13
REMARK SMILES IDX 10 14 11 15 25 16 27 17 12 18 24 19 23 20 13 21 21 22 14 23
REMARK SMILES IDX 15 24 20 25 22 26 16 27 19 28 17 29 18 30
REMARK H PARENT 18 31
REMARK Flexibility Score: inf
ROOT
ATOM      1  C   UNL     1     184.990 -22.154  36.725  1.00  0.00     0.004 C 
ENDROOT
BRANCH   1   2
ATOM      2  C   UNL     1     183.766 -21.748  37.588  1.00  0.00     0.004 C 
BRANCH   2   3
ATOM      3  C   UNL     1     183.538 -22.676  38.812  1.00  0.00    -0.009 C 
BRANCH   3   4
ATOM      4  C   UNL     1     182.978 -21.859  40.009  1.00  0.00     0.000 C 
ATOM      5  C   UNL     1     184.060 -21.047  40.721  1.00  0.00     0.004 C 
ENDBRANCH   3   4
BRANCH   3   6
ATOM      6  C   UNL     1     182.646 -23.911  38.449  1.00  0.00    -0.014 C 
ATOM      7  C   UNL     1     181.146 -23.692  38.723  1.00  0.00     0.007 C 
ATOM      8  C   UNL     1     183.132 -25.194  39.143  1.00  0.00     0.007 C 
ENDBRANCH   3   6
ENDBRANCH   2   3
ENDBRANCH   1   2
BRANCH   1   9
ATOM      9  C   UNL     1     184.650 -22.263  35.210  1.00  0.00    -0.011 C 
ATOM     10  C   UNL     1     185.686 -21.431  34.426  1.00  0.00     0.008 C 
BRANCH   9  11
ATOM     11  C   UNL     1     184.585 -23.765  34.731  1.00  0.00    -0.002 C 
ATOM     12  C   UNL     1     184.958 -24.744  35.867  1.00  0.00     0.005 C 
ATOM     13  C   UNL     1     183.222 -24.304  34.169  1.00  0.00    -0.026 C 
ATOM     14  C   UNL     1     184.151 -26.018  35.676  1.00  0.00     0.005 C 
ATOM     15  C   UNL     1     183.358 -25.840  34.382  1.00  0.00    -0.001 C 
ATOM     16  C   UNL     1     182.013 -23.752  34.986  1.00  0.00     0.007 C 
ATOM     17  C   UNL     1     183.071 -23.974  32.652  1.00  0.00     0.012 C 
ATOM     18  C   UNL     1     182.037 -26.666  34.375  1.00  0.00     0.000 C 
ATOM     19  C   UNL     1     180.714 -24.555  34.816  1.00  0.00     0.005 C 
ATOM     20  C   UNL     1     180.911 -26.035  35.232  1.00  0.00     0.003 C 
ATOM     21  C   UNL     1     181.545 -26.918  32.940  1.00  0.00     0.031 C 
ATOM     22  C   UNL     1     179.600 -26.940  35.233  1.00  0.00    -0.008 C 
ATOM     23  C   UNL     1     180.289 -27.725  32.923  1.00  0.00    -0.027 C 
ATOM     24  C   UNL     1     179.369 -27.684  33.908  1.00  0.00    -0.065 C 
ATOM     25  C   UNL     1     179.757 -28.037  36.337  1.00  0.00     0.014 C 
ATOM     26  C   UNL     1     178.349 -26.080  35.563  1.00  0.00     0.016 C 
ATOM     27  C   UNL     1     178.235 -28.686  33.862  1.00  0.00     0.063 C 
ATOM     28  C   UNL     1     178.645 -29.111  36.326  1.00  0.00     0.033 C 
ATOM     29  C   UNL     1     178.471 -29.758  34.939  1.00  0.00     0.118 C 
BRANCH  29  30
ATOM     30  O   UNL     1     177.386 -30.650  34.984  1.00  0.00    -0.393 OA
ATOM     31  H   UNL     1     177.665 -31.469  34.504  1.00  0.00     0.210 HD
ENDBRANCH  29  30
ENDBRANCH   9  11
ENDBRANCH   1   9
TORSDOF 7
ENDMDL
MODEL 4
REMARK VINA RESULT:    -7.035      5.518      7.679
REMARK INTER + INTRA:         -12.102
REMARK INTER:                 -10.750
REMARK INTRA:                  -1.352
REMARK UNBOUND:                -2.393
REMARK SMILES CC[C@H](CC[C@@H](C)[C@H]1CC[C@H]2[C@@H]3CC=C4C[C@H](O)CC[C@@]4(C)[C@@H]3CC[C@@]12C)C(C)C
REMARK SMILES IDX 5 1 4 2 3 3 2 4 1 5 28 6 29 7 30 8 6 9 7 10 8 11 9 12 26 13
REMARK SMILES IDX 10 14 11 15 25 16 27 17 12 18 24 19 23 20 13 21 21 22 14 23
REMARK SMILES IDX 15 24 20 25 22 26 16 27 19 28 17 29 18 30
REMARK H PARENT 18 31
REMARK Flexibility Score: inf
ROOT
ATOM      1  C   UNL     1     182.645 -22.609  33.265  1.00  0.00     0.004 C 
ENDROOT
BRANCH   1   2
ATOM      2  C   UNL     1     183.214 -22.802  34.694  1.00  0.00     0.004 C 
BRANCH   2   3
ATOM      3  C   UNL     1     184.363 -23.845  34.767  1.00  0.00    -0.009 C 
BRANCH   3   4
ATOM      4  C   UNL     1     185.362 -23.466  35.895  1.00  0.00     0.000 C 
ATOM      5  C   UNL     1     184.864 -22.302  36.751  1.00  0.00     0.004 C 
ENDBRANCH   3   4
BRANCH   3   6
ATOM      6  C   UNL     1     183.816 -25.306  34.904  1.00  0.00    -0.014 C 
ATOM      7  C   UNL     1     184.188 -25.983  36.236  1.00  0.00     0.007 C 
ATOM      8  C   UNL     1     184.241 -26.191  33.721  1.00  0.00     0.007 C 
ENDBRANCH   3   6
ENDBRANCH   2   3
ENDBRANCH   1   2
BRANCH   1   9
ATOM      9  C   UNL     1     183.238 -21.363  32.543  1.00  0.00    -0.011 C 
ATOM     10  C   UNL     1     184.094 -20.582  33.561  1.00  0.00     0.008 C 
BRANCH   9  11
ATOM     11  C   UNL     1     184.045 -21.766  31.248  1.00  0.00    -0.002 C 
ATOM     12  C   UNL     1     183.886 -23.267  30.918  1.00  0.00     0.005 C 
ATOM     13  C   UNL     1     183.710 -21.023  29.906  1.00  0.00    -0.026 C 
ATOM     14  C   UNL     1     183.932 -23.426  29.408  1.00  0.00     0.005 C 
ATOM     15  C   UNL     1     184.203 -22.036  28.832  1.00  0.00    -0.001 C 
ATOM     16  C   UNL     1     182.174 -20.786  29.757  1.00  0.00     0.007 C 
ATOM     17  C   UNL     1     184.497 -19.681  29.795  1.00  0.00     0.012 C 
ATOM     18  C   UNL     1     183.629 -21.865  27.393  1.00  0.00     0.000 C 
ATOM     19  C   UNL     1     181.715 -20.494  28.321  1.00  0.00     0.005 C 
ATOM     20  C   UNL     1     182.094 -21.653  27.364  1.00  0.00     0.003 C 
ATOM     21  C   UNL     1     184.344 -20.732  26.640  1.00  0.00     0.031 C 
ATOM     22  C   UNL     1     181.550 -21.534  25.872  1.00  0.00    -0.008 C 
ATOM     23  C   UNL     1     183.813 -20.573  25.254  1.00  0.00    -0.027 C 
ATOM     24  C   UNL     1     182.539 -20.852  24.912  1.00  0.00    -0.065 C 
ATOM     25  C   UNL     1     181.311 -22.976  25.315  1.00  0.00     0.014 C 
ATOM     26  C   UNL     1     180.200 -20.764  25.849  1.00  0.00     0.016 C 
ATOM     27  C   UNL     1     182.176 -20.829  23.442  1.00  0.00     0.063 C 
ATOM     28  C   UNL     1     180.966 -23.025  23.809  1.00  0.00     0.033 C 
ATOM     29  C   UNL     1     181.999 -22.274  22.948  1.00  0.00     0.118 C 
BRANCH  29  30
ATOM     30  O   UNL     1     181.569 -22.281  21.609  1.00  0.00    -0.393 OA
ATOM     31  H   UNL     1     182.293 -22.696  21.076  1.00  0.00     0.210 HD
ENDBRANCH  29  30
ENDBRANCH   9  11
ENDBRANCH   1   9
TORSDOF 7
ENDMDL
MODEL 5
REMARK VINA RESULT:    -6.956      8.203     10.274
REMARK INTER + INTRA:         -11.992
REMARK INTER:                  -9.573
REMARK INTRA:                  -2.419
REMARK UNBOUND:                -2.393
REMARK SMILES CC[C@H](CC[C@@H](C)[C@H]1CC[C@H]2[C@@H]3CC=C4C[C@H](O)CC[C@@]4(C)[C@@H]3CC[C@@]12C)C(C)C
REMARK SMILES IDX 5 1 4 2 3 3 2 4 1 5 28 6 29 7 30 8 6 9 7 10 8 11 9 12 26 13
REMARK SMILES IDX 10 14 11 15 25 16 27 17 12 18 24 19 23 20 13 21 21 22 14 23
REMARK SMILES IDX 15 24 20 25 22 26 16 27 19 28 17 29 18 30
REMARK H PARENT 18 31
REMARK Flexibility Score: inf
ROOT
ATOM      1  C   UNL     1     183.308 -25.980  37.358  1.00  0.00     0.004 C 
ENDROOT
BRANCH   1   2
ATOM      2  C   UNL     1     183.192 -24.633  38.118  1.00  0.00     0.004 C 
BRANCH   2   3
ATOM      3  C   UNL     1     183.046 -23.404  37.178  1.00  0.00    -0.009 C 
BRANCH   3   4
ATOM      4  C   UNL     1     181.597 -22.849  37.240  1.00  0.00     0.000 C 
ATOM      5  C   UNL     1     180.991 -22.637  35.853  1.00  0.00     0.004 C 
ENDBRANCH   3   4
BRANCH   3   6
ATOM      6  C   UNL     1     184.129 -22.311  37.476  1.00  0.00    -0.014 C 
ATOM      7  C   UNL     1     183.551 -20.891  37.615  1.00  0.00     0.007 C 
ATOM      8  C   UNL     1     185.260 -22.326  36.434  1.00  0.00     0.007 C 
ENDBRANCH   3   6
ENDBRANCH   2   3
ENDBRANCH   1   2
BRANCH   1   9
ATOM      9  C   UNL     1     184.055 -25.844  35.998  1.00  0.00    -0.011 C 
ATOM     10  C   UNL     1     185.361 -26.659  36.087  1.00  0.00     0.008 C 
BRANCH   9  11
ATOM     11  C   UNL     1     183.144 -26.277  34.785  1.00  0.00    -0.002 C 
ATOM     12  C   UNL     1     181.642 -26.130  35.115  1.00  0.00     0.005 C 
ATOM     13  C   UNL     1     183.329 -25.528  33.417  1.00  0.00    -0.026 C 
ATOM     14  C   UNL     1     180.911 -25.759  33.836  1.00  0.00     0.005 C 
ATOM     15  C   UNL     1     181.957 -25.764  32.721  1.00  0.00    -0.001 C 
ATOM     16  C   UNL     1     183.567 -24.001  33.634  1.00  0.00     0.007 C 
ATOM     17  C   UNL     1     184.483 -26.163  32.581  1.00  0.00     0.012 C 
ATOM     18  C   UNL     1     181.589 -24.797  31.555  1.00  0.00     0.000 C 
ATOM     19  C   UNL     1     183.305 -23.137  32.391  1.00  0.00     0.005 C 
ATOM     20  C   UNL     1     181.850 -23.307  31.886  1.00  0.00     0.003 C 
ATOM     21  C   UNL     1     182.307 -25.195  30.255  1.00  0.00     0.031 C 
ATOM     22  C   UNL     1     181.413 -22.357  30.685  1.00  0.00    -0.008 C 
ATOM     23  C   UNL     1     181.946 -24.285  29.128  1.00  0.00    -0.027 C 
ATOM     24  C   UNL     1     181.621 -22.988  29.298  1.00  0.00    -0.065 C 
ATOM     25  C   UNL     1     179.881 -22.066  30.815  1.00  0.00     0.014 C 
ATOM     26  C   UNL     1     182.181 -21.008  30.754  1.00  0.00     0.016 C 
ATOM     27  C   UNL     1     181.095 -22.224  28.101  1.00  0.00     0.063 C 
ATOM     28  C   UNL     1     179.273 -21.314  29.609  1.00  0.00     0.033 C 
ATOM     29  C   UNL     1     179.582 -22.010  28.270  1.00  0.00     0.118 C 
BRANCH  29  30
ATOM     30  O   UNL     1     179.081 -21.222  27.220  1.00  0.00    -0.393 OA
ATOM     31  H   UNL     1     179.756 -21.242  26.496  1.00  0.00     0.210 HD
ENDBRANCH  29  30
ENDBRANCH   9  11
ENDBRANCH   1   9
TORSDOF 7
ENDMDL
MODEL 6
REMARK VINA RESULT:    -6.862     10.083     12.558
REMARK INTER + INTRA:         -11.863
REMARK INTER:                  -9.574
REMARK INTRA:                  -2.289
REMARK UNBOUND:                -2.393
REMARK SMILES CC[C@H](CC[C@@H](C)[C@H]1CC[C@H]2[C@@H]3CC=C4C[C@H](O)CC[C@@]4(C)[C@@H]3CC[C@@]12C)C(C)C
REMARK SMILES IDX 5 1 4 2 3 3 2 4 1 5 28 6 29 7 30 8 6 9 7 10 8 11 9 12 26 13
REMARK SMILES IDX 10 14 11 15 25 16 27 17 12 18 24 19 23 20 13 21 21 22 14 23
REMARK SMILES IDX 15 24 20 25 22 26 16 27 19 28 17 29 18 30
REMARK H PARENT 18 31
REMARK Flexibility Score: inf
ROOT
ATOM      1  C   UNL     1     182.076 -26.897  39.355  1.00  0.00     0.004 C 
ENDROOT
BRANCH   1   2
ATOM      2  C   UNL     1     180.641 -27.410  39.068  1.00  0.00     0.004 C 
BRANCH   2   3
ATOM      3  C   UNL     1     179.868 -26.540  38.038  1.00  0.00    -0.009 C 
BRANCH   3   4
ATOM      4  C   UNL     1     179.435 -27.406  36.822  1.00  0.00     0.000 C 
ATOM      5  C   UNL     1     179.943 -26.846  35.494  1.00  0.00     0.004 C 
ENDBRANCH   3   4
BRANCH   3   6
ATOM      6  C   UNL     1     178.670 -25.779  38.700  1.00  0.00    -0.014 C 
ATOM      7  C   UNL     1     178.725 -24.252  38.505  1.00  0.00     0.007 C 
ATOM      8  C   UNL     1     178.529 -26.120  40.192  1.00  0.00     0.007 C 
ENDBRANCH   3   6
ENDBRANCH   2   3
ENDBRANCH   1   2
BRANCH   1   9
ATOM      9  C   UNL     1     182.269 -25.400  38.973  1.00  0.00    -0.011 C 
ATOM     10  C   UNL     1     182.380 -24.584  40.278  1.00  0.00     0.008 C 
BRANCH   9  11
ATOM     11  C   UNL     1     183.508 -25.195  38.017  1.00  0.00    -0.002 C 
ATOM     12  C   UNL     1     183.864 -26.491  37.256  1.00  0.00     0.005 C 
ATOM     13  C   UNL     1     183.409 -24.091  36.904  1.00  0.00    -0.026 C 
ATOM     14  C   UNL     1     184.407 -26.103  35.890  1.00  0.00     0.005 C 
ATOM     15  C   UNL     1     184.457 -24.576  35.861  1.00  0.00    -0.001 C 
ATOM     16  C   UNL     1     181.987 -24.057  36.263  1.00  0.00     0.007 C 
ATOM     17  C   UNL     1     183.805 -22.691  37.467  1.00  0.00     0.012 C 
ATOM     18  C   UNL     1     184.323 -24.003  34.417  1.00  0.00     0.000 C 
ATOM     19  C   UNL     1     181.925 -23.357  34.898  1.00  0.00     0.005 C 
ATOM     20  C   UNL     1     182.872 -24.034  33.875  1.00  0.00     0.003 C 
ATOM     21  C   UNL     1     184.903 -22.583  34.326  1.00  0.00     0.031 C 
ATOM     22  C   UNL     1     182.795 -23.487  32.382  1.00  0.00    -0.008 C 
ATOM     23  C   UNL     1     184.795 -22.033  32.942  1.00  0.00    -0.027 C 
ATOM     24  C   UNL     1     183.808 -22.369  32.087  1.00  0.00    -0.065 C 
ATOM     25  C   UNL     1     183.132 -24.661  31.405  1.00  0.00     0.014 C 
ATOM     26  C   UNL     1     181.362 -22.975  32.067  1.00  0.00     0.016 C 
ATOM     27  C   UNL     1     183.916 -21.889  30.655  1.00  0.00     0.063 C 
ATOM     28  C   UNL     1     183.286 -24.233  29.928  1.00  0.00     0.033 C 
ATOM     29  C   UNL     1     184.291 -23.079  29.756  1.00  0.00     0.118 C 
BRANCH  29  30
ATOM     30  O   UNL     1     184.306 -22.684  28.407  1.00  0.00    -0.393 OA
ATOM     31  H   UNL     1     184.709 -21.781  28.375  1.00  0.00     0.210 HD
ENDBRANCH  29  30
ENDBRANCH   9  11
ENDBRANCH   1   9
TORSDOF 7
ENDMDL
MODEL 7
REMARK VINA RESULT:    -6.749      6.947      9.091
REMARK INTER + INTRA:         -11.707
REMARK INTER:                 -10.404
REMARK INTRA:                  -1.303
REMARK UNBOUND:                -2.393
REMARK SMILES CC[C@H](CC[C@@H](C)[C@H]1CC[C@H]2[C@@H]3CC=C4C[C@H](O)CC[C@@]4(C)[C@@H]3CC[C@@]12C)C(C)C
REMARK SMILES IDX 5 1 4 2 3 3 2 4 1 5 28 6 29 7 30 8 6 9 7 10 8 11 9 12 26 13
REMARK SMILES IDX 10 14 11 15 25 16 27 17 12 18 24 19 23 20 13 21 21 22 14 23
REMARK SMILES IDX 15 24 20 25 22 26 16 27 19 28 17 29 18 30
REMARK H PARENT 18 31
REMARK Flexibility Score: inf
ROOT
ATOM      1  C   UNL     1     183.226 -23.372  34.846  1.00  0.00     0.004 C 
ENDROOT
BRANCH   1   2
ATOM      2  C   UNL     1     183.852 -23.941  36.146  1.00  0.00     0.004 C 
BRANCH   2   3
ATOM      3  C   UNL     1     183.682 -25.479  36.291  1.00  0.00    -0.009 C 
BRANCH   3   4
ATOM      4  C   UNL     1     184.921 -26.213  35.708  1.00  0.00     0.000 C 
ATOM      5  C   UNL     1     184.638 -26.848  34.347  1.00  0.00     0.004 C 
ENDBRANCH   3   4
BRANCH   3   6
ATOM      6  C   UNL     1     183.370 -25.893  37.769  1.00  0.00    -0.014 C 
ATOM      7  C   UNL     1     182.160 -26.837  37.904  1.00  0.00     0.007 C 
ATOM      8  C   UNL     1     183.195 -24.670  38.683  1.00  0.00     0.007 C 
ENDBRANCH   3   6
ENDBRANCH   2   3
ENDBRANCH   1   2
BRANCH   1   9
ATOM      9  C   UNL     1     184.065 -22.213  34.230  1.00  0.00    -0.011 C 
ATOM     10  C   UNL     1     185.258 -21.936  35.168  1.00  0.00     0.008 C 
BRANCH   9  11
ATOM     11  C   UNL     1     184.512 -22.536  32.752  1.00  0.00    -0.002 C 
ATOM     12  C   UNL     1     184.131 -23.976  32.340  1.00  0.00     0.005 C 
ATOM     13  C   UNL     1     183.958 -21.629  31.596  1.00  0.00    -0.026 C 
ATOM     14  C   UNL     1     183.817 -23.975  30.853  1.00  0.00     0.005 C 
ATOM     15  C   UNL     1     184.089 -22.556  30.353  1.00  0.00    -0.001 C 
ATOM     16  C   UNL     1     182.461 -21.258  31.835  1.00  0.00     0.007 C 
ATOM     17  C   UNL     1     184.831 -20.349  31.419  1.00  0.00     0.012 C 
ATOM     18  C   UNL     1     183.224 -22.186  29.110  1.00  0.00     0.000 C 
ATOM     19  C   UNL     1     181.719 -20.778  30.578  1.00  0.00     0.005 C 
ATOM     20  C   UNL     1     181.753 -21.853  29.462  1.00  0.00     0.003 C 
ATOM     21  C   UNL     1     183.861 -21.038  28.310  1.00  0.00     0.031 C 
ATOM     22  C   UNL     1     180.899 -21.531  28.156  1.00  0.00    -0.008 C 
ATOM     23  C   UNL     1     183.048 -20.690  27.107  1.00  0.00    -0.027 C 
ATOM     24  C   UNL     1     181.708 -20.830  27.053  1.00  0.00    -0.065 C 
ATOM     25  C   UNL     1     180.395 -22.881  27.548  1.00  0.00     0.014 C 
ATOM     26  C   UNL     1     179.664 -20.660  28.519  1.00  0.00     0.016 C 
ATOM     27  C   UNL     1     181.025 -20.619  25.718  1.00  0.00     0.063 C 
ATOM     28  C   UNL     1     179.714 -22.740  26.168  1.00  0.00     0.033 C 
ATOM     29  C   UNL     1     180.595 -21.984  25.156  1.00  0.00     0.118 C 
BRANCH  29  30
ATOM     30  O   UNL     1     179.875 -21.813  23.961  1.00  0.00    -0.393 OA
ATOM     31  H   UNL     1     180.182 -22.517  23.336  1.00  0.00     0.210 HD
ENDBRANCH  29  30
ENDBRANCH   9  11
ENDBRANCH   1   9
TORSDOF 7
ENDMDL
MODEL 8
REMARK VINA RESULT:    -6.732      7.588      9.848
REMARK INTER + INTRA:         -11.683
REMARK INTER:                  -9.223
REMARK INTRA:                  -2.460
REMARK UNBOUND:                -2.393
REMARK SMILES CC[C@H](CC[C@@H](C)[C@H]1CC[C@H]2[C@@H]3CC=C4C[C@H](O)CC[C@@]4(C)[C@@H]3CC[C@@]12C)C(C)C
REMARK SMILES IDX 5 1 4 2 3 3 2 4 1 5 28 6 29 7 30 8 6 9 7 10 8 11 9 12 26 13
REMARK SMILES IDX 10 14 11 15 25 16 27 17 12 18 24 19 23 20 13 21 21 22 14 23
REMARK SMILES IDX 15 24 20 25 22 26 16 27 19 28 17 29 18 30
REMARK H PARENT 18 31
REMARK Flexibility Score: inf
ROOT
ATOM      1  C   UNL     1     183.437 -18.431  30.282  1.00  0.00     0.004 C 
ENDROOT
BRANCH   1   2
ATOM      2  C   UNL     1     182.919 -19.369  29.161  1.00  0.00     0.004 C 
BRANCH   2   3
ATOM      3  C   UNL     1     182.922 -20.870  29.561  1.00  0.00    -0.009 C 
BRANCH   3   4
ATOM      4  C   UNL     1     181.468 -21.372  29.776  1.00  0.00     0.000 C 
ATOM      5  C   UNL     1     181.248 -21.944  31.176  1.00  0.00     0.004 C 
ENDBRANCH   3   4
BRANCH   3   6
ATOM      6  C   UNL     1     183.722 -21.744  28.535  1.00  0.00    -0.014 C 
ATOM      7  C   UNL     1     184.146 -23.116  29.091  1.00  0.00     0.007 C 
ATOM      8  C   UNL     1     184.942 -20.997  27.974  1.00  0.00     0.007 C 
ENDBRANCH   3   6
ENDBRANCH   2   3
ENDBRANCH   1   2
BRANCH   1   9
ATOM      9  C   UNL     1     184.703 -18.988  30.998  1.00  0.00    -0.011 C 
ATOM     10  C   UNL     1     185.875 -18.027  30.714  1.00  0.00     0.008 C 
BRANCH   9  11
ATOM     11  C   UNL     1     184.454 -19.209  32.540  1.00  0.00    -0.002 C 
ATOM     12  C   UNL     1     182.955 -19.102  32.898  1.00  0.00     0.005 C 
ATOM     13  C   UNL     1     184.922 -20.565  33.178  1.00  0.00    -0.026 C 
ATOM     14  C   UNL     1     182.675 -20.052  34.051  1.00  0.00     0.005 C 
ATOM     15  C   UNL     1     184.019 -20.668  34.441  1.00  0.00    -0.001 C 
ATOM     16  C   UNL     1     184.649 -21.767  32.221  1.00  0.00     0.007 C 
ATOM     17  C   UNL     1     186.427 -20.503  33.586  1.00  0.00     0.012 C 
ATOM     18  C   UNL     1     183.864 -22.083  35.076  1.00  0.00     0.000 C 
ATOM     19  C   UNL     1     184.644 -23.138  32.914  1.00  0.00     0.005 C 
ATOM     20  C   UNL     1     183.578 -23.196  34.038  1.00  0.00     0.003 C 
ATOM     21  C   UNL     1     185.087 -22.445  35.933  1.00  0.00     0.031 C 
ATOM     22  C   UNL     1     183.379 -24.612  34.739  1.00  0.00    -0.008 C 
ATOM     23  C   UNL     1     184.939 -23.792  36.561  1.00  0.00    -0.027 C 
ATOM     24  C   UNL     1     184.242 -24.799  35.997  1.00  0.00    -0.065 C 
ATOM     25  C   UNL     1     181.889 -24.730  35.201  1.00  0.00     0.014 C 
ATOM     26  C   UNL     1     183.679 -25.759  33.735  1.00  0.00     0.016 C 
ATOM     27  C   UNL     1     184.011 -26.050  36.818  1.00  0.00     0.063 C 
ATOM     28  C   UNL     1     181.591 -25.973  36.070  1.00  0.00     0.033 C 
ATOM     29  C   UNL     1     182.544 -26.083  37.276  1.00  0.00     0.118 C 
BRANCH  29  30
ATOM     30  O   UNL     1     182.275 -27.281  37.962  1.00  0.00    -0.393 OA
ATOM     31  H   UNL     1     181.471 -27.121  38.518  1.00  0.00     0.210 HD
ENDBRANCH  29  30
ENDBRANCH   9  11
ENDBRANCH   1   9
TORSDOF 7
ENDMDL
MODEL 9
REMARK VINA RESULT:    -6.530      1.585      4.033
REMARK INTER + INTRA:         -11.404
REMARK INTER:                  -9.071
REMARK INTRA:                  -2.334
REMARK UNBOUND:                -2.393
REMARK SMILES CC[C@H](CC[C@@H](C)[C@H]1CC[C@H]2[C@@H]3CC=C4C[C@H](O)CC[C@@]4(C)[C@@H]3CC[C@@]12C)C(C)C
REMARK SMILES IDX 5 1 4 2 3 3 2 4 1 5 28 6 29 7 30 8 6 9 7 10 8 11 9 12 26 13
REMARK SMILES IDX 10 14 11 15 25 16 27 17 12 18 24 19 23 20 13 21 21 22 14 23
REMARK SMILES IDX 15 24 20 25 22 26 16 27 19 28 17 29 18 30
REMARK H PARENT 18 31
REMARK Flexibility Score: inf
ROOT
ATOM      1  C   UNL     1     182.411 -13.531  29.865  1.00  0.00     0.004 C 
ENDROOT
BRANCH   1   2
ATOM      2  C   UNL     1     180.905 -13.205  30.039  1.00  0.00     0.004 C 
BRANCH   2   3
ATOM      3  C   UNL     1     179.969 -14.379  29.640  1.00  0.00    -0.009 C 
BRANCH   3   4
ATOM      4  C   UNL     1     180.226 -15.607  30.556  1.00  0.00     0.000 C 
ATOM      5  C   UNL     1     180.003 -16.935  29.832  1.00  0.00     0.004 C 
ENDBRANCH   3   4
BRANCH   3   6
ATOM      6  C   UNL     1     178.465 -13.943  29.616  1.00  0.00    -0.014 C 
ATOM      7  C   UNL     1     177.899 -13.750  28.197  1.00  0.00     0.007 C 
ATOM      8  C   UNL     1     178.220 -12.683  30.462  1.00  0.00     0.007 C 
ENDBRANCH   3   6
ENDBRANCH   2   3
ENDBRANCH   1   2
BRANCH   1   9
ATOM      9  C   UNL     1     182.872 -13.481  28.378  1.00  0.00    -0.011 C 
ATOM     10  C   UNL     1     183.772 -12.241  28.198  1.00  0.00     0.008 C 
BRANCH   9  11
ATOM     11  C   UNL     1     183.581 -14.820  27.940  1.00  0.00    -0.002 C 
ATOM     12  C   UNL     1     183.660 -15.833  29.104  1.00  0.00     0.005 C 
ATOM     13  C   UNL     1     182.960 -15.629  26.746  1.00  0.00    -0.026 C 
ATOM     14  C   UNL     1     183.556 -17.233  28.520  1.00  0.00     0.005 C 
ATOM     15  C   UNL     1     183.500 -17.066  27.001  1.00  0.00    -0.001 C 
ATOM     16  C   UNL     1     181.401 -15.622  26.805  1.00  0.00     0.007 C 
ATOM     17  C   UNL     1     183.472 -15.088  25.375  1.00  0.00     0.012 C 
ATOM     18  C   UNL     1     182.739 -18.234  26.302  1.00  0.00     0.000 C 
ATOM     19  C   UNL     1     180.730 -16.730  25.979  1.00  0.00     0.005 C 
ATOM     20  C   UNL     1     181.200 -18.134  26.439  1.00  0.00     0.003 C 
ATOM     21  C   UNL     1     183.143 -18.355  24.824  1.00  0.00     0.031 C 
ATOM     22  C   UNL     1     180.471 -19.373  25.753  1.00  0.00    -0.008 C 
ATOM     23  C   UNL     1     182.432 -19.482  24.151  1.00  0.00    -0.027 C 
ATOM     24  C   UNL     1     181.200 -19.897  24.505  1.00  0.00    -0.065 C 
ATOM     25  C   UNL     1     180.435 -20.555  26.776  1.00  0.00     0.014 C 
ATOM     26  C   UNL     1     179.011 -19.000  25.375  1.00  0.00     0.016 C 
ATOM     27  C   UNL     1     180.668 -21.166  23.872  1.00  0.00     0.063 C 
ATOM     28  C   UNL     1     179.930 -21.891  26.185  1.00  0.00     0.033 C 
ATOM     29  C   UNL     1     180.700 -22.296  24.914  1.00  0.00     0.118 C 
BRANCH  29  30
ATOM     30  O   UNL     1     180.125 -23.464  24.384  1.00  0.00    -0.393 OA
ATOM     31  H   UNL     1     180.780 -24.194  24.516  1.00  0.00     0.210 HD
ENDBRANCH  29  30
ENDBRANCH   9  11
ENDBRANCH   1   9
TORSDOF 7
ENDMDL
