MODEL 1
REMARK VINA RESULT:    -7.176      0.000      0.000
REMARK INTER + INTRA:          -8.508
REMARK INTER:                  -8.644
REMARK INTRA:                   0.135
REMARK UNBOUND:                 0.135
REMARK SMILES Oc1cc(O)c2cc(O)c(-c3ccc(O)c(O)c3)[o+]c2c1.[Cl-]
REMARK SMILES IDX 10 1 19 2 20 3 21 4 2 5 3 6 4 7 6 8 7 9 8 10 11 11 12 12
REMARK SMILES IDX 13 13 14 14 18 15 16 16 15 17 17 19 9 21 1 23 5 25
REMARK H PARENT 15 18 17 20 9 22 1 24 5 26
REMARK Flexibility Score: inf
ROOT
ATOM      1  C   UNL     1      10.628 -18.877 -27.735  1.00  0.00     0.402 A 
ATOM      2  O   UNL     1      10.226 -18.459 -28.933  1.00  0.00    -0.202 OA
ATOM      3  C   UNL     1       9.323 -17.499 -29.106  1.00  0.00     0.368 A 
ATOM      4  C   UNL     1       8.962 -17.131 -30.404  1.00  0.00     0.162 A 
ATOM      5  C   UNL     1       8.013 -16.126 -30.614  1.00  0.00     0.128 A 
ATOM      6  C   UNL     1       7.423 -15.488 -29.522  1.00  0.00     0.093 A 
ATOM      7  C   UNL     1       7.766 -15.839 -28.210  1.00  0.00     0.136 A 
ATOM      8  C   UNL     1       8.731 -16.856 -27.992  1.00  0.00     0.125 A 
ATOM      9  C   UNL     1       9.147 -17.263 -26.713  1.00  0.00     0.078 A 
ATOM     10  C   UNL     1      10.107 -18.271 -26.577  1.00  0.00     0.223 A 
ENDROOT
BRANCH   1  11
ATOM     11  C   UNL     1      11.632 -19.963 -27.673  1.00  0.00     0.087 A 
ATOM     12  C   UNL     1      12.682 -19.879 -26.745  1.00  0.00     0.022 A 
ATOM     13  C   UNL     1      13.653 -20.883 -26.682  1.00  0.00     0.051 A 
ATOM     14  C   UNL     1      13.597 -21.975 -27.556  1.00  0.00     0.157 A 
ATOM     15  C   UNL     1      11.592 -21.051 -28.563  1.00  0.00     0.068 A 
ATOM     16  C   UNL     1      12.566 -22.058 -28.502  1.00  0.00     0.158 A 
BRANCH  14  17
ATOM     17  O   UNL     1      14.561 -22.979 -27.496  1.00  0.00    -0.504 OA
ATOM     18  H   UNL     1      15.523 -22.776 -27.249  1.00  0.00     0.293 HD
ENDBRANCH  14  17
BRANCH  16  19
ATOM     19  O   UNL     1      12.520 -23.140 -29.379  1.00  0.00    -0.504 OA
ATOM     20  H   UNL     1      11.960 -23.960 -29.179  1.00  0.00     0.293 HD
ENDBRANCH  16  19
ENDBRANCH   1  11
BRANCH  10  21
ATOM     21  O   UNL     1      10.557 -18.642 -25.309  1.00  0.00    -0.500 OA
ATOM     22  H   UNL     1      11.481 -18.390 -24.977  1.00  0.00     0.294 HD
ENDBRANCH  10  21
BRANCH   5  23
ATOM     23  O   UNL     1       7.649 -15.754 -31.906  1.00  0.00    -0.507 OA
ATOM     24  H   UNL     1       6.811 -16.116 -32.346  1.00  0.00     0.293 HD
ENDBRANCH   5  23
BRANCH   7  25
ATOM     25  O   UNL     1       7.127 -15.155 -27.172  1.00  0.00    -0.507 OA
ATOM     26  H   UNL     1       7.491 -14.323 -26.729  1.00  0.00     0.293 HD
ENDBRANCH   7  25
TORSDOF 6
ENDMDL
MODEL 2
REMARK VINA RESULT:    -7.065      4.420     10.167
REMARK INTER + INTRA:          -8.376
REMARK INTER:                  -8.256
REMARK INTRA:                  -0.120
REMARK UNBOUND:                 0.135
REMARK SMILES Oc1cc(O)c2cc(O)c(-c3ccc(O)c(O)c3)[o+]c2c1.[Cl-]
REMARK SMILES IDX 10 1 19 2 20 3 21 4 2 5 3 6 4 7 6 8 7 9 8 10 11 11 12 12
REMARK SMILES IDX 13 13 14 14 18 15 16 16 15 17 17 19 9 21 1 23 5 25
REMARK H PARENT 15 18 17 20 9 22 1 24 5 26
REMARK Flexibility Score: inf
ROOT
ATOM      1  C   UNL     1      15.191 -23.963 -28.335  1.00  0.00     0.402 A 
ATOM      2  O   UNL     1      15.069 -25.188 -28.839  1.00  0.00    -0.202 OA
ATOM      3  C   UNL     1      16.042 -26.093 -28.804  1.00  0.00     0.368 A 
ATOM      4  C   UNL     1      15.820 -27.353 -29.363  1.00  0.00     0.162 A 
ATOM      5  C   UNL     1      16.829 -28.322 -29.343  1.00  0.00     0.128 A 
ATOM      6  C   UNL     1      18.063 -28.027 -28.762  1.00  0.00     0.093 A 
ATOM      7  C   UNL     1      18.312 -26.770 -28.195  1.00  0.00     0.136 A 
ATOM      8  C   UNL     1      17.291 -25.785 -28.212  1.00  0.00     0.125 A 
ATOM      9  C   UNL     1      17.446 -24.505 -27.656  1.00  0.00     0.078 A 
ATOM     10  C   UNL     1      16.392 -23.587 -27.705  1.00  0.00     0.223 A 
ENDROOT
BRANCH   1  11
ATOM     11  C   UNL     1      14.037 -23.043 -28.445  1.00  0.00     0.087 A 
ATOM     12  C   UNL     1      13.562 -22.681 -29.715  1.00  0.00     0.022 A 
ATOM     13  C   UNL     1      12.485 -21.798 -29.843  1.00  0.00     0.051 A 
ATOM     14  C   UNL     1      11.880 -21.253 -28.704  1.00  0.00     0.157 A 
ATOM     15  C   UNL     1      13.438 -22.476 -27.305  1.00  0.00     0.068 A 
ATOM     16  C   UNL     1      12.360 -21.589 -27.432  1.00  0.00     0.158 A 
BRANCH  14  17
ATOM     17  O   UNL     1      10.805 -20.374 -28.827  1.00  0.00    -0.504 OA
ATOM     18  H   UNL     1      10.909 -19.470 -29.273  1.00  0.00     0.293 HD
ENDBRANCH  14  17
BRANCH  16  19
ATOM     19  O   UNL     1      11.764 -21.035 -26.301  1.00  0.00    -0.504 OA
ATOM     20  H   UNL     1      12.301 -20.826 -25.468  1.00  0.00     0.293 HD
ENDBRANCH  16  19
ENDBRANCH   1  11
BRANCH  10  21
ATOM     21  O   UNL     1      16.528 -22.332 -27.109  1.00  0.00    -0.500 OA
ATOM     22  H   UNL     1      16.257 -21.483 -27.591  1.00  0.00     0.294 HD
ENDBRANCH  10  21
BRANCH   5  23
ATOM     23  O   UNL     1      16.613 -29.581 -29.897  1.00  0.00    -0.507 OA
ATOM     24  H   UNL     1      17.073 -29.869 -30.753  1.00  0.00     0.293 HD
ENDBRANCH   5  23
BRANCH   7  25
ATOM     25  O   UNL     1      19.575 -26.555 -27.638  1.00  0.00    -0.507 OA
ATOM     26  H   UNL     1      19.971 -25.643 -27.457  1.00  0.00     0.293 HD
ENDBRANCH   7  25
TORSDOF 6
ENDMDL
MODEL 3
REMARK VINA RESULT:    -6.999      2.646      8.263
REMARK INTER + INTRA:          -8.296
REMARK INTER:                  -8.278
REMARK INTRA:                  -0.018
REMARK UNBOUND:                 0.135
REMARK SMILES Oc1cc(O)c2cc(O)c(-c3ccc(O)c(O)c3)[o+]c2c1.[Cl-]
REMARK SMILES IDX 10 1 19 2 20 3 21 4 2 5 3 6 4 7 6 8 7 9 8 10 11 11 12 12
REMARK SMILES IDX 13 13 14 14 18 15 16 16 15 17 17 19 9 21 1 23 5 25
REMARK H PARENT 15 18 17 20 9 22 1 24 5 26
REMARK Flexibility Score: inf
ROOT
ATOM      1  C   UNL     1      12.922 -21.508 -27.975  1.00  0.00     0.402 A 
ATOM      2  O   UNL     1      14.106 -21.693 -27.396  1.00  0.00    -0.202 OA
ATOM      3  C   UNL     1      14.897 -22.727 -27.666  1.00  0.00     0.368 A 
ATOM      4  C   UNL     1      16.122 -22.837 -27.003  1.00  0.00     0.162 A 
ATOM      5  C   UNL     1      16.971 -23.916 -27.267  1.00  0.00     0.128 A 
ATOM      6  C   UNL     1      16.593 -24.888 -28.194  1.00  0.00     0.093 A 
ATOM      7  C   UNL     1      15.370 -24.801 -28.872  1.00  0.00     0.136 A 
ATOM      8  C   UNL     1      14.506 -23.707 -28.610  1.00  0.00     0.125 A 
ATOM      9  C   UNL     1      13.268 -23.531 -29.251  1.00  0.00     0.078 A 
ATOM     10  C   UNL     1      12.472 -22.423 -28.944  1.00  0.00     0.223 A 
ENDROOT
BRANCH   1  11
ATOM     11  C   UNL     1      12.128 -20.322 -27.581  1.00  0.00     0.087 A 
ATOM     12  C   UNL     1      11.652 -19.450 -28.574  1.00  0.00     0.022 A 
ATOM     13  C   UNL     1      10.917 -18.314 -28.224  1.00  0.00     0.051 A 
ATOM     14  C   UNL     1      10.662 -18.024 -26.878  1.00  0.00     0.157 A 
ATOM     15  C   UNL     1      11.887 -20.016 -26.230  1.00  0.00     0.068 A 
ATOM     16  C   UNL     1      11.152 -18.875 -25.878  1.00  0.00     0.158 A 
BRANCH  14  17
ATOM     17  O   UNL     1       9.928 -16.893 -26.525  1.00  0.00    -0.504 OA
ATOM     18  H   UNL     1       8.971 -16.766 -26.832  1.00  0.00     0.293 HD
ENDBRANCH  14  17
BRANCH  16  19
ATOM     19  O   UNL     1      10.907 -18.576 -24.539  1.00  0.00    -0.504 OA
ATOM     20  H   UNL     1      11.437 -17.864 -24.050  1.00  0.00     0.293 HD
ENDBRANCH  16  19
ENDBRANCH   1  11
BRANCH  10  21
ATOM     21  O   UNL     1      11.265 -22.221 -29.616  1.00  0.00    -0.500 OA
ATOM     22  H   UNL     1      10.377 -22.228 -29.128  1.00  0.00     0.294 HD
ENDBRANCH  10  21
BRANCH   5  23
ATOM     23  O   UNL     1      18.194 -24.031 -26.610  1.00  0.00    -0.507 OA
ATOM     24  H   UNL     1      18.259 -24.400 -25.669  1.00  0.00     0.293 HD
ENDBRANCH   5  23
BRANCH   7  25
ATOM     25  O   UNL     1      15.065 -25.817 -29.782  1.00  0.00    -0.507 OA
ATOM     26  H   UNL     1      14.231 -26.384 -29.745  1.00  0.00     0.293 HD
ENDBRANCH   7  25
TORSDOF 6
ENDMDL
MODEL 4
REMARK VINA RESULT:    -6.867      5.512      9.604
REMARK INTER + INTRA:          -8.137
REMARK INTER:                  -7.848
REMARK INTRA:                  -0.289
REMARK UNBOUND:                 0.135
REMARK SMILES Oc1cc(O)c2cc(O)c(-c3ccc(O)c(O)c3)[o+]c2c1.[Cl-]
REMARK SMILES IDX 10 1 19 2 20 3 21 4 2 5 3 6 4 7 6 8 7 9 8 10 11 11 12 12
REMARK SMILES IDX 13 13 14 14 18 15 16 16 15 17 17 19 9 21 1 23 5 25
REMARK H PARENT 15 18 17 20 9 22 1 24 5 26
REMARK Flexibility Score: inf
ROOT
ATOM      1  C   UNL     1      15.407 -23.515 -28.223  1.00  0.00     0.402 A 
ATOM      2  O   UNL     1      16.007 -22.619 -27.443  1.00  0.00    -0.202 OA
ATOM      3  C   UNL     1      17.298 -22.670 -27.132  1.00  0.00     0.368 A 
ATOM      4  C   UNL     1      17.838 -21.685 -26.302  1.00  0.00     0.162 A 
ATOM      5  C   UNL     1      19.192 -21.717 -25.957  1.00  0.00     0.128 A 
ATOM      6  C   UNL     1      20.009 -22.738 -26.443  1.00  0.00     0.093 A 
ATOM      7  C   UNL     1      19.493 -23.739 -27.277  1.00  0.00     0.136 A 
ATOM      8  C   UNL     1      18.120 -23.710 -27.632  1.00  0.00     0.125 A 
ATOM      9  C   UNL     1      17.519 -24.662 -28.472  1.00  0.00     0.078 A 
ATOM     10  C   UNL     1      16.159 -24.565 -28.782  1.00  0.00     0.223 A 
ENDROOT
BRANCH   1  11
ATOM     11  C   UNL     1      13.959 -23.355 -28.487  1.00  0.00     0.087 A 
ATOM     12  C   UNL     1      13.536 -22.839 -29.723  1.00  0.00     0.022 A 
ATOM     13  C   UNL     1      12.175 -22.661 -29.987  1.00  0.00     0.051 A 
ATOM     14  C   UNL     1      11.219 -22.981 -29.015  1.00  0.00     0.157 A 
ATOM     15  C   UNL     1      12.997 -23.655 -27.507  1.00  0.00     0.068 A 
ATOM     16  C   UNL     1      11.632 -23.475 -27.770  1.00  0.00     0.158 A 
BRANCH  14  17
ATOM     17  O   UNL     1       9.862 -22.807 -29.274  1.00  0.00    -0.504 OA
ATOM     18  H   UNL     1       9.519 -22.640 -30.213  1.00  0.00     0.293 HD
ENDBRANCH  14  17
BRANCH  16  19
ATOM     19  O   UNL     1      10.678 -23.780 -26.799  1.00  0.00    -0.504 OA
ATOM     20  H   UNL     1      10.878 -24.430 -26.048  1.00  0.00     0.293 HD
ENDBRANCH  16  19
ENDBRANCH   1  11
BRANCH  10  21
ATOM     21  O   UNL     1      15.573 -25.481 -29.656  1.00  0.00    -0.500 OA
ATOM     22  H   UNL     1      15.781 -26.472 -29.605  1.00  0.00     0.294 HD
ENDBRANCH  10  21
BRANCH   5  23
ATOM     23  O   UNL     1      19.736 -20.737 -25.130  1.00  0.00    -0.507 OA
ATOM     24  H   UNL     1      20.127 -19.881 -25.508  1.00  0.00     0.293 HD
ENDBRANCH   5  23
BRANCH   7  25
ATOM     25  O   UNL     1      20.377 -24.728 -27.718  1.00  0.00    -0.507 OA
ATOM     26  H   UNL     1      20.977 -25.269 -27.111  1.00  0.00     0.293 HD
ENDBRANCH   7  25
TORSDOF 6
ENDMDL
MODEL 5
REMARK VINA RESULT:    -6.741     10.643     12.079
REMARK INTER + INTRA:          -7.985
REMARK INTER:                  -7.632
REMARK INTRA:                  -0.353
REMARK UNBOUND:                 0.135
REMARK SMILES Oc1cc(O)c2cc(O)c(-c3ccc(O)c(O)c3)[o+]c2c1.[Cl-]
REMARK SMILES IDX 10 1 19 2 20 3 21 4 2 5 3 6 4 7 6 8 7 9 8 10 11 11 12 12
REMARK SMILES IDX 13 13 14 14 18 15 16 16 15 17 17 19 9 21 1 23 5 25
REMARK H PARENT 15 18 17 20 9 22 1 24 5 26
REMARK Flexibility Score: inf
ROOT
ATOM      1  C   UNL     1      19.212 -25.049 -28.784  1.00  0.00     0.402 A 
ATOM      2  O   UNL     1      18.613 -25.371 -29.928  1.00  0.00    -0.202 OA
ATOM      3  C   UNL     1      17.887 -26.474 -30.086  1.00  0.00     0.368 A 
ATOM      4  C   UNL     1      17.299 -26.729 -31.326  1.00  0.00     0.162 A 
ATOM      5  C   UNL     1      16.533 -27.883 -31.520  1.00  0.00     0.128 A 
ATOM      6  C   UNL     1      16.357 -28.785 -30.470  1.00  0.00     0.093 A 
ATOM      7  C   UNL     1      16.937 -28.553 -29.215  1.00  0.00     0.136 A 
ATOM      8  C   UNL     1      17.713 -27.382 -29.013  1.00  0.00     0.125 A 
ATOM      9  C   UNL     1      18.319 -27.061 -27.788  1.00  0.00     0.078 A 
ATOM     10  C   UNL     1      19.066 -25.885 -27.662  1.00  0.00     0.223 A 
ENDROOT
BRANCH   1  11
ATOM     11  C   UNL     1      20.002 -23.797 -28.737  1.00  0.00     0.087 A 
ATOM     12  C   UNL     1      19.345 -22.575 -28.523  1.00  0.00     0.022 A 
ATOM     13  C   UNL     1      20.068 -21.379 -28.495  1.00  0.00     0.051 A 
ATOM     14  C   UNL     1      21.454 -21.386 -28.695  1.00  0.00     0.157 A 
ATOM     15  C   UNL     1      21.391 -23.798 -28.958  1.00  0.00     0.068 A 
ATOM     16  C   UNL     1      22.117 -22.598 -28.931  1.00  0.00     0.158 A 
BRANCH  14  17
ATOM     17  O   UNL     1      22.179 -20.197 -28.665  1.00  0.00    -0.504 OA
ATOM     18  H   UNL     1      21.874 -19.405 -28.111  1.00  0.00     0.293 HD
ENDBRANCH  14  17
BRANCH  16  19
ATOM     19  O   UNL     1      23.495 -22.601 -29.143  1.00  0.00    -0.504 OA
ATOM     20  H   UNL     1      23.887 -22.715 -30.070  1.00  0.00     0.293 HD
ENDBRANCH  16  19
ENDBRANCH   1  11
BRANCH  10  21
ATOM     21  O   UNL     1      19.627 -25.540 -26.432  1.00  0.00    -0.500 OA
ATOM     22  H   UNL     1      20.306 -26.135 -25.972  1.00  0.00     0.294 HD
ENDBRANCH  10  21
BRANCH   5  23
ATOM     23  O   UNL     1      15.943 -28.143 -32.755  1.00  0.00    -0.507 OA
ATOM     24  H   UNL     1      15.754 -29.090 -33.064  1.00  0.00     0.293 HD
ENDBRANCH   5  23
BRANCH   7  25
ATOM     25  O   UNL     1      16.715 -29.506 -28.218  1.00  0.00    -0.507 OA
ATOM     26  H   UNL     1      17.447 -29.964 -27.694  1.00  0.00     0.293 HD
ENDBRANCH   7  25
TORSDOF 6
ENDMDL
MODEL 6
REMARK VINA RESULT:    -6.630      3.187      6.127
REMARK INTER + INTRA:          -7.851
REMARK INTER:                  -7.849
REMARK INTRA:                  -0.002
REMARK UNBOUND:                 0.135
REMARK SMILES Oc1cc(O)c2cc(O)c(-c3ccc(O)c(O)c3)[o+]c2c1.[Cl-]
REMARK SMILES IDX 10 1 19 2 20 3 21 4 2 5 3 6 4 7 6 8 7 9 8 10 11 11 12 12
REMARK SMILES IDX 13 13 14 14 18 15 16 16 15 17 17 19 9 21 1 23 5 25
REMARK H PARENT 15 18 17 20 9 22 1 24 5 26
REMARK Flexibility Score: inf
ROOT
ATOM      1  C   UNL     1      10.235 -16.955 -30.871  1.00  0.00     0.402 A 
ATOM      2  O   UNL     1      10.911 -17.474 -29.850  1.00  0.00    -0.202 OA
ATOM      3  C   UNL     1      10.383 -17.660 -28.644  1.00  0.00     0.368 A 
ATOM      4  C   UNL     1      11.174 -18.210 -27.632  1.00  0.00     0.162 A 
ATOM      5  C   UNL     1      10.644 -18.413 -26.354  1.00  0.00     0.128 A 
ATOM      6  C   UNL     1       9.319 -18.064 -26.088  1.00  0.00     0.093 A 
ATOM      7  C   UNL     1       8.504 -17.510 -27.085  1.00  0.00     0.136 A 
ATOM      8  C   UNL     1       9.037 -17.305 -28.384  1.00  0.00     0.125 A 
ATOM      9  C   UNL     1       8.292 -16.769 -29.447  1.00  0.00     0.078 A 
ATOM     10  C   UNL     1       8.884 -16.600 -30.703  1.00  0.00     0.223 A 
ENDROOT
BRANCH   1  11
ATOM     11  C   UNL     1      10.938 -16.788 -32.163  1.00  0.00     0.087 A 
ATOM     12  C   UNL     1      10.361 -17.304 -33.335  1.00  0.00     0.022 A 
ATOM     13  C   UNL     1      11.017 -17.176 -34.563  1.00  0.00     0.051 A 
ATOM     14  C   UNL     1      12.264 -16.543 -34.634  1.00  0.00     0.157 A 
ATOM     15  C   UNL     1      12.201 -16.172 -32.238  1.00  0.00     0.068 A 
ATOM     16  C   UNL     1      12.860 -16.044 -33.468  1.00  0.00     0.158 A 
BRANCH  14  17
ATOM     17  O   UNL     1      12.920 -16.411 -35.856  1.00  0.00    -0.504 OA
ATOM     18  H   UNL     1      13.260 -17.219 -36.365  1.00  0.00     0.293 HD
ENDBRANCH  14  17
BRANCH  16  19
ATOM     19  O   UNL     1      14.108 -15.428 -33.541  1.00  0.00    -0.504 OA
ATOM     20  H   UNL     1      14.894 -15.877 -33.996  1.00  0.00     0.293 HD
ENDBRANCH  16  19
ENDBRANCH   1  11
BRANCH  10  21
ATOM     21  O   UNL     1       8.130 -16.114 -31.772  1.00  0.00    -0.500 OA
ATOM     22  H   UNL     1       7.183 -16.432 -31.944  1.00  0.00     0.294 HD
ENDBRANCH  10  21
BRANCH   5  23
ATOM     23  O   UNL     1      11.427 -18.961 -25.342  1.00  0.00    -0.507 OA
ATOM     24  H   UNL     1      12.060 -18.391 -24.792  1.00  0.00     0.293 HD
ENDBRANCH   5  23
BRANCH   7  25
ATOM     25  O   UNL     1       7.191 -17.186 -26.736  1.00  0.00    -0.507 OA
ATOM     26  H   UNL     1       6.554 -16.671 -27.327  1.00  0.00     0.293 HD
ENDBRANCH   7  25
TORSDOF 6
ENDMDL
MODEL 7
REMARK VINA RESULT:    -6.484      9.466     11.468
REMARK INTER + INTRA:          -7.675
REMARK INTER:                  -7.326
REMARK INTRA:                  -0.349
REMARK UNBOUND:                 0.135
REMARK SMILES Oc1cc(O)c2cc(O)c(-c3ccc(O)c(O)c3)[o+]c2c1.[Cl-]
REMARK SMILES IDX 10 1 19 2 20 3 21 4 2 5 3 6 4 7 6 8 7 9 8 10 11 11 12 12
REMARK SMILES IDX 13 13 14 14 18 15 16 16 15 17 17 19 9 21 1 23 5 25
REMARK H PARENT 15 18 17 20 9 22 1 24 5 26
REMARK Flexibility Score: inf
ROOT
ATOM      1  C   UNL     1      18.378 -24.053 -27.876  1.00  0.00     0.402 A 
ATOM      2  O   UNL     1      18.143 -25.239 -27.319  1.00  0.00    -0.202 OA
ATOM      3  C   UNL     1      17.586 -26.254 -27.972  1.00  0.00     0.368 A 
ATOM      4  C   UNL     1      17.376 -27.461 -27.302  1.00  0.00     0.162 A 
ATOM      5  C   UNL     1      16.790 -28.544 -27.965  1.00  0.00     0.128 A 
ATOM      6  C   UNL     1      16.411 -28.417 -29.302  1.00  0.00     0.093 A 
ATOM      7  C   UNL     1      16.610 -27.217 -29.998  1.00  0.00     0.136 A 
ATOM      8  C   UNL     1      17.207 -26.117 -29.330  1.00  0.00     0.125 A 
ATOM      9  C   UNL     1      17.457 -24.882 -29.950  1.00  0.00     0.078 A 
ATOM     10  C   UNL     1      18.055 -23.843 -29.229  1.00  0.00     0.223 A 
ENDROOT
BRANCH   1  11
ATOM     11  C   UNL     1      18.994 -22.998 -27.040  1.00  0.00     0.087 A 
ATOM     12  C   UNL     1      18.170 -22.089 -26.357  1.00  0.00     0.022 A 
ATOM     13  C   UNL     1      18.730 -21.073 -25.577  1.00  0.00     0.051 A 
ATOM     14  C   UNL     1      20.121 -20.941 -25.482  1.00  0.00     0.157 A 
ATOM     15  C   UNL     1      20.391 -22.849 -26.957  1.00  0.00     0.068 A 
ATOM     16  C   UNL     1      20.953 -21.829 -26.177  1.00  0.00     0.158 A 
BRANCH  14  17
ATOM     17  O   UNL     1      20.684 -19.931 -24.705  1.00  0.00    -0.504 OA
ATOM     18  H   UNL     1      20.109 -19.308 -24.150  1.00  0.00     0.293 HD
ENDBRANCH  14  17
BRANCH  16  19
ATOM     19  O   UNL     1      22.337 -21.687 -26.091  1.00  0.00    -0.504 OA
ATOM     20  H   UNL     1      22.927 -21.735 -26.914  1.00  0.00     0.293 HD
ENDBRANCH  16  19
ENDBRANCH   1  11
BRANCH  10  21
ATOM     21  O   UNL     1      18.349 -22.633 -29.857  1.00  0.00    -0.500 OA
ATOM     22  H   UNL     1      18.918 -22.593 -30.695  1.00  0.00     0.294 HD
ENDBRANCH  10  21
BRANCH   5  23
ATOM     23  O   UNL     1      16.578 -29.750 -27.302  1.00  0.00    -0.507 OA
ATOM     24  H   UNL     1      15.703 -30.255 -27.385  1.00  0.00     0.293 HD
ENDBRANCH   5  23
BRANCH   7  25
ATOM     25  O   UNL     1      16.200 -27.172 -31.333  1.00  0.00    -0.507 OA
ATOM     26  H   UNL     1      16.550 -26.514 -32.015  1.00  0.00     0.293 HD
ENDBRANCH   7  25
TORSDOF 6
ENDMDL
MODEL 8
REMARK VINA RESULT:    -6.468      9.574     11.661
REMARK INTER + INTRA:          -7.657
REMARK INTER:                  -7.309
REMARK INTRA:                  -0.348
REMARK UNBOUND:                 0.135
REMARK SMILES Oc1cc(O)c2cc(O)c(-c3ccc(O)c(O)c3)[o+]c2c1.[Cl-]
REMARK SMILES IDX 10 1 19 2 20 3 21 4 2 5 3 6 4 7 6 8 7 9 8 10 11 11 12 12
REMARK SMILES IDX 13 13 14 14 18 15 16 16 15 17 17 19 9 21 1 23 5 25
REMARK H PARENT 15 18 17 20 9 22 1 24 5 26
REMARK Flexibility Score: inf
ROOT
ATOM      1  C   UNL     1      17.899 -25.473 -28.334  1.00  0.00     0.402 A 
ATOM      2  O   UNL     1      17.247 -26.604 -28.587  1.00  0.00    -0.202 OA
ATOM      3  C   UNL     1      17.165 -27.143 -29.800  1.00  0.00     0.368 A 
ATOM      4  C   UNL     1      16.454 -28.334 -29.968  1.00  0.00     0.162 A 
ATOM      5  C   UNL     1      16.350 -28.920 -31.234  1.00  0.00     0.128 A 
ATOM      6  C   UNL     1      16.957 -28.312 -32.333  1.00  0.00     0.093 A 
ATOM      7  C   UNL     1      17.674 -27.117 -32.192  1.00  0.00     0.136 A 
ATOM      8  C   UNL     1      17.785 -26.520 -30.910  1.00  0.00     0.125 A 
ATOM      9  C   UNL     1      18.495 -25.332 -30.671  1.00  0.00     0.078 A 
ATOM     10  C   UNL     1      18.565 -24.805 -29.378  1.00  0.00     0.223 A 
ENDROOT
BRANCH   1  11
ATOM     11  C   UNL     1      17.909 -24.968 -26.942  1.00  0.00     0.087 A 
ATOM     12  C   UNL     1      16.949 -24.025 -26.542  1.00  0.00     0.022 A 
ATOM     13  C   UNL     1      16.952 -23.520 -25.239  1.00  0.00     0.051 A 
ATOM     14  C   UNL     1      17.924 -23.939 -24.321  1.00  0.00     0.157 A 
ATOM     15  C   UNL     1      18.895 -25.371 -26.023  1.00  0.00     0.068 A 
ATOM     16  C   UNL     1      18.900 -24.864 -24.716  1.00  0.00     0.158 A 
BRANCH  14  17
ATOM     17  O   UNL     1      17.929 -23.441 -23.021  1.00  0.00    -0.504 OA
ATOM     18  H   UNL     1      18.794 -23.302 -22.510  1.00  0.00     0.293 HD
ENDBRANCH  14  17
BRANCH  16  19
ATOM     19  O   UNL     1      19.874 -25.269 -23.804  1.00  0.00    -0.504 OA
ATOM     20  H   UNL     1      20.827 -24.931 -23.863  1.00  0.00     0.293 HD
ENDBRANCH  16  19
ENDBRANCH   1  11
BRANCH  10  21
ATOM     21  O   UNL     1      19.311 -23.652 -29.131  1.00  0.00    -0.500 OA
ATOM     22  H   UNL     1      19.400 -22.917 -29.823  1.00  0.00     0.294 HD
ENDBRANCH  10  21
BRANCH   5  23
ATOM     23  O   UNL     1      15.643 -30.108 -31.408  1.00  0.00    -0.507 OA
ATOM     24  H   UNL     1      16.058 -30.909 -31.871  1.00  0.00     0.293 HD
ENDBRANCH   5  23
BRANCH   7  25
ATOM     25  O   UNL     1      18.249 -26.572 -33.343  1.00  0.00    -0.507 OA
ATOM     26  H   UNL     1      18.470 -25.593 -33.461  1.00  0.00     0.293 HD
ENDBRANCH   7  25
TORSDOF 6
ENDMDL
MODEL 9
REMARK VINA RESULT:    -6.371      9.831     11.574
REMARK INTER + INTRA:          -7.539
REMARK INTER:                  -7.190
REMARK INTRA:                  -0.349
REMARK UNBOUND:                 0.135
REMARK SMILES Oc1cc(O)c2cc(O)c(-c3ccc(O)c(O)c3)[o+]c2c1.[Cl-]
REMARK SMILES IDX 10 1 19 2 20 3 21 4 2 5 3 6 4 7 6 8 7 9 8 10 11 11 12 12
REMARK SMILES IDX 13 13 14 14 18 15 16 16 15 17 17 19 9 21 1 23 5 25
REMARK H PARENT 15 18 17 20 9 22 1 24 5 26
REMARK Flexibility Score: inf
ROOT
ATOM      1  C   UNL     1      18.562 -24.716 -27.700  1.00  0.00     0.402 A 
ATOM      2  O   UNL     1      19.736 -24.469 -28.275  1.00  0.00    -0.202 OA
ATOM      3  C   UNL     1      20.595 -23.563 -27.820  1.00  0.00     0.368 A 
ATOM      4  C   UNL     1      21.804 -23.372 -28.494  1.00  0.00     0.162 A 
ATOM      5  C   UNL     1      22.724 -22.423 -28.038  1.00  0.00     0.128 A 
ATOM      6  C   UNL     1      22.434 -21.662 -26.905  1.00  0.00     0.093 A 
ATOM      7  C   UNL     1      21.229 -21.833 -26.211  1.00  0.00     0.136 A 
ATOM      8  C   UNL     1      20.293 -22.796 -26.668  1.00  0.00     0.125 A 
ATOM      9  C   UNL     1      19.068 -23.046 -26.029  1.00  0.00     0.078 A 
ATOM     10  C   UNL     1      18.197 -24.016 -26.535  1.00  0.00     0.223 A 
ENDROOT
BRANCH   1  11
ATOM     11  C   UNL     1      17.687 -25.743 -28.308  1.00  0.00     0.087 A 
ATOM     12  C   UNL     1      16.719 -25.356 -29.249  1.00  0.00     0.022 A 
ATOM     13  C   UNL     1      15.868 -26.306 -29.822  1.00  0.00     0.051 A 
ATOM     14  C   UNL     1      15.964 -27.653 -29.452  1.00  0.00     0.157 A 
ATOM     15  C   UNL     1      17.764 -27.094 -27.925  1.00  0.00     0.068 A 
ATOM     16  C   UNL     1      16.911 -28.048 -28.498  1.00  0.00     0.158 A 
BRANCH  14  17
ATOM     17  O   UNL     1      15.120 -28.604 -30.022  1.00  0.00    -0.504 OA
ATOM     18  H   UNL     1      15.070 -28.734 -31.026  1.00  0.00     0.293 HD
ENDBRANCH  14  17
BRANCH  16  19
ATOM     19  O   UNL     1      16.994 -29.387 -28.122  1.00  0.00    -0.504 OA
ATOM     20  H   UNL     1      16.248 -29.840 -27.606  1.00  0.00     0.293 HD
ENDBRANCH  16  19
ENDBRANCH   1  11
BRANCH  10  21
ATOM     21  O   UNL     1      17.002 -24.299 -25.872  1.00  0.00    -0.500 OA
ATOM     22  H   UNL     1      16.983 -24.537 -24.887  1.00  0.00     0.294 HD
ENDBRANCH  10  21
BRANCH   5  23
ATOM     23  O   UNL     1      23.931 -22.229 -28.706  1.00  0.00    -0.507 OA
ATOM     24  H   UNL     1      24.753 -21.881 -28.226  1.00  0.00     0.293 HD
ENDBRANCH   5  23
BRANCH   7  25
ATOM     25  O   UNL     1      21.014 -21.029 -25.088  1.00  0.00    -0.507 OA
ATOM     26  H   UNL     1      20.118 -20.643 -24.826  1.00  0.00     0.293 HD
ENDBRANCH   7  25
TORSDOF 6
ENDMDL
