MODEL 1
REMARK VINA RESULT:    -2.740      0.000      0.000
REMARK INTER + INTRA:          -3.280
REMARK INTER:                  -3.140
REMARK INTRA:                  -0.140
REMARK UNBOUND:                -0.140
REMARK SMILES O=C([O-])C=Cc1ccc(O)cc1
REMARK SMILES IDX 6 1 7 2 12 3 8 4 11 5 9 6 5 7 4 8 2 9 1 10 3 11 10 12
REMARK H PARENT 10 13
REMARK Flexibility Score: inf
ROOT
ATOM      1  C   UNL     1      -3.306   1.764  17.827  1.00  0.00    -0.025 A 
ATOM      2  C   UNL     1      -3.042   2.459  19.024  1.00  0.00     0.012 A 
ATOM      3  C   UNL     1      -3.403   0.362  17.864  1.00  0.00     0.012 A 
ATOM      4  C   UNL     1      -2.902   1.764  20.229  1.00  0.00     0.047 A 
ATOM      5  C   UNL     1      -3.264  -0.329  19.071  1.00  0.00     0.047 A 
ATOM      6  C   UNL     1      -3.016   0.368  20.256  1.00  0.00     0.115 A 
ENDROOT
BRANCH   1   7
ATOM      7  C   UNL     1      -3.451   2.451  16.519  1.00  0.00     0.010 C 
ATOM      8  C   UNL     1      -4.599   2.508  15.829  1.00  0.00     0.025 C 
BRANCH   8   9
ATOM      9  C   UNL     1      -4.702   3.189  14.528  1.00  0.00     0.064 C 
ATOM     10  O   UNL     1      -3.676   3.610  13.929  1.00  0.00    -0.545 OA
ATOM     11  O   UNL     1      -5.952   3.374  13.952  1.00  0.00    -0.545 OA
ENDBRANCH   8   9
ENDBRANCH   1   7
BRANCH   6  12
ATOM     12  O   UNL     1      -2.881  -0.333  21.452  1.00  0.00    -0.508 OA
ATOM     13  H   UNL     1      -2.100  -0.169  22.077  1.00  0.00     0.293 HD
ENDBRANCH   6  12
TORSDOF 3
ENDMDL
MODEL 2
REMARK VINA RESULT:    -2.582      1.116      5.807
REMARK INTER + INTRA:          -3.099
REMARK INTER:                  -2.959
REMARK INTRA:                  -0.140
REMARK UNBOUND:                -0.140
REMARK SMILES O=C([O-])C=Cc1ccc(O)cc1
REMARK SMILES IDX 6 1 7 2 12 3 8 4 11 5 9 6 5 7 4 8 2 9 1 10 3 11 10 12
REMARK H PARENT 10 13
REMARK Flexibility Score: inf
ROOT
ATOM      1  C   UNL     1      -3.654   0.821  17.535  1.00  0.00    -0.025 A 
ATOM      2  C   UNL     1      -2.883   1.974  17.286  1.00  0.00     0.012 A 
ATOM      3  C   UNL     1      -4.589   0.410  16.569  1.00  0.00     0.012 A 
ATOM      4  C   UNL     1      -3.034   2.681  16.090  1.00  0.00     0.047 A 
ATOM      5  C   UNL     1      -4.735   1.118  15.374  1.00  0.00     0.047 A 
ATOM      6  C   UNL     1      -3.958   2.253  15.128  1.00  0.00     0.115 A 
ENDROOT
BRANCH   1   7
ATOM      7  C   UNL     1      -3.542   0.041  18.793  1.00  0.00     0.010 C 
ATOM      8  C   UNL     1      -3.026   0.529  19.930  1.00  0.00     0.025 C 
BRANCH   8   9
ATOM      9  C   UNL     1      -2.921  -0.278  21.156  1.00  0.00     0.064 C 
ATOM     10  O   UNL     1      -2.875  -1.537  21.107  1.00  0.00    -0.545 OA
ATOM     11  O   UNL     1      -2.875   0.358  22.390  1.00  0.00    -0.545 OA
ENDBRANCH   8   9
ENDBRANCH   1   7
BRANCH   6  12
ATOM     12  O   UNL     1      -4.114   2.949  13.932  1.00  0.00    -0.508 OA
ATOM     13  H   UNL     1      -3.747   3.886  13.813  1.00  0.00     0.293 HD
ENDBRANCH   6  12
TORSDOF 3
ENDMDL
MODEL 3
REMARK VINA RESULT:    -2.581      1.664      5.945
REMARK INTER + INTRA:          -3.097
REMARK INTER:                  -2.960
REMARK INTRA:                  -0.137
REMARK UNBOUND:                -0.140
REMARK SMILES O=C([O-])C=Cc1ccc(O)cc1
REMARK SMILES IDX 6 1 7 2 12 3 8 4 11 5 9 6 5 7 4 8 2 9 1 10 3 11 10 12
REMARK H PARENT 10 13
REMARK Flexibility Score: inf
ROOT
ATOM      1  C   UNL     1      -5.057   2.298  16.967  1.00  0.00    -0.025 A 
ATOM      2  C   UNL     1      -4.990   1.784  15.656  1.00  0.00     0.012 A 
ATOM      3  C   UNL     1      -5.869   3.419  17.214  1.00  0.00     0.012 A 
ATOM      4  C   UNL     1      -5.738   2.366  14.629  1.00  0.00     0.047 A 
ATOM      5  C   UNL     1      -6.616   3.997  16.185  1.00  0.00     0.047 A 
ATOM      6  C   UNL     1      -6.556   3.474  14.891  1.00  0.00     0.115 A 
ENDROOT
BRANCH   1   7
ATOM      7  C   UNL     1      -4.275   1.725  18.091  1.00  0.00     0.010 C 
ATOM      8  C   UNL     1      -3.991   0.421  18.214  1.00  0.00     0.025 C 
BRANCH   8   9
ATOM      9  C   UNL     1      -3.222  -0.112  19.351  1.00  0.00     0.064 C 
ATOM     10  O   UNL     1      -2.875  -1.323  19.393  1.00  0.00    -0.545 OA
ATOM     11  O   UNL     1      -2.875   0.734  20.396  1.00  0.00    -0.545 OA
ENDBRANCH   8   9
ENDBRANCH   1   7
BRANCH   6  12
ATOM     12  O   UNL     1      -7.306   4.059  13.875  1.00  0.00    -0.508 OA
ATOM     13  H   UNL     1      -7.113   4.999  13.548  1.00  0.00     0.293 HD
ENDBRANCH   6  12
TORSDOF 3
ENDMDL
MODEL 4
REMARK VINA RESULT:    -2.506      1.202      6.041
REMARK INTER + INTRA:          -3.012
REMARK INTER:                  -2.872
REMARK INTRA:                  -0.141
REMARK UNBOUND:                -0.140
REMARK SMILES O=C([O-])C=Cc1ccc(O)cc1
REMARK SMILES IDX 6 1 7 2 12 3 8 4 11 5 9 6 5 7 4 8 2 9 1 10 3 11 10 12
REMARK H PARENT 10 13
REMARK Flexibility Score: inf
ROOT
ATOM      1  C   UNL     1      -3.354   1.221  18.443  1.00  0.00    -0.025 A 
ATOM      2  C   UNL     1      -3.818   0.359  17.428  1.00  0.00     0.012 A 
ATOM      3  C   UNL     1      -3.076   2.560  18.119  1.00  0.00     0.012 A 
ATOM      4  C   UNL     1      -4.018   0.837  16.130  1.00  0.00     0.047 A 
ATOM      5  C   UNL     1      -3.279   3.035  16.820  1.00  0.00     0.047 A 
ATOM      6  C   UNL     1      -3.752   2.178  15.823  1.00  0.00     0.115 A 
ENDROOT
BRANCH   1   7
ATOM      7  C   UNL     1      -3.113   0.761  19.834  1.00  0.00     0.010 C 
ATOM      8  C   UNL     1      -3.222  -0.516  20.227  1.00  0.00     0.025 C 
BRANCH   8   9
ATOM      9  C   UNL     1      -2.986  -0.933  21.619  1.00  0.00     0.064 C 
ATOM     10  O   UNL     1      -2.875  -2.150  21.926  1.00  0.00    -0.545 OA
ATOM     11  O   UNL     1      -2.886   0.034  22.611  1.00  0.00    -0.545 OA
ENDBRANCH   8   9
ENDBRANCH   1   7
BRANCH   6  12
ATOM     12  O   UNL     1      -3.950   2.664  14.534  1.00  0.00    -0.508 OA
ATOM     13  H   UNL     1      -3.252   2.545  13.809  1.00  0.00     0.293 HD
ENDBRANCH   6  12
TORSDOF 3
ENDMDL
MODEL 5
REMARK VINA RESULT:     0.111      2.320      6.234
REMARK INTER + INTRA:          -0.013
REMARK INTER:                   0.124
REMARK INTRA:                  -0.137
REMARK UNBOUND:                -0.140
REMARK SMILES O=C([O-])C=Cc1ccc(O)cc1
REMARK SMILES IDX 6 1 7 2 12 3 8 4 11 5 9 6 5 7 4 8 2 9 1 10 3 11 10 12
REMARK H PARENT 10 13
REMARK Flexibility Score: inf
ROOT
ATOM      1  C   UNL     1      -3.078   0.477  19.537  1.00  0.00    -0.025 A 
ATOM      2  C   UNL     1      -3.101   0.471  18.128  1.00  0.00     0.012 A 
ATOM      3  C   UNL     1      -2.976   1.708  20.208  1.00  0.00     0.012 A 
ATOM      4  C   UNL     1      -3.047   1.672  17.415  1.00  0.00     0.047 A 
ATOM      5  C   UNL     1      -2.923   2.907  19.492  1.00  0.00     0.047 A 
ATOM      6  C   UNL     1      -2.961   2.894  18.095  1.00  0.00     0.115 A 
ENDROOT
BRANCH   1   7
ATOM      7  C   UNL     1      -3.121  -0.770  20.342  1.00  0.00     0.010 C 
ATOM      8  C   UNL     1      -4.176  -1.147  21.079  1.00  0.00     0.025 C 
BRANCH   8   9
ATOM      9  C   UNL     1      -4.177  -2.385  21.874  1.00  0.00     0.064 C 
ATOM     10  O   UNL     1      -5.238  -3.038  22.064  1.00  0.00    -0.545 OA
ATOM     11  O   UNL     1      -2.987  -2.841  22.427  1.00  0.00    -0.545 OA
ENDBRANCH   8   9
ENDBRANCH   1   7
BRANCH   6  12
ATOM     12  O   UNL     1      -2.909   4.096  17.394  1.00  0.00    -0.508 OA
ATOM     13  H   UNL     1      -2.035   4.590  17.253  1.00  0.00     0.293 HD
ENDBRANCH   6  12
TORSDOF 3
ENDMDL
