MODEL 1
REMARK VINA RESULT:    -3.778      0.000      0.000
REMARK INTER + INTRA:         -11.673
REMARK INTER:                  -8.194
REMARK INTRA:                  -3.478
REMARK UNBOUND:                -3.478
REMARK SMILES CCCCCCCCCCCCCCCCCCCCCC(=O)[O-]
REMARK SMILES IDX 12 1 11 2 10 3 9 4 8 5 7 6 6 7 5 8 4 9 3 10 2 11 1 12 13 13
REMARK SMILES IDX 14 14 15 15 16 16 17 17 18 18 19 19 20 20 21 21 22 22 23 23
REMARK SMILES IDX 24 24
REMARK H PARENT
REMARK Flexibility Score: inf
ROOT
ATOM      1  C   UNL     1      42.246  27.496   0.456  1.00  0.00     0.000 C 
ENDROOT
BRANCH   1   2
ATOM      2  C   UNL     1      42.527  28.067   1.859  1.00  0.00     0.000 C 
BRANCH   2   3
ATOM      3  C   UNL     1      42.736  29.591   1.914  1.00  0.00     0.000 C 
BRANCH   3   4
ATOM      4  C   UNL     1      44.216  29.996   1.791  1.00  0.00    -0.000 C 
BRANCH   4   5
ATOM      5  C   UNL     1      45.168  28.900   2.298  1.00  0.00    -0.000 C 
BRANCH   5   6
ATOM      6  C   UNL     1      46.325  28.634   1.318  1.00  0.00    -0.000 C 
BRANCH   6   7
ATOM      7  C   UNL     1      46.689  27.143   1.207  1.00  0.00    -0.000 C 
BRANCH   7   8
ATOM      8  C   UNL     1      46.791  26.399   2.551  1.00  0.00    -0.000 C 
BRANCH   8   9
ATOM      9  C   UNL     1      45.506  25.633   2.911  1.00  0.00    -0.000 C 
BRANCH   9  10
ATOM     10  C   UNL     1      45.172  25.707   4.409  1.00  0.00    -0.000 C 
BRANCH  10  11
ATOM     11  C   UNL     1      46.183  26.552   5.198  1.00  0.00    -0.003 C 
ATOM     12  C   UNL     1      45.890  26.504   6.694  1.00  0.00     0.004 C 
ENDBRANCH  10  11
ENDBRANCH   9  10
ENDBRANCH   8   9
ENDBRANCH   7   8
ENDBRANCH   6   7
ENDBRANCH   5   6
ENDBRANCH   4   5
ENDBRANCH   3   4
ENDBRANCH   2   3
ENDBRANCH   1   2
BRANCH   1  13
ATOM     13  C   UNL     1      43.334  26.520  -0.018  1.00  0.00     0.000 C 
BRANCH  13  14
ATOM     14  C   UNL     1      43.955  26.924  -1.368  1.00  0.00     0.000 C 
BRANCH  14  15
ATOM     15  C   UNL     1      43.955  28.437  -1.671  1.00  0.00     0.000 C 
BRANCH  15  16
ATOM     16  C   UNL     1      45.247  28.984  -2.305  1.00  0.00     0.000 C 
BRANCH  16  17
ATOM     17  C   UNL     1      46.251  27.876  -2.666  1.00  0.00     0.000 C 
BRANCH  17  18
ATOM     18  C   UNL     1      46.575  27.835  -4.170  1.00  0.00     0.000 C 
BRANCH  18  19
ATOM     19  C   UNL     1      45.733  26.809  -4.958  1.00  0.00     0.000 C 
BRANCH  19  20
ATOM     20  C   UNL     1      44.609  27.483  -5.765  1.00  0.00     0.006 C 
BRANCH  20  21
ATOM     21  C   UNL     1      43.229  27.259  -5.135  1.00  0.00     0.053 C 
BRANCH  21  22
ATOM     22  C   UNL     1      42.314  28.418  -5.386  1.00  0.00     0.041 C 
ATOM     23  O   UNL     1      41.568  28.428  -6.401  1.00  0.00    -0.550 OA
ATOM     24  O   UNL     1      42.302  29.498  -4.512  1.00  0.00    -0.550 OA
ENDBRANCH  21  22
ENDBRANCH  20  21
ENDBRANCH  19  20
ENDBRANCH  18  19
ENDBRANCH  17  18
ENDBRANCH  16  17
ENDBRANCH  15  16
ENDBRANCH  14  15
ENDBRANCH  13  14
ENDBRANCH   1  13
TORSDOF 20
ENDMDL
MODEL 2
REMARK VINA RESULT:    -3.715      1.423      2.561
REMARK INTER + INTRA:         -11.536
REMARK INTER:                  -9.183
REMARK INTRA:                  -2.353
REMARK UNBOUND:                -3.478
REMARK SMILES CCCCCCCCCCCCCCCCCCCCCC(=O)[O-]
REMARK SMILES IDX 12 1 11 2 10 3 9 4 8 5 7 6 6 7 5 8 4 9 3 10 2 11 1 12 13 13
REMARK SMILES IDX 14 14 15 15 16 16 17 17 18 18 19 19 20 20 21 21 22 22 23 23
REMARK SMILES IDX 24 24
REMARK H PARENT
REMARK Flexibility Score: inf
ROOT
ATOM      1  C   UNL     1      42.668  29.476   1.603  1.00  0.00     0.000 C 
ENDROOT
BRANCH   1   2
ATOM      2  C   UNL     1      42.378  27.984   1.851  1.00  0.00     0.000 C 
BRANCH   2   3
ATOM      3  C   UNL     1      43.614  27.121   2.161  1.00  0.00     0.000 C 
BRANCH   3   4
ATOM      4  C   UNL     1      44.909  27.947   2.261  1.00  0.00    -0.000 C 
BRANCH   4   5
ATOM      5  C   UNL     1      46.170  27.086   2.083  1.00  0.00    -0.000 C 
BRANCH   5   6
ATOM      6  C   UNL     1      46.103  25.778   2.891  1.00  0.00    -0.000 C 
BRANCH   6   7
ATOM      7  C   UNL     1      46.736  25.901   4.289  1.00  0.00    -0.000 C 
BRANCH   7   8
ATOM      8  C   UNL     1      45.733  26.078   5.443  1.00  0.00    -0.000 C 
BRANCH   8   9
ATOM      9  C   UNL     1      46.119  27.217   6.403  1.00  0.00    -0.000 C 
BRANCH   9  10
ATOM     10  C   UNL     1      45.750  26.912   7.863  1.00  0.00    -0.000 C 
BRANCH  10  11
ATOM     11  C   UNL     1      45.184  28.137   8.597  1.00  0.00    -0.003 C 
ATOM     12  C   UNL     1      45.201  29.371   7.700  1.00  0.00     0.004 C 
ENDBRANCH  10  11
ENDBRANCH   9  10
ENDBRANCH   8   9
ENDBRANCH   7   8
ENDBRANCH   6   7
ENDBRANCH   5   6
ENDBRANCH   4   5
ENDBRANCH   3   4
ENDBRANCH   2   3
ENDBRANCH   1   2
BRANCH   1  13
ATOM     13  C   UNL     1      42.248  29.938   0.198  1.00  0.00     0.000 C 
BRANCH  13  14
ATOM     14  C   UNL     1      43.304  29.624  -0.877  1.00  0.00     0.000 C 
BRANCH  14  15
ATOM     15  C   UNL     1      43.143  28.262  -1.587  1.00  0.00     0.000 C 
BRANCH  15  16
ATOM     16  C   UNL     1      44.345  27.309  -1.469  1.00  0.00     0.000 C 
BRANCH  16  17
ATOM     17  C   UNL     1      45.677  27.976  -1.853  1.00  0.00     0.000 C 
BRANCH  17  18
ATOM     18  C   UNL     1      46.320  27.348  -3.101  1.00  0.00     0.000 C 
BRANCH  18  19
ATOM     19  C   UNL     1      46.060  28.141  -4.399  1.00  0.00     0.000 C 
BRANCH  19  20
ATOM     20  C   UNL     1      45.614  27.228  -5.555  1.00  0.00     0.006 C 
BRANCH  20  21
ATOM     21  C   UNL     1      44.241  27.627  -6.112  1.00  0.00     0.053 C 
BRANCH  21  22
ATOM     22  C   UNL     1      43.130  27.173  -5.216  1.00  0.00     0.041 C 
ATOM     23  O   UNL     1      43.267  26.139  -4.511  1.00  0.00    -0.550 OA
ATOM     24  O   UNL     1      41.935  27.880  -5.177  1.00  0.00    -0.550 OA
ENDBRANCH  21  22
ENDBRANCH  20  21
ENDBRANCH  19  20
ENDBRANCH  18  19
ENDBRANCH  17  18
ENDBRANCH  16  17
ENDBRANCH  15  16
ENDBRANCH  14  15
ENDBRANCH  13  14
ENDBRANCH   1  13
TORSDOF 20
ENDMDL
MODEL 3
REMARK VINA RESULT:    -3.673      1.204      2.398
REMARK INTER + INTRA:         -11.446
REMARK INTER:                  -9.552
REMARK INTRA:                  -1.894
REMARK UNBOUND:                -3.478
REMARK SMILES CCCCCCCCCCCCCCCCCCCCCC(=O)[O-]
REMARK SMILES IDX 12 1 11 2 10 3 9 4 8 5 7 6 6 7 5 8 4 9 3 10 2 11 1 12 13 13
REMARK SMILES IDX 14 14 15 15 16 16 17 17 18 18 19 19 20 20 21 21 22 22 23 23
REMARK SMILES IDX 24 24
REMARK H PARENT
REMARK Flexibility Score: inf
ROOT
ATOM      1  C   UNL     1      42.344  27.494   0.407  1.00  0.00     0.000 C 
ENDROOT
BRANCH   1   2
ATOM      2  C   UNL     1      42.890  27.562   1.846  1.00  0.00     0.000 C 
BRANCH   2   3
ATOM      3  C   UNL     1      44.241  28.283   1.998  1.00  0.00     0.000 C 
BRANCH   3   4
ATOM      4  C   UNL     1      45.411  27.312   2.240  1.00  0.00    -0.000 C 
BRANCH   4   5
ATOM      5  C   UNL     1      44.970  26.028   2.961  1.00  0.00    -0.000 C 
BRANCH   5   6
ATOM      6  C   UNL     1      46.166  25.211   3.483  1.00  0.00    -0.000 C 
BRANCH   6   7
ATOM      7  C   UNL     1      46.738  25.760   4.802  1.00  0.00    -0.000 C 
BRANCH   7   8
ATOM      8  C   UNL     1      45.686  26.278   5.800  1.00  0.00    -0.000 C 
BRANCH   8   9
ATOM      9  C   UNL     1      46.077  27.624   6.437  1.00  0.00    -0.000 C 
BRANCH   9  10
ATOM     10  C   UNL     1      45.651  27.728   7.909  1.00  0.00    -0.000 C 
BRANCH  10  11
ATOM     11  C   UNL     1      45.308  26.363   8.522  1.00  0.00    -0.003 C 
ATOM     12  C   UNL     1      46.435  25.865   9.421  1.00  0.00     0.004 C 
ENDBRANCH  10  11
ENDBRANCH   9  10
ENDBRANCH   8   9
ENDBRANCH   7   8
ENDBRANCH   6   7
ENDBRANCH   5   6
ENDBRANCH   4   5
ENDBRANCH   3   4
ENDBRANCH   2   3
ENDBRANCH   1   2
BRANCH   1  13
ATOM     13  C   UNL     1      43.371  26.940  -0.594  1.00  0.00     0.000 C 
BRANCH  13  14
ATOM     14  C   UNL     1      43.607  27.877  -1.791  1.00  0.00     0.000 C 
BRANCH  14  15
ATOM     15  C   UNL     1      44.856  28.780  -1.691  1.00  0.00     0.000 C 
BRANCH  15  16
ATOM     16  C   UNL     1      46.182  28.121  -2.108  1.00  0.00     0.000 C 
BRANCH  16  17
ATOM     17  C   UNL     1      46.017  27.130  -3.273  1.00  0.00     0.000 C 
BRANCH  17  18
ATOM     18  C   UNL     1      46.823  27.537  -4.519  1.00  0.00     0.000 C 
BRANCH  18  19
ATOM     19  C   UNL     1      45.961  27.696  -5.790  1.00  0.00     0.000 C 
BRANCH  19  20
ATOM     20  C   UNL     1      44.595  28.337  -5.484  1.00  0.00     0.006 C 
BRANCH  20  21
ATOM     21  C   UNL     1      43.508  27.877  -6.463  1.00  0.00     0.053 C 
BRANCH  21  22
ATOM     22  C   UNL     1      42.138  28.232  -5.972  1.00  0.00     0.041 C 
ATOM     23  O   UNL     1      41.748  27.836  -4.842  1.00  0.00    -0.550 OA
ATOM     24  O   UNL     1      41.285  28.982  -6.771  1.00  0.00    -0.550 OA
ENDBRANCH  21  22
ENDBRANCH  20  21
ENDBRANCH  19  20
ENDBRANCH  18  19
ENDBRANCH  17  18
ENDBRANCH  16  17
ENDBRANCH  15  16
ENDBRANCH  14  15
ENDBRANCH  13  14
ENDBRANCH   1  13
TORSDOF 20
ENDMDL
MODEL 4
REMARK VINA RESULT:    -3.459      1.544      3.174
REMARK INTER + INTRA:         -10.981
REMARK INTER:                  -9.113
REMARK INTRA:                  -1.869
REMARK UNBOUND:                -3.478
REMARK SMILES CCCCCCCCCCCCCCCCCCCCCC(=O)[O-]
REMARK SMILES IDX 12 1 11 2 10 3 9 4 8 5 7 6 6 7 5 8 4 9 3 10 2 11 1 12 13 13
REMARK SMILES IDX 14 14 15 15 16 16 17 17 18 18 19 19 20 20 21 21 22 22 23 23
REMARK SMILES IDX 24 24
REMARK H PARENT
REMARK Flexibility Score: inf
ROOT
ATOM      1  C   UNL     1      42.901  27.574   1.715  1.00  0.00     0.000 C 
ENDROOT
BRANCH   1   2
ATOM      2  C   UNL     1      44.339  28.084   1.921  1.00  0.00     0.000 C 
BRANCH   2   3
ATOM      3  C   UNL     1      45.387  26.991   2.200  1.00  0.00     0.000 C 
BRANCH   3   4
ATOM      4  C   UNL     1      44.838  25.847   3.071  1.00  0.00    -0.000 C 
BRANCH   4   5
ATOM      5  C   UNL     1      45.847  25.383   4.135  1.00  0.00    -0.000 C 
BRANCH   5   6
ATOM      6  C   UNL     1      47.008  26.379   4.311  1.00  0.00    -0.000 C 
BRANCH   6   7
ATOM      7  C   UNL     1      47.055  27.004   5.717  1.00  0.00    -0.000 C 
BRANCH   7   8
ATOM      8  C   UNL     1      45.960  28.048   6.000  1.00  0.00    -0.000 C 
BRANCH   8   9
ATOM      9  C   UNL     1      46.087  28.686   7.395  1.00  0.00    -0.000 C 
BRANCH   9  10
ATOM     10  C   UNL     1      45.169  28.027   8.435  1.00  0.00    -0.000 C 
BRANCH  10  11
ATOM     11  C   UNL     1      45.353  26.504   8.502  1.00  0.00    -0.003 C 
ATOM     12  C   UNL     1      46.253  26.110   9.669  1.00  0.00     0.004 C 
ENDBRANCH  10  11
ENDBRANCH   9  10
ENDBRANCH   8   9
ENDBRANCH   7   8
ENDBRANCH   6   7
ENDBRANCH   5   6
ENDBRANCH   4   5
ENDBRANCH   3   4
ENDBRANCH   2   3
ENDBRANCH   1   2
BRANCH   1  13
ATOM     13  C   UNL     1      41.890  28.712   1.500  1.00  0.00     0.000 C 
BRANCH  13  14
ATOM     14  C   UNL     1      42.515  29.950   0.833  1.00  0.00     0.000 C 
BRANCH  14  15
ATOM     15  C   UNL     1      42.383  30.014  -0.704  1.00  0.00     0.000 C 
BRANCH  15  16
ATOM     16  C   UNL     1      43.572  29.436  -1.492  1.00  0.00     0.000 C 
BRANCH  16  17
ATOM     17  C   UNL     1      43.329  27.994  -1.968  1.00  0.00     0.000 C 
BRANCH  17  18
ATOM     18  C   UNL     1      44.622  27.289  -2.416  1.00  0.00     0.000 C 
BRANCH  18  19
ATOM     19  C   UNL     1      44.693  27.030  -3.935  1.00  0.00     0.000 C 
BRANCH  19  20
ATOM     20  C   UNL     1      43.301  26.781  -4.544  1.00  0.00     0.006 C 
BRANCH  20  21
ATOM     21  C   UNL     1      43.159  27.404  -5.938  1.00  0.00     0.053 C 
BRANCH  21  22
ATOM     22  C   UNL     1      43.014  28.893  -5.865  1.00  0.00     0.041 C 
ATOM     23  O   UNL     1      43.693  29.634  -6.624  1.00  0.00    -0.550 OA
ATOM     24  O   UNL     1      42.146  29.463  -4.943  1.00  0.00    -0.550 OA
ENDBRANCH  21  22
ENDBRANCH  20  21
ENDBRANCH  19  20
ENDBRANCH  18  19
ENDBRANCH  17  18
ENDBRANCH  16  17
ENDBRANCH  15  16
ENDBRANCH  14  15
ENDBRANCH  13  14
ENDBRANCH   1  13
TORSDOF 20
ENDMDL
MODEL 5
REMARK VINA RESULT:    -3.440      4.507      9.330
REMARK INTER + INTRA:         -10.940
REMARK INTER:                  -8.750
REMARK INTRA:                  -2.190
REMARK UNBOUND:                -3.478
REMARK SMILES CCCCCCCCCCCCCCCCCCCCCC(=O)[O-]
REMARK SMILES IDX 12 1 11 2 10 3 9 4 8 5 7 6 6 7 5 8 4 9 3 10 2 11 1 12 13 13
REMARK SMILES IDX 14 14 15 15 16 16 17 17 18 18 19 19 20 20 21 21 22 22 23 23
REMARK SMILES IDX 24 24
REMARK H PARENT
REMARK Flexibility Score: inf
ROOT
ATOM      1  C   UNL     1      42.593  27.297   0.186  1.00  0.00     0.000 C 
ENDROOT
BRANCH   1   2
ATOM      2  C   UNL     1      43.115  28.086  -1.029  1.00  0.00     0.000 C 
BRANCH   2   3
ATOM      3  C   UNL     1      44.579  27.803  -1.412  1.00  0.00     0.000 C 
BRANCH   3   4
ATOM      4  C   UNL     1      45.215  28.946  -2.223  1.00  0.00    -0.000 C 
BRANCH   4   5
ATOM      5  C   UNL     1      46.646  28.615  -2.681  1.00  0.00    -0.000 C 
BRANCH   5   6
ATOM      6  C   UNL     1      46.744  27.221  -3.325  1.00  0.00    -0.000 C 
BRANCH   6   7
ATOM      7  C   UNL     1      47.046  27.276  -4.834  1.00  0.00    -0.000 C 
BRANCH   7   8
ATOM      8  C   UNL     1      46.271  28.356  -5.611  1.00  0.00    -0.000 C 
BRANCH   8   9
ATOM      9  C   UNL     1      44.932  27.844  -6.173  1.00  0.00    -0.000 C 
BRANCH   9  10
ATOM     10  C   UNL     1      43.728  28.651  -5.663  1.00  0.00    -0.000 C 
BRANCH  10  11
ATOM     11  C   UNL     1      42.741  27.794  -4.859  1.00  0.00    -0.003 C 
ATOM     12  C   UNL     1      43.308  26.402  -4.598  1.00  0.00     0.004 C 
ENDBRANCH  10  11
ENDBRANCH   9  10
ENDBRANCH   8   9
ENDBRANCH   7   8
ENDBRANCH   6   7
ENDBRANCH   5   6
ENDBRANCH   4   5
ENDBRANCH   3   4
ENDBRANCH   2   3
ENDBRANCH   1   2
BRANCH   1  13
ATOM     13  C   UNL     1      42.671  28.100   1.495  1.00  0.00     0.000 C 
BRANCH  13  14
ATOM     14  C   UNL     1      43.931  27.784   2.319  1.00  0.00     0.000 C 
BRANCH  14  15
ATOM     15  C   UNL     1      44.412  26.318   2.260  1.00  0.00     0.000 C 
BRANCH  15  16
ATOM     16  C   UNL     1      45.057  25.782   3.551  1.00  0.00     0.000 C 
BRANCH  16  17
ATOM     17  C   UNL     1      45.930  26.829   4.262  1.00  0.00     0.000 C 
BRANCH  17  18
ATOM     18  C   UNL     1      46.520  26.312   5.586  1.00  0.00     0.000 C 
BRANCH  18  19
ATOM     19  C   UNL     1      46.865  27.432   6.591  1.00  0.00     0.000 C 
BRANCH  19  20
ATOM     20  C   UNL     1      45.611  28.190   7.063  1.00  0.00     0.006 C 
BRANCH  20  21
ATOM     21  C   UNL     1      45.443  28.141   8.587  1.00  0.00     0.053 C 
BRANCH  21  22
ATOM     22  C   UNL     1      45.653  26.757   9.120  1.00  0.00     0.041 C 
ATOM     23  O   UNL     1      44.857  25.832   8.810  1.00  0.00    -0.550 OA
ATOM     24  O   UNL     1      46.713  26.495   9.977  1.00  0.00    -0.550 OA
ENDBRANCH  21  22
ENDBRANCH  20  21
ENDBRANCH  19  20
ENDBRANCH  18  19
ENDBRANCH  17  18
ENDBRANCH  16  17
ENDBRANCH  15  16
ENDBRANCH  14  15
ENDBRANCH  13  14
ENDBRANCH   1  13
TORSDOF 20
ENDMDL
MODEL 6
REMARK VINA RESULT:    -3.407      4.887      9.546
REMARK INTER + INTRA:         -10.870
REMARK INTER:                  -9.089
REMARK INTRA:                  -1.781
REMARK UNBOUND:                -3.478
REMARK SMILES CCCCCCCCCCCCCCCCCCCCCC(=O)[O-]
REMARK SMILES IDX 12 1 11 2 10 3 9 4 8 5 7 6 6 7 5 8 4 9 3 10 2 11 1 12 13 13
REMARK SMILES IDX 14 14 15 15 16 16 17 17 18 18 19 19 20 20 21 21 22 22 23 23
REMARK SMILES IDX 24 24
REMARK H PARENT
REMARK Flexibility Score: inf
ROOT
ATOM      1  C   UNL     1      42.248  29.072   1.180  1.00  0.00     0.000 C 
ENDROOT
BRANCH   1   2
ATOM      2  C   UNL     1      43.338  29.593   0.225  1.00  0.00     0.000 C 
BRANCH   2   3
ATOM      3  C   UNL     1      42.826  30.114  -1.129  1.00  0.00     0.000 C 
BRANCH   3   4
ATOM      4  C   UNL     1      42.613  28.990  -2.160  1.00  0.00    -0.000 C 
BRANCH   4   5
ATOM      5  C   UNL     1      43.739  27.943  -2.127  1.00  0.00    -0.000 C 
BRANCH   5   6
ATOM      6  C   UNL     1      45.015  28.436  -2.834  1.00  0.00    -0.000 C 
BRANCH   6   7
ATOM      7  C   UNL     1      45.911  27.285  -3.325  1.00  0.00    -0.000 C 
BRANCH   7   8
ATOM      8  C   UNL     1      46.699  27.582  -4.614  1.00  0.00    -0.000 C 
BRANCH   8   9
ATOM      9  C   UNL     1      45.804  28.081  -5.762  1.00  0.00    -0.000 C 
BRANCH   9  10
ATOM     10  C   UNL     1      44.640  27.125  -6.064  1.00  0.00    -0.000 C 
BRANCH  10  11
ATOM     11  C   UNL     1      43.409  27.853  -6.623  1.00  0.00    -0.003 C 
ATOM     12  C   UNL     1      42.267  27.857  -5.612  1.00  0.00     0.004 C 
ENDBRANCH  10  11
ENDBRANCH   9  10
ENDBRANCH   8   9
ENDBRANCH   7   8
ENDBRANCH   6   7
ENDBRANCH   5   6
ENDBRANCH   4   5
ENDBRANCH   3   4
ENDBRANCH   2   3
ENDBRANCH   1   2
BRANCH   1  13
ATOM     13  C   UNL     1      42.326  27.552   1.401  1.00  0.00     0.000 C 
BRANCH  13  14
ATOM     14  C   UNL     1      43.764  27.008   1.322  1.00  0.00     0.000 C 
BRANCH  14  15
ATOM     15  C   UNL     1      44.555  27.027   2.647  1.00  0.00     0.000 C 
BRANCH  15  16
ATOM     16  C   UNL     1      44.885  25.645   3.238  1.00  0.00     0.000 C 
BRANCH  16  17
ATOM     17  C   UNL     1      45.641  25.731   4.575  1.00  0.00     0.000 C 
BRANCH  17  18
ATOM     18  C   UNL     1      46.092  27.163   4.913  1.00  0.00     0.000 C 
BRANCH  18  19
ATOM     19  C   UNL     1      46.527  27.347   6.382  1.00  0.00     0.000 C 
BRANCH  19  20
ATOM     20  C   UNL     1      45.653  26.527   7.349  1.00  0.00     0.006 C 
BRANCH  20  21
ATOM     21  C   UNL     1      45.488  27.218   8.708  1.00  0.00     0.053 C 
BRANCH  21  22
ATOM     22  C   UNL     1      46.229  26.492   9.789  1.00  0.00     0.041 C 
ATOM     23  O   UNL     1      46.744  27.133  10.743  1.00  0.00    -0.550 OA
ATOM     24  O   UNL     1      46.370  25.112   9.730  1.00  0.00    -0.550 OA
ENDBRANCH  21  22
ENDBRANCH  20  21
ENDBRANCH  19  20
ENDBRANCH  18  19
ENDBRANCH  17  18
ENDBRANCH  16  17
ENDBRANCH  15  16
ENDBRANCH  14  15
ENDBRANCH  13  14
ENDBRANCH   1  13
TORSDOF 20
ENDMDL
MODEL 7
REMARK VINA RESULT:    -3.405      1.573      3.291
REMARK INTER + INTRA:         -10.864
REMARK INTER:                  -8.188
REMARK INTRA:                  -2.676
REMARK UNBOUND:                -3.478
REMARK SMILES CCCCCCCCCCCCCCCCCCCCCC(=O)[O-]
REMARK SMILES IDX 12 1 11 2 10 3 9 4 8 5 7 6 6 7 5 8 4 9 3 10 2 11 1 12 13 13
REMARK SMILES IDX 14 14 15 15 16 16 17 17 18 18 19 19 20 20 21 21 22 22 23 23
REMARK SMILES IDX 24 24
REMARK H PARENT
REMARK Flexibility Score: inf
ROOT
ATOM      1  C   UNL     1      42.320  28.426   0.819  1.00  0.00     0.000 C 
ENDROOT
BRANCH   1   2
ATOM      2  C   UNL     1      42.769  27.520   1.980  1.00  0.00     0.000 C 
BRANCH   2   3
ATOM      3  C   UNL     1      43.920  26.554   1.646  1.00  0.00     0.000 C 
BRANCH   3   4
ATOM      4  C   UNL     1      44.734  26.143   2.887  1.00  0.00    -0.000 C 
BRANCH   4   5
ATOM      5  C   UNL     1      46.247  26.334   2.686  1.00  0.00    -0.000 C 
BRANCH   5   6
ATOM      6  C   UNL     1      46.874  27.215   3.782  1.00  0.00    -0.000 C 
BRANCH   6   7
ATOM      7  C   UNL     1      46.961  26.507   5.146  1.00  0.00    -0.000 C 
BRANCH   7   8
ATOM      8  C   UNL     1      45.826  26.850   6.127  1.00  0.00    -0.000 C 
BRANCH   8   9
ATOM      9  C   UNL     1      46.119  26.389   7.567  1.00  0.00    -0.000 C 
BRANCH   9  10
ATOM     10  C   UNL     1      45.531  27.336   8.624  1.00  0.00    -0.000 C 
BRANCH  10  11
ATOM     11  C   UNL     1      45.067  28.672   8.026  1.00  0.00    -0.003 C 
ATOM     12  C   UNL     1      45.049  29.770   9.084  1.00  0.00     0.004 C 
ENDBRANCH  10  11
ENDBRANCH   9  10
ENDBRANCH   8   9
ENDBRANCH   7   8
ENDBRANCH   6   7
ENDBRANCH   5   6
ENDBRANCH   4   5
ENDBRANCH   3   4
ENDBRANCH   2   3
ENDBRANCH   1   2
BRANCH   1  13
ATOM     13  C   UNL     1      42.850  29.864   0.946  1.00  0.00     0.000 C 
BRANCH  13  14
ATOM     14  C   UNL     1      43.812  30.046   2.133  1.00  0.00     0.000 C 
BRANCH  14  15
ATOM     15  C   UNL     1      45.313  30.072   1.772  1.00  0.00     0.000 C 
BRANCH  15  16
ATOM     16  C   UNL     1      45.629  30.117   0.267  1.00  0.00     0.000 C 
BRANCH  16  17
ATOM     17  C   UNL     1      46.284  28.824  -0.246  1.00  0.00     0.000 C 
BRANCH  17  18
ATOM     18  C   UNL     1      45.475  28.153  -1.370  1.00  0.00     0.000 C 
BRANCH  18  19
ATOM     19  C   UNL     1      44.705  29.150  -2.261  1.00  0.00     0.000 C 
BRANCH  19  20
ATOM     20  C   UNL     1      43.362  28.574  -2.746  1.00  0.00     0.006 C 
BRANCH  20  21
ATOM     21  C   UNL     1      43.550  27.478  -3.803  1.00  0.00     0.053 C 
BRANCH  21  22
ATOM     22  C   UNL     1      42.868  27.830  -5.089  1.00  0.00     0.041 C 
ATOM     23  O   UNL     1      41.611  27.810  -5.165  1.00  0.00    -0.550 OA
ATOM     24  O   UNL     1      43.621  28.157  -6.209  1.00  0.00    -0.550 OA
ENDBRANCH  21  22
ENDBRANCH  20  21
ENDBRANCH  19  20
ENDBRANCH  18  19
ENDBRANCH  17  18
ENDBRANCH  16  17
ENDBRANCH  15  16
ENDBRANCH  14  15
ENDBRANCH  13  14
ENDBRANCH   1  13
TORSDOF 20
ENDMDL
MODEL 8
REMARK VINA RESULT:    -3.350      4.607      9.344
REMARK INTER + INTRA:         -10.746
REMARK INTER:                  -9.024
REMARK INTRA:                  -1.722
REMARK UNBOUND:                -3.478
REMARK SMILES CCCCCCCCCCCCCCCCCCCCCC(=O)[O-]
REMARK SMILES IDX 12 1 11 2 10 3 9 4 8 5 7 6 6 7 5 8 4 9 3 10 2 11 1 12 13 13
REMARK SMILES IDX 14 14 15 15 16 16 17 17 18 18 19 19 20 20 21 21 22 22 23 23
REMARK SMILES IDX 24 24
REMARK H PARENT
REMARK Flexibility Score: inf
ROOT
ATOM      1  C   UNL     1      42.999  29.054  -0.122  1.00  0.00     0.000 C 
ENDROOT
BRANCH   1   2
ATOM      2  C   UNL     1      43.494  28.839  -1.564  1.00  0.00     0.000 C 
BRANCH   2   3
ATOM      3  C   UNL     1      42.422  29.014  -2.655  1.00  0.00     0.000 C 
BRANCH   3   4
ATOM      4  C   UNL     1      43.009  28.986  -4.078  1.00  0.00    -0.000 C 
BRANCH   4   5
ATOM      5  C   UNL     1      42.346  27.919  -4.965  1.00  0.00    -0.000 C 
BRANCH   5   6
ATOM      6  C   UNL     1      43.369  27.166  -5.834  1.00  0.00    -0.000 C 
BRANCH   6   7
ATOM      7  C   UNL     1      44.288  28.107  -6.633  1.00  0.00    -0.000 C 
BRANCH   7   8
ATOM      8  C   UNL     1      45.615  27.479  -7.097  1.00  0.00    -0.000 C 
BRANCH   8   9
ATOM      9  C   UNL     1      46.724  27.568  -6.034  1.00  0.00    -0.000 C 
BRANCH   9  10
ATOM     10  C   UNL     1      46.695  28.893  -5.257  1.00  0.00    -0.000 C 
BRANCH  10  11
ATOM     11  C   UNL     1      46.535  28.686  -3.744  1.00  0.00    -0.003 C 
ATOM     12  C   UNL     1      46.568  27.204  -3.385  1.00  0.00     0.004 C 
ENDBRANCH  10  11
ENDBRANCH   9  10
ENDBRANCH   8   9
ENDBRANCH   7   8
ENDBRANCH   6   7
ENDBRANCH   5   6
ENDBRANCH   4   5
ENDBRANCH   3   4
ENDBRANCH   2   3
ENDBRANCH   1   2
BRANCH   1  13
ATOM     13  C   UNL     1      42.481  27.761   0.529  1.00  0.00     0.000 C 
BRANCH  13  14
ATOM     14  C   UNL     1      43.130  27.476   1.895  1.00  0.00     0.000 C 
BRANCH  14  15
ATOM     15  C   UNL     1      44.561  26.898   1.842  1.00  0.00     0.000 C 
BRANCH  15  16
ATOM     16  C   UNL     1      44.933  25.948   2.994  1.00  0.00     0.000 C 
BRANCH  16  17
ATOM     17  C   UNL     1      46.419  25.553   2.989  1.00  0.00     0.000 C 
BRANCH  17  18
ATOM     18  C   UNL     1      47.015  25.460   4.404  1.00  0.00     0.000 C 
BRANCH  18  19
ATOM     19  C   UNL     1      46.748  26.707   5.273  1.00  0.00     0.000 C 
BRANCH  19  20
ATOM     20  C   UNL     1      45.926  26.369   6.530  1.00  0.00     0.006 C 
BRANCH  20  21
ATOM     21  C   UNL     1      46.789  26.345   7.798  1.00  0.00     0.053 C 
BRANCH  21  22
ATOM     22  C   UNL     1      46.001  25.905   8.993  1.00  0.00     0.041 C 
ATOM     23  O   UNL     1      44.822  26.315   9.161  1.00  0.00    -0.550 OA
ATOM     24  O   UNL     1      46.576  25.061   9.934  1.00  0.00    -0.550 OA
ENDBRANCH  21  22
ENDBRANCH  20  21
ENDBRANCH  19  20
ENDBRANCH  18  19
ENDBRANCH  17  18
ENDBRANCH  16  17
ENDBRANCH  15  16
ENDBRANCH  14  15
ENDBRANCH  13  14
ENDBRANCH   1  13
TORSDOF 20
ENDMDL
MODEL 9
REMARK VINA RESULT:    -3.269      4.113      8.575
REMARK INTER + INTRA:         -10.568
REMARK INTER:                  -7.895
REMARK INTRA:                  -2.673
REMARK UNBOUND:                -3.478
REMARK SMILES CCCCCCCCCCCCCCCCCCCCCC(=O)[O-]
REMARK SMILES IDX 12 1 11 2 10 3 9 4 8 5 7 6 6 7 5 8 4 9 3 10 2 11 1 12 13 13
REMARK SMILES IDX 14 14 15 15 16 16 17 17 18 18 19 19 20 20 21 21 22 22 23 23
REMARK SMILES IDX 24 24
REMARK H PARENT
REMARK Flexibility Score: inf
ROOT
ATOM      1  C   UNL     1      42.579  27.119   0.375  1.00  0.00     0.000 C 
ENDROOT
BRANCH   1   2
ATOM      2  C   UNL     1      43.197  27.862  -0.824  1.00  0.00     0.000 C 
BRANCH   2   3
ATOM      3  C   UNL     1      44.505  27.258  -1.364  1.00  0.00     0.000 C 
BRANCH   3   4
ATOM      4  C   UNL     1      45.358  28.278  -2.139  1.00  0.00    -0.000 C 
BRANCH   4   5
ATOM      5  C   UNL     1      46.328  27.604  -3.125  1.00  0.00    -0.000 C 
BRANCH   5   6
ATOM      6  C   UNL     1      46.420  28.361  -4.462  1.00  0.00    -0.000 C 
BRANCH   6   7
ATOM      7  C   UNL     1      46.782  27.447  -5.646  1.00  0.00    -0.000 C 
BRANCH   7   8
ATOM      8  C   UNL     1      45.791  27.487  -6.823  1.00  0.00    -0.000 C 
BRANCH   8   9
ATOM      9  C   UNL     1      44.952  28.778  -6.857  1.00  0.00    -0.000 C 
BRANCH   9  10
ATOM     10  C   UNL     1      43.442  28.502  -6.904  1.00  0.00    -0.000 C 
BRANCH  10  11
ATOM     11  C   UNL     1      43.012  27.405  -5.920  1.00  0.00    -0.003 C 
ATOM     12  C   UNL     1      42.635  27.998  -4.566  1.00  0.00     0.004 C 
ENDBRANCH  10  11
ENDBRANCH   9  10
ENDBRANCH   8   9
ENDBRANCH   7   8
ENDBRANCH   6   7
ENDBRANCH   5   6
ENDBRANCH   4   5
ENDBRANCH   3   4
ENDBRANCH   2   3
ENDBRANCH   1   2
BRANCH   1  13
ATOM     13  C   UNL     1      42.225  28.057   1.540  1.00  0.00     0.000 C 
BRANCH  13  14
ATOM     14  C   UNL     1      42.621  29.521   1.272  1.00  0.00     0.000 C 
BRANCH  14  15
ATOM     15  C   UNL     1      44.042  29.917   1.726  1.00  0.00     0.000 C 
BRANCH  15  16
ATOM     16  C   UNL     1      44.726  28.932   2.691  1.00  0.00     0.000 C 
BRANCH  16  17
ATOM     17  C   UNL     1      45.931  28.215   2.060  1.00  0.00     0.000 C 
BRANCH  17  18
ATOM     18  C   UNL     1      45.800  26.683   2.100  1.00  0.00     0.000 C 
BRANCH  18  19
ATOM     19  C   UNL     1      45.116  26.151   3.377  1.00  0.00     0.000 C 
BRANCH  19  20
ATOM     20  C   UNL     1      46.125  25.909   4.514  1.00  0.00     0.006 C 
BRANCH  20  21
ATOM     21  C   UNL     1      46.075  27.012   5.579  1.00  0.00     0.053 C 
BRANCH  21  22
ATOM     22  C   UNL     1      46.115  26.443   6.964  1.00  0.00     0.041 C 
ATOM     23  O   UNL     1      45.321  26.866   7.845  1.00  0.00    -0.550 OA
ATOM     24  O   UNL     1      47.044  25.463   7.287  1.00  0.00    -0.550 OA
ENDBRANCH  21  22
ENDBRANCH  20  21
ENDBRANCH  19  20
ENDBRANCH  18  19
ENDBRANCH  17  18
ENDBRANCH  16  17
ENDBRANCH  15  16
ENDBRANCH  14  15
ENDBRANCH  13  14
ENDBRANCH   1  13
TORSDOF 20
ENDMDL
