MODEL 1
REMARK VINA RESULT:    -3.683      0.000      0.000
REMARK INTER + INTRA:          -9.066
REMARK INTER:                  -7.128
REMARK INTRA:                  -1.938
REMARK UNBOUND:                -1.938
REMARK SMILES CCCCCCCCCCCCCCCCCC(=O)[O-]
REMARK SMILES IDX 10 1 11 2 12 3 13 4 14 5 15 6 16 7 17 8 18 9 19 10 20 11
REMARK SMILES IDX 9 12 8 13 7 14 6 15 5 16 4 17 3 18 2 19 1 20
REMARK H PARENT
REMARK Flexibility Score: inf
ROOT
ATOM      1  C   UNL     1     -96.883 148.993 235.354  1.00  0.00     0.000 C 
ENDROOT
BRANCH   1   2
ATOM      2  C   UNL     1     -97.685 149.411 234.108  1.00  0.00     0.000 C 
BRANCH   2   3
ATOM      3  C   UNL     1     -96.888 149.256 232.802  1.00  0.00     0.000 C 
BRANCH   3   4
ATOM      4  C   UNL     1     -96.965 150.509 231.912  1.00  0.00     0.000 C 
BRANCH   4   5
ATOM      5  C   UNL     1     -95.761 151.446 232.099  1.00  0.00     0.000 C 
BRANCH   5   6
ATOM      6  C   UNL     1     -96.165 152.705 232.880  1.00  0.00     0.000 C 
BRANCH   6   7
ATOM      7  C   UNL     1     -97.685 152.937 232.887  1.00  0.00     0.006 C 
BRANCH   7   8
ATOM      8  C   UNL     1     -98.100 154.160 232.060  1.00  0.00     0.053 C 
BRANCH   8   9
ATOM      9  C   UNL     1     -98.471 155.298 232.958  1.00  0.00     0.041 C 
ATOM     10  O   UNL     1     -97.591 156.108 233.351  1.00  0.00    -0.550 OA
ATOM     11  O   UNL     1     -99.797 155.492 233.324  1.00  0.00    -0.550 OA
ENDBRANCH   8   9
ENDBRANCH   7   8
ENDBRANCH   6   7
ENDBRANCH   5   6
ENDBRANCH   4   5
ENDBRANCH   3   4
ENDBRANCH   2   3
ENDBRANCH   1   2
BRANCH   1  12
ATOM     12  C   UNL     1     -95.388 149.362 235.329  1.00  0.00     0.000 C 
BRANCH  12  13
ATOM     13  C   UNL     1     -94.465 148.133 235.405  1.00  0.00    -0.000 C 
BRANCH  13  14
ATOM     14  C   UNL     1     -93.725 148.028 236.748  1.00  0.00    -0.000 C 
BRANCH  14  15
ATOM     15  C   UNL     1     -94.420 148.815 237.874  1.00  0.00    -0.000 C 
BRANCH  15  16
ATOM     16  C   UNL     1     -95.218 147.903 238.820  1.00  0.00    -0.000 C 
BRANCH  16  17
ATOM     17  C   UNL     1     -96.518 148.563 239.315  1.00  0.00    -0.000 C 
BRANCH  17  18
ATOM     18  C   UNL     1     -96.595 150.062 238.971  1.00  0.00    -0.000 C 
BRANCH  18  19
ATOM     19  C   UNL     1     -97.965 150.715 239.228  1.00  0.00    -0.003 C 
ATOM     20  C   UNL     1     -98.873 150.704 238.000  1.00  0.00     0.004 C 
ENDBRANCH  18  19
ENDBRANCH  17  18
ENDBRANCH  16  17
ENDBRANCH  15  16
ENDBRANCH  14  15
ENDBRANCH  13  14
ENDBRANCH  12  13
ENDBRANCH   1  12
TORSDOF 16
ENDMDL
MODEL 2
REMARK VINA RESULT:    -3.681      1.363      2.587
REMARK INTER + INTRA:          -9.062
REMARK INTER:                  -7.265
REMARK INTRA:                  -1.797
REMARK UNBOUND:                -1.938
REMARK SMILES CCCCCCCCCCCCCCCCCC(=O)[O-]
REMARK SMILES IDX 10 1 11 2 12 3 13 4 14 5 15 6 16 7 17 8 18 9 19 10 20 11
REMARK SMILES IDX 9 12 8 13 7 14 6 15 5 16 4 17 3 18 2 19 1 20
REMARK H PARENT
REMARK Flexibility Score: inf
ROOT
ATOM      1  C   UNL     1     -94.857 148.337 235.754  1.00  0.00     0.000 C 
ENDROOT
BRANCH   1   2
ATOM      2  C   UNL     1     -95.341 149.515 234.888  1.00  0.00     0.000 C 
BRANCH   2   3
ATOM      3  C   UNL     1     -96.853 149.469 234.604  1.00  0.00     0.000 C 
BRANCH   3   4
ATOM      4  C   UNL     1     -97.260 150.374 233.429  1.00  0.00     0.000 C 
BRANCH   4   5
ATOM      5  C   UNL     1     -96.052 150.906 232.642  1.00  0.00     0.000 C 
BRANCH   5   6
ATOM      6  C   UNL     1     -96.097 152.438 232.541  1.00  0.00     0.000 C 
BRANCH   6   7
ATOM      7  C   UNL     1     -97.439 153.024 233.007  1.00  0.00     0.006 C 
BRANCH   7   8
ATOM      8  C   UNL     1     -97.332 154.502 233.404  1.00  0.00     0.053 C 
BRANCH   8   9
ATOM      9  C   UNL     1     -98.383 155.308 232.708  1.00  0.00     0.041 C 
ATOM     10  O   UNL     1     -98.341 155.458 231.458  1.00  0.00    -0.550 OA
ATOM     11  O   UNL     1     -99.435 155.854 233.432  1.00  0.00    -0.550 OA
ENDBRANCH   8   9
ENDBRANCH   7   8
ENDBRANCH   6   7
ENDBRANCH   5   6
ENDBRANCH   4   5
ENDBRANCH   3   4
ENDBRANCH   2   3
ENDBRANCH   1   2
BRANCH   1  12
ATOM     12  C   UNL     1     -94.133 148.730 237.055  1.00  0.00     0.000 C 
BRANCH  12  13
ATOM     13  C   UNL     1     -95.022 148.587 238.303  1.00  0.00    -0.000 C 
BRANCH  13  14
ATOM     14  C   UNL     1     -95.766 149.886 238.654  1.00  0.00    -0.000 C 
BRANCH  14  15
ATOM     15  C   UNL     1     -97.103 149.630 239.373  1.00  0.00    -0.000 C 
BRANCH  15  16
ATOM     16  C   UNL     1     -98.177 150.666 238.999  1.00  0.00    -0.000 C 
BRANCH  16  17
ATOM     17  C   UNL     1     -99.002 150.239 237.772  1.00  0.00    -0.000 C 
BRANCH  17  18
ATOM     18  C   UNL     1     -99.936 151.353 237.263  1.00  0.00    -0.000 C 
BRANCH  18  19
ATOM     19  C   UNL     1     -99.604 151.883 235.856  1.00  0.00    -0.003 C 
ATOM     20  C   UNL     1    -100.538 153.005 235.404  1.00  0.00     0.004 C 
ENDBRANCH  18  19
ENDBRANCH  17  18
ENDBRANCH  16  17
ENDBRANCH  15  16
ENDBRANCH  14  15
ENDBRANCH  13  14
ENDBRANCH  12  13
ENDBRANCH   1  12
TORSDOF 16
ENDMDL
MODEL 3
REMARK VINA RESULT:    -3.671      2.744      6.601
REMARK INTER + INTRA:          -9.043
REMARK INTER:                  -6.898
REMARK INTRA:                  -2.145
REMARK UNBOUND:                -1.938
REMARK SMILES CCCCCCCCCCCCCCCCCC(=O)[O-]
REMARK SMILES IDX 10 1 11 2 12 3 13 4 14 5 15 6 16 7 17 8 18 9 19 10 20 11
REMARK SMILES IDX 9 12 8 13 7 14 6 15 5 16 4 17 3 18 2 19 1 20
REMARK H PARENT
REMARK Flexibility Score: inf
ROOT
ATOM      1  C   UNL     1     -95.702 150.196 233.929  1.00  0.00     0.000 C 
ENDROOT
BRANCH   1   2
ATOM      2  C   UNL     1     -95.589 149.499 235.297  1.00  0.00     0.000 C 
BRANCH   2   3
ATOM      3  C   UNL     1     -94.879 148.136 235.219  1.00  0.00     0.000 C 
BRANCH   3   4
ATOM      4  C   UNL     1     -93.876 147.926 236.366  1.00  0.00     0.000 C 
BRANCH   4   5
ATOM      5  C   UNL     1     -94.210 148.766 237.609  1.00  0.00     0.000 C 
BRANCH   5   6
ATOM      6  C   UNL     1     -94.952 147.922 238.656  1.00  0.00     0.000 C 
BRANCH   6   7
ATOM      7  C   UNL     1     -96.364 148.453 238.954  1.00  0.00     0.006 C 
BRANCH   7   8
ATOM      8  C   UNL     1     -96.433 149.985 238.947  1.00  0.00     0.053 C 
BRANCH   8   9
ATOM      9  C   UNL     1     -97.795 150.449 239.359  1.00  0.00     0.041 C 
ATOM     10  O   UNL     1     -98.177 150.311 240.551  1.00  0.00    -0.550 OA
ATOM     11  O   UNL     1     -98.625 151.077 238.439  1.00  0.00    -0.550 OA
ENDBRANCH   8   9
ENDBRANCH   7   8
ENDBRANCH   6   7
ENDBRANCH   5   6
ENDBRANCH   4   5
ENDBRANCH   3   4
ENDBRANCH   2   3
ENDBRANCH   1   2
BRANCH   1  12
ATOM     12  C   UNL     1     -96.279 149.329 232.794  1.00  0.00     0.000 C 
BRANCH  12  13
ATOM     13  C   UNL     1     -96.375 150.081 231.455  1.00  0.00    -0.000 C 
BRANCH  13  14
ATOM     14  C   UNL     1     -95.674 151.450 231.490  1.00  0.00    -0.000 C 
BRANCH  14  15
ATOM     15  C   UNL     1     -96.332 152.480 230.553  1.00  0.00    -0.000 C 
BRANCH  15  16
ATOM     16  C   UNL     1     -97.492 153.229 231.229  1.00  0.00    -0.000 C 
BRANCH  16  17
ATOM     17  C   UNL     1     -97.214 153.527 232.712  1.00  0.00    -0.000 C 
BRANCH  17  18
ATOM     18  C   UNL     1     -98.431 153.255 233.616  1.00  0.00    -0.000 C 
BRANCH  18  19
ATOM     19  C   UNL     1     -99.029 151.843 233.488  1.00  0.00    -0.003 C 
ATOM     20  C   UNL     1     -99.192 151.137 234.834  1.00  0.00     0.004 C 
ENDBRANCH  18  19
ENDBRANCH  17  18
ENDBRANCH  16  17
ENDBRANCH  15  16
ENDBRANCH  14  15
ENDBRANCH  13  14
ENDBRANCH  12  13
ENDBRANCH   1  12
TORSDOF 16
ENDMDL
MODEL 4
REMARK VINA RESULT:    -3.646      3.382      7.082
REMARK INTER + INTRA:          -8.995
REMARK INTER:                  -7.484
REMARK INTRA:                  -1.511
REMARK UNBOUND:                -1.938
REMARK SMILES CCCCCCCCCCCCCCCCCC(=O)[O-]
REMARK SMILES IDX 10 1 11 2 12 3 13 4 14 5 15 6 16 7 17 8 18 9 19 10 20 11
REMARK SMILES IDX 9 12 8 13 7 14 6 15 5 16 4 17 3 18 2 19 1 20
REMARK H PARENT
REMARK Flexibility Score: inf
ROOT
ATOM      1  C   UNL     1     -94.527 147.878 234.591  1.00  0.00     0.000 C 
ENDROOT
BRANCH   1   2
ATOM      2  C   UNL     1     -93.704 147.177 235.687  1.00  0.00     0.000 C 
BRANCH   2   3
ATOM      3  C   UNL     1     -93.798 147.882 237.051  1.00  0.00     0.000 C 
BRANCH   3   4
ATOM      4  C   UNL     1     -94.569 147.052 238.092  1.00  0.00     0.000 C 
BRANCH   4   5
ATOM      5  C   UNL     1     -95.510 147.907 238.956  1.00  0.00     0.000 C 
BRANCH   5   6
ATOM      6  C   UNL     1     -95.391 149.393 238.587  1.00  0.00     0.000 C 
BRANCH   6   7
ATOM      7  C   UNL     1     -96.593 150.222 239.066  1.00  0.00     0.006 C 
BRANCH   7   8
ATOM      8  C   UNL     1     -97.825 149.358 239.366  1.00  0.00     0.053 C 
BRANCH   8   9
ATOM      9  C   UNL     1     -98.205 149.473 240.808  1.00  0.00     0.041 C 
ATOM     10  O   UNL     1     -98.669 150.555 241.256  1.00  0.00    -0.550 OA
ATOM     11  O   UNL     1     -98.093 148.372 241.648  1.00  0.00    -0.550 OA
ENDBRANCH   8   9
ENDBRANCH   7   8
ENDBRANCH   6   7
ENDBRANCH   5   6
ENDBRANCH   4   5
ENDBRANCH   3   4
ENDBRANCH   2   3
ENDBRANCH   1   2
BRANCH   1  12
ATOM     12  C   UNL     1     -95.090 149.259 234.972  1.00  0.00     0.000 C 
BRANCH  12  13
ATOM     13  C   UNL     1     -96.625 149.329 234.877  1.00  0.00    -0.000 C 
BRANCH  13  14
ATOM     14  C   UNL     1     -97.110 150.296 233.784  1.00  0.00    -0.000 C 
BRANCH  14  15
ATOM     15  C   UNL     1     -96.245 150.236 232.511  1.00  0.00    -0.000 C 
BRANCH  15  16
ATOM     16  C   UNL     1     -95.718 151.620 232.096  1.00  0.00    -0.000 C 
BRANCH  16  17
ATOM     17  C   UNL     1     -96.348 152.758 232.918  1.00  0.00    -0.000 C 
BRANCH  17  18
ATOM     18  C   UNL     1     -97.430 153.530 232.140  1.00  0.00    -0.000 C 
BRANCH  18  19
ATOM     19  C   UNL     1     -98.330 154.431 233.004  1.00  0.00    -0.003 C 
ATOM     20  C   UNL     1     -97.774 155.844 233.175  1.00  0.00     0.004 C 
ENDBRANCH  18  19
ENDBRANCH  17  18
ENDBRANCH  16  17
ENDBRANCH  15  16
ENDBRANCH  14  15
ENDBRANCH  13  14
ENDBRANCH  12  13
ENDBRANCH   1  12
TORSDOF 16
ENDMDL
MODEL 5
REMARK VINA RESULT:    -3.624      2.746      6.514
REMARK INTER + INTRA:          -8.951
REMARK INTER:                  -6.374
REMARK INTRA:                  -2.577
REMARK UNBOUND:                -1.938
REMARK SMILES CCCCCCCCCCCCCCCCCC(=O)[O-]
REMARK SMILES IDX 10 1 11 2 12 3 13 4 14 5 15 6 16 7 17 8 18 9 19 10 20 11
REMARK SMILES IDX 9 12 8 13 7 14 6 15 5 16 4 17 3 18 2 19 1 20
REMARK H PARENT
REMARK Flexibility Score: inf
ROOT
ATOM      1  C   UNL     1     -97.806 148.334 235.406  1.00  0.00     0.000 C 
ENDROOT
BRANCH   1   2
ATOM      2  C   UNL     1     -96.358 147.893 235.125  1.00  0.00     0.000 C 
BRANCH   2   3
ATOM      3  C   UNL     1     -95.326 148.993 235.429  1.00  0.00     0.000 C 
BRANCH   3   4
ATOM      4  C   UNL     1     -94.162 148.487 236.298  1.00  0.00     0.000 C 
BRANCH   4   5
ATOM      5  C   UNL     1     -94.318 148.865 237.779  1.00  0.00     0.000 C 
BRANCH   5   6
ATOM      6  C   UNL     1     -95.143 147.808 238.529  1.00  0.00     0.000 C 
BRANCH   6   7
ATOM      7  C   UNL     1     -96.352 148.409 239.263  1.00  0.00     0.006 C 
BRANCH   7   8
ATOM      8  C   UNL     1     -96.515 149.912 239.002  1.00  0.00     0.053 C 
BRANCH   8   9
ATOM      9  C   UNL     1     -97.837 150.391 239.514  1.00  0.00     0.041 C 
ATOM     10  O   UNL     1     -98.162 150.188 240.714  1.00  0.00    -0.550 OA
ATOM     11  O   UNL     1     -98.690 151.103 238.681  1.00  0.00    -0.550 OA
ENDBRANCH   8   9
ENDBRANCH   7   8
ENDBRANCH   6   7
ENDBRANCH   5   6
ENDBRANCH   4   5
ENDBRANCH   3   4
ENDBRANCH   2   3
ENDBRANCH   1   2
BRANCH   1  12
ATOM     12  C   UNL     1     -98.008 149.848 235.599  1.00  0.00     0.000 C 
BRANCH  12  13
ATOM     13  C   UNL     1     -98.819 150.494 234.462  1.00  0.00    -0.000 C 
BRANCH  13  14
ATOM     14  C   UNL     1     -98.739 149.699 233.149  1.00  0.00    -0.000 C 
BRANCH  14  15
ATOM     15  C   UNL     1     -97.986 150.457 232.039  1.00  0.00    -0.000 C 
BRANCH  15  16
ATOM     16  C   UNL     1     -96.460 150.398 232.221  1.00  0.00    -0.000 C 
BRANCH  16  17
ATOM     17  C   UNL     1     -95.864 151.758 232.626  1.00  0.00    -0.000 C 
BRANCH  17  18
ATOM     18  C   UNL     1     -96.714 152.950 232.147  1.00  0.00    -0.000 C 
BRANCH  18  19
ATOM     19  C   UNL     1     -97.133 153.933 233.254  1.00  0.00    -0.003 C 
ATOM     20  C   UNL     1     -98.639 154.188 233.288  1.00  0.00     0.004 C 
ENDBRANCH  18  19
ENDBRANCH  17  18
ENDBRANCH  16  17
ENDBRANCH  15  16
ENDBRANCH  14  15
ENDBRANCH  13  14
ENDBRANCH  12  13
ENDBRANCH   1  12
TORSDOF 16
ENDMDL
MODEL 6
REMARK VINA RESULT:    -3.623      2.926      6.834
REMARK INTER + INTRA:          -8.950
REMARK INTER:                  -6.618
REMARK INTRA:                  -2.331
REMARK UNBOUND:                -1.938
REMARK SMILES CCCCCCCCCCCCCCCCCC(=O)[O-]
REMARK SMILES IDX 10 1 11 2 12 3 13 4 14 5 15 6 16 7 17 8 18 9 19 10 20 11
REMARK SMILES IDX 9 12 8 13 7 14 6 15 5 16 4 17 3 18 2 19 1 20
REMARK H PARENT
REMARK Flexibility Score: inf
ROOT
ATOM      1  C   UNL     1     -95.352 149.374 235.186  1.00  0.00     0.000 C 
ENDROOT
BRANCH   1   2
ATOM      2  C   UNL     1     -94.439 148.373 235.917  1.00  0.00     0.000 C 
BRANCH   2   3
ATOM      3  C   UNL     1     -94.183 148.756 237.385  1.00  0.00     0.000 C 
BRANCH   3   4
ATOM      4  C   UNL     1     -94.918 147.834 238.372  1.00  0.00     0.000 C 
BRANCH   4   5
ATOM      5  C   UNL     1     -96.155 148.497 238.998  1.00  0.00     0.000 C 
BRANCH   5   6
ATOM      6  C   UNL     1     -96.112 150.021 238.812  1.00  0.00     0.000 C 
BRANCH   6   7
ATOM      7  C   UNL     1     -97.439 150.702 239.181  1.00  0.00     0.006 C 
BRANCH   7   8
ATOM      8  C   UNL     1     -98.145 150.022 240.361  1.00  0.00     0.053 C 
BRANCH   8   9
ATOM      9  C   UNL     1     -99.628 150.043 240.165  1.00  0.00     0.041 C 
ATOM     10  O   UNL     1    -100.398 149.848 241.142  1.00  0.00    -0.550 OA
ATOM     11  O   UNL     1    -100.162 150.326 238.914  1.00  0.00    -0.550 OA
ENDBRANCH   8   9
ENDBRANCH   7   8
ENDBRANCH   6   7
ENDBRANCH   5   6
ENDBRANCH   4   5
ENDBRANCH   3   4
ENDBRANCH   2   3
ENDBRANCH   1   2
BRANCH   1  12
ATOM     12  C   UNL     1     -96.706 148.809 234.717  1.00  0.00     0.000 C 
BRANCH  12  13
ATOM     13  C   UNL     1     -97.829 149.006 235.751  1.00  0.00    -0.000 C 
BRANCH  13  14
ATOM     14  C   UNL     1     -98.660 150.274 235.491  1.00  0.00    -0.000 C 
BRANCH  14  15
ATOM     15  C   UNL     1     -98.686 150.673 234.004  1.00  0.00    -0.000 C 
BRANCH  15  16
ATOM     16  C   UNL     1     -98.782 152.195 233.808  1.00  0.00    -0.000 C 
BRANCH  16  17
ATOM     17  C   UNL     1     -97.904 152.694 232.647  1.00  0.00    -0.000 C 
BRANCH  17  18
ATOM     18  C   UNL     1     -96.397 152.531 232.923  1.00  0.00    -0.000 C 
BRANCH  18  19
ATOM     19  C   UNL     1     -95.582 151.959 231.750  1.00  0.00    -0.003 C 
ATOM     20  C   UNL     1     -95.742 150.448 231.590  1.00  0.00     0.004 C 
ENDBRANCH  18  19
ENDBRANCH  17  18
ENDBRANCH  16  17
ENDBRANCH  15  16
ENDBRANCH  14  15
ENDBRANCH  13  14
ENDBRANCH  12  13
ENDBRANCH   1  12
TORSDOF 16
ENDMDL
MODEL 7
REMARK VINA RESULT:    -3.621      1.838      3.897
REMARK INTER + INTRA:          -8.946
REMARK INTER:                  -6.506
REMARK INTRA:                  -2.440
REMARK UNBOUND:                -1.938
REMARK SMILES CCCCCCCCCCCCCCCCCC(=O)[O-]
REMARK SMILES IDX 10 1 11 2 12 3 13 4 14 5 15 6 16 7 17 8 18 9 19 10 20 11
REMARK SMILES IDX 9 12 8 13 7 14 6 15 5 16 4 17 3 18 2 19 1 20
REMARK H PARENT
REMARK Flexibility Score: inf
ROOT
ATOM      1  C   UNL     1     -94.506 148.892 236.760  1.00  0.00     0.000 C 
ENDROOT
BRANCH   1   2
ATOM      2  C   UNL     1     -93.639 147.646 236.504  1.00  0.00     0.000 C 
BRANCH   2   3
ATOM      3  C   UNL     1     -93.697 147.164 235.044  1.00  0.00     0.000 C 
BRANCH   3   4
ATOM      4  C   UNL     1     -94.913 147.723 234.286  1.00  0.00     0.000 C 
BRANCH   4   5
ATOM      5  C   UNL     1     -94.690 147.785 232.767  1.00  0.00     0.000 C 
BRANCH   5   6
ATOM      6  C   UNL     1     -94.939 149.204 232.236  1.00  0.00     0.000 C 
BRANCH   6   7
ATOM      7  C   UNL     1     -95.593 150.123 233.280  1.00  0.00     0.006 C 
BRANCH   7   8
ATOM      8  C   UNL     1     -96.795 150.893 232.720  1.00  0.00     0.053 C 
BRANCH   8   9
ATOM      9  C   UNL     1     -96.371 152.244 232.234  1.00  0.00     0.041 C 
ATOM     10  O   UNL     1     -96.498 153.252 232.977  1.00  0.00    -0.550 OA
ATOM     11  O   UNL     1     -95.792 152.382 230.979  1.00  0.00    -0.550 OA
ENDBRANCH   8   9
ENDBRANCH   7   8
ENDBRANCH   6   7
ENDBRANCH   5   6
ENDBRANCH   4   5
ENDBRANCH   3   4
ENDBRANCH   2   3
ENDBRANCH   1   2
BRANCH   1  12
ATOM     12  C   UNL     1     -94.915 149.120 238.227  1.00  0.00     0.000 C 
BRANCH  12  13
ATOM     13  C   UNL     1     -95.851 148.023 238.766  1.00  0.00    -0.000 C 
BRANCH  13  14
ATOM     14  C   UNL     1     -96.925 148.574 239.718  1.00  0.00    -0.000 C 
BRANCH  14  15
ATOM     15  C   UNL     1     -97.289 150.041 239.419  1.00  0.00    -0.000 C 
BRANCH  15  16
ATOM     16  C   UNL     1     -98.772 150.212 239.050  1.00  0.00    -0.000 C 
BRANCH  16  17
ATOM     17  C   UNL     1     -98.965 151.031 237.761  1.00  0.00    -0.000 C 
BRANCH  17  18
ATOM     18  C   UNL     1     -99.321 150.157 236.544  1.00  0.00    -0.000 C 
BRANCH  18  19
ATOM     19  C   UNL     1     -98.125 149.443 235.888  1.00  0.00    -0.003 C 
ATOM     20  C   UNL     1     -98.214 147.920 235.979  1.00  0.00     0.004 C 
ENDBRANCH  18  19
ENDBRANCH  17  18
ENDBRANCH  16  17
ENDBRANCH  15  16
ENDBRANCH  14  15
ENDBRANCH  13  14
ENDBRANCH  12  13
ENDBRANCH   1  12
TORSDOF 16
ENDMDL
MODEL 8
REMARK VINA RESULT:    -3.601      1.170      1.664
REMARK INTER + INTRA:          -8.907
REMARK INTER:                  -7.081
REMARK INTRA:                  -1.826
REMARK UNBOUND:                -1.938
REMARK SMILES CCCCCCCCCCCCCCCCCC(=O)[O-]
REMARK SMILES IDX 10 1 11 2 12 3 13 4 14 5 15 6 16 7 17 8 18 9 19 10 20 11
REMARK SMILES IDX 9 12 8 13 7 14 6 15 5 16 4 17 3 18 2 19 1 20
REMARK H PARENT
REMARK Flexibility Score: inf
ROOT
ATOM      1  C   UNL     1     -96.769 149.494 234.685  1.00  0.00     0.000 C 
ENDROOT
BRANCH   1   2
ATOM      2  C   UNL     1     -96.867 149.956 233.219  1.00  0.00     0.000 C 
BRANCH   2   3
ATOM      3  C   UNL     1     -95.602 150.683 232.733  1.00  0.00     0.000 C 
BRANCH   3   4
ATOM      4  C   UNL     1     -95.862 152.162 232.400  1.00  0.00     0.000 C 
BRANCH   4   5
ATOM      5  C   UNL     1     -97.129 152.367 231.555  1.00  0.00     0.000 C 
BRANCH   5   6
ATOM      6  C   UNL     1     -97.755 153.741 231.835  1.00  0.00     0.000 C 
BRANCH   6   7
ATOM      7  C   UNL     1     -97.938 154.017 233.336  1.00  0.00     0.006 C 
BRANCH   7   8
ATOM      8  C   UNL     1     -99.023 153.138 233.970  1.00  0.00     0.053 C 
BRANCH   8   9
ATOM      9  C   UNL     1    -100.177 153.976 234.423  1.00  0.00     0.041 C 
ATOM     10  O   UNL     1    -101.053 153.489 235.185  1.00  0.00    -0.550 OA
ATOM     11  O   UNL     1    -100.261 155.309 234.041  1.00  0.00    -0.550 OA
ENDBRANCH   8   9
ENDBRANCH   7   8
ENDBRANCH   6   7
ENDBRANCH   5   6
ENDBRANCH   4   5
ENDBRANCH   3   4
ENDBRANCH   2   3
ENDBRANCH   1   2
BRANCH   1  12
ATOM     12  C   UNL     1     -95.350 149.500 235.284  1.00  0.00     0.000 C 
BRANCH  12  13
ATOM     13  C   UNL     1     -94.730 148.093 235.370  1.00  0.00    -0.000 C 
BRANCH  13  14
ATOM     14  C   UNL     1     -93.799 147.928 236.582  1.00  0.00    -0.000 C 
BRANCH  14  15
ATOM     15  C   UNL     1     -94.228 148.790 237.784  1.00  0.00    -0.000 C 
BRANCH  15  16
ATOM     16  C   UNL     1     -95.071 148.001 238.799  1.00  0.00    -0.000 C 
BRANCH  16  17
ATOM     17  C   UNL     1     -96.495 148.566 238.944  1.00  0.00    -0.000 C 
BRANCH  17  18
ATOM     18  C   UNL     1     -96.523 150.103 239.030  1.00  0.00    -0.000 C 
BRANCH  18  19
ATOM     19  C   UNL     1     -97.931 150.725 239.052  1.00  0.00    -0.003 C 
ATOM     20  C   UNL     1     -98.782 150.321 237.849  1.00  0.00     0.004 C 
ENDBRANCH  18  19
ENDBRANCH  17  18
ENDBRANCH  16  17
ENDBRANCH  15  16
ENDBRANCH  14  15
ENDBRANCH  13  14
ENDBRANCH  12  13
ENDBRANCH   1  12
TORSDOF 16
ENDMDL
MODEL 9
REMARK VINA RESULT:    -3.511      1.253      2.642
REMARK INTER + INTRA:          -8.733
REMARK INTER:                  -6.738
REMARK INTRA:                  -1.996
REMARK UNBOUND:                -1.938
REMARK SMILES CCCCCCCCCCCCCCCCCC(=O)[O-]
REMARK SMILES IDX 10 1 11 2 12 3 13 4 14 5 15 6 16 7 17 8 18 9 19 10 20 11
REMARK SMILES IDX 9 12 8 13 7 14 6 15 5 16 4 17 3 18 2 19 1 20
REMARK H PARENT
REMARK Flexibility Score: inf
ROOT
ATOM      1  C   UNL     1     -94.992 149.106 236.059  1.00  0.00     0.000 C 
ENDROOT
BRANCH   1   2
ATOM      2  C   UNL     1     -95.243 147.970 235.051  1.00  0.00     0.000 C 
BRANCH   2   3
ATOM      3  C   UNL     1     -95.347 148.468 233.599  1.00  0.00     0.000 C 
BRANCH   3   4
ATOM      4  C   UNL     1     -95.860 149.915 233.506  1.00  0.00     0.000 C 
BRANCH   4   5
ATOM      5  C   UNL     1     -95.469 150.601 232.188  1.00  0.00     0.000 C 
BRANCH   5   6
ATOM      6  C   UNL     1     -95.690 152.118 232.275  1.00  0.00     0.000 C 
BRANCH   6   7
ATOM      7  C   UNL     1     -97.006 152.487 232.978  1.00  0.00     0.006 C 
BRANCH   7   8
ATOM      8  C   UNL     1     -97.663 153.740 232.384  1.00  0.00     0.053 C 
BRANCH   8   9
ATOM      9  C   UNL     1     -98.963 154.024 233.069  1.00  0.00     0.041 C 
ATOM     10  O   UNL     1     -99.783 154.832 232.560  1.00  0.00    -0.550 OA
ATOM     11  O   UNL     1     -99.290 153.360 234.245  1.00  0.00    -0.550 OA
ENDBRANCH   8   9
ENDBRANCH   7   8
ENDBRANCH   6   7
ENDBRANCH   5   6
ENDBRANCH   4   5
ENDBRANCH   3   4
ENDBRANCH   2   3
ENDBRANCH   1   2
BRANCH   1  12
ATOM     12  C   UNL     1     -94.165 148.717 237.299  1.00  0.00     0.000 C 
BRANCH  12  13
ATOM     13  C   UNL     1     -94.968 148.811 238.608  1.00  0.00    -0.000 C 
BRANCH  13  14
ATOM     14  C   UNL     1     -96.047 149.906 238.566  1.00  0.00    -0.000 C 
BRANCH  14  15
ATOM     15  C   UNL     1     -97.225 149.618 239.516  1.00  0.00    -0.000 C 
BRANCH  15  16
ATOM     16  C   UNL     1     -98.336 150.675 239.409  1.00  0.00    -0.000 C 
BRANCH  16  17
ATOM     17  C   UNL     1     -99.432 150.275 238.406  1.00  0.00    -0.000 C 
BRANCH  17  18
ATOM     18  C   UNL     1     -99.330 151.038 237.072  1.00  0.00    -0.000 C 
BRANCH  18  19
ATOM     19  C   UNL     1     -98.723 150.231 235.910  1.00  0.00    -0.003 C 
ATOM     20  C   UNL     1     -98.727 148.724 236.161  1.00  0.00     0.004 C 
ENDBRANCH  18  19
ENDBRANCH  17  18
ENDBRANCH  16  17
ENDBRANCH  15  16
ENDBRANCH  14  15
ENDBRANCH  13  14
ENDBRANCH  12  13
ENDBRANCH   1  12
TORSDOF 16
ENDMDL
