MODEL 1
REMARK VINA RESULT:    -5.929      0.000      0.000
REMARK INTER + INTRA:          -6.275
REMARK INTER:                  -6.275
REMARK INTRA:                   0.000
REMARK UNBOUND:                 0.000
REMARK SMILES O=c1ccc2cc(O)c(O)cc2o1
REMARK SMILES IDX 4 1 3 2 2 3 1 4 13 5 12 6 11 7 9 8 7 9 6 10 5 11 8 12 10 14
REMARK H PARENT 8 13 10 15
REMARK Flexibility Score: inf
ROOT
ATOM      1  C   UNL     1      -4.922  -4.880   8.340  1.00  0.00     0.019 A 
ATOM      2  C   UNL     1      -5.285  -3.540   8.210  1.00  0.00     0.094 A 
ATOM      3  C   UNL     1      -5.677  -3.062   6.955  1.00  0.00     0.336 A 
ATOM      4  O   UNL     1      -6.009  -1.856   6.818  1.00  0.00    -0.246 OA
ATOM      5  O   UNL     1      -5.702  -3.876   5.903  1.00  0.00    -0.423 OA
ATOM      6  C   UNL     1      -5.363  -5.160   5.983  1.00  0.00     0.142 A 
ATOM      7  C   UNL     1      -5.408  -5.968   4.841  1.00  0.00     0.098 A 
ATOM      8  C   UNL     1      -5.052  -7.323   4.921  1.00  0.00     0.161 A 
ATOM      9  C   UNL     1      -4.650  -7.872   6.146  1.00  0.00     0.158 A 
ATOM     10  C   UNL     1      -4.602  -7.066   7.295  1.00  0.00     0.062 A 
ATOM     11  C   UNL     1      -4.957  -5.713   7.217  1.00  0.00     0.022 A 
ENDROOT
BRANCH   9  12
ATOM     12  O   UNL     1      -4.297  -9.218   6.216  1.00  0.00    -0.504 OA
ATOM     13  H   UNL     1      -4.337  -9.733   7.089  1.00  0.00     0.293 HD
ENDBRANCH   9  12
BRANCH   8  14
ATOM     14  O   UNL     1      -5.096  -8.129   3.786  1.00  0.00    -0.504 OA
ATOM     15  H   UNL     1      -5.068  -7.734   2.853  1.00  0.00     0.293 HD
ENDBRANCH   8  14
TORSDOF 2
ENDMDL
MODEL 2
REMARK VINA RESULT:    -5.866      1.928      5.096
REMARK INTER + INTRA:          -6.209
REMARK INTER:                  -6.209
REMARK INTRA:                   0.000
REMARK UNBOUND:                 0.000
REMARK SMILES O=c1ccc2cc(O)c(O)cc2o1
REMARK SMILES IDX 4 1 3 2 2 3 1 4 13 5 12 6 11 7 9 8 7 9 6 10 5 11 8 12 10 14
REMARK H PARENT 8 13 10 15
REMARK Flexibility Score: inf
ROOT
ATOM      1  C   UNL     1      -4.840  -5.981   8.873  1.00  0.00     0.019 A 
ATOM      2  C   UNL     1      -4.344  -6.568   7.709  1.00  0.00     0.094 A 
ATOM      3  C   UNL     1      -4.405  -5.852   6.509  1.00  0.00     0.336 A 
ATOM      4  O   UNL     1      -3.963  -6.364   5.448  1.00  0.00    -0.246 OA
ATOM      5  O   UNL     1      -4.929  -4.629   6.481  1.00  0.00    -0.423 OA
ATOM      6  C   UNL     1      -5.413  -4.032   7.568  1.00  0.00     0.142 A 
ATOM      7  C   UNL     1      -5.952  -2.745   7.477  1.00  0.00     0.098 A 
ATOM      8  C   UNL     1      -6.463  -2.111   8.620  1.00  0.00     0.161 A 
ATOM      9  C   UNL     1      -6.435  -2.769   9.858  1.00  0.00     0.158 A 
ATOM     10  C   UNL     1      -5.895  -4.061   9.955  1.00  0.00     0.062 A 
ATOM     11  C   UNL     1      -5.385  -4.695   8.814  1.00  0.00     0.022 A 
ENDROOT
BRANCH   9  12
ATOM     12  O   UNL     1      -6.945  -2.132  10.988  1.00  0.00    -0.504 OA
ATOM     13  H   UNL     1      -7.561  -1.330  10.913  1.00  0.00     0.293 HD
ENDBRANCH   9  12
BRANCH   8  14
ATOM     14  O   UNL     1      -7.000  -0.829   8.533  1.00  0.00    -0.504 OA
ATOM     15  H   UNL     1      -7.717  -0.599   7.854  1.00  0.00     0.293 HD
ENDBRANCH   8  14
TORSDOF 2
ENDMDL
MODEL 3
REMARK VINA RESULT:    -5.834      1.532      5.015
REMARK INTER + INTRA:          -6.175
REMARK INTER:                  -6.175
REMARK INTRA:                   0.000
REMARK UNBOUND:                 0.000
REMARK SMILES O=c1ccc2cc(O)c(O)cc2o1
REMARK SMILES IDX 4 1 3 2 2 3 1 4 13 5 12 6 11 7 9 8 7 9 6 10 5 11 8 12 10 14
REMARK H PARENT 8 13 10 15
REMARK Flexibility Score: inf
ROOT
ATOM      1  C   UNL     1      -6.095  -5.192   4.975  1.00  0.00     0.019 A 
ATOM      2  C   UNL     1      -5.567  -6.405   4.535  1.00  0.00     0.094 A 
ATOM      3  C   UNL     1      -4.646  -7.077   5.346  1.00  0.00     0.336 A 
ATOM      4  O   UNL     1      -4.159  -8.174   4.967  1.00  0.00    -0.246 OA
ATOM      5  O   UNL     1      -4.282  -6.565   6.518  1.00  0.00    -0.423 OA
ATOM      6  C   UNL     1      -4.761  -5.411   6.976  1.00  0.00     0.142 A 
ATOM      7  C   UNL     1      -4.341  -4.921   8.217  1.00  0.00     0.098 A 
ATOM      8  C   UNL     1      -4.843  -3.705   8.703  1.00  0.00     0.161 A 
ATOM      9  C   UNL     1      -5.770  -2.976   7.944  1.00  0.00     0.158 A 
ATOM     10  C   UNL     1      -6.195  -3.462   6.698  1.00  0.00     0.062 A 
ATOM     11  C   UNL     1      -5.694  -4.677   6.211  1.00  0.00     0.022 A 
ENDROOT
BRANCH   9  12
ATOM     12  O   UNL     1      -6.264  -1.768   8.435  1.00  0.00    -0.504 OA
ATOM     13  H   UNL     1      -7.252  -1.544   8.397  1.00  0.00     0.293 HD
ENDBRANCH   9  12
BRANCH   8  14
ATOM     14  O   UNL     1      -4.427  -3.215   9.939  1.00  0.00    -0.504 OA
ATOM     15  H   UNL     1      -4.963  -2.517  10.441  1.00  0.00     0.293 HD
ENDBRANCH   8  14
TORSDOF 2
ENDMDL
MODEL 4
REMARK VINA RESULT:    -5.798      1.357      4.560
REMARK INTER + INTRA:          -6.137
REMARK INTER:                  -6.137
REMARK INTRA:                   0.000
REMARK UNBOUND:                 0.000
REMARK SMILES O=c1ccc2cc(O)c(O)cc2o1
REMARK SMILES IDX 4 1 3 2 2 3 1 4 13 5 12 6 11 7 9 8 7 9 6 10 5 11 8 12 10 14
REMARK H PARENT 8 13 10 15
REMARK Flexibility Score: inf
ROOT
ATOM      1  C   UNL     1      -3.875  -8.179   6.745  1.00  0.00     0.019 A 
ATOM      2  C   UNL     1      -4.178  -8.998   5.658  1.00  0.00     0.094 A 
ATOM      3  C   UNL     1      -4.894  -8.462   4.584  1.00  0.00     0.336 A 
ATOM      4  O   UNL     1      -5.177  -9.185   3.593  1.00  0.00    -0.246 OA
ATOM      5  O   UNL     1      -5.280  -7.188   4.600  1.00  0.00    -0.423 OA
ATOM      6  C   UNL     1      -5.012  -6.372   5.617  1.00  0.00     0.142 A 
ATOM      7  C   UNL     1      -5.443  -5.042   5.579  1.00  0.00     0.098 A 
ATOM      8  C   UNL     1      -5.163  -4.178   6.648  1.00  0.00     0.161 A 
ATOM      9  C   UNL     1      -4.448  -4.647   7.759  1.00  0.00     0.158 A 
ATOM     10  C   UNL     1      -4.013  -5.980   7.803  1.00  0.00     0.062 A 
ATOM     11  C   UNL     1      -4.292  -6.845   6.736  1.00  0.00     0.022 A 
ENDROOT
BRANCH   9  12
ATOM     12  O   UNL     1      -4.174  -3.782   8.817  1.00  0.00    -0.504 OA
ATOM     13  H   UNL     1      -3.235  -3.669   9.182  1.00  0.00     0.293 HD
ENDBRANCH   9  12
BRANCH   8  14
ATOM     14  O   UNL     1      -5.591  -2.853   6.612  1.00  0.00    -0.504 OA
ATOM     15  H   UNL     1      -5.301  -2.183   7.315  1.00  0.00     0.293 HD
ENDBRANCH   8  14
TORSDOF 2
ENDMDL
MODEL 5
REMARK VINA RESULT:    -5.731      1.315      5.061
REMARK INTER + INTRA:          -6.066
REMARK INTER:                  -6.066
REMARK INTRA:                   0.000
REMARK UNBOUND:                 0.000
REMARK SMILES O=c1ccc2cc(O)c(O)cc2o1
REMARK SMILES IDX 4 1 3 2 2 3 1 4 13 5 12 6 11 7 9 8 7 9 6 10 5 11 8 12 10 14
REMARK H PARENT 8 13 10 15
REMARK Flexibility Score: inf
ROOT
ATOM      1  C   UNL     1      -5.616  -7.105   4.514  1.00  0.00     0.019 A 
ATOM      2  C   UNL     1      -5.229  -8.444   4.532  1.00  0.00     0.094 A 
ATOM      3  C   UNL     1      -4.479  -8.919   5.613  1.00  0.00     0.336 A 
ATOM      4  O   UNL     1      -4.120 -10.125   5.647  1.00  0.00    -0.246 OA
ATOM      5  O   UNL     1      -4.140  -8.103   6.607  1.00  0.00    -0.423 OA
ATOM      6  C   UNL     1      -4.488  -6.818   6.629  1.00  0.00     0.142 A 
ATOM      7  C   UNL     1      -4.102  -6.007   7.702  1.00  0.00     0.098 A 
ATOM      8  C   UNL     1      -4.467  -4.653   7.730  1.00  0.00     0.161 A 
ATOM      9  C   UNL     1      -5.220  -4.108   6.681  1.00  0.00     0.158 A 
ATOM     10  C   UNL     1      -5.609  -4.916   5.602  1.00  0.00     0.062 A 
ATOM     11  C   UNL     1      -5.245  -6.269   5.572  1.00  0.00     0.022 A 
ENDROOT
BRANCH   9  12
ATOM     12  O   UNL     1      -5.577  -2.761   6.716  1.00  0.00    -0.504 OA
ATOM     13  H   UNL     1      -5.304  -2.120   5.979  1.00  0.00     0.293 HD
ENDBRANCH   9  12
BRANCH   8  14
ATOM     14  O   UNL     1      -4.084  -3.844   8.797  1.00  0.00    -0.504 OA
ATOM     15  H   UNL     1      -4.747  -3.236   9.266  1.00  0.00     0.293 HD
ENDBRANCH   8  14
TORSDOF 2
ENDMDL
MODEL 6
REMARK VINA RESULT:    -5.715      1.928      2.743
REMARK INTER + INTRA:          -6.049
REMARK INTER:                  -6.049
REMARK INTRA:                   0.000
REMARK UNBOUND:                 0.000
REMARK SMILES O=c1ccc2cc(O)c(O)cc2o1
REMARK SMILES IDX 4 1 3 2 2 3 1 4 13 5 12 6 11 7 9 8 7 9 6 10 5 11 8 12 10 14
REMARK H PARENT 8 13 10 15
REMARK Flexibility Score: inf
ROOT
ATOM      1  C   UNL     1      -6.945  -6.298   4.375  1.00  0.00     0.019 A 
ATOM      2  C   UNL     1      -7.347  -5.024   4.775  1.00  0.00     0.094 A 
ATOM      3  C   UNL     1      -6.464  -4.238   5.522  1.00  0.00     0.336 A 
ATOM      4  O   UNL     1      -6.808  -3.085   5.893  1.00  0.00    -0.246 OA
ATOM      5  O   UNL     1      -5.259  -4.700   5.844  1.00  0.00    -0.423 OA
ATOM      6  C   UNL     1      -4.835  -5.909   5.482  1.00  0.00     0.142 A 
ATOM      7  C   UNL     1      -3.557  -6.341   5.850  1.00  0.00     0.098 A 
ATOM      8  C   UNL     1      -3.106  -7.615   5.471  1.00  0.00     0.161 A 
ATOM      9  C   UNL     1      -3.938  -8.458   4.720  1.00  0.00     0.158 A 
ATOM     10  C   UNL     1      -5.222  -8.030   4.349  1.00  0.00     0.062 A 
ATOM     11  C   UNL     1      -5.673  -6.758   4.727  1.00  0.00     0.022 A 
ENDROOT
BRANCH   9  12
ATOM     12  O   UNL     1      -3.482  -9.722   4.349  1.00  0.00    -0.504 OA
ATOM     13  H   UNL     1      -3.684 -10.544   4.906  1.00  0.00     0.293 HD
ENDBRANCH   9  12
BRANCH   8  14
ATOM     14  O   UNL     1      -1.834  -8.048   5.835  1.00  0.00    -0.504 OA
ATOM     15  H   UNL     1      -1.220  -8.509   5.173  1.00  0.00     0.293 HD
ENDBRANCH   8  14
TORSDOF 2
ENDMDL
MODEL 7
REMARK VINA RESULT:    -5.650      2.802      5.458
REMARK INTER + INTRA:          -5.981
REMARK INTER:                  -5.981
REMARK INTRA:                   0.000
REMARK UNBOUND:                 0.000
REMARK SMILES O=c1ccc2cc(O)c(O)cc2o1
REMARK SMILES IDX 4 1 3 2 2 3 1 4 13 5 12 6 11 7 9 8 7 9 6 10 5 11 8 12 10 14
REMARK H PARENT 8 13 10 15
REMARK Flexibility Score: inf
ROOT
ATOM      1  C   UNL     1      -3.859  -9.551   3.627  1.00  0.00     0.019 A 
ATOM      2  C   UNL     1      -2.526  -9.687   3.243  1.00  0.00     0.094 A 
ATOM      3  C   UNL     1      -1.544  -8.973   3.937  1.00  0.00     0.336 A 
ATOM      4  O   UNL     1      -0.334  -9.082   3.605  1.00  0.00    -0.246 OA
ATOM      5  O   UNL     1      -1.879  -8.177   4.949  1.00  0.00    -0.423 OA
ATOM      6  C   UNL     1      -3.139  -8.019   5.349  1.00  0.00     0.142 A 
ATOM      7  C   UNL     1      -3.432  -7.167   6.419  1.00  0.00     0.098 A 
ATOM      8  C   UNL     1      -4.758  -6.998   6.844  1.00  0.00     0.161 A 
ATOM      9  C   UNL     1      -5.795  -7.682   6.195  1.00  0.00     0.158 A 
ATOM     10  C   UNL     1      -5.507  -8.538   5.120  1.00  0.00     0.062 A 
ATOM     11  C   UNL     1      -4.183  -8.708   4.694  1.00  0.00     0.022 A 
ENDROOT
BRANCH   9  12
ATOM     12  O   UNL     1      -7.110  -7.507   6.623  1.00  0.00    -0.504 OA
ATOM     13  H   UNL     1      -7.442  -6.613   6.966  1.00  0.00     0.293 HD
ENDBRANCH   9  12
BRANCH   8  14
ATOM     14  O   UNL     1      -5.052  -6.151   7.910  1.00  0.00    -0.504 OA
ATOM     15  H   UNL     1      -4.988  -6.466   8.871  1.00  0.00     0.293 HD
ENDBRANCH   8  14
TORSDOF 2
ENDMDL
MODEL 8
REMARK VINA RESULT:    -5.374      2.664      4.132
REMARK INTER + INTRA:          -5.688
REMARK INTER:                  -5.688
REMARK INTRA:                   0.000
REMARK UNBOUND:                 0.000
REMARK SMILES O=c1ccc2cc(O)c(O)cc2o1
REMARK SMILES IDX 4 1 3 2 2 3 1 4 13 5 12 6 11 7 9 8 7 9 6 10 5 11 8 12 10 14
REMARK H PARENT 8 13 10 15
REMARK Flexibility Score: inf
ROOT
ATOM      1  C   UNL     1      -7.249  -4.544   5.343  1.00  0.00     0.019 A 
ATOM      2  C   UNL     1      -7.947  -3.522   4.701  1.00  0.00     0.094 A 
ATOM      3  C   UNL     1      -7.880  -2.225   5.219  1.00  0.00     0.336 A 
ATOM      4  O   UNL     1      -8.504  -1.289   4.653  1.00  0.00    -0.246 OA
ATOM      5  O   UNL     1      -7.160  -1.972   6.309  1.00  0.00    -0.423 OA
ATOM      6  C   UNL     1      -6.478  -2.916   6.952  1.00  0.00     0.142 A 
ATOM      7  C   UNL     1      -5.738  -2.591   8.093  1.00  0.00     0.098 A 
ATOM      8  C   UNL     1      -5.018  -3.584   8.775  1.00  0.00     0.161 A 
ATOM      9  C   UNL     1      -5.039  -4.907   8.312  1.00  0.00     0.158 A 
ATOM     10  C   UNL     1      -5.780  -5.240   7.168  1.00  0.00     0.062 A 
ATOM     11  C   UNL     1      -6.500  -4.249   6.486  1.00  0.00     0.022 A 
ENDROOT
BRANCH   9  12
ATOM     12  O   UNL     1      -4.321  -5.887   8.996  1.00  0.00    -0.504 OA
ATOM     13  H   UNL     1      -4.785  -6.575   9.579  1.00  0.00     0.293 HD
ENDBRANCH   9  12
BRANCH   8  14
ATOM     14  O   UNL     1      -4.280  -3.262   9.912  1.00  0.00    -0.504 OA
ATOM     15  H   UNL     1      -4.507  -3.652  10.819  1.00  0.00     0.293 HD
ENDBRANCH   8  14
TORSDOF 2
ENDMDL
MODEL 9
REMARK VINA RESULT:    -5.352      1.587      2.459
REMARK INTER + INTRA:          -5.665
REMARK INTER:                  -5.665
REMARK INTRA:                   0.000
REMARK UNBOUND:                 0.000
REMARK SMILES O=c1ccc2cc(O)c(O)cc2o1
REMARK SMILES IDX 4 1 3 2 2 3 1 4 13 5 12 6 11 7 9 8 7 9 6 10 5 11 8 12 10 14
REMARK H PARENT 8 13 10 15
REMARK Flexibility Score: inf
ROOT
ATOM      1  C   UNL     1      -5.982  -4.900   5.887  1.00  0.00     0.019 A 
ATOM      2  C   UNL     1      -5.722  -4.095   6.995  1.00  0.00     0.094 A 
ATOM      3  C   UNL     1      -4.682  -4.449   7.861  1.00  0.00     0.336 A 
ATOM      4  O   UNL     1      -4.432  -3.735   8.867  1.00  0.00    -0.246 OA
ATOM      5  O   UNL     1      -3.953  -5.536   7.628  1.00  0.00    -0.423 OA
ATOM      6  C   UNL     1      -4.166  -6.331   6.583  1.00  0.00     0.142 A 
ATOM      7  C   UNL     1      -3.367  -7.463   6.389  1.00  0.00     0.098 A 
ATOM      8  C   UNL     1      -3.589  -8.304   5.288  1.00  0.00     0.161 A 
ATOM      9  C   UNL     1      -4.614  -8.012   4.378  1.00  0.00     0.158 A 
ATOM     10  C   UNL     1      -5.419  -6.878   4.567  1.00  0.00     0.062 A 
ATOM     11  C   UNL     1      -5.199  -6.037   5.666  1.00  0.00     0.022 A 
ENDROOT
BRANCH   9  12
ATOM     12  O   UNL     1      -4.828  -8.853   3.287  1.00  0.00    -0.504 OA
ATOM     13  H   UNL     1      -4.700  -8.530   2.334  1.00  0.00     0.293 HD
ENDBRANCH   9  12
BRANCH   8  14
ATOM     14  O   UNL     1      -2.794  -9.431   5.093  1.00  0.00    -0.504 OA
ATOM     15  H   UNL     1      -2.340  -9.613   4.205  1.00  0.00     0.293 HD
ENDBRANCH   8  14
TORSDOF 2
ENDMDL
