MODEL 1
REMARK VINA RESULT:     4.585      0.000      0.000
REMARK INTER + INTRA:           7.339
REMARK INTER:                   7.534
REMARK INTRA:                  -0.195
REMARK UNBOUND:                -0.195
REMARK SMILES C[C@@H]1O[C@H](OC[C@@H]2O[C@H](Oc3c(-c4ccc(O)c(O)c4)oc4cc(O)cc(O)c4c3=O)[C@@H](O)[C@@H](O)[C@H]2O)[C@H](O)[C@@H](O)[C@@H]1O
REMARK SMILES IDX 7 1 36 2 34 3 32 4 9 5 8 6 6 7 5 8 4 9 1 10 2 11 42 12 3 13
REMARK SMILES IDX 40 14 38 15 43 16 41 18 39 20 37 22 35 24 10 26 11 27 12 28
REMARK SMILES IDX 30 29 21 30 29 31 31 32 22 33 27 34 23 35 26 36 24 37 13 38
REMARK SMILES IDX 20 39 14 40 18 41 15 42 16 43 19 44 17 46 28 48 25 50 33 52
REMARK H PARENT 43 17 41 19 39 21 37 23 35 25 19 45 17 47 28 49 25 51 33 53
REMARK Flexibility Score: inf
ROOT
ATOM      1  C   UNL     1     -23.671 -15.576 -13.704  1.00  0.00     0.180 C 
ATOM      2  C   UNL     1     -24.323 -15.302 -15.103  1.00  0.00     0.177 C 
ATOM      3  C   UNL     1     -24.884 -16.592 -15.813  1.00  0.00     0.180 C 
ATOM      4  C   UNL     1     -24.020 -17.898 -15.494  1.00  0.00     0.214 C 
ATOM      5  C   UNL     1     -24.113 -17.870 -13.879  1.00  0.00     0.339 C 
ATOM      6  O   UNL     1     -23.288 -16.853 -13.338  1.00  0.00    -0.332 OA
ENDROOT
BRANCH   1   7
ATOM      7  C   UNL     1     -22.695 -14.578 -12.989  1.00  0.00     0.198 C 
BRANCH   7   8
ATOM      8  O   UNL     1     -21.449 -13.914 -13.535  1.00  0.00    -0.347 OA
BRANCH   8   9
ATOM      9  C   UNL     1     -20.215 -14.602 -13.190  1.00  0.00     0.281 C 
ATOM     10  C   UNL     1     -16.208 -13.951 -12.668  1.00  0.00     0.041 C 
ATOM     11  C   UNL     1     -17.641 -14.612 -13.168  1.00  0.00     0.150 C 
ATOM     12  C   UNL     1     -17.860 -16.294 -13.195  1.00  0.00     0.174 C 
ATOM     13  O   UNL     1     -18.919 -13.876 -13.508  1.00  0.00    -0.344 OA
ATOM     14  C   UNL     1     -19.325 -16.834 -12.936  1.00  0.00     0.179 C 
ATOM     15  C   UNL     1     -20.064 -15.696 -12.008  1.00  0.00     0.202 C 
BRANCH  12  16
ATOM     16  O   UNL     1     -16.941 -16.818 -12.255  1.00  0.00    -0.388 OA
ATOM     17  H   UNL     1     -17.098 -17.819 -12.127  1.00  0.00     0.211 HD
ENDBRANCH  12  16
BRANCH  14  18
ATOM     18  O   UNL     1     -20.019 -16.990 -14.180  1.00  0.00    -0.387 OA
ATOM     19  H   UNL     1     -20.390 -16.247 -14.649  1.00  0.00     0.211 HD
ENDBRANCH  14  18
BRANCH  15  20
ATOM     20  O   UNL     1     -19.269 -15.363 -10.895  1.00  0.00    -0.385 OA
ATOM     21  H   UNL     1     -18.235 -15.195 -11.023  1.00  0.00     0.211 HD
ENDBRANCH  15  20
ENDBRANCH   8   9
ENDBRANCH   7   8
ENDBRANCH   1   7
BRANCH   2  22
ATOM     22  O   UNL     1     -25.594 -14.618 -14.914  1.00  0.00    -0.387 OA
ATOM     23  H   UNL     1     -26.322 -15.113 -14.447  1.00  0.00     0.211 HD
ENDBRANCH   2  22
BRANCH   3  24
ATOM     24  O   UNL     1     -26.202 -16.915 -15.436  1.00  0.00    -0.387 OA
ATOM     25  H   UNL     1     -26.288 -17.919 -15.326  1.00  0.00     0.211 HD
ENDBRANCH   3  24
BRANCH   5  26
ATOM     26  O   UNL     1     -23.699 -19.112 -13.359  1.00  0.00    -0.454 OA
BRANCH  26  27
ATOM     27  C   UNL     1     -24.532 -20.277 -13.281  1.00  0.00     0.214 A 
ATOM     28  C   UNL     1     -24.962 -20.843 -12.053  1.00  0.00     0.180 A 
ATOM     29  C   UNL     1     -25.127 -20.903 -14.429  1.00  0.00     0.239 A 
ATOM     30  O   UNL     1     -25.258 -22.115 -11.941  1.00  0.00    -0.452 OA
ATOM     31  C   UNL     1     -24.968 -22.324 -14.312  1.00  0.00     0.111 A 
ATOM     32  O   UNL     1     -26.324 -20.603 -14.587  1.00  0.00    -0.285 OA
ATOM     33  C   UNL     1     -25.090 -22.916 -13.042  1.00  0.00     0.146 A 
ATOM     34  C   UNL     1     -24.620 -23.140 -15.420  1.00  0.00     0.134 A 
ATOM     35  C   UNL     1     -25.227 -24.291 -12.937  1.00  0.00     0.094 A 
ATOM     36  C   UNL     1     -24.815 -24.530 -15.334  1.00  0.00     0.093 A 
ATOM     37  C   UNL     1     -25.177 -25.077 -14.114  1.00  0.00     0.123 A 
BRANCH  28  38
ATOM     38  C   UNL     1     -25.227 -19.985 -10.873  1.00  0.00     0.025 A 
ATOM     39  C   UNL     1     -26.275 -19.074 -10.846  1.00  0.00     0.062 A 
ATOM     40  C   UNL     1     -24.180 -19.837  -9.934  1.00  0.00     0.016 A 
ATOM     41  C   UNL     1     -26.453 -18.318  -9.688  1.00  0.00     0.158 A 
ATOM     42  C   UNL     1     -24.450 -19.341  -8.653  1.00  0.00     0.051 A 
ATOM     43  C   UNL     1     -25.612 -18.569  -8.567  1.00  0.00     0.157 A 
BRANCH  41  44
ATOM     44  O   UNL     1     -27.416 -17.332  -9.703  1.00  0.00    -0.504 OA
ATOM     45  H   UNL     1     -28.413 -17.520  -9.638  1.00  0.00     0.293 HD
ENDBRANCH  41  44
BRANCH  43  46
ATOM     46  O   UNL     1     -25.900 -17.886  -7.364  1.00  0.00    -0.504 OA
ATOM     47  H   UNL     1     -26.823 -17.561  -7.107  1.00  0.00     0.293 HD
ENDBRANCH  43  46
ENDBRANCH  28  38
BRANCH  34  48
ATOM     48  O   UNL     1     -24.275 -22.614 -16.662  1.00  0.00    -0.507 OA
ATOM     49  H   UNL     1     -25.003 -22.501 -17.368  1.00  0.00     0.293 HD
ENDBRANCH  34  48
BRANCH  37  50
ATOM     50  O   UNL     1     -25.395 -26.467 -13.990  1.00  0.00    -0.508 OA
ATOM     51  H   UNL     1     -24.746 -27.039 -13.464  1.00  0.00     0.293 HD
ENDBRANCH  37  50
ENDBRANCH  26  27
ENDBRANCH   5  26
BRANCH   4  52
ATOM     52  O   UNL     1     -24.535 -19.183 -15.865  1.00  0.00    -0.384 OA
ATOM     53  H   UNL     1     -24.094 -19.978 -15.375  1.00  0.00     0.211 HD
ENDBRANCH   4  52
TORSDOF 16
ENDMDL
MODEL 2
REMARK VINA RESULT:     4.723      2.560      5.611
REMARK INTER + INTRA:           7.565
REMARK INTER:                   8.132
REMARK INTRA:                  -0.568
REMARK UNBOUND:                -0.195
REMARK SMILES C[C@@H]1O[C@H](OC[C@@H]2O[C@H](Oc3c(-c4ccc(O)c(O)c4)oc4cc(O)cc(O)c4c3=O)[C@@H](O)[C@@H](O)[C@H]2O)[C@H](O)[C@@H](O)[C@@H]1O
REMARK SMILES IDX 7 1 36 2 34 3 32 4 9 5 8 6 6 7 5 8 4 9 1 10 2 11 42 12 3 13
REMARK SMILES IDX 40 14 38 15 43 16 41 18 39 20 37 22 35 24 10 26 11 27 12 28
REMARK SMILES IDX 30 29 21 30 29 31 31 32 22 33 27 34 23 35 26 36 24 37 13 38
REMARK SMILES IDX 20 39 14 40 18 41 15 42 16 43 19 44 17 46 28 48 25 50 33 52
REMARK H PARENT 43 17 41 19 39 21 37 23 35 25 19 45 17 47 28 49 25 51 33 53
REMARK Flexibility Score: inf
ROOT
ATOM      1  C   UNL     1     -26.287 -19.479 -13.373  1.00  0.00     0.180 C 
ATOM      2  C   UNL     1     -26.020 -19.317 -11.837  1.00  0.00     0.177 C 
ATOM      3  C   UNL     1     -26.124 -20.663 -11.023  1.00  0.00     0.180 C 
ATOM      4  C   UNL     1     -27.222 -21.660 -11.617  1.00  0.00     0.214 C 
ATOM      5  C   UNL     1     -26.659 -21.778 -13.130  1.00  0.00     0.339 C 
ATOM      6  O   UNL     1     -26.927 -20.599 -13.868  1.00  0.00    -0.332 OA
ENDROOT
BRANCH   1   7
ATOM      7  C   UNL     1     -26.647 -18.284 -14.323  1.00  0.00     0.198 C 
BRANCH   7   8
ATOM      8  O   UNL     1     -26.498 -16.797 -14.077  1.00  0.00    -0.347 OA
BRANCH   8   9
ATOM      9  C   UNL     1     -25.199 -16.264 -14.456  1.00  0.00     0.281 C 
ATOM     10  C   UNL     1     -21.291 -16.158 -13.244  1.00  0.00     0.041 C 
ATOM     11  C   UNL     1     -22.784 -15.684 -13.778  1.00  0.00     0.150 C 
ATOM     12  C   UNL     1     -22.940 -14.535 -15.016  1.00  0.00     0.174 C 
ATOM     13  O   UNL     1     -24.125 -16.263 -13.381  1.00  0.00    -0.344 OA
ATOM     14  C   UNL     1     -24.200 -14.664 -15.965  1.00  0.00     0.179 C 
ATOM     15  C   UNL     1     -24.603 -16.258 -15.959  1.00  0.00     0.202 C 
BRANCH  12  16
ATOM     16  O   UNL     1     -21.731 -14.590 -15.750  1.00  0.00    -0.388 OA
ATOM     17  H   UNL     1     -21.762 -15.355 -16.426  1.00  0.00     0.211 HD
ENDBRANCH  12  16
BRANCH  14  18
ATOM     18  O   UNL     1     -25.282 -13.875 -15.458  1.00  0.00    -0.387 OA
ATOM     19  H   UNL     1     -25.595 -13.963 -14.562  1.00  0.00     0.211 HD
ENDBRANCH  14  18
BRANCH  15  20
ATOM     20  O   UNL     1     -23.479 -17.060 -16.229  1.00  0.00    -0.385 OA
ATOM     21  H   UNL     1     -22.525 -16.615 -16.308  1.00  0.00     0.211 HD
ENDBRANCH  15  20
ENDBRANCH   8   9
ENDBRANCH   7   8
ENDBRANCH   1   7
BRANCH   2  22
ATOM     22  O   UNL     1     -24.601 -19.071 -11.620  1.00  0.00    -0.387 OA
ATOM     23  H   UNL     1     -24.123 -19.653 -10.967  1.00  0.00     0.211 HD
ENDBRANCH   2  22
BRANCH   3  24
ATOM     24  O   UNL     1     -24.925 -21.400 -10.996  1.00  0.00    -0.387 OA
ATOM     25  H   UNL     1     -24.710 -21.665 -10.042  1.00  0.00     0.211 HD
ENDBRANCH   3  24
BRANCH   5  26
ATOM     26  O   UNL     1     -27.272 -22.868 -13.779  1.00  0.00    -0.454 OA
BRANCH  26  27
ATOM     27  C   UNL     1     -26.567 -24.008 -14.291  1.00  0.00     0.214 A 
ATOM     28  C   UNL     1     -25.294 -23.919 -14.909  1.00  0.00     0.180 A 
ATOM     29  C   UNL     1     -27.011 -25.362 -14.105  1.00  0.00     0.239 A 
ATOM     30  O   UNL     1     -24.890 -24.796 -15.797  1.00  0.00    -0.452 OA
ATOM     31  C   UNL     1     -26.876 -26.063 -15.349  1.00  0.00     0.111 A 
ATOM     32  O   UNL     1     -26.408 -25.955 -13.194  1.00  0.00    -0.285 OA
ATOM     33  C   UNL     1     -25.761 -25.790 -16.163  1.00  0.00     0.146 A 
ATOM     34  C   UNL     1     -27.864 -26.968 -15.819  1.00  0.00     0.134 A 
ATOM     35  C   UNL     1     -25.454 -26.642 -17.212  1.00  0.00     0.094 A 
ATOM     36  C   UNL     1     -27.534 -27.872 -16.843  1.00  0.00     0.093 A 
ATOM     37  C   UNL     1     -26.310 -27.737 -17.481  1.00  0.00     0.123 A 
BRANCH  28  38
ATOM     38  C   UNL     1     -24.306 -22.903 -14.473  1.00  0.00     0.025 A 
ATOM     39  C   UNL     1     -24.368 -21.584 -14.905  1.00  0.00     0.062 A 
ATOM     40  C   UNL     1     -23.093 -23.376 -13.923  1.00  0.00     0.016 A 
ATOM     41  C   UNL     1     -23.401 -20.697 -14.433  1.00  0.00     0.158 A 
ATOM     42  C   UNL     1     -22.271 -22.513 -13.187  1.00  0.00     0.051 A 
ATOM     43  C   UNL     1     -22.453 -21.158 -13.477  1.00  0.00     0.157 A 
BRANCH  41  44
ATOM     44  O   UNL     1     -23.390 -19.420 -14.951  1.00  0.00    -0.504 OA
ATOM     45  H   UNL     1     -24.223 -18.848 -15.054  1.00  0.00     0.293 HD
ENDBRANCH  41  44
BRANCH  43  46
ATOM     46  O   UNL     1     -21.571 -20.207 -12.915  1.00  0.00    -0.504 OA
ATOM     47  H   UNL     1     -21.096 -19.492 -13.451  1.00  0.00     0.293 HD
ENDBRANCH  43  46
ENDBRANCH  28  38
BRANCH  34  48
ATOM     48  O   UNL     1     -29.091 -27.136 -15.183  1.00  0.00    -0.507 OA
ATOM     49  H   UNL     1     -29.475 -26.362 -14.641  1.00  0.00     0.293 HD
ENDBRANCH  34  48
BRANCH  37  50
ATOM     50  O   UNL     1     -25.935 -28.634 -18.506  1.00  0.00    -0.508 OA
ATOM     51  H   UNL     1     -26.006 -28.355 -19.476  1.00  0.00     0.293 HD
ENDBRANCH  37  50
ENDBRANCH  26  27
ENDBRANCH   5  26
BRANCH   4  52
ATOM     52  O   UNL     1     -27.268 -23.011 -11.141  1.00  0.00    -0.384 OA
ATOM     53  H   UNL     1     -26.731 -23.684 -11.710  1.00  0.00     0.211 HD
ENDBRANCH   4  52
TORSDOF 16
ENDMDL
MODEL 3
REMARK VINA RESULT:     5.228      2.885      8.602
REMARK INTER + INTRA:           8.395
REMARK INTER:                   8.419
REMARK INTRA:                  -0.024
REMARK UNBOUND:                -0.195
REMARK SMILES C[C@@H]1O[C@H](OC[C@@H]2O[C@H](Oc3c(-c4ccc(O)c(O)c4)oc4cc(O)cc(O)c4c3=O)[C@@H](O)[C@@H](O)[C@H]2O)[C@H](O)[C@@H](O)[C@@H]1O
REMARK SMILES IDX 7 1 36 2 34 3 32 4 9 5 8 6 6 7 5 8 4 9 1 10 2 11 42 12 3 13
REMARK SMILES IDX 40 14 38 15 43 16 41 18 39 20 37 22 35 24 10 26 11 27 12 28
REMARK SMILES IDX 30 29 21 30 29 31 31 32 22 33 27 34 23 35 26 36 24 37 13 38
REMARK SMILES IDX 20 39 14 40 18 41 15 42 16 43 19 44 17 46 28 48 25 50 33 52
REMARK H PARENT 43 17 41 19 39 21 37 23 35 25 19 45 17 47 28 49 25 51 33 53
REMARK Flexibility Score: inf
ROOT
ATOM      1  C   UNL     1     -23.167 -22.950 -12.115  1.00  0.00     0.180 C 
ATOM      2  C   UNL     1     -22.241 -23.119 -13.369  1.00  0.00     0.177 C 
ATOM      3  C   UNL     1     -21.612 -21.770 -13.887  1.00  0.00     0.180 C 
ATOM      4  C   UNL     1     -22.582 -20.517 -13.682  1.00  0.00     0.214 C 
ATOM      5  C   UNL     1     -22.808 -20.636 -12.084  1.00  0.00     0.339 C 
ATOM      6  O   UNL     1     -23.674 -21.712 -11.769  1.00  0.00    -0.332 OA
ENDROOT
BRANCH   1   7
ATOM      7  C   UNL     1     -24.216 -24.023 -11.659  1.00  0.00     0.198 C 
BRANCH   7   8
ATOM      8  O   UNL     1     -25.552 -24.371 -12.284  1.00  0.00    -0.347 OA
BRANCH   8   9
ATOM      9  C   UNL     1     -25.447 -24.938 -13.619  1.00  0.00     0.281 C 
ATOM     10  C   UNL     1     -27.689 -26.739 -16.531  1.00  0.00     0.041 C 
ATOM     11  C   UNL     1     -26.469 -26.421 -15.458  1.00  0.00     0.150 C 
ATOM     12  C   UNL     1     -24.844 -26.615 -15.907  1.00  0.00     0.174 C 
ATOM     13  O   UNL     1     -26.600 -25.815 -14.078  1.00  0.00    -0.344 OA
ATOM     14  C   UNL     1     -23.789 -25.653 -15.224  1.00  0.00     0.179 C 
ATOM     15  C   UNL     1     -24.612 -24.284 -14.841  1.00  0.00     0.202 C 
BRANCH  12  16
ATOM     16  O   UNL     1     -24.816 -26.498 -17.317  1.00  0.00    -0.388 OA
ATOM     17  H   UNL     1     -24.101 -25.827 -17.601  1.00  0.00     0.211 HD
ENDBRANCH  12  16
BRANCH  14  18
ATOM     18  O   UNL     1     -23.260 -26.264 -14.041  1.00  0.00    -0.387 OA
ATOM     19  H   UNL     1     -22.838 -25.754 -13.354  1.00  0.00     0.211 HD
ENDBRANCH  14  18
BRANCH  15  20
ATOM     20  O   UNL     1     -25.331 -23.804 -15.952  1.00  0.00    -0.385 OA
ATOM     21  H   UNL     1     -26.387 -23.782 -15.922  1.00  0.00     0.211 HD
ENDBRANCH  15  20
ENDBRANCH   8   9
ENDBRANCH   7   8
ENDBRANCH   1   7
BRANCH   2  22
ATOM     22  O   UNL     1     -21.001 -23.766 -12.965  1.00  0.00    -0.387 OA
ATOM     23  H   UNL     1     -21.020 -24.339 -12.149  1.00  0.00     0.211 HD
ENDBRANCH   2  22
BRANCH   3  24
ATOM     24  O   UNL     1     -20.411 -21.422 -13.240  1.00  0.00    -0.387 OA
ATOM     25  H   UNL     1     -20.359 -21.891 -12.343  1.00  0.00     0.211 HD
ENDBRANCH   3  24
BRANCH   5  26
ATOM     26  O   UNL     1     -23.373 -19.442 -11.595  1.00  0.00    -0.454 OA
BRANCH  26  27
ATOM     27  C   UNL     1     -24.143 -18.526 -12.387  1.00  0.00     0.214 A 
ATOM     28  C   UNL     1     -25.209 -18.934 -13.228  1.00  0.00     0.180 A 
ATOM     29  C   UNL     1     -24.006 -17.098 -12.302  1.00  0.00     0.239 A 
ATOM     30  O   UNL     1     -25.559 -18.247 -14.289  1.00  0.00    -0.452 OA
ATOM     31  C   UNL     1     -23.988 -16.559 -13.632  1.00  0.00     0.111 A 
ATOM     32  O   UNL     1     -24.894 -16.560 -11.618  1.00  0.00    -0.285 OA
ATOM     33  C   UNL     1     -24.825 -17.132 -14.606  1.00  0.00     0.146 A 
ATOM     34  C   UNL     1     -23.102 -15.518 -14.014  1.00  0.00     0.134 A 
ATOM     35  C   UNL     1     -25.043 -16.465 -15.801  1.00  0.00     0.094 A 
ATOM     36  C   UNL     1     -23.357 -14.802 -15.196  1.00  0.00     0.093 A 
ATOM     37  C   UNL     1     -24.363 -15.246 -16.040  1.00  0.00     0.123 A 
BRANCH  28  38
ATOM     38  C   UNL     1     -26.066 -20.088 -12.864  1.00  0.00     0.025 A 
ATOM     39  C   UNL     1     -26.372 -21.093 -13.772  1.00  0.00     0.062 A 
ATOM     40  C   UNL     1     -26.870 -19.955 -11.708  1.00  0.00     0.016 A 
ATOM     41  C   UNL     1     -27.178 -22.144 -13.334  1.00  0.00     0.158 A 
ATOM     42  C   UNL     1     -27.434 -21.088 -11.110  1.00  0.00     0.051 A 
ATOM     43  C   UNL     1     -27.579 -22.181 -11.969  1.00  0.00     0.157 A 
BRANCH  41  44
ATOM     44  O   UNL     1     -27.579 -23.079 -14.264  1.00  0.00    -0.504 OA
ATOM     45  H   UNL     1     -26.938 -23.561 -14.888  1.00  0.00     0.293 HD
ENDBRANCH  41  44
BRANCH  43  46
ATOM     46  O   UNL     1     -28.281 -23.324 -11.521  1.00  0.00    -0.504 OA
ATOM     47  H   UNL     1     -29.194 -23.595 -11.864  1.00  0.00     0.293 HD
ENDBRANCH  43  46
ENDBRANCH  28  38
BRANCH  34  48
ATOM     48  O   UNL     1     -22.098 -15.040 -13.176  1.00  0.00    -0.507 OA
ATOM     49  H   UNL     1     -21.204 -14.765 -13.585  1.00  0.00     0.293 HD
ENDBRANCH  34  48
BRANCH  37  50
ATOM     50  O   UNL     1     -24.658 -14.547 -17.231  1.00  0.00    -0.508 OA
ATOM     51  H   UNL     1     -24.407 -13.570 -17.323  1.00  0.00     0.293 HD
ENDBRANCH  37  50
ENDBRANCH  26  27
ENDBRANCH   5  26
BRANCH   4  52
ATOM     52  O   UNL     1     -22.065 -19.195 -13.878  1.00  0.00    -0.384 OA
ATOM     53  H   UNL     1     -22.785 -18.456 -13.915  1.00  0.00     0.211 HD
ENDBRANCH   4  52
TORSDOF 16
ENDMDL
MODEL 4
REMARK VINA RESULT:     5.785      1.387      1.999
REMARK INTER + INTRA:           9.309
REMARK INTER:                  10.160
REMARK INTRA:                  -0.851
REMARK UNBOUND:                -0.195
REMARK SMILES C[C@@H]1O[C@H](OC[C@@H]2O[C@H](Oc3c(-c4ccc(O)c(O)c4)oc4cc(O)cc(O)c4c3=O)[C@@H](O)[C@@H](O)[C@H]2O)[C@H](O)[C@@H](O)[C@@H]1O
REMARK SMILES IDX 7 1 36 2 34 3 32 4 9 5 8 6 6 7 5 8 4 9 1 10 2 11 42 12 3 13
REMARK SMILES IDX 40 14 38 15 43 16 41 18 39 20 37 22 35 24 10 26 11 27 12 28
REMARK SMILES IDX 30 29 21 30 29 31 31 32 22 33 27 34 23 35 26 36 24 37 13 38
REMARK SMILES IDX 20 39 14 40 18 41 15 42 16 43 19 44 17 46 28 48 25 50 33 52
REMARK H PARENT 43 17 41 19 39 21 37 23 35 25 19 45 17 47 28 49 25 51 33 53
REMARK Flexibility Score: inf
ROOT
ATOM      1  C   UNL     1     -24.071 -16.942 -13.615  1.00  0.00     0.180 C 
ATOM      2  C   UNL     1     -23.692 -16.977 -15.136  1.00  0.00     0.177 C 
ATOM      3  C   UNL     1     -24.613 -17.918 -16.004  1.00  0.00     0.180 C 
ATOM      4  C   UNL     1     -25.114 -19.205 -15.200  1.00  0.00     0.214 C 
ATOM      5  C   UNL     1     -25.825 -18.458 -13.953  1.00  0.00     0.339 C 
ATOM      6  O   UNL     1     -24.862 -17.929 -13.058  1.00  0.00    -0.332 OA
ENDROOT
BRANCH   1   7
ATOM      7  C   UNL     1     -23.103 -16.436 -12.490  1.00  0.00     0.198 C 
BRANCH   7   8
ATOM      8  O   UNL     1     -22.439 -15.082 -12.347  1.00  0.00    -0.347 OA
BRANCH   8   9
ATOM      9  C   UNL     1     -21.004 -15.102 -12.578  1.00  0.00     0.281 C 
ATOM     10  C   UNL     1     -18.013 -17.497 -14.016  1.00  0.00     0.041 C 
ATOM     11  C   UNL     1     -18.876 -16.475 -13.042  1.00  0.00     0.150 C 
ATOM     12  C   UNL     1     -18.121 -15.167 -12.269  1.00  0.00     0.174 C 
ATOM     13  O   UNL     1     -20.374 -16.462 -12.828  1.00  0.00    -0.344 OA
ATOM     14  C   UNL     1     -19.000 -13.875 -12.014  1.00  0.00     0.179 C 
ATOM     15  C   UNL     1     -20.147 -13.875 -13.192  1.00  0.00     0.202 C 
BRANCH  12  16
ATOM     16  O   UNL     1     -16.975 -14.870 -13.043  1.00  0.00    -0.388 OA
ATOM     17  H   UNL     1     -16.129 -15.140 -12.540  1.00  0.00     0.211 HD
ENDBRANCH  12  16
BRANCH  14  18
ATOM     18  O   UNL     1     -19.614 -13.944 -10.722  1.00  0.00    -0.387 OA
ATOM     19  H   UNL     1     -19.568 -13.221 -10.102  1.00  0.00     0.211 HD
ENDBRANCH  14  18
BRANCH  15  20
ATOM     20  O   UNL     1     -19.562 -14.046 -14.461  1.00  0.00    -0.385 OA
ATOM     21  H   UNL     1     -19.257 -13.200 -15.014  1.00  0.00     0.211 HD
ENDBRANCH  15  20
ENDBRANCH   8   9
ENDBRANCH   7   8
ENDBRANCH   1   7
BRANCH   2  22
ATOM     22  O   UNL     1     -24.071 -15.715 -15.754  1.00  0.00    -0.387 OA
ATOM     23  H   UNL     1     -24.698 -15.746 -16.529  1.00  0.00     0.211 HD
ENDBRANCH   2  22
BRANCH   3  24
ATOM     24  O   UNL     1     -25.783 -17.288 -16.469  1.00  0.00    -0.387 OA
ATOM     25  H   UNL     1     -26.446 -17.196 -15.708  1.00  0.00     0.211 HD
ENDBRANCH   3  24
BRANCH   5  26
ATOM     26  O   UNL     1     -26.638 -19.372 -13.255  1.00  0.00    -0.454 OA
BRANCH  26  27
ATOM     27  C   UNL     1     -26.215 -20.677 -12.835  1.00  0.00     0.214 A 
ATOM     28  C   UNL     1     -25.356 -20.895 -11.728  1.00  0.00     0.180 A 
ATOM     29  C   UNL     1     -26.727 -21.895 -13.400  1.00  0.00     0.239 A 
ATOM     30  O   UNL     1     -24.581 -21.950 -11.647  1.00  0.00    -0.452 OA
ATOM     31  C   UNL     1     -25.630 -22.789 -13.634  1.00  0.00     0.111 A 
ATOM     32  O   UNL     1     -27.597 -22.436 -12.694  1.00  0.00    -0.285 OA
ATOM     33  C   UNL     1     -24.580 -22.830 -12.699  1.00  0.00     0.146 A 
ATOM     34  C   UNL     1     -25.534 -23.577 -14.810  1.00  0.00     0.134 A 
ATOM     35  C   UNL     1     -23.664 -23.870 -12.743  1.00  0.00     0.094 A 
ATOM     36  C   UNL     1     -24.647 -24.668 -14.833  1.00  0.00     0.093 A 
ATOM     37  C   UNL     1     -23.770 -24.836 -13.773  1.00  0.00     0.123 A 
BRANCH  28  38
ATOM     38  C   UNL     1     -25.398 -20.002 -10.545  1.00  0.00     0.025 A 
ATOM     39  C   UNL     1     -26.396 -19.050 -10.377  1.00  0.00     0.062 A 
ATOM     40  C   UNL     1     -24.211 -19.875  -9.788  1.00  0.00     0.016 A 
ATOM     41  C   UNL     1     -26.359 -18.263  -9.227  1.00  0.00     0.158 A 
ATOM     42  C   UNL     1     -24.255 -19.341  -8.495  1.00  0.00     0.051 A 
ATOM     43  C   UNL     1     -25.360 -18.522  -8.247  1.00  0.00     0.157 A 
BRANCH  41  44
ATOM     44  O   UNL     1     -27.277 -17.240  -9.116  1.00  0.00    -0.504 OA
ATOM     45  H   UNL     1     -27.976 -17.034  -9.823  1.00  0.00     0.293 HD
ENDBRANCH  41  44
BRANCH  43  46
ATOM     46  O   UNL     1     -25.427 -17.802  -7.033  1.00  0.00    -0.504 OA
ATOM     47  H   UNL     1     -24.782 -17.932  -6.263  1.00  0.00     0.293 HD
ENDBRANCH  43  46
ENDBRANCH  28  38
BRANCH  34  48
ATOM     48  O   UNL     1     -26.416 -23.443 -15.879  1.00  0.00    -0.507 OA
ATOM     49  H   UNL     1     -26.528 -22.525 -16.312  1.00  0.00     0.293 HD
ENDBRANCH  34  48
BRANCH  37  50
ATOM     50  O   UNL     1     -22.873 -25.926 -13.752  1.00  0.00    -0.508 OA
ATOM     51  H   UNL     1     -23.226 -26.875 -13.761  1.00  0.00     0.293 HD
ENDBRANCH  37  50
ENDBRANCH  26  27
ENDBRANCH   5  26
BRANCH   4  52
ATOM     52  O   UNL     1     -26.143 -20.024 -15.767  1.00  0.00    -0.384 OA
ATOM     53  H   UNL     1     -26.073 -21.026 -15.528  1.00  0.00     0.211 HD
ENDBRANCH   4  52
TORSDOF 16
ENDMDL
MODEL 5
REMARK VINA RESULT:     6.047      3.375      9.994
REMARK INTER + INTRA:           9.740
REMARK INTER:                  11.042
REMARK INTRA:                  -1.302
REMARK UNBOUND:                -0.195
REMARK SMILES C[C@@H]1O[C@H](OC[C@@H]2O[C@H](Oc3c(-c4ccc(O)c(O)c4)oc4cc(O)cc(O)c4c3=O)[C@@H](O)[C@@H](O)[C@H]2O)[C@H](O)[C@@H](O)[C@@H]1O
REMARK SMILES IDX 7 1 36 2 34 3 32 4 9 5 8 6 6 7 5 8 4 9 1 10 2 11 42 12 3 13
REMARK SMILES IDX 40 14 38 15 43 16 41 18 39 20 37 22 35 24 10 26 11 27 12 28
REMARK SMILES IDX 30 29 21 30 29 31 31 32 22 33 27 34 23 35 26 36 24 37 13 38
REMARK SMILES IDX 20 39 14 40 18 41 15 42 16 43 19 44 17 46 28 48 25 50 33 52
REMARK H PARENT 43 17 41 19 39 21 37 23 35 25 19 45 17 47 28 49 25 51 33 53
REMARK Flexibility Score: inf
ROOT
ATOM      1  C   UNL     1     -24.204 -24.453 -13.861  1.00  0.00     0.180 C 
ATOM      2  C   UNL     1     -23.311 -24.793 -12.618  1.00  0.00     0.177 C 
ATOM      3  C   UNL     1     -22.608 -23.539 -11.973  1.00  0.00     0.180 C 
ATOM      4  C   UNL     1     -22.215 -22.427 -13.051  1.00  0.00     0.214 C 
ATOM      5  C   UNL     1     -23.679 -22.177 -13.694  1.00  0.00     0.339 C 
ATOM      6  O   UNL     1     -24.060 -23.254 -14.532  1.00  0.00    -0.332 OA
ENDROOT
BRANCH   1   7
ATOM      7  C   UNL     1     -24.671 -25.518 -14.914  1.00  0.00     0.198 C 
BRANCH   7   8
ATOM      8  O   UNL     1     -25.772 -25.411 -15.949  1.00  0.00    -0.347 OA
BRANCH   8   9
ATOM      9  C   UNL     1     -26.599 -26.603 -16.054  1.00  0.00     0.281 C 
ATOM     10  C   UNL     1     -27.011 -30.048 -18.225  1.00  0.00     0.041 C 
ATOM     11  C   UNL     1     -27.360 -28.628 -17.449  1.00  0.00     0.150 C 
ATOM     12  C   UNL     1     -28.768 -28.470 -16.517  1.00  0.00     0.174 C 
ATOM     13  O   UNL     1     -26.477 -27.404 -17.339  1.00  0.00    -0.344 OA
ATOM     14  C   UNL     1     -28.702 -27.496 -15.271  1.00  0.00     0.179 C 
ATOM     15  C   UNL     1     -27.128 -27.477 -14.800  1.00  0.00     0.202 C 
BRANCH  12  16
ATOM     16  O   UNL     1     -29.124 -29.784 -16.129  1.00  0.00    -0.388 OA
ATOM     17  H   UNL     1     -29.833 -29.756 -15.395  1.00  0.00     0.211 HD
ENDBRANCH  12  16
BRANCH  14  18
ATOM     18  O   UNL     1     -29.124 -26.181 -15.651  1.00  0.00    -0.387 OA
ATOM     19  H   UNL     1     -28.513 -25.530 -15.985  1.00  0.00     0.211 HD
ENDBRANCH  14  18
BRANCH  15  20
ATOM     20  O   UNL     1     -26.633 -28.787 -14.651  1.00  0.00    -0.385 OA
ATOM     21  H   UNL     1     -26.423 -29.367 -15.507  1.00  0.00     0.211 HD
ENDBRANCH  15  20
ENDBRANCH   8   9
ENDBRANCH   7   8
ENDBRANCH   1   7
BRANCH   2  22
ATOM     22  O   UNL     1     -24.167 -25.136 -11.492  1.00  0.00    -0.387 OA
ATOM     23  H   UNL     1     -25.104 -25.412 -11.688  1.00  0.00     0.211 HD
ENDBRANCH   2  22
BRANCH   3  24
ATOM     24  O   UNL     1     -23.405 -22.874 -11.022  1.00  0.00    -0.387 OA
ATOM     25  H   UNL     1     -24.129 -23.499 -10.686  1.00  0.00     0.211 HD
ENDBRANCH   3  24
BRANCH   5  26
ATOM     26  O   UNL     1     -23.665 -20.992 -14.457  1.00  0.00    -0.454 OA
BRANCH  26  27
ATOM     27  C   UNL     1     -24.270 -19.758 -14.050  1.00  0.00     0.214 A 
ATOM     28  C   UNL     1     -25.657 -19.626 -13.780  1.00  0.00     0.180 A 
ATOM     29  C   UNL     1     -23.520 -18.573 -13.739  1.00  0.00     0.239 A 
ATOM     30  O   UNL     1     -26.284 -18.482 -13.914  1.00  0.00    -0.452 OA
ATOM     31  C   UNL     1     -24.166 -17.447 -14.351  1.00  0.00     0.111 A 
ATOM     32  O   UNL     1     -23.375 -18.389 -12.518  1.00  0.00    -0.285 OA
ATOM     33  C   UNL     1     -25.572 -17.407 -14.379  1.00  0.00     0.146 A 
ATOM     34  C   UNL     1     -23.436 -16.412 -14.993  1.00  0.00     0.134 A 
ATOM     35  C   UNL     1     -26.217 -16.222 -14.697  1.00  0.00     0.094 A 
ATOM     36  C   UNL     1     -24.075 -15.189 -15.261  1.00  0.00     0.093 A 
ATOM     37  C   UNL     1     -25.441 -15.091 -15.050  1.00  0.00     0.123 A 
BRANCH  28  38
ATOM     38  C   UNL     1     -26.429 -20.751 -13.201  1.00  0.00     0.025 A 
ATOM     39  C   UNL     1     -26.767 -21.873 -13.948  1.00  0.00     0.062 A 
ATOM     40  C   UNL     1     -27.136 -20.499 -12.003  1.00  0.00     0.016 A 
ATOM     41  C   UNL     1     -27.486 -22.885 -13.313  1.00  0.00     0.158 A 
ATOM     42  C   UNL     1     -27.598 -21.566 -11.222  1.00  0.00     0.051 A 
ATOM     43  C   UNL     1     -27.768 -22.763 -11.924  1.00  0.00     0.157 A 
BRANCH  41  44
ATOM     44  O   UNL     1     -27.925 -23.943 -14.081  1.00  0.00    -0.504 OA
ATOM     45  H   UNL     1     -27.692 -24.913 -13.888  1.00  0.00     0.293 HD
ENDBRANCH  41  44
BRANCH  43  46
ATOM     46  O   UNL     1     -28.379 -23.861 -11.277  1.00  0.00    -0.504 OA
ATOM     47  H   UNL     1     -27.930 -24.413 -10.557  1.00  0.00     0.293 HD
ENDBRANCH  43  46
ENDBRANCH  28  38
BRANCH  34  48
ATOM     48  O   UNL     1     -22.061 -16.478 -15.196  1.00  0.00    -0.507 OA
ATOM     49  H   UNL     1     -21.571 -17.346 -14.973  1.00  0.00     0.293 HD
ENDBRANCH  34  48
BRANCH  37  50
ATOM     50  O   UNL     1     -26.117 -13.875 -15.295  1.00  0.00    -0.508 OA
ATOM     51  H   UNL     1     -27.082 -13.764 -15.010  1.00  0.00     0.293 HD
ENDBRANCH  37  50
ENDBRANCH  26  27
ENDBRANCH   5  26
BRANCH   4  52
ATOM     52  O   UNL     1     -21.792 -21.135 -12.598  1.00  0.00    -0.384 OA
ATOM     53  H   UNL     1     -20.791 -20.937 -12.747  1.00  0.00     0.211 HD
ENDBRANCH   4  52
TORSDOF 16
ENDMDL
MODEL 6
REMARK VINA RESULT:     6.138      2.930      5.762
REMARK INTER + INTRA:           9.889
REMARK INTER:                  10.888
REMARK INTRA:                  -0.999
REMARK UNBOUND:                -0.195
REMARK SMILES C[C@@H]1O[C@H](OC[C@@H]2O[C@H](Oc3c(-c4ccc(O)c(O)c4)oc4cc(O)cc(O)c4c3=O)[C@@H](O)[C@@H](O)[C@H]2O)[C@H](O)[C@@H](O)[C@@H]1O
REMARK SMILES IDX 7 1 36 2 34 3 32 4 9 5 8 6 6 7 5 8 4 9 1 10 2 11 42 12 3 13
REMARK SMILES IDX 40 14 38 15 43 16 41 18 39 20 37 22 35 24 10 26 11 27 12 28
REMARK SMILES IDX 30 29 21 30 29 31 31 32 22 33 27 34 23 35 26 36 24 37 13 38
REMARK SMILES IDX 20 39 14 40 18 41 15 42 16 43 19 44 17 46 28 48 25 50 33 52
REMARK H PARENT 43 17 41 19 39 21 37 23 35 25 19 45 17 47 28 49 25 51 33 53
REMARK Flexibility Score: inf
ROOT
ATOM      1  C   UNL     1     -26.344 -19.626 -13.327  1.00  0.00     0.180 C 
ATOM      2  C   UNL     1     -26.133 -19.474 -11.781  1.00  0.00     0.177 C 
ATOM      3  C   UNL     1     -26.279 -20.823 -10.980  1.00  0.00     0.180 C 
ATOM      4  C   UNL     1     -27.363 -21.808 -11.619  1.00  0.00     0.214 C 
ATOM      5  C   UNL     1     -26.744 -21.923 -13.111  1.00  0.00     0.339 C 
ATOM      6  O   UNL     1     -26.975 -20.738 -13.852  1.00  0.00    -0.332 OA
ENDROOT
BRANCH   1   7
ATOM      7  C   UNL     1     -26.659 -18.423 -14.284  1.00  0.00     0.198 C 
BRANCH   7   8
ATOM      8  O   UNL     1     -26.564 -16.937 -14.004  1.00  0.00    -0.347 OA
BRANCH   8   9
ATOM      9  C   UNL     1     -25.371 -16.310 -14.549  1.00  0.00     0.281 C 
ATOM     10  C   UNL     1     -23.855 -14.760 -18.020  1.00  0.00     0.041 C 
ATOM     11  C   UNL     1     -24.001 -15.631 -16.620  1.00  0.00     0.150 C 
ATOM     12  C   UNL     1     -22.700 -15.767 -15.541  1.00  0.00     0.174 C 
ATOM     13  O   UNL     1     -25.259 -16.263 -16.063  1.00  0.00    -0.344 OA
ATOM     14  C   UNL     1     -23.052 -15.909 -14.004  1.00  0.00     0.179 C 
ATOM     15  C   UNL     1     -24.503 -15.165 -13.805  1.00  0.00     0.202 C 
BRANCH  12  16
ATOM     16  O   UNL     1     -21.879 -14.640 -15.782  1.00  0.00    -0.388 OA
ATOM     17  H   UNL     1     -21.214 -14.842 -16.530  1.00  0.00     0.211 HD
ENDBRANCH  12  16
BRANCH  14  18
ATOM     18  O   UNL     1     -23.148 -17.293 -13.647  1.00  0.00    -0.387 OA
ATOM     19  H   UNL     1     -23.876 -17.839 -13.932  1.00  0.00     0.211 HD
ENDBRANCH  14  18
BRANCH  15  20
ATOM     20  O   UNL     1     -24.487 -13.876 -14.369  1.00  0.00    -0.385 OA
ATOM     21  H   UNL     1     -25.234 -13.179 -14.103  1.00  0.00     0.211 HD
ENDBRANCH  15  20
ENDBRANCH   8   9
ENDBRANCH   7   8
ENDBRANCH   1   7
BRANCH   2  22
ATOM     22  O   UNL     1     -24.722 -19.241 -11.511  1.00  0.00    -0.387 OA
ATOM     23  H   UNL     1     -24.455 -19.048 -10.570  1.00  0.00     0.211 HD
ENDBRANCH   2  22
BRANCH   3  24
ATOM     24  O   UNL     1     -25.088 -21.571 -10.912  1.00  0.00    -0.387 OA
ATOM     25  H   UNL     1     -24.333 -20.980 -10.581  1.00  0.00     0.211 HD
ENDBRANCH   3  24
BRANCH   5  26
ATOM     26  O   UNL     1     -27.342 -23.004 -13.788  1.00  0.00    -0.454 OA
BRANCH  26  27
ATOM     27  C   UNL     1     -26.621 -24.119 -14.332  1.00  0.00     0.214 A 
ATOM     28  C   UNL     1     -25.373 -23.987 -14.994  1.00  0.00     0.180 A 
ATOM     29  C   UNL     1     -27.016 -25.486 -14.140  1.00  0.00     0.239 A 
ATOM     30  O   UNL     1     -24.974 -24.846 -15.902  1.00  0.00    -0.452 OA
ATOM     31  C   UNL     1     -26.903 -26.176 -15.393  1.00  0.00     0.111 A 
ATOM     32  O   UNL     1     -26.363 -26.067 -13.255  1.00  0.00    -0.285 OA
ATOM     33  C   UNL     1     -25.827 -25.864 -16.243  1.00  0.00     0.146 A 
ATOM     34  C   UNL     1     -27.879 -27.108 -15.835  1.00  0.00     0.134 A 
ATOM     35  C   UNL     1     -25.530 -26.700 -17.309  1.00  0.00     0.094 A 
ATOM     36  C   UNL     1     -27.556 -27.996 -16.876  1.00  0.00     0.093 A 
ATOM     37  C   UNL     1     -26.361 -27.819 -17.555  1.00  0.00     0.123 A 
BRANCH  28  38
ATOM     38  C   UNL     1     -24.403 -22.943 -14.586  1.00  0.00     0.025 A 
ATOM     39  C   UNL     1     -24.467 -21.645 -15.079  1.00  0.00     0.062 A 
ATOM     40  C   UNL     1     -23.197 -23.379 -13.991  1.00  0.00     0.016 A 
ATOM     41  C   UNL     1     -23.517 -20.729 -14.629  1.00  0.00     0.158 A 
ATOM     42  C   UNL     1     -22.396 -22.476 -13.280  1.00  0.00     0.051 A 
ATOM     43  C   UNL     1     -22.584 -21.138 -13.635  1.00  0.00     0.157 A 
BRANCH  41  44
ATOM     44  O   UNL     1     -23.506 -19.476 -15.204  1.00  0.00    -0.504 OA
ATOM     45  H   UNL     1     -23.516 -19.319 -16.208  1.00  0.00     0.293 HD
ENDBRANCH  41  44
BRANCH  43  46
ATOM     46  O   UNL     1     -21.721 -20.154 -13.100  1.00  0.00    -0.504 OA
ATOM     47  H   UNL     1     -21.099 -20.315 -12.317  1.00  0.00     0.293 HD
ENDBRANCH  43  46
ENDBRANCH  28  38
BRANCH  34  48
ATOM     48  O   UNL     1     -29.077 -27.319 -15.157  1.00  0.00    -0.507 OA
ATOM     49  H   UNL     1     -29.943 -27.373 -15.694  1.00  0.00     0.293 HD
ENDBRANCH  34  48
BRANCH  37  50
ATOM     50  O   UNL     1     -25.995 -28.698 -18.599  1.00  0.00    -0.508 OA
ATOM     51  H   UNL     1     -26.464 -29.589 -18.701  1.00  0.00     0.293 HD
ENDBRANCH  37  50
ENDBRANCH  26  27
ENDBRANCH   5  26
BRANCH   4  52
ATOM     52  O   UNL     1     -27.437 -23.160 -11.152  1.00  0.00    -0.384 OA
ATOM     53  H   UNL     1     -28.219 -23.347 -10.504  1.00  0.00     0.211 HD
ENDBRANCH   4  52
TORSDOF 16
ENDMDL
MODEL 7
REMARK VINA RESULT:     6.529      2.660      5.198
REMARK INTER + INTRA:          10.532
REMARK INTER:                   9.245
REMARK INTRA:                   1.288
REMARK UNBOUND:                -0.195
REMARK SMILES C[C@@H]1O[C@H](OC[C@@H]2O[C@H](Oc3c(-c4ccc(O)c(O)c4)oc4cc(O)cc(O)c4c3=O)[C@@H](O)[C@@H](O)[C@H]2O)[C@H](O)[C@@H](O)[C@@H]1O
REMARK SMILES IDX 7 1 36 2 34 3 32 4 9 5 8 6 6 7 5 8 4 9 1 10 2 11 42 12 3 13
REMARK SMILES IDX 40 14 38 15 43 16 41 18 39 20 37 22 35 24 10 26 11 27 12 28
REMARK SMILES IDX 30 29 21 30 29 31 31 32 22 33 27 34 23 35 26 36 24 37 13 38
REMARK SMILES IDX 20 39 14 40 18 41 15 42 16 43 19 44 17 46 28 48 25 50 33 52
REMARK H PARENT 43 17 41 19 39 21 37 23 35 25 19 45 17 47 28 49 25 51 33 53
REMARK Flexibility Score: inf
ROOT
ATOM      1  C   UNL     1     -24.166 -20.370 -14.325  1.00  0.00     0.180 C 
ATOM      2  C   UNL     1     -23.069 -19.794 -13.364  1.00  0.00     0.177 C 
ATOM      3  C   UNL     1     -22.222 -20.899 -12.625  1.00  0.00     0.180 C 
ATOM      4  C   UNL     1     -23.071 -22.211 -12.293  1.00  0.00     0.214 C 
ATOM      5  C   UNL     1     -23.568 -22.571 -13.791  1.00  0.00     0.339 C 
ATOM      6  O   UNL     1     -24.586 -21.682 -14.218  1.00  0.00    -0.332 OA
ENDROOT
BRANCH   1   7
ATOM      7  C   UNL     1     -25.386 -19.536 -14.851  1.00  0.00     0.198 C 
BRANCH   7   8
ATOM      8  O   UNL     1     -25.900 -18.196 -14.365  1.00  0.00    -0.347 OA
BRANCH   8   9
ATOM      9  C   UNL     1     -24.964 -17.101 -14.559  1.00  0.00     0.281 C 
ATOM     10  C   UNL     1     -21.270 -15.783 -13.389  1.00  0.00     0.041 C 
ATOM     11  C   UNL     1     -22.887 -15.819 -13.740  1.00  0.00     0.150 C 
ATOM     12  C   UNL     1     -23.630 -14.526 -14.550  1.00  0.00     0.174 C 
ATOM     13  O   UNL     1     -23.841 -16.978 -13.543  1.00  0.00    -0.344 OA
ATOM     14  C   UNL     1     -24.857 -14.873 -15.487  1.00  0.00     0.179 C 
ATOM     15  C   UNL     1     -24.617 -16.421 -15.985  1.00  0.00     0.202 C 
BRANCH  12  16
ATOM     16  O   UNL     1     -22.598 -13.875 -15.267  1.00  0.00    -0.388 OA
ATOM     17  H   UNL     1     -22.472 -14.312 -16.181  1.00  0.00     0.211 HD
ENDBRANCH  12  16
BRANCH  14  18
ATOM     18  O   UNL     1     -26.082 -14.771 -14.752  1.00  0.00    -0.387 OA
ATOM     19  H   UNL     1     -26.223 -14.094 -14.096  1.00  0.00     0.211 HD
ENDBRANCH  14  18
BRANCH  15  20
ATOM     20  O   UNL     1     -23.317 -16.586 -16.499  1.00  0.00    -0.385 OA
ATOM     21  H   UNL     1     -23.143 -17.293 -17.263  1.00  0.00     0.211 HD
ENDBRANCH  15  20
ENDBRANCH   8   9
ENDBRANCH   7   8
ENDBRANCH   1   7
BRANCH   2  22
ATOM     22  O   UNL     1     -21.991 -19.221 -14.155  1.00  0.00    -0.387 OA
ATOM     23  H   UNL     1     -22.235 -18.737 -14.992  1.00  0.00     0.211 HD
ENDBRANCH   2  22
BRANCH   3  24
ATOM     24  O   UNL     1     -21.113 -21.349 -13.367  1.00  0.00    -0.387 OA
ATOM     25  H   UNL     1     -20.985 -20.757 -14.180  1.00  0.00     0.211 HD
ENDBRANCH   3  24
BRANCH   5  26
ATOM     26  O   UNL     1     -24.074 -23.885 -13.818  1.00  0.00    -0.454 OA
BRANCH  26  27
ATOM     27  C   UNL     1     -25.306 -24.268 -14.446  1.00  0.00     0.214 A 
ATOM     28  C   UNL     1     -26.561 -24.215 -13.788  1.00  0.00     0.180 A 
ATOM     29  C   UNL     1     -25.412 -24.607 -15.838  1.00  0.00     0.239 A 
ATOM     30  O   UNL     1     -27.556 -24.999 -14.127  1.00  0.00    -0.452 OA
ATOM     31  C   UNL     1     -26.228 -25.780 -15.963  1.00  0.00     0.111 A 
ATOM     32  O   UNL     1     -25.860 -23.680 -16.536  1.00  0.00    -0.285 OA
ATOM     33  C   UNL     1     -27.339 -25.927 -15.113  1.00  0.00     0.146 A 
ATOM     34  C   UNL     1     -25.909 -26.831 -16.864  1.00  0.00     0.134 A 
ATOM     35  C   UNL     1     -28.297 -26.888 -15.396  1.00  0.00     0.094 A 
ATOM     36  C   UNL     1     -26.899 -27.772 -17.196  1.00  0.00     0.093 A 
ATOM     37  C   UNL     1     -28.100 -27.748 -16.504  1.00  0.00     0.123 A 
BRANCH  28  38
ATOM     38  C   UNL     1     -26.845 -23.170 -12.775  1.00  0.00     0.025 A 
ATOM     39  C   UNL     1     -27.517 -23.454 -11.593  1.00  0.00     0.062 A 
ATOM     40  C   UNL     1     -26.762 -21.823 -13.197  1.00  0.00     0.016 A 
ATOM     41  C   UNL     1     -27.729 -22.407 -10.696  1.00  0.00     0.158 A 
ATOM     42  C   UNL     1     -26.677 -20.794 -12.251  1.00  0.00     0.051 A 
ATOM     43  C   UNL     1     -27.183 -21.127 -10.991  1.00  0.00     0.157 A 
BRANCH  41  44
ATOM     44  O   UNL     1     -28.496 -22.661  -9.580  1.00  0.00    -0.504 OA
ATOM     45  H   UNL     1     -29.399 -23.125  -9.612  1.00  0.00     0.293 HD
ENDBRANCH  41  44
BRANCH  43  46
ATOM     46  O   UNL     1     -27.296 -20.120 -10.005  1.00  0.00    -0.504 OA
ATOM     47  H   UNL     1     -27.688 -19.203 -10.178  1.00  0.00     0.293 HD
ENDBRANCH  43  46
ENDBRANCH  28  38
BRANCH  34  48
ATOM     48  O   UNL     1     -24.720 -26.866 -17.587  1.00  0.00    -0.507 OA
ATOM     49  H   UNL     1     -24.161 -27.719 -17.574  1.00  0.00     0.293 HD
ENDBRANCH  34  48
BRANCH  37  50
ATOM     50  O   UNL     1     -29.125 -28.668 -16.817  1.00  0.00    -0.508 OA
ATOM     51  H   UNL     1     -28.891 -29.593 -17.154  1.00  0.00     0.293 HD
ENDBRANCH  37  50
ENDBRANCH  26  27
ENDBRANCH   5  26
BRANCH   4  52
ATOM     52  O   UNL     1     -22.389 -23.389 -11.845  1.00  0.00    -0.384 OA
ATOM     53  H   UNL     1     -22.590 -23.653 -10.868  1.00  0.00     0.211 HD
ENDBRANCH   4  52
TORSDOF 16
ENDMDL
MODEL 8
REMARK VINA RESULT:     6.775      3.202      8.777
REMARK INTER + INTRA:          10.937
REMARK INTER:                   9.988
REMARK INTRA:                   0.948
REMARK UNBOUND:                -0.195
REMARK SMILES C[C@@H]1O[C@H](OC[C@@H]2O[C@H](Oc3c(-c4ccc(O)c(O)c4)oc4cc(O)cc(O)c4c3=O)[C@@H](O)[C@@H](O)[C@H]2O)[C@H](O)[C@@H](O)[C@@H]1O
REMARK SMILES IDX 7 1 36 2 34 3 32 4 9 5 8 6 6 7 5 8 4 9 1 10 2 11 42 12 3 13
REMARK SMILES IDX 40 14 38 15 43 16 41 18 39 20 37 22 35 24 10 26 11 27 12 28
REMARK SMILES IDX 30 29 21 30 29 31 31 32 22 33 27 34 23 35 26 36 24 37 13 38
REMARK SMILES IDX 20 39 14 40 18 41 15 42 16 43 19 44 17 46 28 48 25 50 33 52
REMARK H PARENT 43 17 41 19 39 21 37 23 35 25 19 45 17 47 28 49 25 51 33 53
REMARK Flexibility Score: inf
ROOT
ATOM      1  C   UNL     1     -26.898 -21.063 -12.007  1.00  0.00     0.180 C 
ATOM      2  C   UNL     1     -26.781 -21.671 -10.567  1.00  0.00     0.177 C 
ATOM      3  C   UNL     1     -26.042 -20.737  -9.535  1.00  0.00     0.180 C 
ATOM      4  C   UNL     1     -24.886 -19.864 -10.209  1.00  0.00     0.214 C 
ATOM      5  C   UNL     1     -25.766 -19.122 -11.347  1.00  0.00     0.339 C 
ATOM      6  O   UNL     1     -26.093 -20.010 -12.400  1.00  0.00    -0.332 OA
ENDROOT
BRANCH   1   7
ATOM      7  C   UNL     1     -27.203 -21.915 -13.289  1.00  0.00     0.198 C 
BRANCH   7   8
ATOM      8  O   UNL     1     -27.607 -23.371 -13.387  1.00  0.00    -0.347 OA
BRANCH   8   9
ATOM      9  C   UNL     1     -26.668 -24.194 -14.133  1.00  0.00     0.281 C 
ATOM     10  C   UNL     1     -26.514 -27.016 -17.093  1.00  0.00     0.041 C 
ATOM     11  C   UNL     1     -26.266 -26.227 -15.659  1.00  0.00     0.150 C 
ATOM     12  C   UNL     1     -24.729 -26.192 -14.942  1.00  0.00     0.174 C 
ATOM     13  O   UNL     1     -27.254 -25.362 -14.907  1.00  0.00    -0.344 OA
ATOM     14  C   UNL     1     -24.362 -24.912 -14.087  1.00  0.00     0.179 C 
ATOM     15  C   UNL     1     -25.250 -23.682 -14.719  1.00  0.00     0.202 C 
BRANCH  12  16
ATOM     16  O   UNL     1     -23.806 -26.394 -15.995  1.00  0.00    -0.388 OA
ATOM     17  H   UNL     1     -23.929 -27.324 -16.399  1.00  0.00     0.211 HD
ENDBRANCH  12  16
BRANCH  14  18
ATOM     18  O   UNL     1     -24.707 -25.121 -12.713  1.00  0.00    -0.387 OA
ATOM     19  H   UNL     1     -24.750 -24.403 -12.087  1.00  0.00     0.211 HD
ENDBRANCH  14  18
BRANCH  15  20
ATOM     20  O   UNL     1     -25.096 -23.618 -16.117  1.00  0.00    -0.385 OA
ATOM     21  H   UNL     1     -25.430 -22.766 -16.642  1.00  0.00     0.211 HD
ENDBRANCH  15  20
ENDBRANCH   8   9
ENDBRANCH   7   8
ENDBRANCH   1   7
BRANCH   2  22
ATOM     22  O   UNL     1     -28.092 -21.659  -9.934  1.00  0.00    -0.387 OA
ATOM     23  H   UNL     1     -28.429 -22.514  -9.548  1.00  0.00     0.211 HD
ENDBRANCH   2  22
BRANCH   3  24
ATOM     24  O   UNL     1     -26.893 -19.808  -8.906  1.00  0.00    -0.387 OA
ATOM     25  H   UNL     1     -26.346 -19.189  -8.319  1.00  0.00     0.211 HD
ENDBRANCH   3  24
BRANCH   5  26
ATOM     26  O   UNL     1     -25.037 -18.039 -11.877  1.00  0.00    -0.454 OA
BRANCH  26  27
ATOM     27  C   UNL     1     -24.871 -17.781 -13.278  1.00  0.00     0.214 A 
ATOM     28  C   UNL     1     -23.798 -18.310 -14.042  1.00  0.00     0.180 A 
ATOM     29  C   UNL     1     -25.842 -17.085 -14.076  1.00  0.00     0.239 A 
ATOM     30  O   UNL     1     -23.352 -17.710 -15.119  1.00  0.00    -0.452 OA
ATOM     31  C   UNL     1     -25.156 -16.144 -14.915  1.00  0.00     0.111 A 
ATOM     32  O   UNL     1     -26.556 -17.844 -14.753  1.00  0.00    -0.285 OA
ATOM     33  C   UNL     1     -23.917 -16.511 -15.470  1.00  0.00     0.146 A 
ATOM     34  C   UNL     1     -25.650 -14.833 -15.143  1.00  0.00     0.134 A 
ATOM     35  C   UNL     1     -23.376 -15.754 -16.498  1.00  0.00     0.094 A 
ATOM     36  C   UNL     1     -25.143 -14.088 -16.222  1.00  0.00     0.093 A 
ATOM     37  C   UNL     1     -24.056 -14.587 -16.923  1.00  0.00     0.123 A 
BRANCH  28  38
ATOM     38  C   UNL     1     -23.226 -19.641 -13.729  1.00  0.00     0.025 A 
ATOM     39  C   UNL     1     -21.855 -19.853 -13.653  1.00  0.00     0.062 A 
ATOM     40  C   UNL     1     -24.074 -20.761 -13.884  1.00  0.00     0.016 A 
ATOM     41  C   UNL     1     -21.410 -21.138 -13.342  1.00  0.00     0.158 A 
ATOM     42  C   UNL     1     -23.735 -21.987 -13.297  1.00  0.00     0.051 A 
ATOM     43  C   UNL     1     -22.370 -22.144 -13.040  1.00  0.00     0.157 A 
BRANCH  41  44
ATOM     44  O   UNL     1     -20.053 -21.377 -13.382  1.00  0.00    -0.504 OA
ATOM     45  H   UNL     1     -19.419 -20.909 -14.023  1.00  0.00     0.293 HD
ENDBRANCH  41  44
BRANCH  43  46
ATOM     46  O   UNL     1     -21.891 -23.398 -12.598  1.00  0.00    -0.504 OA
ATOM     47  H   UNL     1     -21.892 -24.235 -13.168  1.00  0.00     0.293 HD
ENDBRANCH  43  46
ENDBRANCH  28  38
BRANCH  34  48
ATOM     48  O   UNL     1     -26.753 -14.318 -14.468  1.00  0.00    -0.507 OA
ATOM     49  H   UNL     1     -26.754 -13.331 -14.206  1.00  0.00     0.293 HD
ENDBRANCH  34  48
BRANCH  37  50
ATOM     50  O   UNL     1     -23.526 -13.876 -18.022  1.00  0.00    -0.508 OA
ATOM     51  H   UNL     1     -22.901 -13.094 -17.867  1.00  0.00     0.293 HD
ENDBRANCH  37  50
ENDBRANCH  26  27
ENDBRANCH   5  26
BRANCH   4  52
ATOM     52  O   UNL     1     -24.289 -18.799  -9.460  1.00  0.00    -0.384 OA
ATOM     53  H   UNL     1     -24.505 -18.812  -8.451  1.00  0.00     0.211 HD
ENDBRANCH   4  52
TORSDOF 16
ENDMDL
