MODEL 1
REMARK VINA RESULT:    -3.225      0.000      0.000
REMARK INTER + INTRA:          -8.313
REMARK INTER:                  -5.865
REMARK INTRA:                  -2.448
REMARK UNBOUND:                -2.448
REMARK SMILES CCCCCCCCCCCCCCCC(=O)[O-]
REMARK SMILES IDX 9 1 10 2 11 3 12 4 13 5 14 6 15 7 16 8 17 9 18 10 8 11 7 12
REMARK SMILES IDX 6 13 5 14 4 15 3 16 2 17 1 18
REMARK H PARENT
REMARK Flexibility Score: inf
ROOT
ATOM      1  C   UNL     1      63.210  31.037  58.130  1.00  0.00     0.000 C 
ENDROOT
BRANCH   1   2
ATOM      2  C   UNL     1      64.121  30.380  59.173  1.00  0.00     0.000 C 
BRANCH   2   3
ATOM      3  C   UNL     1      64.718  31.428  60.121  1.00  0.00     0.000 C 
BRANCH   3   4
ATOM      4  C   UNL     1      64.204  31.232  61.553  1.00  0.00     0.000 C 
BRANCH   4   5
ATOM      5  C   UNL     1      63.448  29.903  61.690  1.00  0.00     0.000 C 
BRANCH   5   6
ATOM      6  C   UNL     1      61.983  30.085  62.126  1.00  0.00     0.006 C 
BRANCH   6   7
ATOM      7  C   UNL     1      60.970  29.334  61.244  1.00  0.00     0.053 C 
BRANCH   7   8
ATOM      8  C   UNL     1      61.379  27.920  60.968  1.00  0.00     0.041 C 
ATOM      9  O   UNL     1      61.670  27.558  59.797  1.00  0.00    -0.550 OA
ATOM     10  O   UNL     1      61.409  26.990  62.000  1.00  0.00    -0.550 OA
ENDBRANCH   7   8
ENDBRANCH   6   7
ENDBRANCH   5   6
ENDBRANCH   4   5
ENDBRANCH   3   4
ENDBRANCH   2   3
ENDBRANCH   1   2
BRANCH   1  11
ATOM     11  C   UNL     1      63.307  32.568  58.201  1.00  0.00     0.000 C 
BRANCH  11  12
ATOM     12  C   UNL     1      61.931  33.245  58.295  1.00  0.00    -0.000 C 
BRANCH  12  13
ATOM     13  C   UNL     1      61.118  32.766  59.509  1.00  0.00    -0.000 C 
BRANCH  13  14
ATOM     14  C   UNL     1      61.436  33.562  60.784  1.00  0.00    -0.000 C 
BRANCH  14  15
ATOM     15  C   UNL     1      61.462  35.081  60.543  1.00  0.00    -0.000 C 
BRANCH  15  16
ATOM     16  C   UNL     1      62.616  35.772  61.299  1.00  0.00    -0.000 C 
BRANCH  16  17
ATOM     17  C   UNL     1      63.874  34.898  61.433  1.00  0.00    -0.003 C 
ATOM     18  C   UNL     1      65.058  35.643  62.048  1.00  0.00     0.004 C 
ENDBRANCH  16  17
ENDBRANCH  15  16
ENDBRANCH  14  15
ENDBRANCH  13  14
ENDBRANCH  12  13
ENDBRANCH  11  12
ENDBRANCH   1  11
TORSDOF 14
ENDMDL
MODEL 2
REMARK VINA RESULT:    -3.066      3.423      5.789
REMARK INTER + INTRA:          -8.023
REMARK INTER:                  -5.639
REMARK INTRA:                  -2.384
REMARK UNBOUND:                -2.448
REMARK SMILES CCCCCCCCCCCCCCCC(=O)[O-]
REMARK SMILES IDX 9 1 10 2 11 3 12 4 13 5 14 6 15 7 16 8 17 9 18 10 8 11 7 12
REMARK SMILES IDX 6 13 5 14 4 15 3 16 2 17 1 18
REMARK H PARENT
REMARK Flexibility Score: inf
ROOT
ATOM      1  C   UNL     1      60.373  29.778  60.337  1.00  0.00     0.000 C 
ENDROOT
BRANCH   1   2
ATOM      2  C   UNL     1      60.619  31.263  60.627  1.00  0.00     0.000 C 
BRANCH   2   3
ATOM      3  C   UNL     1      60.427  32.110  59.363  1.00  0.00     0.000 C 
BRANCH   3   4
ATOM      4  C   UNL     1      61.257  33.398  59.431  1.00  0.00     0.000 C 
BRANCH   4   5
ATOM      5  C   UNL     1      61.887  33.573  60.821  1.00  0.00     0.000 C 
BRANCH   5   6
ATOM      6  C   UNL     1      62.732  34.854  60.943  1.00  0.00     0.006 C 
BRANCH   6   7
ATOM      7  C   UNL     1      64.136  34.623  61.530  1.00  0.00     0.053 C 
BRANCH   7   8
ATOM      8  C   UNL     1      64.970  35.866  61.542  1.00  0.00     0.041 C 
ATOM      9  O   UNL     1      65.756  36.115  60.590  1.00  0.00    -0.550 OA
ATOM     10  O   UNL     1      64.905  36.739  62.622  1.00  0.00    -0.550 OA
ENDBRANCH   7   8
ENDBRANCH   6   7
ENDBRANCH   5   6
ENDBRANCH   4   5
ENDBRANCH   3   4
ENDBRANCH   2   3
ENDBRANCH   1   2
BRANCH   1  11
ATOM     11  C   UNL     1      61.330  28.893  61.150  1.00  0.00     0.000 C 
BRANCH  11  12
ATOM     12  C   UNL     1      62.240  29.707  62.082  1.00  0.00    -0.000 C 
BRANCH  12  13
ATOM     13  C   UNL     1      63.725  29.606  61.695  1.00  0.00    -0.000 C 
BRANCH  13  14
ATOM     14  C   UNL     1      64.275  30.918  61.113  1.00  0.00    -0.000 C 
BRANCH  14  15
ATOM     15  C   UNL     1      64.605  30.808  59.614  1.00  0.00    -0.000 C 
BRANCH  15  16
ATOM     16  C   UNL     1      65.232  32.104  59.059  1.00  0.00    -0.000 C 
BRANCH  16  17
ATOM     17  C   UNL     1      64.452  32.708  57.879  1.00  0.00    -0.003 C 
ATOM     18  C   UNL     1      64.592  34.227  57.784  1.00  0.00     0.004 C 
ENDBRANCH  16  17
ENDBRANCH  15  16
ENDBRANCH  14  15
ENDBRANCH  13  14
ENDBRANCH  12  13
ENDBRANCH  11  12
ENDBRANCH   1  11
TORSDOF 14
ENDMDL
MODEL 3
REMARK VINA RESULT:    -3.030      1.353      2.567
REMARK INTER + INTRA:          -7.958
REMARK INTER:                  -5.810
REMARK INTRA:                  -2.148
REMARK UNBOUND:                -2.448
REMARK SMILES CCCCCCCCCCCCCCCC(=O)[O-]
REMARK SMILES IDX 9 1 10 2 11 3 12 4 13 5 14 6 15 7 16 8 17 9 18 10 8 11 7 12
REMARK SMILES IDX 6 13 5 14 4 15 3 16 2 17 1 18
REMARK H PARENT
REMARK Flexibility Score: inf
ROOT
ATOM      1  C   UNL     1      62.007  30.577  57.834  1.00  0.00     0.000 C 
ENDROOT
BRANCH   1   2
ATOM      2  C   UNL     1      61.094  31.549  58.589  1.00  0.00     0.000 C 
BRANCH   2   3
ATOM      3  C   UNL     1      59.843  30.835  59.115  1.00  0.00     0.000 C 
BRANCH   3   4
ATOM      4  C   UNL     1      60.168  30.001  60.361  1.00  0.00     0.000 C 
BRANCH   4   5
ATOM      5  C   UNL     1      60.861  30.857  61.431  1.00  0.00     0.000 C 
BRANCH   5   6
ATOM      6  C   UNL     1      61.966  30.099  62.188  1.00  0.00     0.006 C 
BRANCH   6   7
ATOM      7  C   UNL     1      62.862  29.234  61.285  1.00  0.00     0.053 C 
BRANCH   7   8
ATOM      8  C   UNL     1      62.775  27.774  61.609  1.00  0.00     0.041 C 
ATOM      9  O   UNL     1      61.838  27.336  62.328  1.00  0.00    -0.550 OA
ATOM     10  O   UNL     1      63.747  26.898  61.141  1.00  0.00    -0.550 OA
ENDBRANCH   7   8
ENDBRANCH   6   7
ENDBRANCH   5   6
ENDBRANCH   4   5
ENDBRANCH   3   4
ENDBRANCH   2   3
ENDBRANCH   1   2
BRANCH   1  11
ATOM     11  C   UNL     1      63.484  30.961  58.008  1.00  0.00     0.000 C 
BRANCH  11  12
ATOM     12  C   UNL     1      63.667  32.419  58.455  1.00  0.00    -0.000 C 
BRANCH  12  13
ATOM     13  C   UNL     1      64.756  32.576  59.530  1.00  0.00    -0.000 C 
BRANCH  13  14
ATOM     14  C   UNL     1      64.173  32.803  60.933  1.00  0.00    -0.000 C 
BRANCH  14  15
ATOM     15  C   UNL     1      62.949  33.735  60.923  1.00  0.00    -0.000 C 
BRANCH  15  16
ATOM     16  C   UNL     1      63.330  35.200  61.224  1.00  0.00    -0.000 C 
BRANCH  16  17
ATOM     17  C   UNL     1      64.716  35.355  61.874  1.00  0.00    -0.003 C 
ATOM     18  C   UNL     1      64.970  36.762  62.412  1.00  0.00     0.004 C 
ENDBRANCH  16  17
ENDBRANCH  15  16
ENDBRANCH  14  15
ENDBRANCH  13  14
ENDBRANCH  12  13
ENDBRANCH  11  12
ENDBRANCH   1  11
TORSDOF 14
ENDMDL
MODEL 4
REMARK VINA RESULT:    -3.011     11.524     13.158
REMARK INTER + INTRA:          -7.922
REMARK INTER:                  -6.176
REMARK INTRA:                  -1.746
REMARK UNBOUND:                -2.448
REMARK SMILES CCCCCCCCCCCCCCCC(=O)[O-]
REMARK SMILES IDX 9 1 10 2 11 3 12 4 13 5 14 6 15 7 16 8 17 9 18 10 8 11 7 12
REMARK SMILES IDX 6 13 5 14 4 15 3 16 2 17 1 18
REMARK H PARENT
REMARK Flexibility Score: inf
ROOT
ATOM      1  C   UNL     1      57.368  28.327  50.093  1.00  0.00     0.000 C 
ENDROOT
BRANCH   1   2
ATOM      2  C   UNL     1      58.517  29.341  50.062  1.00  0.00     0.000 C 
BRANCH   2   3
ATOM      3  C   UNL     1      59.876  28.638  50.170  1.00  0.00     0.000 C 
BRANCH   3   4
ATOM      4  C   UNL     1      59.976  27.476  49.174  1.00  0.00     0.000 C 
BRANCH   4   5
ATOM      5  C   UNL     1      61.134  26.536  49.538  1.00  0.00     0.000 C 
BRANCH   5   6
ATOM      6  C   UNL     1      60.684  25.314  50.359  1.00  0.00     0.006 C 
BRANCH   6   7
ATOM      7  C   UNL     1      61.613  24.095  50.225  1.00  0.00     0.053 C 
BRANCH   7   8
ATOM      8  C   UNL     1      60.863  22.818  49.996  1.00  0.00     0.041 C 
ATOM      9  O   UNL     1      60.191  22.299  50.926  1.00  0.00    -0.550 OA
ATOM     10  O   UNL     1      60.931  22.183  48.762  1.00  0.00    -0.550 OA
ENDBRANCH   7   8
ENDBRANCH   6   7
ENDBRANCH   5   6
ENDBRANCH   4   5
ENDBRANCH   3   4
ENDBRANCH   2   3
ENDBRANCH   1   2
BRANCH   1  11
ATOM     11  C   UNL     1      57.254  27.666  51.475  1.00  0.00     0.000 C 
BRANCH  11  12
ATOM     12  C   UNL     1      56.564  26.294  51.420  1.00  0.00    -0.000 C 
BRANCH  12  13
ATOM     13  C   UNL     1      56.146  25.900  49.993  1.00  0.00    -0.000 C 
BRANCH  13  14
ATOM     14  C   UNL     1      54.631  25.685  49.859  1.00  0.00    -0.000 C 
BRANCH  14  15
ATOM     15  C   UNL     1      53.816  26.650  50.739  1.00  0.00    -0.000 C 
BRANCH  15  16
ATOM     16  C   UNL     1      53.239  27.830  49.930  1.00  0.00    -0.000 C 
BRANCH  16  17
ATOM     17  C   UNL     1      53.823  29.195  50.329  1.00  0.00    -0.003 C 
ATOM     18  C   UNL     1      54.007  29.349  51.838  1.00  0.00     0.004 C 
ENDBRANCH  16  17
ENDBRANCH  15  16
ENDBRANCH  14  15
ENDBRANCH  13  14
ENDBRANCH  12  13
ENDBRANCH  11  12
ENDBRANCH   1  11
TORSDOF 14
ENDMDL
MODEL 5
REMARK VINA RESULT:    -2.994     10.292     12.454
REMARK INTER + INTRA:          -7.891
REMARK INTER:                  -5.402
REMARK INTRA:                  -2.490
REMARK UNBOUND:                -2.448
REMARK SMILES CCCCCCCCCCCCCCCC(=O)[O-]
REMARK SMILES IDX 9 1 10 2 11 3 12 4 13 5 14 6 15 7 16 8 17 9 18 10 8 11 7 12
REMARK SMILES IDX 6 13 5 14 4 15 3 16 2 17 1 18
REMARK H PARENT
REMARK Flexibility Score: inf
ROOT
ATOM      1  C   UNL     1      57.078  26.713  53.230  1.00  0.00     0.000 C 
ENDROOT
BRANCH   1   2
ATOM      2  C   UNL     1      58.143  27.430  52.392  1.00  0.00     0.000 C 
BRANCH   2   3
ATOM      3  C   UNL     1      58.212  28.921  52.749  1.00  0.00     0.000 C 
BRANCH   3   4
ATOM      4  C   UNL     1      58.476  29.774  51.502  1.00  0.00     0.000 C 
BRANCH   4   5
ATOM      5  C   UNL     1      57.974  29.067  50.235  1.00  0.00     0.000 C 
BRANCH   5   6
ATOM      6  C   UNL     1      59.021  29.034  49.107  1.00  0.00     0.006 C 
BRANCH   6   7
ATOM      7  C   UNL     1      60.387  28.472  49.538  1.00  0.00     0.053 C 
BRANCH   7   8
ATOM      8  C   UNL     1      60.363  26.990  49.750  1.00  0.00     0.041 C 
ATOM      9  O   UNL     1      59.600  26.261  49.063  1.00  0.00    -0.550 OA
ATOM     10  O   UNL     1      61.163  26.414  50.730  1.00  0.00    -0.550 OA
ENDBRANCH   7   8
ENDBRANCH   6   7
ENDBRANCH   5   6
ENDBRANCH   4   5
ENDBRANCH   3   4
ENDBRANCH   2   3
ENDBRANCH   1   2
BRANCH   1  11
ATOM     11  C   UNL     1      56.029  26.044  52.329  1.00  0.00     0.000 C 
BRANCH  11  12
ATOM     12  C   UNL     1      56.549  25.784  50.907  1.00  0.00    -0.000 C 
BRANCH  12  13
ATOM     13  C   UNL     1      55.527  26.171  49.824  1.00  0.00    -0.000 C 
BRANCH  13  14
ATOM     14  C   UNL     1      54.164  26.566  50.413  1.00  0.00    -0.000 C 
BRANCH  14  15
ATOM     15  C   UNL     1      53.687  27.947  49.928  1.00  0.00    -0.000 C 
BRANCH  15  16
ATOM     16  C   UNL     1      54.501  29.097  50.555  1.00  0.00    -0.000 C 
BRANCH  16  17
ATOM     17  C   UNL     1      54.249  29.282  52.060  1.00  0.00    -0.003 C 
ATOM     18  C   UNL     1      54.940  30.517  52.636  1.00  0.00     0.004 C 
ENDBRANCH  16  17
ENDBRANCH  15  16
ENDBRANCH  14  15
ENDBRANCH  13  14
ENDBRANCH  12  13
ENDBRANCH  11  12
ENDBRANCH   1  11
TORSDOF 14
ENDMDL
MODEL 6
REMARK VINA RESULT:    -2.984      1.469      3.469
REMARK INTER + INTRA:          -7.874
REMARK INTER:                  -5.600
REMARK INTRA:                  -2.274
REMARK UNBOUND:                -2.448
REMARK SMILES CCCCCCCCCCCCCCCC(=O)[O-]
REMARK SMILES IDX 9 1 10 2 11 3 12 4 13 5 14 6 15 7 16 8 17 9 18 10 8 11 7 12
REMARK SMILES IDX 6 13 5 14 4 15 3 16 2 17 1 18
REMARK H PARENT
REMARK Flexibility Score: inf
ROOT
ATOM      1  C   UNL     1      60.257  32.777  58.967  1.00  0.00     0.000 C 
ENDROOT
BRANCH   1   2
ATOM      2  C   UNL     1      61.086  31.551  59.364  1.00  0.00     0.000 C 
BRANCH   2   3
ATOM      3  C   UNL     1      60.390  30.750  60.472  1.00  0.00     0.000 C 
BRANCH   3   4
ATOM      4  C   UNL     1      61.052  31.001  61.832  1.00  0.00     0.000 C 
BRANCH   4   5
ATOM      5  C   UNL     1      62.126  29.944  62.125  1.00  0.00     0.000 C 
BRANCH   5   6
ATOM      6  C   UNL     1      61.811  28.574  61.497  1.00  0.00     0.006 C 
BRANCH   6   7
ATOM      7  C   UNL     1      63.054  27.810  61.008  1.00  0.00     0.053 C 
BRANCH   7   8
ATOM      8  C   UNL     1      63.140  26.424  61.570  1.00  0.00     0.041 C 
ATOM      9  O   UNL     1      62.330  26.045  62.457  1.00  0.00    -0.550 OA
ATOM     10  O   UNL     1      64.137  25.558  61.136  1.00  0.00    -0.550 OA
ENDBRANCH   7   8
ENDBRANCH   6   7
ENDBRANCH   5   6
ENDBRANCH   4   5
ENDBRANCH   3   4
ENDBRANCH   2   3
ENDBRANCH   1   2
BRANCH   1  11
ATOM     11  C   UNL     1      61.063  34.071  59.155  1.00  0.00     0.000 C 
BRANCH  11  12
ATOM     12  C   UNL     1      61.371  34.367  60.631  1.00  0.00    -0.000 C 
BRANCH  12  13
ATOM     13  C   UNL     1      62.821  34.830  60.851  1.00  0.00    -0.000 C 
BRANCH  13  14
ATOM     14  C   UNL     1      63.750  33.680  61.272  1.00  0.00    -0.000 C 
BRANCH  14  15
ATOM     15  C   UNL     1      64.459  33.023  60.075  1.00  0.00    -0.000 C 
BRANCH  15  16
ATOM     16  C   UNL     1      64.800  31.542  60.342  1.00  0.00    -0.000 C 
BRANCH  16  17
ATOM     17  C   UNL     1      64.639  30.641  59.106  1.00  0.00    -0.003 C 
ATOM     18  C   UNL     1      64.489  31.429  57.806  1.00  0.00     0.004 C 
ENDBRANCH  16  17
ENDBRANCH  15  16
ENDBRANCH  14  15
ENDBRANCH  13  14
ENDBRANCH  12  13
ENDBRANCH  11  12
ENDBRANCH   1  11
TORSDOF 14
ENDMDL
MODEL 7
REMARK VINA RESULT:    -2.974     10.351     12.259
REMARK INTER + INTRA:          -7.856
REMARK INTER:                  -5.551
REMARK INTRA:                  -2.305
REMARK UNBOUND:                -2.448
REMARK SMILES CCCCCCCCCCCCCCCC(=O)[O-]
REMARK SMILES IDX 9 1 10 2 11 3 12 4 13 5 14 6 15 7 16 8 17 9 18 10 8 11 7 12
REMARK SMILES IDX 6 13 5 14 4 15 3 16 2 17 1 18
REMARK H PARENT
REMARK Flexibility Score: inf
ROOT
ATOM      1  C   UNL     1      54.613  26.146  49.715  1.00  0.00     0.000 C 
ENDROOT
BRANCH   1   2
ATOM      2  C   UNL     1      55.841  25.834  50.576  1.00  0.00     0.000 C 
BRANCH   2   3
ATOM      3  C   UNL     1      57.101  26.490  49.996  1.00  0.00     0.000 C 
BRANCH   3   4
ATOM      4  C   UNL     1      57.556  27.671  50.863  1.00  0.00     0.000 C 
BRANCH   4   5
ATOM      5  C   UNL     1      57.731  28.940  50.016  1.00  0.00     0.000 C 
BRANCH   5   6
ATOM      6  C   UNL     1      59.010  28.921  49.160  1.00  0.00     0.006 C 
BRANCH   6   7
ATOM      7  C   UNL     1      60.296  28.662  49.963  1.00  0.00     0.053 C 
BRANCH   7   8
ATOM      8  C   UNL     1      61.103  27.525  49.415  1.00  0.00     0.041 C 
ATOM      9  O   UNL     1      62.235  27.736  48.903  1.00  0.00    -0.550 OA
ATOM     10  O   UNL     1      60.592  26.233  49.439  1.00  0.00    -0.550 OA
ENDBRANCH   7   8
ENDBRANCH   6   7
ENDBRANCH   5   6
ENDBRANCH   4   5
ENDBRANCH   3   4
ENDBRANCH   2   3
ENDBRANCH   1   2
BRANCH   1  11
ATOM     11  C   UNL     1      53.681  27.139  50.426  1.00  0.00     0.000 C 
BRANCH  11  12
ATOM     12  C   UNL     1      53.977  28.599  50.052  1.00  0.00    -0.000 C 
BRANCH  12  13
ATOM     13  C   UNL     1      54.293  29.471  51.280  1.00  0.00    -0.000 C 
BRANCH  13  14
ATOM     14  C   UNL     1      54.355  28.657  52.582  1.00  0.00    -0.000 C 
BRANCH  14  15
ATOM     15  C   UNL     1      55.231  29.324  53.657  1.00  0.00    -0.000 C 
BRANCH  15  16
ATOM     16  C   UNL     1      56.127  30.435  53.070  1.00  0.00    -0.000 C 
BRANCH  16  17
ATOM     17  C   UNL     1      57.614  30.283  53.434  1.00  0.00    -0.003 C 
ATOM     18  C   UNL     1      58.483  31.412  52.884  1.00  0.00     0.004 C 
ENDBRANCH  16  17
ENDBRANCH  15  16
ENDBRANCH  14  15
ENDBRANCH  13  14
ENDBRANCH  12  13
ENDBRANCH  11  12
ENDBRANCH   1  11
TORSDOF 14
ENDMDL
MODEL 8
REMARK VINA RESULT:    -2.944      3.241      6.123
REMARK INTER + INTRA:          -7.800
REMARK INTER:                  -5.661
REMARK INTRA:                  -2.140
REMARK UNBOUND:                -2.448
REMARK SMILES CCCCCCCCCCCCCCCC(=O)[O-]
REMARK SMILES IDX 9 1 10 2 11 3 12 4 13 5 14 6 15 7 16 8 17 9 18 10 8 11 7 12
REMARK SMILES IDX 6 13 5 14 4 15 3 16 2 17 1 18
REMARK H PARENT
REMARK Flexibility Score: inf
ROOT
ATOM      1  C   UNL     1      61.175  32.555  59.772  1.00  0.00     0.000 C 
ENDROOT
BRANCH   1   2
ATOM      2  C   UNL     1      62.053  33.794  59.562  1.00  0.00     0.000 C 
BRANCH   2   3
ATOM      3  C   UNL     1      61.474  35.011  60.294  1.00  0.00     0.000 C 
BRANCH   3   4
ATOM      4  C   UNL     1      62.490  35.591  61.287  1.00  0.00     0.000 C 
BRANCH   4   5
ATOM      5  C   UNL     1      63.772  34.747  61.319  1.00  0.00     0.000 C 
BRANCH   5   6
ATOM      6  C   UNL     1      65.050  35.595  61.446  1.00  0.00     0.006 C 
BRANCH   6   7
ATOM      7  C   UNL     1      65.325  36.499  60.231  1.00  0.00     0.053 C 
BRANCH   7   8
ATOM      8  C   UNL     1      65.226  35.764  58.930  1.00  0.00     0.041 C 
ATOM      9  O   UNL     1      66.052  34.857  58.645  1.00  0.00    -0.550 OA
ATOM     10  O   UNL     1      64.237  36.102  58.014  1.00  0.00    -0.550 OA
ENDBRANCH   7   8
ENDBRANCH   6   7
ENDBRANCH   5   6
ENDBRANCH   4   5
ENDBRANCH   3   4
ENDBRANCH   2   3
ENDBRANCH   1   2
BRANCH   1  11
ATOM     11  C   UNL     1      61.108  32.175  61.259  1.00  0.00     0.000 C 
BRANCH  11  12
ATOM     12  C   UNL     1      60.779  30.689  61.475  1.00  0.00    -0.000 C 
BRANCH  12  13
ATOM     13  C   UNL     1      61.881  29.947  62.248  1.00  0.00    -0.000 C 
BRANCH  13  14
ATOM     14  C   UNL     1      62.299  28.634  61.567  1.00  0.00    -0.000 C 
BRANCH  14  15
ATOM     15  C   UNL     1      62.518  28.796  60.052  1.00  0.00    -0.000 C 
BRANCH  15  16
ATOM     16  C   UNL     1      63.991  29.100  59.706  1.00  0.00    -0.000 C 
BRANCH  16  17
ATOM     17  C   UNL     1      64.249  30.575  59.357  1.00  0.00    -0.003 C 
ATOM     18  C   UNL     1      64.870  31.363  60.509  1.00  0.00     0.004 C 
ENDBRANCH  16  17
ENDBRANCH  15  16
ENDBRANCH  14  15
ENDBRANCH  13  14
ENDBRANCH  12  13
ENDBRANCH  11  12
ENDBRANCH   1  11
TORSDOF 14
ENDMDL
MODEL 9
REMARK VINA RESULT:    -2.911      1.502      2.367
REMARK INTER + INTRA:          -7.742
REMARK INTER:                  -5.606
REMARK INTRA:                  -2.135
REMARK UNBOUND:                -2.448
REMARK SMILES CCCCCCCCCCCCCCCC(=O)[O-]
REMARK SMILES IDX 9 1 10 2 11 3 12 4 13 5 14 6 15 7 16 8 17 9 18 10 8 11 7 12
REMARK SMILES IDX 6 13 5 14 4 15 3 16 2 17 1 18
REMARK H PARENT
REMARK Flexibility Score: inf
ROOT
ATOM      1  C   UNL     1      63.660  33.656  58.260  1.00  0.00     0.000 C 
ENDROOT
BRANCH   1   2
ATOM      2  C   UNL     1      62.339  33.017  57.816  1.00  0.00     0.000 C 
BRANCH   2   3
ATOM      3  C   UNL     1      61.992  31.806  58.690  1.00  0.00     0.000 C 
BRANCH   3   4
ATOM      4  C   UNL     1      62.283  32.092  60.169  1.00  0.00     0.000 C 
BRANCH   4   5
ATOM      5  C   UNL     1      60.989  32.086  60.996  1.00  0.00     0.000 C 
BRANCH   5   6
ATOM      6  C   UNL     1      60.938  30.946  62.029  1.00  0.00     0.006 C 
BRANCH   6   7
ATOM      7  C   UNL     1      62.196  30.060  62.045  1.00  0.00     0.053 C 
BRANCH   7   8
ATOM      8  C   UNL     1      61.931  28.669  61.558  1.00  0.00     0.041 C 
ATOM      9  O   UNL     1      62.780  27.757  61.744  1.00  0.00    -0.550 OA
ATOM     10  O   UNL     1      60.758  28.384  60.870  1.00  0.00    -0.550 OA
ENDBRANCH   7   8
ENDBRANCH   6   7
ENDBRANCH   5   6
ENDBRANCH   4   5
ENDBRANCH   3   4
ENDBRANCH   2   3
ENDBRANCH   1   2
BRANCH   1  11
ATOM     11  C   UNL     1      63.764  35.105  57.761  1.00  0.00     0.000 C 
BRANCH  11  12
ATOM     12  C   UNL     1      62.390  35.747  57.515  1.00  0.00    -0.000 C 
BRANCH  12  13
ATOM     13  C   UNL     1      61.975  36.706  58.643  1.00  0.00    -0.000 C 
BRANCH  13  14
ATOM     14  C   UNL     1      60.880  36.117  59.546  1.00  0.00    -0.000 C 
BRANCH  14  15
ATOM     15  C   UNL     1      61.427  35.631  60.901  1.00  0.00    -0.000 C 
BRANCH  15  16
ATOM     16  C   UNL     1      62.824  36.211  61.206  1.00  0.00    -0.000 C 
BRANCH  16  17
ATOM     17  C   UNL     1      63.879  35.139  61.526  1.00  0.00    -0.003 C 
ATOM     18  C   UNL     1      65.226  35.730  61.940  1.00  0.00     0.004 C 
ENDBRANCH  16  17
ENDBRANCH  15  16
ENDBRANCH  14  15
ENDBRANCH  13  14
ENDBRANCH  12  13
ENDBRANCH  11  12
ENDBRANCH   1  11
TORSDOF 14
ENDMDL
