MODEL 1
REMARK VINA RESULT:    -4.484      0.000      0.000
REMARK INTER + INTRA:          -5.563
REMARK INTER:                  -5.270
REMARK INTRA:                  -0.293
REMARK UNBOUND:                -0.293
REMARK SMILES O=c1c(O)c(-c2ccc(O)cc2)oc2cc(O)cc(O)c12
REMARK SMILES IDX 5 1 3 2 2 3 1 4 21 5 19 6 18 7 16 8 15 9 14 10 13 11 6 12
REMARK SMILES IDX 7 13 8 14 9 15 12 16 11 17 10 18 4 20 20 22 17 24
REMARK H PARENT 10 19 4 21 20 23 17 25
REMARK Flexibility Score: inf
ROOT
ATOM      1  C   UNL     1       5.549  11.868   8.261  1.00  0.00     0.180 A 
ATOM      2  C   UNL     1       6.720  12.332   8.886  1.00  0.00     0.208 A 
ATOM      3  C   UNL     1       7.871  12.537   8.108  1.00  0.00     0.238 A 
ATOM      4  O   UNL     1       8.931  12.900   8.682  1.00  0.00    -0.285 OA
ATOM      5  C   UNL     1       7.832  12.293   6.714  1.00  0.00     0.111 A 
ATOM      6  C   UNL     1       8.927  12.505   5.823  1.00  0.00     0.134 A 
ATOM      7  C   UNL     1       8.817  12.105   4.486  1.00  0.00     0.093 A 
ATOM      8  C   UNL     1       7.628  11.562   3.992  1.00  0.00     0.123 A 
ATOM      9  C   UNL     1       6.534  11.406   4.840  1.00  0.00     0.094 A 
ATOM     10  C   UNL     1       6.626  11.761   6.188  1.00  0.00     0.146 A 
ATOM     11  O   UNL     1       5.563  11.586   6.964  1.00  0.00    -0.452 OA
ENDROOT
BRANCH   1  12
ATOM     12  C   UNL     1       4.289  11.652   9.010  1.00  0.00     0.021 A 
ATOM     13  C   UNL     1       3.392  12.708   9.256  1.00  0.00     0.016 A 
ATOM     14  C   UNL     1       2.197  12.474   9.944  1.00  0.00     0.047 A 
ATOM     15  C   UNL     1       1.878  11.182  10.382  1.00  0.00     0.115 A 
ATOM     16  C   UNL     1       3.951  10.356   9.434  1.00  0.00     0.016 A 
ATOM     17  C   UNL     1       2.756  10.126  10.122  1.00  0.00     0.047 A 
BRANCH  15  18
ATOM     18  O   UNL     1       0.692  10.938  11.069  1.00  0.00    -0.508 OA
ATOM     19  H   UNL     1      -0.043  10.366  10.670  1.00  0.00     0.293 HD
ENDBRANCH  15  18
ENDBRANCH   1  12
BRANCH   2  20
ATOM     20  O   UNL     1       6.743  12.546  10.267  1.00  0.00    -0.502 OA
ATOM     21  H   UNL     1       6.409  11.856  10.930  1.00  0.00     0.293 HD
ENDBRANCH   2  20
BRANCH   6  22
ATOM     22  O   UNL     1      10.125  13.125   6.193  1.00  0.00    -0.507 OA
ATOM     23  H   UNL     1      10.657  13.744   5.602  1.00  0.00     0.293 HD
ENDBRANCH   6  22
BRANCH   8  24
ATOM     24  O   UNL     1       7.522  11.182   2.656  1.00  0.00    -0.508 OA
ATOM     25  H   UNL     1       8.024  11.670   1.924  1.00  0.00     0.293 HD
ENDBRANCH   8  24
TORSDOF 5
ENDMDL
MODEL 2
REMARK VINA RESULT:    -3.323      1.999      6.516
REMARK INTER + INTRA:          -4.198
REMARK INTER:                  -4.333
REMARK INTRA:                   0.135
REMARK UNBOUND:                -0.293
REMARK SMILES O=c1c(O)c(-c2ccc(O)cc2)oc2cc(O)cc(O)c12
REMARK SMILES IDX 5 1 3 2 2 3 1 4 21 5 19 6 18 7 16 8 15 9 14 10 13 11 6 12
REMARK SMILES IDX 7 13 8 14 9 15 12 16 11 17 10 18 4 20 20 22 17 24
REMARK H PARENT 10 19 4 21 20 23 17 25
REMARK Flexibility Score: inf
ROOT
ATOM      1  C   UNL     1       6.845  11.502   6.682  1.00  0.00     0.180 A 
ATOM      2  C   UNL     1       6.931  12.067   7.966  1.00  0.00     0.208 A 
ATOM      3  C   UNL     1       6.094  11.577   8.982  1.00  0.00     0.238 A 
ATOM      4  O   UNL     1       6.138  12.123  10.116  1.00  0.00    -0.285 OA
ATOM      5  C   UNL     1       5.195  10.519   8.706  1.00  0.00     0.111 A 
ATOM      6  C   UNL     1       4.330   9.918   9.669  1.00  0.00     0.134 A 
ATOM      7  C   UNL     1       3.389   8.968   9.255  1.00  0.00     0.093 A 
ATOM      8  C   UNL     1       3.327   8.549   7.923  1.00  0.00     0.123 A 
ATOM      9  C   UNL     1       4.207   9.086   6.987  1.00  0.00     0.094 A 
ATOM     10  C   UNL     1       5.132  10.063   7.364  1.00  0.00     0.146 A 
ATOM     11  O   UNL     1       5.946  10.557   6.438  1.00  0.00    -0.452 OA
ENDROOT
BRANCH   1  12
ATOM     12  C   UNL     1       7.711  11.948   5.566  1.00  0.00     0.021 A 
ATOM     13  C   UNL     1       9.072  12.241   5.766  1.00  0.00     0.016 A 
ATOM     14  C   UNL     1       9.876  12.637   4.692  1.00  0.00     0.047 A 
ATOM     15  C   UNL     1       9.333  12.731   3.404  1.00  0.00     0.115 A 
ATOM     16  C   UNL     1       7.180  12.026   4.267  1.00  0.00     0.016 A 
ATOM     17  C   UNL     1       7.986  12.421   3.196  1.00  0.00     0.047 A 
BRANCH  15  18
ATOM     18  O   UNL     1      10.124  13.125   2.328  1.00  0.00    -0.508 OA
ATOM     19  H   UNL     1      10.475  12.453   1.655  1.00  0.00     0.293 HD
ENDBRANCH  15  18
ENDBRANCH   1  12
BRANCH   2  20
ATOM     20  O   UNL     1       7.810  13.125   8.212  1.00  0.00    -0.502 OA
ATOM     21  H   UNL     1       8.394  13.166   9.038  1.00  0.00     0.293 HD
ENDBRANCH   2  20
BRANCH   6  22
ATOM     22  O   UNL     1       4.374  10.197  11.039  1.00  0.00    -0.507 OA
ATOM     23  H   UNL     1       5.213  10.199  11.598  1.00  0.00     0.293 HD
ENDBRANCH   6  22
BRANCH   8  24
ATOM     24  O   UNL     1       2.398   7.591   7.523  1.00  0.00    -0.508 OA
ATOM     25  H   UNL     1       1.403   7.726   7.661  1.00  0.00     0.293 HD
ENDBRANCH   8  24
TORSDOF 5
ENDMDL
MODEL 3
REMARK VINA RESULT:    -3.279      1.733      6.849
REMARK INTER + INTRA:          -4.147
REMARK INTER:                  -3.909
REMARK INTRA:                  -0.238
REMARK UNBOUND:                -0.293
REMARK SMILES O=c1c(O)c(-c2ccc(O)cc2)oc2cc(O)cc(O)c12
REMARK SMILES IDX 5 1 3 2 2 3 1 4 21 5 19 6 18 7 16 8 15 9 14 10 13 11 6 12
REMARK SMILES IDX 7 13 8 14 9 15 12 16 11 17 10 18 4 20 20 22 17 24
REMARK H PARENT 10 19 4 21 20 23 17 25
REMARK Flexibility Score: inf
ROOT
ATOM      1  C   UNL     1       5.394  11.364   8.052  1.00  0.00     0.180 A 
ATOM      2  C   UNL     1       5.538  10.207   8.837  1.00  0.00     0.208 A 
ATOM      3  C   UNL     1       4.470   9.801   9.652  1.00  0.00     0.238 A 
ATOM      4  O   UNL     1       4.624   8.795  10.394  1.00  0.00    -0.285 OA
ATOM      5  C   UNL     1       3.266  10.545   9.659  1.00  0.00     0.111 A 
ATOM      6  C   UNL     1       2.105  10.203  10.416  1.00  0.00     0.134 A 
ATOM      7  C   UNL     1       1.016  11.083  10.449  1.00  0.00     0.093 A 
ATOM      8  C   UNL     1       1.022  12.262   9.699  1.00  0.00     0.123 A 
ATOM      9  C   UNL     1       2.126  12.576   8.910  1.00  0.00     0.094 A 
ATOM     10  C   UNL     1       3.241  11.735   8.887  1.00  0.00     0.146 A 
ATOM     11  O   UNL     1       4.277  12.077   8.130  1.00  0.00    -0.452 OA
ENDROOT
BRANCH   1  12
ATOM     12  C   UNL     1       6.467  11.841   7.148  1.00  0.00     0.021 A 
ATOM     13  C   UNL     1       7.605  12.501   7.646  1.00  0.00     0.016 A 
ATOM     14  C   UNL     1       8.616  12.921   6.776  1.00  0.00     0.047 A 
ATOM     15  C   UNL     1       8.509  12.674   5.401  1.00  0.00     0.115 A 
ATOM     16  C   UNL     1       6.377  11.581   5.771  1.00  0.00     0.016 A 
ATOM     17  C   UNL     1       7.390  12.001   4.904  1.00  0.00     0.047 A 
BRANCH  15  18
ATOM     18  O   UNL     1       9.509  13.089   4.525  1.00  0.00    -0.508 OA
ATOM     19  H   UNL     1       9.348  13.146   3.526  1.00  0.00     0.293 HD
ENDBRANCH  15  18
ENDBRANCH   1  12
BRANCH   2  20
ATOM     20  O   UNL     1       6.743   9.499   8.831  1.00  0.00    -0.502 OA
ATOM     21  H   UNL     1       7.170   9.146   9.679  1.00  0.00     0.293 HD
ENDBRANCH   2  20
BRANCH   6  22
ATOM     22  O   UNL     1       1.961   9.006  11.125  1.00  0.00    -0.507 OA
ATOM     23  H   UNL     1       2.700   8.338  11.280  1.00  0.00     0.293 HD
ENDBRANCH   6  22
BRANCH   8  24
ATOM     24  O   UNL     1      -0.072  13.125   9.725  1.00  0.00    -0.508 OA
ATOM     25  H   UNL     1       0.046  14.129   9.796  1.00  0.00     0.293 HD
ENDBRANCH   8  24
TORSDOF 5
ENDMDL
