MODEL 1
REMARK VINA RESULT:    -6.905      0.000      0.000
REMARK INTER + INTRA:          -8.507
REMARK INTER:                  -8.317
REMARK INTRA:                  -0.189
REMARK UNBOUND:                -0.189
REMARK SMILES O=c1c(O)c(-c2ccc(O)c(O)c2)oc2cc(O)cc(O)c12
REMARK SMILES IDX 5 1 3 2 2 3 1 4 22 5 20 6 19 7 17 8 16 9 15 10 14 11 6 12
REMARK SMILES IDX 7 13 8 14 9 15 13 16 11 17 10 18 12 20 4 22 21 24 18 26
REMARK H PARENT 10 19 12 21 4 23 21 25 18 27
REMARK Flexibility Score: inf
ROOT
ATOM      1  C   UNL     1      15.314   2.278 217.488  1.00  0.00     0.180 A 
ATOM      2  C   UNL     1      16.526   2.809 217.014  1.00  0.00     0.208 A 
ATOM      3  C   UNL     1      16.527   4.082 216.422  1.00  0.00     0.238 A 
ATOM      4  O   UNL     1      17.605   4.529 215.951  1.00  0.00    -0.285 OA
ATOM      5  C   UNL     1      15.320   4.814 216.325  1.00  0.00     0.111 A 
ATOM      6  C   UNL     1      15.210   6.129 215.782  1.00  0.00     0.134 A 
ATOM      7  C   UNL     1      13.945   6.706 215.617  1.00  0.00     0.093 A 
ATOM      8  C   UNL     1      12.790   6.042 216.037  1.00  0.00     0.123 A 
ATOM      9  C   UNL     1      12.892   4.783 216.624  1.00  0.00     0.094 A 
ATOM     10  C   UNL     1      14.137   4.166 216.769  1.00  0.00     0.146 A 
ATOM     11  O   UNL     1      14.188   2.962 217.323  1.00  0.00    -0.452 OA
ENDROOT
BRANCH   1  12
ATOM     12  C   UNL     1      15.239   0.954 218.146  1.00  0.00     0.025 A 
ATOM     13  C   UNL     1      14.599  -0.135 217.529  1.00  0.00     0.016 A 
ATOM     14  C   UNL     1      14.561  -1.382 218.158  1.00  0.00     0.051 A 
ATOM     15  C   UNL     1      15.172  -1.564 219.405  1.00  0.00     0.157 A 
ATOM     16  C   UNL     1      15.868   0.761 219.386  1.00  0.00     0.062 A 
ATOM     17  C   UNL     1      15.832  -0.486 220.021  1.00  0.00     0.158 A 
BRANCH  15  18
ATOM     18  O   UNL     1      15.131  -2.809 220.031  1.00  0.00    -0.504 OA
ATOM     19  H   UNL     1      15.228  -3.669 219.507  1.00  0.00     0.293 HD
ENDBRANCH  15  18
BRANCH  17  20
ATOM     20  O   UNL     1      16.458  -0.636 221.258  1.00  0.00    -0.504 OA
ATOM     21  H   UNL     1      17.158  -1.348 221.424  1.00  0.00     0.293 HD
ENDBRANCH  17  20
ENDBRANCH   1  12
BRANCH   2  22
ATOM     22  O   UNL     1      17.703   2.060 217.099  1.00  0.00    -0.502 OA
ATOM     23  H   UNL     1      17.704   1.072 217.322  1.00  0.00     0.293 HD
ENDBRANCH   2  22
BRANCH   6  24
ATOM     24  O   UNL     1      16.307   6.916 215.415  1.00  0.00    -0.507 OA
ATOM     25  H   UNL     1      16.293   7.922 215.342  1.00  0.00     0.293 HD
ENDBRANCH   6  24
BRANCH   8  26
ATOM     26  O   UNL     1      11.536   6.630 215.884  1.00  0.00    -0.508 OA
ATOM     27  H   UNL     1      10.921   6.373 215.121  1.00  0.00     0.293 HD
ENDBRANCH   8  26
TORSDOF 6
ENDMDL
MODEL 2
REMARK VINA RESULT:    -6.695      1.593      6.713
REMARK INTER + INTRA:          -8.254
REMARK INTER:                  -7.992
REMARK INTRA:                  -0.263
REMARK UNBOUND:                -0.189
REMARK SMILES O=c1c(O)c(-c2ccc(O)c(O)c2)oc2cc(O)cc(O)c12
REMARK SMILES IDX 5 1 3 2 2 3 1 4 22 5 20 6 19 7 17 8 16 9 15 10 14 11 6 12
REMARK SMILES IDX 7 13 8 14 9 15 13 16 11 17 10 18 12 20 4 22 21 24 18 26
REMARK H PARENT 10 19 12 21 4 23 21 25 18 27
REMARK Flexibility Score: inf
ROOT
ATOM      1  C   UNL     1      14.769   3.438 217.873  1.00  0.00     0.180 A 
ATOM      2  C   UNL     1      16.163   3.406 217.696  1.00  0.00     0.208 A 
ATOM      3  C   UNL     1      16.839   2.183 217.829  1.00  0.00     0.238 A 
ATOM      4  O   UNL     1      18.094   2.170 217.723  1.00  0.00    -0.285 OA
ATOM      5  C   UNL     1      16.112   1.004 218.122  1.00  0.00     0.111 A 
ATOM      6  C   UNL     1      16.687  -0.297 218.239  1.00  0.00     0.134 A 
ATOM      7  C   UNL     1      15.893  -1.369 218.660  1.00  0.00     0.093 A 
ATOM      8  C   UNL     1      14.528  -1.201 218.904  1.00  0.00     0.123 A 
ATOM      9  C   UNL     1      13.944   0.051 218.735  1.00  0.00     0.094 A 
ATOM     10  C   UNL     1      14.718   1.149 218.351  1.00  0.00     0.146 A 
ATOM     11  O   UNL     1      14.124   2.327 218.212  1.00  0.00    -0.452 OA
ENDROOT
BRANCH   1  12
ATOM     12  C   UNL     1      13.985   4.684 217.724  1.00  0.00     0.025 A 
ATOM     13  C   UNL     1      13.520   5.395 218.844  1.00  0.00     0.016 A 
ATOM     14  C   UNL     1      12.803   6.583 218.680  1.00  0.00     0.051 A 
ATOM     15  C   UNL     1      12.550   7.085 217.396  1.00  0.00     0.157 A 
ATOM     16  C   UNL     1      13.747   5.203 216.441  1.00  0.00     0.062 A 
ATOM     17  C   UNL     1      13.028   6.392 216.271  1.00  0.00     0.158 A 
BRANCH  15  18
ATOM     18  O   UNL     1      11.832   8.269 217.236  1.00  0.00    -0.504 OA
ATOM     19  H   UNL     1      11.727   8.933 217.993  1.00  0.00     0.293 HD
ENDBRANCH  15  18
BRANCH  17  20
ATOM     20  O   UNL     1      12.801   6.869 214.980  1.00  0.00    -0.504 OA
ATOM     21  H   UNL     1      12.350   6.304 214.271  1.00  0.00     0.293 HD
ENDBRANCH  17  20
ENDBRANCH   1  12
BRANCH   2  22
ATOM     22  O   UNL     1      16.865   4.585 217.429  1.00  0.00    -0.502 OA
ATOM     23  H   UNL     1      17.164   4.841 216.496  1.00  0.00     0.293 HD
ENDBRANCH   2  22
BRANCH   6  24
ATOM     24  O   UNL     1      18.020  -0.591 217.930  1.00  0.00    -0.507 OA
ATOM     25  H   UNL     1      18.771   0.082 217.932  1.00  0.00     0.293 HD
ENDBRANCH   6  24
BRANCH   8  26
ATOM     26  O   UNL     1      13.740  -2.278 219.308  1.00  0.00    -0.508 OA
ATOM     27  H   UNL     1      13.983  -3.232 219.068  1.00  0.00     0.293 HD
ENDBRANCH   8  26
TORSDOF 6
ENDMDL
MODEL 3
REMARK VINA RESULT:    -6.668      3.452      7.410
REMARK INTER + INTRA:          -8.222
REMARK INTER:                  -8.166
REMARK INTRA:                  -0.056
REMARK UNBOUND:                -0.189
REMARK SMILES O=c1c(O)c(-c2ccc(O)c(O)c2)oc2cc(O)cc(O)c12
REMARK SMILES IDX 5 1 3 2 2 3 1 4 22 5 20 6 19 7 17 8 16 9 15 10 14 11 6 12
REMARK SMILES IDX 7 13 8 14 9 15 13 16 11 17 10 18 12 20 4 22 21 24 18 26
REMARK H PARENT 10 19 12 21 4 23 21 25 18 27
REMARK Flexibility Score: inf
ROOT
ATOM      1  C   UNL     1      13.970   2.842 220.354  1.00  0.00     0.180 A 
ATOM      2  C   UNL     1      13.070   1.802 220.647  1.00  0.00     0.208 A 
ATOM      3  C   UNL     1      13.418   0.485 220.310  1.00  0.00     0.238 A 
ATOM      4  O   UNL     1      12.585  -0.435 220.526  1.00  0.00    -0.285 OA
ATOM      5  C   UNL     1      14.667   0.220 219.700  1.00  0.00     0.111 A 
ATOM      6  C   UNL     1      15.141  -1.080 219.353  1.00  0.00     0.134 A 
ATOM      7  C   UNL     1      16.336  -1.212 218.635  1.00  0.00     0.093 A 
ATOM      8  C   UNL     1      17.107  -0.094 218.309  1.00  0.00     0.123 A 
ATOM      9  C   UNL     1      16.684   1.174 218.696  1.00  0.00     0.094 A 
ATOM     10  C   UNL     1      15.478   1.341 219.381  1.00  0.00     0.146 A 
ATOM     11  O   UNL     1      15.105   2.569 219.722  1.00  0.00    -0.452 OA
ENDROOT
BRANCH   1  12
ATOM     12  C   UNL     1      13.684   4.252 220.701  1.00  0.00     0.025 A 
ATOM     13  C   UNL     1      14.570   5.006 221.490  1.00  0.00     0.016 A 
ATOM     14  C   UNL     1      14.292   6.343 221.784  1.00  0.00     0.051 A 
ATOM     15  C   UNL     1      13.132   6.951 221.286  1.00  0.00     0.157 A 
ATOM     16  C   UNL     1      12.534   4.872 220.186  1.00  0.00     0.062 A 
ATOM     17  C   UNL     1      12.251   6.210 220.479  1.00  0.00     0.158 A 
BRANCH  15  18
ATOM     18  O   UNL     1      12.856   8.284 221.583  1.00  0.00    -0.504 OA
ATOM     19  H   UNL     1      12.504   8.564 222.490  1.00  0.00     0.293 HD
ENDBRANCH  15  18
BRANCH  17  20
ATOM     20  O   UNL     1      11.092   6.788 219.960  1.00  0.00    -0.504 OA
ATOM     21  H   UNL     1      10.676   6.471 219.093  1.00  0.00     0.293 HD
ENDBRANCH  17  20
ENDBRANCH   1  12
BRANCH   2  22
ATOM     22  O   UNL     1      11.832   2.088 221.230  1.00  0.00    -0.502 OA
ATOM     23  H   UNL     1      11.714   2.200 222.230  1.00  0.00     0.293 HD
ENDBRANCH   2  22
BRANCH   6  24
ATOM     24  O   UNL     1      14.494  -2.268 219.710  1.00  0.00    -0.507 OA
ATOM     25  H   UNL     1      14.215  -2.509 220.649  1.00  0.00     0.293 HD
ENDBRANCH   6  24
BRANCH   8  26
ATOM     26  O   UNL     1      18.303  -0.235 217.608  1.00  0.00    -0.508 OA
ATOM     27  H   UNL     1      19.019  -0.888 217.907  1.00  0.00     0.293 HD
ENDBRANCH   8  26
TORSDOF 6
ENDMDL
MODEL 4
REMARK VINA RESULT:    -6.602     11.077     14.036
REMARK INTER + INTRA:          -8.142
REMARK INTER:                  -7.818
REMARK INTRA:                  -0.324
REMARK UNBOUND:                -0.189
REMARK SMILES O=c1c(O)c(-c2ccc(O)c(O)c2)oc2cc(O)cc(O)c12
REMARK SMILES IDX 5 1 3 2 2 3 1 4 22 5 20 6 19 7 17 8 16 9 15 10 14 11 6 12
REMARK SMILES IDX 7 13 8 14 9 15 13 16 11 17 10 18 12 20 4 22 21 24 18 26
REMARK H PARENT 10 19 12 21 4 23 21 25 18 27
REMARK Flexibility Score: inf
ROOT
ATOM      1  C   UNL     1      18.839  -2.092 228.721  1.00  0.00     0.180 A 
ATOM      2  C   UNL     1      19.182  -1.870 230.066  1.00  0.00     0.208 A 
ATOM      3  C   UNL     1      20.538  -1.829 230.426  1.00  0.00     0.238 A 
ATOM      4  O   UNL     1      20.837  -1.684 231.641  1.00  0.00    -0.285 OA
ATOM      5  C   UNL     1      21.535  -1.992 229.435  1.00  0.00     0.111 A 
ATOM      6  C   UNL     1      22.940  -1.927 229.679  1.00  0.00     0.134 A 
ATOM      7  C   UNL     1      23.836  -2.233 228.648  1.00  0.00     0.093 A 
ATOM      8  C   UNL     1      23.379  -2.537 227.364  1.00  0.00     0.123 A 
ATOM      9  C   UNL     1      22.012  -2.544 227.100  1.00  0.00     0.094 A 
ATOM     10  C   UNL     1      21.092  -2.279 228.118  1.00  0.00     0.146 A 
ATOM     11  O   UNL     1      19.797  -2.307 227.826  1.00  0.00    -0.452 OA
ENDROOT
BRANCH   1  12
ATOM     12  C   UNL     1      17.433  -2.125 228.261  1.00  0.00     0.025 A 
ATOM     13  C   UNL     1      16.700  -3.323 228.231  1.00  0.00     0.016 A 
ATOM     14  C   UNL     1      15.366  -3.326 227.817  1.00  0.00     0.051 A 
ATOM     15  C   UNL     1      14.740  -2.131 227.438  1.00  0.00     0.157 A 
ATOM     16  C   UNL     1      16.795  -0.926 227.901  1.00  0.00     0.062 A 
ATOM     17  C   UNL     1      15.459  -0.925 227.484  1.00  0.00     0.158 A 
BRANCH  15  18
ATOM     18  O   UNL     1      13.409  -2.138 227.023  1.00  0.00    -0.504 OA
ATOM     19  H   UNL     1      12.671  -2.497 227.615  1.00  0.00     0.293 HD
ENDBRANCH  15  18
BRANCH  17  20
ATOM     20  O   UNL     1      14.863   0.284 227.122  1.00  0.00    -0.504 OA
ATOM     21  H   UNL     1      15.169   0.813 226.314  1.00  0.00     0.293 HD
ENDBRANCH  17  20
ENDBRANCH   1  12
BRANCH   2  22
ATOM     22  O   UNL     1      18.181  -1.734 231.032  1.00  0.00    -0.502 OA
ATOM     23  H   UNL     1      17.235  -1.455 230.800  1.00  0.00     0.293 HD
ENDBRANCH   2  22
BRANCH   6  24
ATOM     24  O   UNL     1      23.502  -1.544 230.902  1.00  0.00    -0.507 OA
ATOM     25  H   UNL     1      24.081  -0.729 231.037  1.00  0.00     0.293 HD
ENDBRANCH   6  24
BRANCH   8  26
ATOM     26  O   UNL     1      24.278  -2.825 226.339  1.00  0.00    -0.508 OA
ATOM     27  H   UNL     1      24.203  -2.384 225.430  1.00  0.00     0.293 HD
ENDBRANCH   8  26
TORSDOF 6
ENDMDL
MODEL 5
REMARK VINA RESULT:    -6.528      2.142      3.237
REMARK INTER + INTRA:          -8.053
REMARK INTER:                  -7.767
REMARK INTRA:                  -0.286
REMARK UNBOUND:                -0.189
REMARK SMILES O=c1c(O)c(-c2ccc(O)c(O)c2)oc2cc(O)cc(O)c12
REMARK SMILES IDX 5 1 3 2 2 3 1 4 22 5 20 6 19 7 17 8 16 9 15 10 14 11 6 12
REMARK SMILES IDX 7 13 8 14 9 15 13 16 11 17 10 18 12 20 4 22 21 24 18 26
REMARK H PARENT 10 19 12 21 4 23 21 25 18 27
REMARK Flexibility Score: inf
ROOT
ATOM      1  C   UNL     1      14.078   3.117 218.405  1.00  0.00     0.180 A 
ATOM      2  C   UNL     1      13.671   3.774 219.579  1.00  0.00     0.208 A 
ATOM      3  C   UNL     1      13.168   5.082 219.489  1.00  0.00     0.238 A 
ATOM      4  O   UNL     1      12.857   5.684 220.550  1.00  0.00    -0.285 OA
ATOM      5  C   UNL     1      13.062   5.710 218.225  1.00  0.00     0.111 A 
ATOM      6  C   UNL     1      12.529   7.016 218.011  1.00  0.00     0.134 A 
ATOM      7  C   UNL     1      12.592   7.588 216.735  1.00  0.00     0.093 A 
ATOM      8  C   UNL     1      13.110   6.875 215.651  1.00  0.00     0.123 A 
ATOM      9  C   UNL     1      13.578   5.577 215.838  1.00  0.00     0.094 A 
ATOM     10  C   UNL     1      13.561   4.993 217.107  1.00  0.00     0.146 A 
ATOM     11  O   UNL     1      14.027   3.757 217.243  1.00  0.00    -0.452 OA
ENDROOT
BRANCH   1  12
ATOM     12  C   UNL     1      14.595   1.730 218.417  1.00  0.00     0.025 A 
ATOM     13  C   UNL     1      15.974   1.463 218.376  1.00  0.00     0.016 A 
ATOM     14  C   UNL     1      16.440   0.146 218.414  1.00  0.00     0.051 A 
ATOM     15  C   UNL     1      15.538  -0.922 218.506  1.00  0.00     0.157 A 
ATOM     16  C   UNL     1      13.696   0.657 218.531  1.00  0.00     0.062 A 
ATOM     17  C   UNL     1      14.158  -0.663 218.568  1.00  0.00     0.158 A 
BRANCH  15  18
ATOM     18  O   UNL     1      16.006  -2.234 218.541  1.00  0.00    -0.504 OA
ATOM     19  H   UNL     1      16.404  -2.678 217.722  1.00  0.00     0.293 HD
ENDBRANCH  15  18
BRANCH  17  20
ATOM     20  O   UNL     1      13.234  -1.703 218.668  1.00  0.00    -0.504 OA
ATOM     21  H   UNL     1      12.605  -1.788 219.457  1.00  0.00     0.293 HD
ENDBRANCH  17  20
ENDBRANCH   1  12
BRANCH   2  22
ATOM     22  O   UNL     1      13.806   3.144 220.820  1.00  0.00    -0.502 OA
ATOM     23  H   UNL     1      13.988   3.657 221.674  1.00  0.00     0.293 HD
ENDBRANCH   2  22
BRANCH   6  24
ATOM     24  O   UNL     1      11.906   7.777 219.006  1.00  0.00    -0.507 OA
ATOM     25  H   UNL     1      11.240   7.417 219.672  1.00  0.00     0.293 HD
ENDBRANCH   6  24
BRANCH   8  26
ATOM     26  O   UNL     1      13.156   7.446 214.381  1.00  0.00    -0.508 OA
ATOM     27  H   UNL     1      13.992   7.402 213.810  1.00  0.00     0.293 HD
ENDBRANCH   8  26
TORSDOF 6
ENDMDL
MODEL 6
REMARK VINA RESULT:    -6.508     10.991     13.188
REMARK INTER + INTRA:          -8.029
REMARK INTER:                  -7.710
REMARK INTRA:                  -0.319
REMARK UNBOUND:                -0.189
REMARK SMILES O=c1c(O)c(-c2ccc(O)c(O)c2)oc2cc(O)cc(O)c12
REMARK SMILES IDX 5 1 3 2 2 3 1 4 22 5 20 6 19 7 17 8 16 9 15 10 14 11 6 12
REMARK SMILES IDX 7 13 8 14 9 15 13 16 11 17 10 18 12 20 4 22 21 24 18 26
REMARK H PARENT 10 19 12 21 4 23 21 25 18 27
REMARK Flexibility Score: inf
ROOT
ATOM      1  C   UNL     1      18.982  -2.483 228.272  1.00  0.00     0.180 A 
ATOM      2  C   UNL     1      18.291  -3.699 228.406  1.00  0.00     0.208 A 
ATOM      3  C   UNL     1      16.894  -3.709 228.264  1.00  0.00     0.238 A 
ATOM      4  O   UNL     1      16.275  -4.791 228.439  1.00  0.00    -0.285 OA
ATOM      5  C   UNL     1      16.207  -2.505 227.975  1.00  0.00     0.111 A 
ATOM      6  C   UNL     1      14.799  -2.404 227.770  1.00  0.00     0.134 A 
ATOM      7  C   UNL     1      14.211  -1.143 227.619  1.00  0.00     0.093 A 
ATOM      8  C   UNL     1      14.989   0.017 227.599  1.00  0.00     0.123 A 
ATOM      9  C   UNL     1      16.372  -0.076 227.737  1.00  0.00     0.094 A 
ATOM     10  C   UNL     1      16.984  -1.317 227.927  1.00  0.00     0.146 A 
ATOM     11  O   UNL     1      18.303  -1.361 228.066  1.00  0.00    -0.452 OA
ENDROOT
BRANCH   1  12
ATOM     12  C   UNL     1      20.456  -2.398 228.383  1.00  0.00     0.025 A 
ATOM     13  C   UNL     1      21.291  -2.714 227.298  1.00  0.00     0.016 A 
ATOM     14  C   UNL     1      22.679  -2.603 227.419  1.00  0.00     0.051 A 
ATOM     15  C   UNL     1      23.252  -2.163 228.620  1.00  0.00     0.157 A 
ATOM     16  C   UNL     1      21.034  -1.938 229.578  1.00  0.00     0.062 A 
ATOM     17  C   UNL     1      22.423  -1.826 229.703  1.00  0.00     0.158 A 
BRANCH  15  18
ATOM     18  O   UNL     1      24.636  -2.055 228.737  1.00  0.00    -0.504 OA
ATOM     19  H   UNL     1      25.128  -2.403 229.551  1.00  0.00     0.293 HD
ENDBRANCH  15  18
BRANCH  17  20
ATOM     20  O   UNL     1      22.961  -1.377 230.910  1.00  0.00    -0.504 OA
ATOM     21  H   UNL     1      23.959  -1.286 231.052  1.00  0.00     0.293 HD
ENDBRANCH  17  20
ENDBRANCH   1  12
BRANCH   2  22
ATOM     22  O   UNL     1      18.986  -4.873 228.714  1.00  0.00    -0.502 OA
ATOM     23  H   UNL     1      19.832  -5.146 228.230  1.00  0.00     0.293 HD
ENDBRANCH   2  22
BRANCH   6  24
ATOM     24  O   UNL     1      13.942  -3.507 227.681  1.00  0.00    -0.507 OA
ATOM     25  H   UNL     1      13.036  -3.566 228.120  1.00  0.00     0.293 HD
ENDBRANCH   6  24
BRANCH   8  26
ATOM     26  O   UNL     1      14.398   1.268 227.432  1.00  0.00    -0.508 OA
ATOM     27  H   UNL     1      13.440   1.363 227.116  1.00  0.00     0.293 HD
ENDBRANCH   8  26
TORSDOF 6
ENDMDL
MODEL 7
REMARK VINA RESULT:    -6.503     11.304     13.378
REMARK INTER + INTRA:          -8.023
REMARK INTER:                  -7.699
REMARK INTRA:                  -0.324
REMARK UNBOUND:                -0.189
REMARK SMILES O=c1c(O)c(-c2ccc(O)c(O)c2)oc2cc(O)cc(O)c12
REMARK SMILES IDX 5 1 3 2 2 3 1 4 22 5 20 6 19 7 17 8 16 9 15 10 14 11 6 12
REMARK SMILES IDX 7 13 8 14 9 15 13 16 11 17 10 18 12 20 4 22 21 24 18 26
REMARK H PARENT 10 19 12 21 4 23 21 25 18 27
REMARK Flexibility Score: inf
ROOT
ATOM      1  C   UNL     1      17.472  -2.332 228.295  1.00  0.00     0.180 A 
ATOM      2  C   UNL     1      16.629  -1.293 227.863  1.00  0.00     0.208 A 
ATOM      3  C   UNL     1      15.318  -1.600 227.466  1.00  0.00     0.238 A 
ATOM      4  O   UNL     1      14.586  -0.673 227.029  1.00  0.00    -0.285 OA
ATOM      5  C   UNL     1      14.859  -2.937 227.522  1.00  0.00     0.111 A 
ATOM      6  C   UNL     1      13.538  -3.357 227.184  1.00  0.00     0.134 A 
ATOM      7  C   UNL     1      13.233  -4.723 227.152  1.00  0.00     0.093 A 
ATOM      8  C   UNL     1      14.184  -5.682 227.510  1.00  0.00     0.123 A 
ATOM      9  C   UNL     1      15.459  -5.279 227.900  1.00  0.00     0.094 A 
ATOM     10  C   UNL     1      15.804  -3.926 227.906  1.00  0.00     0.146 A 
ATOM     11  O   UNL     1      17.033  -3.586 228.274  1.00  0.00    -0.452 OA
ENDROOT
BRANCH   1  12
ATOM     12  C   UNL     1      18.858  -2.084 228.752  1.00  0.00     0.025 A 
ATOM     13  C   UNL     1      19.939  -2.103 227.854  1.00  0.00     0.016 A 
ATOM     14  C   UNL     1      21.236  -1.842 228.303  1.00  0.00     0.051 A 
ATOM     15  C   UNL     1      21.471  -1.545 229.652  1.00  0.00     0.157 A 
ATOM     16  C   UNL     1      19.096  -1.766 230.099  1.00  0.00     0.062 A 
ATOM     17  C   UNL     1      20.393  -1.504 230.553  1.00  0.00     0.158 A 
BRANCH  15  18
ATOM     18  O   UNL     1      22.766  -1.287 230.098  1.00  0.00    -0.504 OA
ATOM     19  H   UNL     1      23.012  -1.348 231.078  1.00  0.00     0.293 HD
ENDBRANCH  15  18
BRANCH  17  20
ATOM     20  O   UNL     1      20.592  -1.204 231.901  1.00  0.00    -0.504 OA
ATOM     21  H   UNL     1      20.408  -0.282 232.279  1.00  0.00     0.293 HD
ENDBRANCH  17  20
ENDBRANCH   1  12
BRANCH   2  22
ATOM     22  O   UNL     1      17.109   0.018 227.794  1.00  0.00    -0.502 OA
ATOM     23  H   UNL     1      17.962   0.260 227.303  1.00  0.00     0.293 HD
ENDBRANCH   2  22
BRANCH   6  24
ATOM     24  O   UNL     1      12.489  -2.476 226.900  1.00  0.00    -0.507 OA
ATOM     25  H   UNL     1      11.674  -2.712 226.354  1.00  0.00     0.293 HD
ENDBRANCH   6  24
BRANCH   8  26
ATOM     26  O   UNL     1      13.868  -7.039 227.490  1.00  0.00    -0.508 OA
ATOM     27  H   UNL     1      14.491  -7.733 227.885  1.00  0.00     0.293 HD
ENDBRANCH   8  26
TORSDOF 6
ENDMDL
MODEL 8
REMARK VINA RESULT:    -6.479      1.330      1.346
REMARK INTER + INTRA:          -7.993
REMARK INTER:                  -7.683
REMARK INTRA:                  -0.311
REMARK UNBOUND:                -0.189
REMARK SMILES O=c1c(O)c(-c2ccc(O)c(O)c2)oc2cc(O)cc(O)c12
REMARK SMILES IDX 5 1 3 2 2 3 1 4 22 5 20 6 19 7 17 8 16 9 15 10 14 11 6 12
REMARK SMILES IDX 7 13 8 14 9 15 13 16 11 17 10 18 12 20 4 22 21 24 18 26
REMARK H PARENT 10 19 12 21 4 23 21 25 18 27
REMARK Flexibility Score: inf
ROOT
ATOM      1  C   UNL     1      14.950   2.691 217.810  1.00  0.00     0.180 A 
ATOM      2  C   UNL     1      15.802   3.218 216.825  1.00  0.00     0.208 A 
ATOM      3  C   UNL     1      15.673   4.568 216.462  1.00  0.00     0.238 A 
ATOM      4  O   UNL     1      16.402   5.020 215.541  1.00  0.00    -0.285 OA
ATOM      5  C   UNL     1      14.704   5.379 217.101  1.00  0.00     0.111 A 
ATOM      6  C   UNL     1      14.512   6.769 216.842  1.00  0.00     0.134 A 
ATOM      7  C   UNL     1      13.439   7.442 217.437  1.00  0.00     0.093 A 
ATOM      8  C   UNL     1      12.588   6.790 218.334  1.00  0.00     0.123 A 
ATOM      9  C   UNL     1      12.803   5.448 218.639  1.00  0.00     0.094 A 
ATOM     10  C   UNL     1      13.844   4.741 218.033  1.00  0.00     0.146 A 
ATOM     11  O   UNL     1      14.007   3.461 218.343  1.00  0.00    -0.452 OA
ENDROOT
BRANCH   1  12
ATOM     12  C   UNL     1      15.042   1.285 218.262  1.00  0.00     0.025 A 
ATOM     13  C   UNL     1      14.412   0.246 217.556  1.00  0.00     0.016 A 
ATOM     14  C   UNL     1      14.534  -1.077 217.988  1.00  0.00     0.051 A 
ATOM     15  C   UNL     1      15.297  -1.384 219.122  1.00  0.00     0.157 A 
ATOM     16  C   UNL     1      15.823   0.970 219.386  1.00  0.00     0.062 A 
ATOM     17  C   UNL     1      15.947  -0.354 219.823  1.00  0.00     0.158 A 
BRANCH  15  18
ATOM     18  O   UNL     1      15.415  -2.705 219.551  1.00  0.00    -0.504 OA
ATOM     19  H   UNL     1      15.151  -2.984 220.488  1.00  0.00     0.293 HD
ENDBRANCH  15  18
BRANCH  17  20
ATOM     20  O   UNL     1      16.721  -0.626 220.951  1.00  0.00    -0.504 OA
ATOM     21  H   UNL     1      17.630  -0.204 221.094  1.00  0.00     0.293 HD
ENDBRANCH  17  20
ENDBRANCH   1  12
BRANCH   2  22
ATOM     22  O   UNL     1      16.737   2.394 216.191  1.00  0.00    -0.502 OA
ATOM     23  H   UNL     1      17.324   1.745 216.700  1.00  0.00     0.293 HD
ENDBRANCH   2  22
BRANCH   6  24
ATOM     24  O   UNL     1      15.359   7.537 216.035  1.00  0.00    -0.507 OA
ATOM     25  H   UNL     1      15.064   8.329 215.484  1.00  0.00     0.293 HD
ENDBRANCH   6  24
BRANCH   8  26
ATOM     26  O   UNL     1      11.531   7.470 218.934  1.00  0.00    -0.508 OA
ATOM     27  H   UNL     1      10.648   7.605 218.456  1.00  0.00     0.293 HD
ENDBRANCH   8  26
TORSDOF 6
ENDMDL
MODEL 9
REMARK VINA RESULT:    -6.460      2.314      6.952
REMARK INTER + INTRA:          -7.971
REMARK INTER:                  -7.728
REMARK INTRA:                  -0.242
REMARK UNBOUND:                -0.189
REMARK SMILES O=c1c(O)c(-c2ccc(O)c(O)c2)oc2cc(O)cc(O)c12
REMARK SMILES IDX 5 1 3 2 2 3 1 4 22 5 20 6 19 7 17 8 16 9 15 10 14 11 6 12
REMARK SMILES IDX 7 13 8 14 9 15 13 16 11 17 10 18 12 20 4 22 21 24 18 26
REMARK H PARENT 10 19 12 21 4 23 21 25 18 27
REMARK Flexibility Score: inf
ROOT
ATOM      1  C   UNL     1      14.975   3.047 218.687  1.00  0.00     0.180 A 
ATOM      2  C   UNL     1      14.579   1.725 218.954  1.00  0.00     0.208 A 
ATOM      3  C   UNL     1      15.428   0.898 219.707  1.00  0.00     0.238 A 
ATOM      4  O   UNL     1      15.093  -0.300 219.897  1.00  0.00    -0.285 OA
ATOM      5  C   UNL     1      16.654   1.408 220.198  1.00  0.00     0.111 A 
ATOM      6  C   UNL     1      17.573   0.673 221.005  1.00  0.00     0.134 A 
ATOM      7  C   UNL     1      18.815   1.234 221.324  1.00  0.00     0.093 A 
ATOM      8  C   UNL     1      19.145   2.530 220.920  1.00  0.00     0.123 A 
ATOM      9  C   UNL     1      18.231   3.278 220.183  1.00  0.00     0.094 A 
ATOM     10  C   UNL     1      16.998   2.732 219.817  1.00  0.00     0.146 A 
ATOM     11  O   UNL     1      16.161   3.475 219.105  1.00  0.00    -0.452 OA
ENDROOT
BRANCH   1  12
ATOM     12  C   UNL     1      14.123   3.984 217.921  1.00  0.00     0.025 A 
ATOM     13  C   UNL     1      13.952   3.851 216.533  1.00  0.00     0.016 A 
ATOM     14  C   UNL     1      13.123   4.733 215.835  1.00  0.00     0.051 A 
ATOM     15  C   UNL     1      12.443   5.753 216.514  1.00  0.00     0.157 A 
ATOM     16  C   UNL     1      13.423   4.995 218.601  1.00  0.00     0.062 A 
ATOM     17  C   UNL     1      12.592   5.881 217.906  1.00  0.00     0.158 A 
BRANCH  15  18
ATOM     18  O   UNL     1      11.619   6.633 215.815  1.00  0.00    -0.504 OA
ATOM     19  H   UNL     1      11.012   7.286 216.295  1.00  0.00     0.293 HD
ENDBRANCH  15  18
BRANCH  17  20
ATOM     20  O   UNL     1      11.923   6.880 218.613  1.00  0.00    -0.504 OA
ATOM     21  H   UNL     1      12.328   7.796 218.763  1.00  0.00     0.293 HD
ENDBRANCH  17  20
ENDBRANCH   1  12
BRANCH   2  22
ATOM     22  O   UNL     1      13.375   1.235 218.442  1.00  0.00    -0.502 OA
ATOM     23  H   UNL     1      13.136   1.296 217.459  1.00  0.00     0.293 HD
ENDBRANCH   2  22
BRANCH   6  24
ATOM     24  O   UNL     1      17.305  -0.592 221.538  1.00  0.00    -0.507 OA
ATOM     25  H   UNL     1      16.483  -1.139 221.332  1.00  0.00     0.293 HD
ENDBRANCH   6  24
BRANCH   8  26
ATOM     26  O   UNL     1      20.378   3.088 221.256  1.00  0.00    -0.508 OA
ATOM     27  H   UNL     1      21.249   2.661 220.964  1.00  0.00     0.293 HD
ENDBRANCH   8  26
TORSDOF 6
ENDMDL
