MODEL 1
REMARK VINA RESULT:    -3.902      0.000      0.000
REMARK INTER + INTRA:         -12.875
REMARK INTER:                 -10.289
REMARK INTRA:                  -2.586
REMARK UNBOUND:                -2.586
REMARK SMILES CCCCCCCCCCCCCCCCCCCCCCCCCCCCCC(=O)[O-]
REMARK SMILES IDX 16 1 17 2 18 3 19 4 20 5 21 6 22 7 23 8 24 9 25 10 26 11
REMARK SMILES IDX 27 12 28 13 29 14 30 15 31 16 32 17 15 18 14 19 13 20 12 21
REMARK SMILES IDX 11 22 10 23 9 24 8 25 7 26 6 27 5 28 4 29 3 30 2 31 1 32
REMARK H PARENT
REMARK Flexibility Score: inf
ROOT
ATOM      1  C   UNL     1       5.588  -0.615  -8.962  1.00  0.00     0.000 C 
ENDROOT
BRANCH   1   2
ATOM      2  C   UNL     1       6.993  -1.221  -9.174  1.00  0.00     0.000 C 
BRANCH   2   3
ATOM      3  C   UNL     1       8.041  -0.211  -9.672  1.00  0.00     0.000 C 
BRANCH   3   4
ATOM      4  C   UNL     1       9.243  -0.090  -8.724  1.00  0.00     0.000 C 
BRANCH   4   5
ATOM      5  C   UNL     1       9.219   1.210  -7.904  1.00  0.00     0.000 C 
BRANCH   5   6
ATOM      6  C   UNL     1       8.741   1.054  -6.443  1.00  0.00     0.000 C 
BRANCH   6   7
ATOM      7  C   UNL     1       8.473  -0.389  -5.968  1.00  0.00     0.000 C 
BRANCH   7   8
ATOM      8  C   UNL     1       7.087  -0.616  -5.324  1.00  0.00     0.000 C 
BRANCH   8   9
ATOM      9  C   UNL     1       6.451  -1.977  -5.668  1.00  0.00     0.000 C 
BRANCH   9  10
ATOM     10  C   UNL     1       6.128  -2.874  -4.461  1.00  0.00     0.000 C 
BRANCH  10  11
ATOM     11  C   UNL     1       4.840  -3.708  -4.594  1.00  0.00     0.000 C 
BRANCH  11  12
ATOM     12  C   UNL     1       4.945  -5.122  -3.978  1.00  0.00     0.000 C 
BRANCH  12  13
ATOM     13  C   UNL     1       4.225  -5.223  -2.621  1.00  0.00     0.006 C 
BRANCH  13  14
ATOM     14  C   UNL     1       4.052  -6.677  -2.159  1.00  0.00     0.053 C 
BRANCH  14  15
ATOM     15  C   UNL     1       4.474  -6.868  -0.734  1.00  0.00     0.041 C 
ATOM     16  O   UNL     1       4.137  -6.028   0.143  1.00  0.00    -0.550 OA
ATOM     17  O   UNL     1       5.274  -7.946  -0.382  1.00  0.00    -0.550 OA
ENDBRANCH  14  15
ENDBRANCH  13  14
ENDBRANCH  12  13
ENDBRANCH  11  12
ENDBRANCH  10  11
ENDBRANCH   9  10
ENDBRANCH   8   9
ENDBRANCH   7   8
ENDBRANCH   6   7
ENDBRANCH   5   6
ENDBRANCH   4   5
ENDBRANCH   3   4
ENDBRANCH   2   3
ENDBRANCH   1   2
BRANCH   1  18
ATOM     18  C   UNL     1       5.596   0.814  -8.379  1.00  0.00     0.000 C 
BRANCH  18  19
ATOM     19  C   UNL     1       4.815   1.847  -9.218  1.00  0.00     0.000 C 
BRANCH  19  20
ATOM     20  C   UNL     1       4.957   3.296  -8.709  1.00  0.00     0.000 C 
BRANCH  20  21
ATOM     21  C   UNL     1       4.184   3.558  -7.401  1.00  0.00     0.000 C 
BRANCH  21  22
ATOM     22  C   UNL     1       5.093   4.037  -6.247  1.00  0.00     0.000 C 
BRANCH  22  23
ATOM     23  C   UNL     1       6.452   4.600  -6.715  1.00  0.00     0.000 C 
BRANCH  23  24
ATOM     24  C   UNL     1       6.633   6.116  -6.473  1.00  0.00    -0.000 C 
BRANCH  24  25
ATOM     25  C   UNL     1       7.282   6.474  -5.120  1.00  0.00    -0.000 C 
BRANCH  25  26
ATOM     26  C   UNL     1       6.847   7.830  -4.536  1.00  0.00    -0.000 C 
BRANCH  26  27
ATOM     27  C   UNL     1       5.786   7.695  -3.429  1.00  0.00    -0.000 C 
BRANCH  27  28
ATOM     28  C   UNL     1       5.204   9.054  -3.009  1.00  0.00    -0.000 C 
BRANCH  28  29
ATOM     29  C   UNL     1       5.461   9.374  -1.526  1.00  0.00    -0.000 C 
BRANCH  29  30
ATOM     30  C   UNL     1       6.522   8.436  -0.909  1.00  0.00    -0.000 C 
BRANCH  30  31
ATOM     31  C   UNL     1       6.825   8.748   0.565  1.00  0.00    -0.003 C 
ATOM     32  C   UNL     1       8.220   9.329   0.780  1.00  0.00     0.004 C 
ENDBRANCH  30  31
ENDBRANCH  29  30
ENDBRANCH  28  29
ENDBRANCH  27  28
ENDBRANCH  26  27
ENDBRANCH  25  26
ENDBRANCH  24  25
ENDBRANCH  23  24
ENDBRANCH  22  23
ENDBRANCH  21  22
ENDBRANCH  20  21
ENDBRANCH  19  20
ENDBRANCH  18  19
ENDBRANCH   1  18
TORSDOF 28
ENDMDL
MODEL 2
REMARK VINA RESULT:    -3.859      1.577      2.882
REMARK INTER + INTRA:         -12.760
REMARK INTER:                  -9.746
REMARK INTRA:                  -3.014
REMARK UNBOUND:                -2.586
REMARK SMILES CCCCCCCCCCCCCCCCCCCCCCCCCCCCCC(=O)[O-]
REMARK SMILES IDX 16 1 17 2 18 3 19 4 20 5 21 6 22 7 23 8 24 9 25 10 26 11
REMARK SMILES IDX 27 12 28 13 29 14 30 15 31 16 32 17 15 18 14 19 13 20 12 21
REMARK SMILES IDX 11 22 10 23 9 24 8 25 7 26 6 27 5 28 4 29 3 30 2 31 1 32
REMARK H PARENT
REMARK Flexibility Score: inf
ROOT
ATOM      1  C   UNL     1       7.765  -1.873  -9.014  1.00  0.00     0.000 C 
ENDROOT
BRANCH   1   2
ATOM      2  C   UNL     1       8.758  -0.750  -9.386  1.00  0.00     0.000 C 
BRANCH   2   3
ATOM      3  C   UNL     1       8.638   0.507  -8.507  1.00  0.00     0.000 C 
BRANCH   3   4
ATOM      4  C   UNL     1       9.635   0.509  -7.338  1.00  0.00     0.000 C 
BRANCH   4   5
ATOM      5  C   UNL     1       8.944   0.352  -5.974  1.00  0.00     0.000 C 
BRANCH   5   6
ATOM      6  C   UNL     1       7.438   0.012  -6.038  1.00  0.00     0.000 C 
BRANCH   6   7
ATOM      7  C   UNL     1       6.904  -0.911  -4.923  1.00  0.00     0.000 C 
BRANCH   7   8
ATOM      8  C   UNL     1       6.177  -2.180  -5.421  1.00  0.00     0.000 C 
BRANCH   8   9
ATOM      9  C   UNL     1       6.212  -3.355  -4.424  1.00  0.00     0.000 C 
BRANCH   9  10
ATOM     10  C   UNL     1       4.869  -4.076  -4.214  1.00  0.00     0.000 C 
BRANCH  10  11
ATOM     11  C   UNL     1       4.981  -5.531  -3.721  1.00  0.00     0.000 C 
BRANCH  11  12
ATOM     12  C   UNL     1       3.722  -6.038  -2.981  1.00  0.00     0.000 C 
BRANCH  12  13
ATOM     13  C   UNL     1       3.893  -6.010  -1.451  1.00  0.00     0.006 C 
BRANCH  13  14
ATOM     14  C   UNL     1       4.713  -7.202  -0.934  1.00  0.00     0.053 C 
BRANCH  14  15
ATOM     15  C   UNL     1       4.852  -7.182   0.558  1.00  0.00     0.041 C 
ATOM     16  O   UNL     1       5.831  -7.752   1.109  1.00  0.00    -0.550 OA
ATOM     17  O   UNL     1       3.880  -6.573   1.340  1.00  0.00    -0.550 OA
ENDBRANCH  14  15
ENDBRANCH  13  14
ENDBRANCH  12  13
ENDBRANCH  11  12
ENDBRANCH  10  11
ENDBRANCH   9  10
ENDBRANCH   8   9
ENDBRANCH   7   8
ENDBRANCH   6   7
ENDBRANCH   5   6
ENDBRANCH   4   5
ENDBRANCH   3   4
ENDBRANCH   2   3
ENDBRANCH   1   2
BRANCH   1  18
ATOM     18  C   UNL     1       6.415  -1.797  -9.759  1.00  0.00     0.000 C 
BRANCH  18  19
ATOM     19  C   UNL     1       5.302  -1.061  -8.984  1.00  0.00     0.000 C 
BRANCH  19  20
ATOM     20  C   UNL     1       4.638   0.079  -9.783  1.00  0.00     0.000 C 
BRANCH  20  21
ATOM     21  C   UNL     1       5.513   1.345  -9.877  1.00  0.00     0.000 C 
BRANCH  21  22
ATOM     22  C   UNL     1       4.947   2.533  -9.069  1.00  0.00     0.000 C 
BRANCH  22  23
ATOM     23  C   UNL     1       5.059   2.359  -7.539  1.00  0.00     0.000 C 
BRANCH  23  24
ATOM     24  C   UNL     1       6.174   3.203  -6.881  1.00  0.00    -0.000 C 
BRANCH  24  25
ATOM     25  C   UNL     1       6.923   4.141  -7.852  1.00  0.00    -0.000 C 
BRANCH  25  26
ATOM     26  C   UNL     1       7.180   5.558  -7.309  1.00  0.00    -0.000 C 
BRANCH  26  27
ATOM     27  C   UNL     1       6.352   5.881  -6.053  1.00  0.00    -0.000 C 
BRANCH  27  28
ATOM     28  C   UNL     1       7.049   6.902  -5.140  1.00  0.00    -0.000 C 
BRANCH  28  29
ATOM     29  C   UNL     1       6.555   6.829  -3.686  1.00  0.00    -0.000 C 
BRANCH  29  30
ATOM     30  C   UNL     1       5.693   8.054  -3.307  1.00  0.00    -0.000 C 
BRANCH  30  31
ATOM     31  C   UNL     1       6.102   9.338  -4.046  1.00  0.00    -0.003 C 
ATOM     32  C   UNL     1       5.000   9.884  -4.951  1.00  0.00     0.004 C 
ENDBRANCH  30  31
ENDBRANCH  29  30
ENDBRANCH  28  29
ENDBRANCH  27  28
ENDBRANCH  26  27
ENDBRANCH  25  26
ENDBRANCH  24  25
ENDBRANCH  23  24
ENDBRANCH  22  23
ENDBRANCH  21  22
ENDBRANCH  20  21
ENDBRANCH  19  20
ENDBRANCH  18  19
ENDBRANCH   1  18
TORSDOF 28
ENDMDL
MODEL 3
REMARK VINA RESULT:    -3.774      4.503      8.696
REMARK INTER + INTRA:         -12.538
REMARK INTER:                  -7.205
REMARK INTRA:                  -5.333
REMARK UNBOUND:                -2.586
REMARK SMILES CCCCCCCCCCCCCCCCCCCCCCCCCCCCCC(=O)[O-]
REMARK SMILES IDX 16 1 17 2 18 3 19 4 20 5 21 6 22 7 23 8 24 9 25 10 26 11
REMARK SMILES IDX 27 12 28 13 29 14 30 15 31 16 32 17 15 18 14 19 13 20 12 21
REMARK SMILES IDX 11 22 10 23 9 24 8 25 7 26 6 27 5 28 4 29 3 30 2 31 1 32
REMARK H PARENT
REMARK Flexibility Score: inf
ROOT
ATOM      1  C   UNL     1       8.211  -0.669  -6.295  1.00  0.00     0.000 C 
ENDROOT
BRANCH   1   2
ATOM      2  C   UNL     1       8.730   0.769  -6.077  1.00  0.00     0.000 C 
BRANCH   2   3
ATOM      3  C   UNL     1       9.868   1.174  -7.030  1.00  0.00     0.000 C 
BRANCH   3   4
ATOM      4  C   UNL     1       9.351   1.701  -8.377  1.00  0.00     0.000 C 
BRANCH   4   5
ATOM      5  C   UNL     1       8.888   3.165  -8.300  1.00  0.00     0.000 C 
BRANCH   5   6
ATOM      6  C   UNL     1       9.686   4.052  -7.318  1.00  0.00     0.000 C 
BRANCH   6   7
ATOM      7  C   UNL     1       9.813   5.541  -7.700  1.00  0.00     0.000 C 
BRANCH   7   8
ATOM      8  C   UNL     1       9.834   6.521  -6.506  1.00  0.00     0.000 C 
BRANCH   8   9
ATOM      9  C   UNL     1       9.504   5.865  -5.151  1.00  0.00     0.000 C 
BRANCH   9  10
ATOM     10  C   UNL     1       8.761   6.767  -4.150  1.00  0.00     0.000 C 
BRANCH  10  11
ATOM     11  C   UNL     1       8.354   8.149  -4.696  1.00  0.00     0.000 C 
BRANCH  11  12
ATOM     12  C   UNL     1       7.544   9.002  -3.693  1.00  0.00     0.000 C 
BRANCH  12  13
ATOM     13  C   UNL     1       6.115   8.468  -3.492  1.00  0.00     0.006 C 
BRANCH  13  14
ATOM     14  C   UNL     1       5.552   8.814  -2.105  1.00  0.00     0.053 C 
BRANCH  14  15
ATOM     15  C   UNL     1       6.512   8.467  -1.008  1.00  0.00     0.041 C 
ATOM     16  O   UNL     1       6.662   7.267  -0.656  1.00  0.00    -0.550 OA
ATOM     17  O   UNL     1       7.205   9.470  -0.345  1.00  0.00    -0.550 OA
ENDBRANCH  14  15
ENDBRANCH  13  14
ENDBRANCH  12  13
ENDBRANCH  11  12
ENDBRANCH  10  11
ENDBRANCH   9  10
ENDBRANCH   8   9
ENDBRANCH   7   8
ENDBRANCH   6   7
ENDBRANCH   5   6
ENDBRANCH   4   5
ENDBRANCH   3   4
ENDBRANCH   2   3
ENDBRANCH   1   2
BRANCH   1  18
ATOM     18  C   UNL     1       6.816  -0.938  -5.693  1.00  0.00     0.000 C 
BRANCH  18  19
ATOM     19  C   UNL     1       5.694  -1.110  -6.739  1.00  0.00     0.000 C 
BRANCH  19  20
ATOM     20  C   UNL     1       6.209  -1.448  -8.153  1.00  0.00     0.000 C 
BRANCH  20  21
ATOM     21  C   UNL     1       5.084  -1.543  -9.202  1.00  0.00     0.000 C 
BRANCH  21  22
ATOM     22  C   UNL     1       4.957  -0.272 -10.070  1.00  0.00     0.000 C 
BRANCH  22  23
ATOM     23  C   UNL     1       6.163   0.686  -9.956  1.00  0.00     0.000 C 
BRANCH  23  24
ATOM     24  C   UNL     1       5.783   2.175  -9.801  1.00  0.00    -0.000 C 
BRANCH  24  25
ATOM     25  C   UNL     1       4.756   2.460  -8.685  1.00  0.00    -0.000 C 
BRANCH  25  26
ATOM     26  C   UNL     1       5.339   2.474  -7.261  1.00  0.00    -0.000 C 
BRANCH  26  27
ATOM     27  C   UNL     1       4.940   3.725  -6.459  1.00  0.00    -0.000 C 
BRANCH  27  28
ATOM     28  C   UNL     1       6.148   4.619  -6.131  1.00  0.00    -0.000 C 
BRANCH  28  29
ATOM     29  C   UNL     1       6.020   6.028  -6.733  1.00  0.00    -0.000 C 
BRANCH  29  30
ATOM     30  C   UNL     1       6.230   6.023  -8.263  1.00  0.00    -0.000 C 
BRANCH  30  31
ATOM     31  C   UNL     1       6.744   7.364  -8.812  1.00  0.00    -0.003 C 
ATOM     32  C   UNL     1       6.509   8.531  -7.856  1.00  0.00     0.004 C 
ENDBRANCH  30  31
ENDBRANCH  29  30
ENDBRANCH  28  29
ENDBRANCH  27  28
ENDBRANCH  26  27
ENDBRANCH  25  26
ENDBRANCH  24  25
ENDBRANCH  23  24
ENDBRANCH  22  23
ENDBRANCH  21  22
ENDBRANCH  20  21
ENDBRANCH  19  20
ENDBRANCH  18  19
ENDBRANCH   1  18
TORSDOF 28
ENDMDL
MODEL 4
REMARK VINA RESULT:    -3.734      4.562     10.750
REMARK INTER + INTRA:         -12.431
REMARK INTER:                  -8.194
REMARK INTRA:                  -4.237
REMARK UNBOUND:                -2.586
REMARK SMILES CCCCCCCCCCCCCCCCCCCCCCCCCCCCCC(=O)[O-]
REMARK SMILES IDX 16 1 17 2 18 3 19 4 20 5 21 6 22 7 23 8 24 9 25 10 26 11
REMARK SMILES IDX 27 12 28 13 29 14 30 15 31 16 32 17 15 18 14 19 13 20 12 21
REMARK SMILES IDX 11 22 10 23 9 24 8 25 7 26 6 27 5 28 4 29 3 30 2 31 1 32
REMARK H PARENT
REMARK Flexibility Score: inf
ROOT
ATOM      1  C   UNL     1       9.335   5.856  -6.976  1.00  0.00     0.000 C 
ENDROOT
BRANCH   1   2
ATOM      2  C   UNL     1       9.863   6.615  -5.739  1.00  0.00     0.000 C 
BRANCH   2   3
ATOM      3  C   UNL     1       8.783   7.411  -4.986  1.00  0.00     0.000 C 
BRANCH   3   4
ATOM      4  C   UNL     1       8.784   8.902  -5.355  1.00  0.00     0.000 C 
BRANCH   4   5
ATOM      5  C   UNL     1       8.253   9.158  -6.775  1.00  0.00     0.000 C 
BRANCH   5   6
ATOM      6  C   UNL     1       6.721   9.035  -6.934  1.00  0.00     0.000 C 
BRANCH   6   7
ATOM      7  C   UNL     1       5.869   9.894  -5.975  1.00  0.00     0.000 C 
BRANCH   7   8
ATOM      8  C   UNL     1       5.171   9.108  -4.843  1.00  0.00     0.000 C 
BRANCH   8   9
ATOM      9  C   UNL     1       4.486  10.001  -3.790  1.00  0.00     0.000 C 
BRANCH   9  10
ATOM     10  C   UNL     1       5.136   9.985  -2.396  1.00  0.00     0.000 C 
BRANCH  10  11
ATOM     11  C   UNL     1       6.672  10.100  -2.391  1.00  0.00     0.000 C 
BRANCH  11  12
ATOM     12  C   UNL     1       7.392   8.832  -1.879  1.00  0.00     0.000 C 
BRANCH  12  13
ATOM     13  C   UNL     1       8.559   9.164  -0.931  1.00  0.00     0.006 C 
BRANCH  13  14
ATOM     14  C   UNL     1       8.095   9.360   0.520  1.00  0.00     0.053 C 
BRANCH  14  15
ATOM     15  C   UNL     1       6.911   8.504   0.851  1.00  0.00     0.041 C 
ATOM     16  O   UNL     1       5.794   9.036   1.091  1.00  0.00    -0.550 OA
ATOM     17  O   UNL     1       7.049   7.126   0.937  1.00  0.00    -0.550 OA
ENDBRANCH  14  15
ENDBRANCH  13  14
ENDBRANCH  12  13
ENDBRANCH  11  12
ENDBRANCH  10  11
ENDBRANCH   9  10
ENDBRANCH   8   9
ENDBRANCH   7   8
ENDBRANCH   6   7
ENDBRANCH   5   6
ENDBRANCH   4   5
ENDBRANCH   3   4
ENDBRANCH   2   3
ENDBRANCH   1   2
BRANCH   1  18
ATOM     18  C   UNL     1       8.190   4.867  -6.673  1.00  0.00     0.000 C 
BRANCH  18  19
ATOM     19  C   UNL     1       6.789   5.371  -7.077  1.00  0.00     0.000 C 
BRANCH  19  20
ATOM     20  C   UNL     1       5.683   5.011  -6.065  1.00  0.00     0.000 C 
BRANCH  20  21
ATOM     21  C   UNL     1       4.918   3.724  -6.434  1.00  0.00     0.000 C 
BRANCH  21  22
ATOM     22  C   UNL     1       4.571   3.637  -7.936  1.00  0.00     0.000 C 
BRANCH  22  23
ATOM     23  C   UNL     1       5.157   2.395  -8.642  1.00  0.00     0.000 C 
BRANCH  23  24
ATOM     24  C   UNL     1       6.576   2.599  -9.219  1.00  0.00    -0.000 C 
BRANCH  24  25
ATOM     25  C   UNL     1       7.625   1.590  -8.708  1.00  0.00    -0.000 C 
BRANCH  25  26
ATOM     26  C   UNL     1       7.770   1.530  -7.177  1.00  0.00    -0.000 C 
BRANCH  26  27
ATOM     27  C   UNL     1       7.560   0.116  -6.608  1.00  0.00    -0.000 C 
BRANCH  27  28
ATOM     28  C   UNL     1       6.075  -0.203  -6.368  1.00  0.00    -0.000 C 
BRANCH  28  29
ATOM     29  C   UNL     1       5.622  -1.482  -7.092  1.00  0.00    -0.000 C 
BRANCH  29  30
ATOM     30  C   UNL     1       6.567  -1.853  -8.256  1.00  0.00    -0.000 C 
BRANCH  30  31
ATOM     31  C   UNL     1       5.969  -1.563  -9.642  1.00  0.00    -0.003 C 
ATOM     32  C   UNL     1       4.492  -1.180  -9.588  1.00  0.00     0.004 C 
ENDBRANCH  30  31
ENDBRANCH  29  30
ENDBRANCH  28  29
ENDBRANCH  27  28
ENDBRANCH  26  27
ENDBRANCH  25  26
ENDBRANCH  24  25
ENDBRANCH  23  24
ENDBRANCH  22  23
ENDBRANCH  21  22
ENDBRANCH  20  21
ENDBRANCH  19  20
ENDBRANCH  18  19
ENDBRANCH   1  18
TORSDOF 28
ENDMDL
MODEL 5
REMARK VINA RESULT:    -3.710      4.632     10.337
REMARK INTER + INTRA:         -12.368
REMARK INTER:                  -6.483
REMARK INTRA:                  -5.885
REMARK UNBOUND:                -2.586
REMARK SMILES CCCCCCCCCCCCCCCCCCCCCCCCCCCCCC(=O)[O-]
REMARK SMILES IDX 16 1 17 2 18 3 19 4 20 5 21 6 22 7 23 8 24 9 25 10 26 11
REMARK SMILES IDX 27 12 28 13 29 14 30 15 31 16 32 17 15 18 14 19 13 20 12 21
REMARK SMILES IDX 11 22 10 23 9 24 8 25 7 26 6 27 5 28 4 29 3 30 2 31 1 32
REMARK H PARENT
REMARK Flexibility Score: inf
ROOT
ATOM      1  C   UNL     1       7.198   5.242  -6.055  1.00  0.00     0.000 C 
ENDROOT
BRANCH   1   2
ATOM      2  C   UNL     1       6.085   6.147  -6.628  1.00  0.00     0.000 C 
BRANCH   2   3
ATOM      3  C   UNL     1       6.290   6.531  -8.104  1.00  0.00     0.000 C 
BRANCH   3   4
ATOM      4  C   UNL     1       5.994   8.014  -8.376  1.00  0.00     0.000 C 
BRANCH   4   5
ATOM      5  C   UNL     1       7.207   8.760  -8.956  1.00  0.00     0.000 C 
BRANCH   5   6
ATOM      6  C   UNL     1       8.519   7.944  -8.997  1.00  0.00     0.000 C 
BRANCH   6   7
ATOM      7  C   UNL     1       9.743   8.595  -8.320  1.00  0.00     0.000 C 
BRANCH   7   8
ATOM      8  C   UNL     1       9.408   9.697  -7.290  1.00  0.00     0.000 C 
BRANCH   8   9
ATOM      9  C   UNL     1       9.670   9.288  -5.827  1.00  0.00     0.000 C 
BRANCH   9  10
ATOM     10  C   UNL     1       8.599   9.740  -4.819  1.00  0.00     0.000 C 
BRANCH  10  11
ATOM     11  C   UNL     1       7.168   9.259  -5.128  1.00  0.00     0.000 C 
BRANCH  11  12
ATOM     12  C   UNL     1       6.166   9.504  -3.977  1.00  0.00     0.000 C 
BRANCH  12  13
ATOM     13  C   UNL     1       5.615   8.191  -3.392  1.00  0.00     0.006 C 
BRANCH  13  14
ATOM     14  C   UNL     1       6.732   7.210  -3.005  1.00  0.00     0.053 C 
BRANCH  14  15
ATOM     15  C   UNL     1       7.315   7.526  -1.661  1.00  0.00     0.041 C 
ATOM     16  O   UNL     1       8.534   7.826  -1.556  1.00  0.00    -0.550 OA
ATOM     17  O   UNL     1       6.524   7.448  -0.523  1.00  0.00    -0.550 OA
ENDBRANCH  14  15
ENDBRANCH  13  14
ENDBRANCH  12  13
ENDBRANCH  11  12
ENDBRANCH  10  11
ENDBRANCH   9  10
ENDBRANCH   8   9
ENDBRANCH   7   8
ENDBRANCH   6   7
ENDBRANCH   5   6
ENDBRANCH   4   5
ENDBRANCH   3   4
ENDBRANCH   2   3
ENDBRANCH   1   2
BRANCH   1  18
ATOM     18  C   UNL     1       8.600   5.887  -6.050  1.00  0.00     0.000 C 
BRANCH  18  19
ATOM     19  C   UNL     1       9.679   5.067  -6.788  1.00  0.00     0.000 C 
BRANCH  19  20
ATOM     20  C   UNL     1       9.358   3.561  -6.884  1.00  0.00     0.000 C 
BRANCH  20  21
ATOM     21  C   UNL     1       9.314   3.041  -8.335  1.00  0.00     0.000 C 
BRANCH  21  22
ATOM     22  C   UNL     1       8.609   4.014  -9.305  1.00  0.00     0.000 C 
BRANCH  22  23
ATOM     23  C   UNL     1       7.316   3.446  -9.929  1.00  0.00     0.000 C 
BRANCH  23  24
ATOM     24  C   UNL     1       6.679   2.286  -9.133  1.00  0.00    -0.000 C 
BRANCH  24  25
ATOM     25  C   UNL     1       5.553   2.715  -8.169  1.00  0.00    -0.000 C 
BRANCH  25  26
ATOM     26  C   UNL     1       5.606   2.053  -6.780  1.00  0.00    -0.000 C 
BRANCH  26  27
ATOM     27  C   UNL     1       6.716   0.994  -6.661  1.00  0.00    -0.000 C 
BRANCH  27  28
ATOM     28  C   UNL     1       6.289  -0.205  -5.797  1.00  0.00    -0.000 C 
BRANCH  28  29
ATOM     29  C   UNL     1       6.003  -1.463  -6.634  1.00  0.00    -0.000 C 
BRANCH  29  30
ATOM     30  C   UNL     1       5.488  -1.111  -8.047  1.00  0.00    -0.000 C 
BRANCH  30  31
ATOM     31  C   UNL     1       6.168  -1.922  -9.162  1.00  0.00    -0.003 C 
ATOM     32  C   UNL     1       7.665  -1.646  -9.275  1.00  0.00     0.004 C 
ENDBRANCH  30  31
ENDBRANCH  29  30
ENDBRANCH  28  29
ENDBRANCH  27  28
ENDBRANCH  26  27
ENDBRANCH  25  26
ENDBRANCH  24  25
ENDBRANCH  23  24
ENDBRANCH  22  23
ENDBRANCH  21  22
ENDBRANCH  20  21
ENDBRANCH  19  20
ENDBRANCH  18  19
ENDBRANCH   1  18
TORSDOF 28
ENDMDL
MODEL 6
REMARK VINA RESULT:    -3.695      5.282      7.903
REMARK INTER + INTRA:         -12.330
REMARK INTER:                  -7.528
REMARK INTRA:                  -4.802
REMARK UNBOUND:                -2.586
REMARK SMILES CCCCCCCCCCCCCCCCCCCCCCCCCCCCCC(=O)[O-]
REMARK SMILES IDX 16 1 17 2 18 3 19 4 20 5 21 6 22 7 23 8 24 9 25 10 26 11
REMARK SMILES IDX 27 12 28 13 29 14 30 15 31 16 32 17 15 18 14 19 13 20 12 21
REMARK SMILES IDX 11 22 10 23 9 24 8 25 7 26 6 27 5 28 4 29 3 30 2 31 1 32
REMARK H PARENT
REMARK Flexibility Score: inf
ROOT
ATOM      1  C   UNL     1       7.491  -0.612  -5.546  1.00  0.00     0.000 C 
ENDROOT
BRANCH   1   2
ATOM      2  C   UNL     1       6.902  -1.523  -6.646  1.00  0.00     0.000 C 
BRANCH   2   3
ATOM      3  C   UNL     1       5.465  -1.159  -7.057  1.00  0.00     0.000 C 
BRANCH   3   4
ATOM      4  C   UNL     1       4.969  -1.978  -8.258  1.00  0.00     0.000 C 
BRANCH   4   5
ATOM      5  C   UNL     1       4.683  -1.105  -9.490  1.00  0.00     0.000 C 
BRANCH   5   6
ATOM      6  C   UNL     1       5.615   0.116  -9.657  1.00  0.00     0.000 C 
BRANCH   6   7
ATOM      7  C   UNL     1       4.942   1.501  -9.558  1.00  0.00     0.000 C 
BRANCH   7   8
ATOM      8  C   UNL     1       5.729   2.550  -8.739  1.00  0.00     0.000 C 
BRANCH   8   9
ATOM      9  C   UNL     1       5.496   2.460  -7.218  1.00  0.00     0.000 C 
BRANCH   9  10
ATOM     10  C   UNL     1       4.798   3.678  -6.589  1.00  0.00     0.000 C 
BRANCH  10  11
ATOM     11  C   UNL     1       5.732   4.843  -6.213  1.00  0.00     0.000 C 
BRANCH  11  12
ATOM     12  C   UNL     1       5.963   5.854  -7.360  1.00  0.00     0.000 C 
BRANCH  12  13
ATOM     13  C   UNL     1       6.337   7.253  -6.839  1.00  0.00     0.006 C 
BRANCH  13  14
ATOM     14  C   UNL     1       6.405   8.296  -7.965  1.00  0.00     0.053 C 
BRANCH  14  15
ATOM     15  C   UNL     1       7.785   8.418  -8.535  1.00  0.00     0.041 C 
ATOM     16  O   UNL     1       8.055   7.903  -9.653  1.00  0.00    -0.550 OA
ATOM     17  O   UNL     1       8.782   9.061  -7.815  1.00  0.00    -0.550 OA
ENDBRANCH  14  15
ENDBRANCH  13  14
ENDBRANCH  12  13
ENDBRANCH  11  12
ENDBRANCH  10  11
ENDBRANCH   9  10
ENDBRANCH   8   9
ENDBRANCH   7   8
ENDBRANCH   6   7
ENDBRANCH   5   6
ENDBRANCH   4   5
ENDBRANCH   3   4
ENDBRANCH   2   3
ENDBRANCH   1   2
BRANCH   1  18
ATOM     18  C   UNL     1       8.497   0.437  -6.063  1.00  0.00     0.000 C 
BRANCH  18  19
ATOM     19  C   UNL     1       8.844   0.302  -7.561  1.00  0.00     0.000 C 
BRANCH  19  20
ATOM     20  C   UNL     1       9.219   1.637  -8.235  1.00  0.00     0.000 C 
BRANCH  20  21
ATOM     21  C   UNL     1       9.244   2.827  -7.254  1.00  0.00     0.000 C 
BRANCH  21  22
ATOM     22  C   UNL     1       9.042   4.189  -7.951  1.00  0.00     0.000 C 
BRANCH  22  23
ATOM     23  C   UNL     1       9.651   5.382  -7.182  1.00  0.00     0.000 C 
BRANCH  23  24
ATOM     24  C   UNL     1       9.405   5.350  -5.657  1.00  0.00    -0.000 C 
BRANCH  24  25
ATOM     25  C   UNL     1       9.489   6.728  -4.968  1.00  0.00    -0.000 C 
BRANCH  25  26
ATOM     26  C   UNL     1       8.946   6.763  -3.528  1.00  0.00    -0.000 C 
BRANCH  26  27
ATOM     27  C   UNL     1       7.409   6.732  -3.464  1.00  0.00    -0.000 C 
BRANCH  27  28
ATOM     28  C   UNL     1       6.807   8.124  -3.207  1.00  0.00    -0.000 C 
BRANCH  28  29
ATOM     29  C   UNL     1       6.001   8.186  -1.898  1.00  0.00    -0.000 C 
BRANCH  29  30
ATOM     30  C   UNL     1       6.427   9.378  -1.014  1.00  0.00    -0.000 C 
BRANCH  30  31
ATOM     31  C   UNL     1       7.951   9.554  -0.922  1.00  0.00    -0.003 C 
ATOM     32  C   UNL     1       8.601   8.619   0.097  1.00  0.00     0.004 C 
ENDBRANCH  30  31
ENDBRANCH  29  30
ENDBRANCH  28  29
ENDBRANCH  27  28
ENDBRANCH  26  27
ENDBRANCH  25  26
ENDBRANCH  24  25
ENDBRANCH  23  24
ENDBRANCH  22  23
ENDBRANCH  21  22
ENDBRANCH  20  21
ENDBRANCH  19  20
ENDBRANCH  18  19
ENDBRANCH   1  18
TORSDOF 28
ENDMDL
MODEL 7
REMARK VINA RESULT:    -3.662      2.852      4.437
REMARK INTER + INTRA:         -12.242
REMARK INTER:                  -8.262
REMARK INTRA:                  -3.981
REMARK UNBOUND:                -2.586
REMARK SMILES CCCCCCCCCCCCCCCCCCCCCCCCCCCCCC(=O)[O-]
REMARK SMILES IDX 16 1 17 2 18 3 19 4 20 5 21 6 22 7 23 8 24 9 25 10 26 11
REMARK SMILES IDX 27 12 28 13 29 14 30 15 31 16 32 17 15 18 14 19 13 20 12 21
REMARK SMILES IDX 11 22 10 23 9 24 8 25 7 26 6 27 5 28 4 29 3 30 2 31 1 32
REMARK H PARENT
REMARK Flexibility Score: inf
ROOT
ATOM      1  C   UNL     1       4.470   3.411  -5.956  1.00  0.00     0.000 C 
ENDROOT
BRANCH   1   2
ATOM      2  C   UNL     1       4.999   2.106  -6.590  1.00  0.00     0.000 C 
BRANCH   2   3
ATOM      3  C   UNL     1       6.290   2.286  -7.406  1.00  0.00     0.000 C 
BRANCH   3   4
ATOM      4  C   UNL     1       7.535   1.779  -6.662  1.00  0.00     0.000 C 
BRANCH   4   5
ATOM      5  C   UNL     1       8.804   1.838  -7.528  1.00  0.00     0.000 C 
BRANCH   5   6
ATOM      6  C   UNL     1       9.562   0.499  -7.670  1.00  0.00     0.000 C 
BRANCH   6   7
ATOM      7  C   UNL     1       9.660  -0.076  -9.099  1.00  0.00     0.000 C 
BRANCH   7   8
ATOM      8  C   UNL     1       9.081  -1.498  -9.269  1.00  0.00     0.000 C 
BRANCH   8   9
ATOM      9  C   UNL     1       7.800  -1.555 -10.125  1.00  0.00     0.000 C 
BRANCH   9  10
ATOM     10  C   UNL     1       6.905  -0.305 -10.047  1.00  0.00     0.000 C 
BRANCH  10  11
ATOM     11  C   UNL     1       5.459  -0.567  -9.585  1.00  0.00     0.000 C 
BRANCH  11  12
ATOM     12  C   UNL     1       5.291  -1.870  -8.771  1.00  0.00     0.000 C 
BRANCH  12  13
ATOM     13  C   UNL     1       5.246  -1.610  -7.254  1.00  0.00     0.006 C 
BRANCH  13  14
ATOM     14  C   UNL     1       6.644  -1.622  -6.618  1.00  0.00     0.053 C 
BRANCH  14  15
ATOM     15  C   UNL     1       6.581  -1.749  -5.126  1.00  0.00     0.041 C 
ATOM     16  O   UNL     1       6.772  -0.740  -4.397  1.00  0.00    -0.550 OA
ATOM     17  O   UNL     1       6.355  -2.988  -4.542  1.00  0.00    -0.550 OA
ENDBRANCH  14  15
ENDBRANCH  13  14
ENDBRANCH  12  13
ENDBRANCH  11  12
ENDBRANCH  10  11
ENDBRANCH   9  10
ENDBRANCH   8   9
ENDBRANCH   7   8
ENDBRANCH   6   7
ENDBRANCH   5   6
ENDBRANCH   4   5
ENDBRANCH   3   4
ENDBRANCH   2   3
ENDBRANCH   1   2
BRANCH   1  18
ATOM     18  C   UNL     1       5.547   4.496  -5.746  1.00  0.00     0.000 C 
BRANCH  18  19
ATOM     19  C   UNL     1       5.897   5.300  -7.016  1.00  0.00     0.000 C 
BRANCH  19  20
ATOM     20  C   UNL     1       7.404   5.583  -7.176  1.00  0.00     0.000 C 
BRANCH  20  21
ATOM     21  C   UNL     1       8.074   6.063  -5.873  1.00  0.00     0.000 C 
BRANCH  21  22
ATOM     22  C   UNL     1       8.599   7.512  -5.960  1.00  0.00     0.000 C 
BRANCH  22  23
ATOM     23  C   UNL     1       8.125   8.274  -7.216  1.00  0.00     0.000 C 
BRANCH  23  24
ATOM     24  C   UNL     1       7.041   9.341  -6.945  1.00  0.00    -0.000 C 
BRANCH  24  25
ATOM     25  C   UNL     1       5.932   8.891  -5.971  1.00  0.00    -0.000 C 
BRANCH  25  26
ATOM     26  C   UNL     1       5.927   9.624  -4.617  1.00  0.00    -0.000 C 
BRANCH  26  27
ATOM     27  C   UNL     1       5.257   8.811  -3.496  1.00  0.00    -0.000 C 
BRANCH  27  28
ATOM     28  C   UNL     1       5.982   7.482  -3.224  1.00  0.00    -0.000 C 
BRANCH  28  29
ATOM     29  C   UNL     1       6.716   7.475  -1.873  1.00  0.00    -0.000 C 
BRANCH  29  30
ATOM     30  C   UNL     1       7.895   8.473  -1.851  1.00  0.00    -0.000 C 
BRANCH  30  31
ATOM     31  C   UNL     1       7.745   9.569  -0.783  1.00  0.00    -0.003 C 
ATOM     32  C   UNL     1       7.698   9.015   0.639  1.00  0.00     0.004 C 
ENDBRANCH  30  31
ENDBRANCH  29  30
ENDBRANCH  28  29
ENDBRANCH  27  28
ENDBRANCH  26  27
ENDBRANCH  25  26
ENDBRANCH  24  25
ENDBRANCH  23  24
ENDBRANCH  22  23
ENDBRANCH  21  22
ENDBRANCH  20  21
ENDBRANCH  19  20
ENDBRANCH  18  19
ENDBRANCH   1  18
TORSDOF 28
ENDMDL
MODEL 8
REMARK VINA RESULT:    -3.642      5.034     10.051
REMARK INTER + INTRA:         -12.188
REMARK INTER:                  -7.246
REMARK INTRA:                  -4.942
REMARK UNBOUND:                -2.586
REMARK SMILES CCCCCCCCCCCCCCCCCCCCCCCCCCCCCC(=O)[O-]
REMARK SMILES IDX 16 1 17 2 18 3 19 4 20 5 21 6 22 7 23 8 24 9 25 10 26 11
REMARK SMILES IDX 27 12 28 13 29 14 30 15 31 16 32 17 15 18 14 19 13 20 12 21
REMARK SMILES IDX 11 22 10 23 9 24 8 25 7 26 6 27 5 28 4 29 3 30 2 31 1 32
REMARK H PARENT
REMARK Flexibility Score: inf
ROOT
ATOM      1  C   UNL     1       8.056   4.563  -6.753  1.00  0.00     0.000 C 
ENDROOT
BRANCH   1   2
ATOM      2  C   UNL     1       9.336   5.271  -6.257  1.00  0.00     0.000 C 
BRANCH   2   3
ATOM      3  C   UNL     1       9.077   6.619  -5.564  1.00  0.00     0.000 C 
BRANCH   3   4
ATOM      4  C   UNL     1       9.571   7.815  -6.392  1.00  0.00     0.000 C 
BRANCH   4   5
ATOM      5  C   UNL     1       9.855   7.440  -7.856  1.00  0.00     0.000 C 
BRANCH   5   6
ATOM      6  C   UNL     1       8.830   7.976  -8.880  1.00  0.00     0.000 C 
BRANCH   6   7
ATOM      7  C   UNL     1       8.102   9.280  -8.491  1.00  0.00     0.000 C 
BRANCH   7   8
ATOM      8  C   UNL     1       6.562   9.175  -8.435  1.00  0.00     0.000 C 
BRANCH   8   9
ATOM      9  C   UNL     1       5.922   9.957  -7.272  1.00  0.00     0.000 C 
BRANCH   9  10
ATOM     10  C   UNL     1       6.583   9.745  -5.898  1.00  0.00     0.000 C 
BRANCH  10  11
ATOM     11  C   UNL     1       5.849   8.761  -4.967  1.00  0.00     0.000 C 
BRANCH  11  12
ATOM     12  C   UNL     1       6.564   8.529  -3.616  1.00  0.00     0.000 C 
BRANCH  12  13
ATOM     13  C   UNL     1       5.632   8.765  -2.414  1.00  0.00     0.006 C 
BRANCH  13  14
ATOM     14  C   UNL     1       6.316   9.562  -1.293  1.00  0.00     0.053 C 
BRANCH  14  15
ATOM     15  C   UNL     1       5.655   9.344   0.034  1.00  0.00     0.041 C 
ATOM     16  O   UNL     1       4.467   9.723   0.218  1.00  0.00    -0.550 OA
ATOM     17  O   UNL     1       6.362   8.765   1.078  1.00  0.00    -0.550 OA
ENDBRANCH  14  15
ENDBRANCH  13  14
ENDBRANCH  12  13
ENDBRANCH  11  12
ENDBRANCH  10  11
ENDBRANCH   9  10
ENDBRANCH   8   9
ENDBRANCH   7   8
ENDBRANCH   6   7
ENDBRANCH   5   6
ENDBRANCH   4   5
ENDBRANCH   3   4
ENDBRANCH   2   3
ENDBRANCH   1   2
BRANCH   1  18
ATOM     18  C   UNL     1       6.761   5.377  -6.545  1.00  0.00     0.000 C 
BRANCH  18  19
ATOM     19  C   UNL     1       6.023   5.744  -7.850  1.00  0.00     0.000 C 
BRANCH  19  20
ATOM     20  C   UNL     1       6.537   4.983  -9.089  1.00  0.00     0.000 C 
BRANCH  20  21
ATOM     21  C   UNL     1       5.594   3.848  -9.539  1.00  0.00     0.000 C 
BRANCH  21  22
ATOM     22  C   UNL     1       6.241   2.450  -9.439  1.00  0.00     0.000 C 
BRANCH  22  23
ATOM     23  C   UNL     1       7.666   2.377 -10.028  1.00  0.00     0.000 C 
BRANCH  23  24
ATOM     24  C   UNL     1       8.743   1.890  -9.032  1.00  0.00    -0.000 C 
BRANCH  24  25
ATOM     25  C   UNL     1       9.025   0.374  -9.086  1.00  0.00    -0.000 C 
BRANCH  25  26
ATOM     26  C   UNL     1       9.135  -0.310  -7.712  1.00  0.00    -0.000 C 
BRANCH  26  27
ATOM     27  C   UNL     1       8.552   0.539  -6.569  1.00  0.00    -0.000 C 
BRANCH  27  28
ATOM     28  C   UNL     1       7.540  -0.245  -5.716  1.00  0.00    -0.000 C 
BRANCH  28  29
ATOM     29  C   UNL     1       6.084   0.015  -6.138  1.00  0.00    -0.000 C 
BRANCH  29  30
ATOM     30  C   UNL     1       5.822   1.512  -6.417  1.00  0.00    -0.000 C 
BRANCH  30  31
ATOM     31  C   UNL     1       4.916   2.176  -5.368  1.00  0.00    -0.003 C 
ATOM     32  C   UNL     1       4.010   3.255  -5.957  1.00  0.00     0.004 C 
ENDBRANCH  30  31
ENDBRANCH  29  30
ENDBRANCH  28  29
ENDBRANCH  27  28
ENDBRANCH  26  27
ENDBRANCH  25  26
ENDBRANCH  24  25
ENDBRANCH  23  24
ENDBRANCH  22  23
ENDBRANCH  21  22
ENDBRANCH  20  21
ENDBRANCH  19  20
ENDBRANCH  18  19
ENDBRANCH   1  18
TORSDOF 28
ENDMDL
MODEL 9
REMARK VINA RESULT:    -3.630      3.886      5.730
REMARK INTER + INTRA:         -12.157
REMARK INTER:                  -6.785
REMARK INTRA:                  -5.371
REMARK UNBOUND:                -2.586
REMARK SMILES CCCCCCCCCCCCCCCCCCCCCCCCCCCCCC(=O)[O-]
REMARK SMILES IDX 16 1 17 2 18 3 19 4 20 5 21 6 22 7 23 8 24 9 25 10 26 11
REMARK SMILES IDX 27 12 28 13 29 14 30 15 31 16 32 17 15 18 14 19 13 20 12 21
REMARK SMILES IDX 11 22 10 23 9 24 8 25 7 26 6 27 5 28 4 29 3 30 2 31 1 32
REMARK H PARENT
REMARK Flexibility Score: inf
ROOT
ATOM      1  C   UNL     1       5.198   4.132  -6.013  1.00  0.00     0.000 C 
ENDROOT
BRANCH   1   2
ATOM      2  C   UNL     1       4.854   3.188  -7.185  1.00  0.00     0.000 C 
BRANCH   2   3
ATOM      3  C   UNL     1       4.623   3.911  -8.524  1.00  0.00     0.000 C 
BRANCH   3   4
ATOM      4  C   UNL     1       5.520   3.372  -9.648  1.00  0.00     0.000 C 
BRANCH   4   5
ATOM      5  C   UNL     1       6.880   4.087  -9.711  1.00  0.00     0.000 C 
BRANCH   5   6
ATOM      6  C   UNL     1       8.088   3.169 -10.000  1.00  0.00     0.000 C 
BRANCH   6   7
ATOM      7  C   UNL     1       9.207   3.167  -8.938  1.00  0.00     0.000 C 
BRANCH   7   8
ATOM      8  C   UNL     1       8.717   3.245  -7.475  1.00  0.00     0.000 C 
BRANCH   8   9
ATOM      9  C   UNL     1       8.291   1.888  -6.883  1.00  0.00     0.000 C 
BRANCH   9  10
ATOM     10  C   UNL     1       9.089   0.673  -7.390  1.00  0.00     0.000 C 
BRANCH  10  11
ATOM     11  C   UNL     1       8.339  -0.671  -7.327  1.00  0.00     0.000 C 
BRANCH  11  12
ATOM     12  C   UNL     1       7.932  -1.224  -8.712  1.00  0.00     0.000 C 
BRANCH  12  13
ATOM     13  C   UNL     1       6.894  -0.331  -9.415  1.00  0.00     0.006 C 
BRANCH  13  14
ATOM     14  C   UNL     1       5.572  -0.249  -8.637  1.00  0.00     0.053 C 
BRANCH  14  15
ATOM     15  C   UNL     1       4.917  -1.590  -8.501  1.00  0.00     0.041 C 
ATOM     16  O   UNL     1       4.411  -2.152  -9.509  1.00  0.00    -0.550 OA
ATOM     17  O   UNL     1       4.826  -2.198  -7.256  1.00  0.00    -0.550 OA
ENDBRANCH  14  15
ENDBRANCH  13  14
ENDBRANCH  12  13
ENDBRANCH  11  12
ENDBRANCH  10  11
ENDBRANCH   9  10
ENDBRANCH   8   9
ENDBRANCH   7   8
ENDBRANCH   6   7
ENDBRANCH   5   6
ENDBRANCH   4   5
ENDBRANCH   3   4
ENDBRANCH   2   3
ENDBRANCH   1   2
BRANCH   1  18
ATOM     18  C   UNL     1       5.987   5.392  -6.425  1.00  0.00     0.000 C 
BRANCH  18  19
ATOM     19  C   UNL     1       6.702   6.106  -5.257  1.00  0.00     0.000 C 
BRANCH  19  20
ATOM     20  C   UNL     1       8.241   6.030  -5.331  1.00  0.00     0.000 C 
BRANCH  20  21
ATOM     21  C   UNL     1       8.910   7.409  -5.494  1.00  0.00     0.000 C 
BRANCH  21  22
ATOM     22  C   UNL     1       9.538   7.615  -6.889  1.00  0.00     0.000 C 
BRANCH  22  23
ATOM     23  C   UNL     1       8.723   6.989  -8.041  1.00  0.00     0.000 C 
BRANCH  23  24
ATOM     24  C   UNL     1       8.529   7.916  -9.263  1.00  0.00    -0.000 C 
BRANCH  24  25
ATOM     25  C   UNL     1       7.521   9.063  -9.040  1.00  0.00    -0.000 C 
BRANCH  25  26
ATOM     26  C   UNL     1       6.432   8.771  -7.993  1.00  0.00    -0.000 C 
BRANCH  26  27
ATOM     27  C   UNL     1       6.332   9.858  -6.909  1.00  0.00    -0.000 C 
BRANCH  27  28
ATOM     28  C   UNL     1       5.389   9.455  -5.763  1.00  0.00    -0.000 C 
BRANCH  28  29
ATOM     29  C   UNL     1       6.084   9.478  -4.391  1.00  0.00    -0.000 C 
BRANCH  29  30
ATOM     30  C   UNL     1       5.112   9.117  -3.245  1.00  0.00    -0.000 C 
BRANCH  30  31
ATOM     31  C   UNL     1       5.825   8.785  -1.925  1.00  0.00    -0.003 C 
ATOM     32  C   UNL     1       6.539   7.435  -1.952  1.00  0.00     0.004 C 
ENDBRANCH  30  31
ENDBRANCH  29  30
ENDBRANCH  28  29
ENDBRANCH  27  28
ENDBRANCH  26  27
ENDBRANCH  25  26
ENDBRANCH  24  25
ENDBRANCH  23  24
ENDBRANCH  22  23
ENDBRANCH  21  22
ENDBRANCH  20  21
ENDBRANCH  19  20
ENDBRANCH  18  19
ENDBRANCH   1  18
TORSDOF 28
ENDMDL
