MODEL 1
REMARK VINA RESULT:    -4.991      0.000      0.000
REMARK INTER + INTRA:         -15.144
REMARK INTER:                 -11.410
REMARK INTRA:                  -3.734
REMARK UNBOUND:                -3.734
REMARK SMILES CCCCCCCCCCCCCCCCCCCCCCCC(=O)[O-]
REMARK SMILES IDX 13 1 14 2 15 3 16 4 17 5 18 6 19 7 20 8 21 9 22 10 23 11
REMARK SMILES IDX 24 12 25 13 26 14 12 15 11 16 10 17 9 18 8 19 7 20 6 21 5 22
REMARK SMILES IDX 4 23 3 24 2 25 1 26
REMARK H PARENT
REMARK Flexibility Score: inf
ROOT
ATOM      1  C   UNL     1    -102.242 -84.490  35.614  1.00  0.00     0.000 C 
ENDROOT
BRANCH   1   2
ATOM      2  C   UNL     1    -101.636 -84.482  34.198  1.00  0.00     0.000 C 
BRANCH   2   3
ATOM      3  C   UNL     1    -102.403 -83.619  33.179  1.00  0.00     0.000 C 
BRANCH   3   4
ATOM      4  C   UNL     1    -103.246 -84.460  32.203  1.00  0.00     0.000 C 
BRANCH   4   5
ATOM      5  C   UNL     1    -104.509 -83.722  31.731  1.00  0.00     0.000 C 
BRANCH   5   6
ATOM      6  C   UNL     1    -104.736 -82.397  32.480  1.00  0.00     0.000 C 
BRANCH   6   7
ATOM      7  C   UNL     1    -106.079 -82.361  33.229  1.00  0.00     0.000 C 
BRANCH   7   8
ATOM      8  C   UNL     1    -106.899 -83.665  33.158  1.00  0.00     0.000 C 
BRANCH   8   9
ATOM      9  C   UNL     1    -108.288 -83.499  32.506  1.00  0.00     0.000 C 
BRANCH   9  10
ATOM     10  C   UNL     1    -108.213 -83.450  30.971  1.00  0.00     0.006 C 
BRANCH  10  11
ATOM     11  C   UNL     1    -108.229 -82.007  30.462  1.00  0.00     0.053 C 
BRANCH  11  12
ATOM     12  C   UNL     1    -107.211 -81.823  29.380  1.00  0.00     0.041 C 
ATOM     13  O   UNL     1    -106.998 -80.680  28.896  1.00  0.00    -0.550 OA
ATOM     14  O   UNL     1    -106.473 -82.910  28.930  1.00  0.00    -0.550 OA
ENDBRANCH  11  12
ENDBRANCH  10  11
ENDBRANCH   9  10
ENDBRANCH   8   9
ENDBRANCH   7   8
ENDBRANCH   6   7
ENDBRANCH   5   6
ENDBRANCH   4   5
ENDBRANCH   3   4
ENDBRANCH   2   3
ENDBRANCH   1   2
BRANCH   1  15
ATOM     15  C   UNL     1    -103.579 -83.731  35.695  1.00  0.00     0.000 C 
BRANCH  15  16
ATOM     16  C   UNL     1    -104.753 -84.647  36.072  1.00  0.00     0.000 C 
BRANCH  16  17
ATOM     17  C   UNL     1    -104.861 -85.874  35.151  1.00  0.00     0.000 C 
BRANCH  17  18
ATOM     18  C   UNL     1    -104.816 -87.200  35.927  1.00  0.00    -0.000 C 
BRANCH  18  19
ATOM     19  C   UNL     1    -105.121 -87.016  37.424  1.00  0.00    -0.000 C 
BRANCH  19  20
ATOM     20  C   UNL     1    -103.947 -87.437  38.321  1.00  0.00    -0.000 C 
BRANCH  20  21
ATOM     21  C   UNL     1    -103.518 -86.324  39.294  1.00  0.00    -0.000 C 
BRANCH  21  22
ATOM     22  C   UNL     1    -104.717 -85.486  39.785  1.00  0.00    -0.000 C 
BRANCH  22  23
ATOM     23  C   UNL     1    -104.586 -83.985  39.473  1.00  0.00    -0.000 C 
BRANCH  23  24
ATOM     24  C   UNL     1    -103.129 -83.508  39.424  1.00  0.00    -0.000 C 
BRANCH  24  25
ATOM     25  C   UNL     1    -102.954 -82.193  40.192  1.00  0.00    -0.003 C 
ATOM     26  C   UNL     1    -104.166 -81.284  40.011  1.00  0.00     0.004 C 
ENDBRANCH  24  25
ENDBRANCH  23  24
ENDBRANCH  22  23
ENDBRANCH  21  22
ENDBRANCH  20  21
ENDBRANCH  19  20
ENDBRANCH  18  19
ENDBRANCH  17  18
ENDBRANCH  16  17
ENDBRANCH  15  16
ENDBRANCH   1  15
TORSDOF 22
ENDMDL
MODEL 2
REMARK VINA RESULT:    -4.984      1.527      2.562
REMARK INTER + INTRA:         -15.129
REMARK INTER:                 -12.257
REMARK INTRA:                  -2.872
REMARK UNBOUND:                -3.734
REMARK SMILES CCCCCCCCCCCCCCCCCCCCCCCC(=O)[O-]
REMARK SMILES IDX 13 1 14 2 15 3 16 4 17 5 18 6 19 7 20 8 21 9 22 10 23 11
REMARK SMILES IDX 24 12 25 13 26 14 12 15 11 16 10 17 9 18 8 19 7 20 6 21 5 22
REMARK SMILES IDX 4 23 3 24 2 25 1 26
REMARK H PARENT
REMARK Flexibility Score: inf
ROOT
ATOM      1  C   UNL     1    -105.039 -83.487  34.532  1.00  0.00     0.000 C 
ENDROOT
BRANCH   1   2
ATOM      2  C   UNL     1    -104.078 -83.774  35.701  1.00  0.00     0.000 C 
BRANCH   2   3
ATOM      3  C   UNL     1    -102.617 -83.361  35.444  1.00  0.00     0.000 C 
BRANCH   3   4
ATOM      4  C   UNL     1    -102.403 -82.783  34.033  1.00  0.00     0.000 C 
BRANCH   4   5
ATOM      5  C   UNL     1    -101.765 -83.799  33.072  1.00  0.00     0.000 C 
BRANCH   5   6
ATOM      6  C   UNL     1    -102.111 -83.521  31.599  1.00  0.00     0.000 C 
BRANCH   6   7
ATOM      7  C   UNL     1    -103.310 -84.348  31.104  1.00  0.00     0.000 C 
BRANCH   7   8
ATOM      8  C   UNL     1    -103.601 -84.233  29.594  1.00  0.00     0.000 C 
BRANCH   8   9
ATOM      9  C   UNL     1    -105.099 -84.072  29.255  1.00  0.00     0.000 C 
BRANCH   9  10
ATOM     10  C   UNL     1    -105.815 -83.104  30.211  1.00  0.00     0.006 C 
BRANCH  10  11
ATOM     11  C   UNL     1    -107.229 -82.785  29.717  1.00  0.00     0.053 C 
BRANCH  11  12
ATOM     12  C   UNL     1    -108.233 -83.647  30.416  1.00  0.00     0.041 C 
ATOM     13  O   UNL     1    -108.320 -83.630  31.672  1.00  0.00    -0.550 OA
ATOM     14  O   UNL     1    -109.096 -84.445  29.677  1.00  0.00    -0.550 OA
ENDBRANCH  11  12
ENDBRANCH  10  11
ENDBRANCH   9  10
ENDBRANCH   8   9
ENDBRANCH   7   8
ENDBRANCH   6   7
ENDBRANCH   5   6
ENDBRANCH   4   5
ENDBRANCH   3   4
ENDBRANCH   2   3
ENDBRANCH   1   2
BRANCH   1  15
ATOM     15  C   UNL     1    -105.752 -84.753  34.022  1.00  0.00     0.000 C 
BRANCH  15  16
ATOM     16  C   UNL     1    -104.962 -86.035  34.325  1.00  0.00     0.000 C 
BRANCH  16  17
ATOM     17  C   UNL     1    -105.802 -87.078  35.082  1.00  0.00     0.000 C 
BRANCH  17  18
ATOM     18  C   UNL     1    -105.066 -87.655  36.302  1.00  0.00    -0.000 C 
BRANCH  18  19
ATOM     19  C   UNL     1    -105.104 -86.707  37.514  1.00  0.00    -0.000 C 
BRANCH  19  20
ATOM     20  C   UNL     1    -103.880 -86.870  38.428  1.00  0.00    -0.000 C 
BRANCH  20  21
ATOM     21  C   UNL     1    -103.955 -85.978  39.680  1.00  0.00    -0.000 C 
BRANCH  21  22
ATOM     22  C   UNL     1    -105.105 -84.953  39.596  1.00  0.00    -0.000 C 
BRANCH  22  23
ATOM     23  C   UNL     1    -104.627 -83.509  39.364  1.00  0.00    -0.000 C 
BRANCH  23  24
ATOM     24  C   UNL     1    -103.143 -83.309  39.701  1.00  0.00    -0.000 C 
BRANCH  24  25
ATOM     25  C   UNL     1    -102.829 -81.828  39.941  1.00  0.00    -0.003 C 
ATOM     26  C   UNL     1    -104.084 -81.054  40.333  1.00  0.00     0.004 C 
ENDBRANCH  24  25
ENDBRANCH  23  24
ENDBRANCH  22  23
ENDBRANCH  21  22
ENDBRANCH  20  21
ENDBRANCH  19  20
ENDBRANCH  18  19
ENDBRANCH  17  18
ENDBRANCH  16  17
ENDBRANCH  15  16
ENDBRANCH   1  15
TORSDOF 22
ENDMDL
MODEL 3
REMARK VINA RESULT:    -4.974      2.828      7.592
REMARK INTER + INTRA:         -15.105
REMARK INTER:                 -11.516
REMARK INTRA:                  -3.589
REMARK UNBOUND:                -3.734
REMARK SMILES CCCCCCCCCCCCCCCCCCCCCCCC(=O)[O-]
REMARK SMILES IDX 13 1 14 2 15 3 16 4 17 5 18 6 19 7 20 8 21 9 22 10 23 11
REMARK SMILES IDX 24 12 25 13 26 14 12 15 11 16 10 17 9 18 8 19 7 20 6 21 5 22
REMARK SMILES IDX 4 23 3 24 2 25 1 26
REMARK H PARENT
REMARK Flexibility Score: inf
ROOT
ATOM      1  C   UNL     1    -105.648 -85.347  34.267  1.00  0.00     0.000 C 
ENDROOT
BRANCH   1   2
ATOM      2  C   UNL     1    -105.860 -86.704  34.965  1.00  0.00     0.000 C 
BRANCH   2   3
ATOM      3  C   UNL     1    -104.767 -87.078  35.982  1.00  0.00     0.000 C 
BRANCH   3   4
ATOM      4  C   UNL     1    -105.185 -86.792  37.436  1.00  0.00     0.000 C 
BRANCH   4   5
ATOM      5  C   UNL     1    -104.043 -87.037  38.435  1.00  0.00     0.000 C 
BRANCH   5   6
ATOM      6  C   UNL     1    -104.092 -86.080  39.640  1.00  0.00     0.000 C 
BRANCH   6   7
ATOM      7  C   UNL     1    -105.110 -84.942  39.452  1.00  0.00     0.000 C 
BRANCH   7   8
ATOM      8  C   UNL     1    -104.549 -83.524  39.681  1.00  0.00     0.000 C 
BRANCH   8   9
ATOM      9  C   UNL     1    -104.800 -82.553  38.507  1.00  0.00     0.000 C 
BRANCH   9  10
ATOM     10  C   UNL     1    -103.573 -82.413  37.591  1.00  0.00     0.006 C 
BRANCH  10  11
ATOM     11  C   UNL     1    -103.581 -83.476  36.490  1.00  0.00     0.053 C 
BRANCH  11  12
ATOM     12  C   UNL     1    -102.312 -84.268  36.520  1.00  0.00     0.041 C 
ATOM     13  O   UNL     1    -101.751 -84.610  35.446  1.00  0.00    -0.550 OA
ATOM     14  O   UNL     1    -101.730 -84.602  37.736  1.00  0.00    -0.550 OA
ENDBRANCH  11  12
ENDBRANCH  10  11
ENDBRANCH   9  10
ENDBRANCH   8   9
ENDBRANCH   7   8
ENDBRANCH   6   7
ENDBRANCH   5   6
ENDBRANCH   4   5
ENDBRANCH   3   4
ENDBRANCH   2   3
ENDBRANCH   1   2
BRANCH   1  15
ATOM     15  C   UNL     1    -104.376 -85.314  33.401  1.00  0.00     0.000 C 
BRANCH  15  16
ATOM     16  C   UNL     1    -104.314 -84.076  32.494  1.00  0.00     0.000 C 
BRANCH  16  17
ATOM     17  C   UNL     1    -103.512 -84.330  31.206  1.00  0.00     0.000 C 
BRANCH  17  18
ATOM     18  C   UNL     1    -104.314 -83.995  29.937  1.00  0.00    -0.000 C 
BRANCH  18  19
ATOM     19  C   UNL     1    -104.733 -82.516  29.879  1.00  0.00    -0.000 C 
BRANCH  19  20
ATOM     20  C   UNL     1    -106.109 -82.318  29.226  1.00  0.00    -0.000 C 
BRANCH  20  21
ATOM     21  C   UNL     1    -107.125 -83.395  29.647  1.00  0.00    -0.000 C 
BRANCH  21  22
ATOM     22  C   UNL     1    -108.173 -82.851  30.641  1.00  0.00    -0.000 C 
BRANCH  22  23
ATOM     23  C   UNL     1    -108.179 -83.585  31.993  1.00  0.00    -0.000 C 
BRANCH  23  24
ATOM     24  C   UNL     1    -108.115 -82.630  33.192  1.00  0.00    -0.000 C 
BRANCH  24  25
ATOM     25  C   UNL     1    -107.093 -81.514  32.953  1.00  0.00    -0.003 C 
ATOM     26  C   UNL     1    -106.114 -81.405  34.118  1.00  0.00     0.004 C 
ENDBRANCH  24  25
ENDBRANCH  23  24
ENDBRANCH  22  23
ENDBRANCH  21  22
ENDBRANCH  20  21
ENDBRANCH  19  20
ENDBRANCH  18  19
ENDBRANCH  17  18
ENDBRANCH  16  17
ENDBRANCH  15  16
ENDBRANCH   1  15
TORSDOF 22
ENDMDL
MODEL 4
REMARK VINA RESULT:    -4.970      1.613      3.353
REMARK INTER + INTRA:         -15.095
REMARK INTER:                 -11.326
REMARK INTRA:                  -3.770
REMARK UNBOUND:                -3.734
REMARK SMILES CCCCCCCCCCCCCCCCCCCCCCCC(=O)[O-]
REMARK SMILES IDX 13 1 14 2 15 3 16 4 17 5 18 6 19 7 20 8 21 9 22 10 23 11
REMARK SMILES IDX 24 12 25 13 26 14 12 15 11 16 10 17 9 18 8 19 7 20 6 21 5 22
REMARK SMILES IDX 4 23 3 24 2 25 1 26
REMARK H PARENT
REMARK Flexibility Score: inf
ROOT
ATOM      1  C   UNL     1    -105.797 -85.167  34.267  1.00  0.00     0.000 C 
ENDROOT
BRANCH   1   2
ATOM      2  C   UNL     1    -105.117 -83.790  34.382  1.00  0.00     0.000 C 
BRANCH   2   3
ATOM      3  C   UNL     1    -104.476 -83.504  35.752  1.00  0.00     0.000 C 
BRANCH   3   4
ATOM      4  C   UNL     1    -103.008 -83.054  35.640  1.00  0.00     0.000 C 
BRANCH   4   5
ATOM      5  C   UNL     1    -102.031 -84.240  35.608  1.00  0.00     0.000 C 
BRANCH   5   6
ATOM      6  C   UNL     1    -101.551 -84.576  34.184  1.00  0.00     0.000 C 
BRANCH   6   7
ATOM      7  C   UNL     1    -101.693 -83.390  33.215  1.00  0.00     0.000 C 
BRANCH   7   8
ATOM      8  C   UNL     1    -101.814 -83.776  31.727  1.00  0.00     0.000 C 
BRANCH   8   9
ATOM      9  C   UNL     1    -103.066 -84.615  31.397  1.00  0.00     0.000 C 
BRANCH   9  10
ATOM     10  C   UNL     1    -103.832 -84.071  30.180  1.00  0.00     0.006 C 
BRANCH  10  11
ATOM     11  C   UNL     1    -105.143 -83.405  30.605  1.00  0.00     0.053 C 
BRANCH  11  12
ATOM     12  C   UNL     1    -106.040 -83.215  29.422  1.00  0.00     0.041 C 
ATOM     13  O   UNL     1    -105.553 -82.964  28.288  1.00  0.00    -0.550 OA
ATOM     14  O   UNL     1    -107.415 -83.350  29.565  1.00  0.00    -0.550 OA
ENDBRANCH  11  12
ENDBRANCH  10  11
ENDBRANCH   9  10
ENDBRANCH   8   9
ENDBRANCH   7   8
ENDBRANCH   6   7
ENDBRANCH   5   6
ENDBRANCH   4   5
ENDBRANCH   3   4
ENDBRANCH   2   3
ENDBRANCH   1   2
BRANCH   1  15
ATOM     15  C   UNL     1    -104.929 -86.309  34.828  1.00  0.00     0.000 C 
BRANCH  15  16
ATOM     16  C   UNL     1    -105.694 -87.193  35.824  1.00  0.00     0.000 C 
BRANCH  16  17
ATOM     17  C   UNL     1    -104.816 -87.642  37.006  1.00  0.00     0.000 C 
BRANCH  17  18
ATOM     18  C   UNL     1    -104.112 -86.463  37.698  1.00  0.00    -0.000 C 
BRANCH  18  19
ATOM     19  C   UNL     1    -105.006 -85.775  38.744  1.00  0.00    -0.000 C 
BRANCH  19  20
ATOM     20  C   UNL     1    -104.225 -84.802  39.639  1.00  0.00    -0.000 C 
BRANCH  20  21
ATOM     21  C   UNL     1    -102.762 -84.630  39.191  1.00  0.00    -0.000 C 
BRANCH  21  22
ATOM     22  C   UNL     1    -102.158 -83.296  39.677  1.00  0.00    -0.000 C 
BRANCH  22  23
ATOM     23  C   UNL     1    -103.208 -82.295  40.189  1.00  0.00    -0.000 C 
BRANCH  23  24
ATOM     24  C   UNL     1    -103.602 -81.250  39.137  1.00  0.00    -0.000 C 
BRANCH  24  25
ATOM     25  C   UNL     1    -105.057 -81.436  38.695  1.00  0.00    -0.003 C 
ATOM     26  C   UNL     1    -105.721 -80.094  38.403  1.00  0.00     0.004 C 
ENDBRANCH  24  25
ENDBRANCH  23  24
ENDBRANCH  22  23
ENDBRANCH  21  22
ENDBRANCH  20  21
ENDBRANCH  19  20
ENDBRANCH  18  19
ENDBRANCH  17  18
ENDBRANCH  16  17
ENDBRANCH  15  16
ENDBRANCH   1  15
TORSDOF 22
ENDMDL
MODEL 5
REMARK VINA RESULT:    -4.908      1.774      4.269
REMARK INTER + INTRA:         -14.954
REMARK INTER:                 -11.548
REMARK INTRA:                  -3.406
REMARK UNBOUND:                -3.734
REMARK SMILES CCCCCCCCCCCCCCCCCCCCCCCC(=O)[O-]
REMARK SMILES IDX 13 1 14 2 15 3 16 4 17 5 18 6 19 7 20 8 21 9 22 10 23 11
REMARK SMILES IDX 24 12 25 13 26 14 12 15 11 16 10 17 9 18 8 19 7 20 6 21 5 22
REMARK SMILES IDX 4 23 3 24 2 25 1 26
REMARK H PARENT
REMARK Flexibility Score: inf
ROOT
ATOM      1  C   UNL     1    -104.092 -81.438  37.382  1.00  0.00     0.000 C 
ENDROOT
BRANCH   1   2
ATOM      2  C   UNL     1    -104.220 -82.449  36.227  1.00  0.00     0.000 C 
BRANCH   2   3
ATOM      3  C   UNL     1    -102.916 -82.699  35.448  1.00  0.00     0.000 C 
BRANCH   3   4
ATOM      4  C   UNL     1    -102.507 -84.183  35.435  1.00  0.00     0.000 C 
BRANCH   4   5
ATOM      5  C   UNL     1    -101.605 -84.534  34.240  1.00  0.00     0.000 C 
BRANCH   5   6
ATOM      6  C   UNL     1    -102.074 -83.876  32.930  1.00  0.00     0.000 C 
BRANCH   6   7
ATOM      7  C   UNL     1    -103.339 -84.535  32.354  1.00  0.00     0.000 C 
BRANCH   7   8
ATOM      8  C   UNL     1    -103.742 -84.050  30.947  1.00  0.00     0.000 C 
BRANCH   8   9
ATOM      9  C   UNL     1    -104.645 -82.798  30.950  1.00  0.00     0.000 C 
BRANCH   9  10
ATOM     10  C   UNL     1    -106.117 -83.137  31.237  1.00  0.00     0.006 C 
BRANCH  10  11
ATOM     11  C   UNL     1    -106.414 -83.083  32.737  1.00  0.00     0.053 C 
BRANCH  11  12
ATOM     12  C   UNL     1    -107.890 -83.021  32.976  1.00  0.00     0.041 C 
ATOM     13  O   UNL     1    -108.441 -81.928  33.270  1.00  0.00    -0.550 OA
ATOM     14  O   UNL     1    -108.663 -84.167  32.841  1.00  0.00    -0.550 OA
ENDBRANCH  11  12
ENDBRANCH  10  11
ENDBRANCH   9  10
ENDBRANCH   8   9
ENDBRANCH   7   8
ENDBRANCH   6   7
ENDBRANCH   5   6
ENDBRANCH   4   5
ENDBRANCH   3   4
ENDBRANCH   2   3
ENDBRANCH   1   2
BRANCH   1  15
ATOM     15  C   UNL     1    -105.073 -81.721  38.534  1.00  0.00     0.000 C 
BRANCH  15  16
ATOM     16  C   UNL     1    -104.403 -81.624  39.913  1.00  0.00     0.000 C 
BRANCH  16  17
ATOM     17  C   UNL     1    -102.882 -81.850  39.845  1.00  0.00     0.000 C 
BRANCH  17  18
ATOM     18  C   UNL     1    -102.483 -83.291  40.203  1.00  0.00    -0.000 C 
BRANCH  18  19
ATOM     19  C   UNL     1    -101.946 -84.070  38.990  1.00  0.00    -0.000 C 
BRANCH  19  20
ATOM     20  C   UNL     1    -102.551 -85.477  38.877  1.00  0.00    -0.000 C 
BRANCH  20  21
ATOM     21  C   UNL     1    -103.791 -85.661  39.770  1.00  0.00    -0.000 C 
BRANCH  21  22
ATOM     22  C   UNL     1    -105.101 -85.345  39.019  1.00  0.00    -0.000 C 
BRANCH  22  23
ATOM     23  C   UNL     1    -105.053 -85.699  37.522  1.00  0.00    -0.000 C 
BRANCH  23  24
ATOM     24  C   UNL     1    -105.113 -87.210  37.262  1.00  0.00    -0.000 C 
BRANCH  24  25
ATOM     25  C   UNL     1    -105.517 -87.503  35.814  1.00  0.00    -0.003 C 
ATOM     26  C   UNL     1    -105.501 -86.233  34.969  1.00  0.00     0.004 C 
ENDBRANCH  24  25
ENDBRANCH  23  24
ENDBRANCH  22  23
ENDBRANCH  21  22
ENDBRANCH  20  21
ENDBRANCH  19  20
ENDBRANCH  18  19
ENDBRANCH  17  18
ENDBRANCH  16  17
ENDBRANCH  15  16
ENDBRANCH   1  15
TORSDOF 22
ENDMDL
MODEL 6
REMARK VINA RESULT:    -4.816      1.187      3.582
REMARK INTER + INTRA:         -14.744
REMARK INTER:                 -11.001
REMARK INTRA:                  -3.742
REMARK UNBOUND:                -3.734
REMARK SMILES CCCCCCCCCCCCCCCCCCCCCCCC(=O)[O-]
REMARK SMILES IDX 13 1 14 2 15 3 16 4 17 5 18 6 19 7 20 8 21 9 22 10 23 11
REMARK SMILES IDX 24 12 25 13 26 14 12 15 11 16 10 17 9 18 8 19 7 20 6 21 5 22
REMARK SMILES IDX 4 23 3 24 2 25 1 26
REMARK H PARENT
REMARK Flexibility Score: inf
ROOT
ATOM      1  C   UNL     1    -104.058 -83.519  36.238  1.00  0.00     0.000 C 
ENDROOT
BRANCH   1   2
ATOM      2  C   UNL     1    -102.574 -83.910  36.098  1.00  0.00     0.000 C 
BRANCH   2   3
ATOM      3  C   UNL     1    -102.232 -84.665  34.800  1.00  0.00     0.000 C 
BRANCH   3   4
ATOM      4  C   UNL     1    -101.974 -83.719  33.613  1.00  0.00     0.000 C 
BRANCH   4   5
ATOM      5  C   UNL     1    -102.679 -84.183  32.328  1.00  0.00     0.000 C 
BRANCH   5   6
ATOM      6  C   UNL     1    -104.144 -84.591  32.570  1.00  0.00     0.000 C 
BRANCH   6   7
ATOM      7  C   UNL     1    -105.069 -83.382  32.783  1.00  0.00     0.000 C 
BRANCH   7   8
ATOM      8  C   UNL     1    -106.488 -83.728  33.279  1.00  0.00     0.000 C 
BRANCH   8   9
ATOM      9  C   UNL     1    -107.603 -82.874  32.637  1.00  0.00     0.000 C 
BRANCH   9  10
ATOM     10  C   UNL     1    -108.429 -83.665  31.611  1.00  0.00     0.006 C 
BRANCH  10  11
ATOM     11  C   UNL     1    -107.783 -83.614  30.224  1.00  0.00     0.053 C 
BRANCH  11  12
ATOM     12  C   UNL     1    -107.857 -82.228  29.664  1.00  0.00     0.041 C 
ATOM     13  O   UNL     1    -106.803 -81.585  29.418  1.00  0.00    -0.550 OA
ATOM     14  O   UNL     1    -109.092 -81.658  29.383  1.00  0.00    -0.550 OA
ENDBRANCH  11  12
ENDBRANCH  10  11
ENDBRANCH   9  10
ENDBRANCH   8   9
ENDBRANCH   7   8
ENDBRANCH   6   7
ENDBRANCH   5   6
ENDBRANCH   4   5
ENDBRANCH   3   4
ENDBRANCH   2   3
ENDBRANCH   1   2
BRANCH   1  15
ATOM     15  C   UNL     1    -104.266 -81.996  36.330  1.00  0.00     0.000 C 
BRANCH  15  16
ATOM     16  C   UNL     1    -103.757 -81.413  37.657  1.00  0.00     0.000 C 
BRANCH  16  17
ATOM     17  C   UNL     1    -104.818 -81.471  38.770  1.00  0.00     0.000 C 
BRANCH  17  18
ATOM     18  C   UNL     1    -104.547 -82.595  39.783  1.00  0.00    -0.000 C 
BRANCH  18  19
ATOM     19  C   UNL     1    -103.052 -82.947  39.887  1.00  0.00    -0.000 C 
BRANCH  19  20
ATOM     20  C   UNL     1    -102.784 -84.447  39.695  1.00  0.00    -0.000 C 
BRANCH  20  21
ATOM     21  C   UNL     1    -104.078 -85.260  39.507  1.00  0.00    -0.000 C 
BRANCH  21  22
ATOM     22  C   UNL     1    -103.852 -86.524  38.652  1.00  0.00    -0.000 C 
BRANCH  22  23
ATOM     23  C   UNL     1    -105.082 -86.935  37.824  1.00  0.00    -0.000 C 
BRANCH  23  24
ATOM     24  C   UNL     1    -104.713 -87.521  36.455  1.00  0.00    -0.000 C 
BRANCH  24  25
ATOM     25  C   UNL     1    -105.297 -86.674  35.319  1.00  0.00    -0.003 C 
ATOM     26  C   UNL     1    -106.454 -87.394  34.634  1.00  0.00     0.004 C 
ENDBRANCH  24  25
ENDBRANCH  23  24
ENDBRANCH  22  23
ENDBRANCH  21  22
ENDBRANCH  20  21
ENDBRANCH  19  20
ENDBRANCH  18  19
ENDBRANCH  17  18
ENDBRANCH  16  17
ENDBRANCH  15  16
ENDBRANCH   1  15
TORSDOF 22
ENDMDL
MODEL 7
REMARK VINA RESULT:    -4.811      1.328      2.274
REMARK INTER + INTRA:         -14.734
REMARK INTER:                 -11.065
REMARK INTRA:                  -3.669
REMARK UNBOUND:                -3.734
REMARK SMILES CCCCCCCCCCCCCCCCCCCCCCCC(=O)[O-]
REMARK SMILES IDX 13 1 14 2 15 3 16 4 17 5 18 6 19 7 20 8 21 9 22 10 23 11
REMARK SMILES IDX 24 12 25 13 26 14 12 15 11 16 10 17 9 18 8 19 7 20 6 21 5 22
REMARK SMILES IDX 4 23 3 24 2 25 1 26
REMARK H PARENT
REMARK Flexibility Score: inf
ROOT
ATOM      1  C   UNL     1    -104.284 -85.545  33.990  1.00  0.00     0.000 C 
ENDROOT
BRANCH   1   2
ATOM      2  C   UNL     1    -103.236 -84.775  34.816  1.00  0.00     0.000 C 
BRANCH   2   3
ATOM      3  C   UNL     1    -103.813 -83.987  36.007  1.00  0.00     0.000 C 
BRANCH   3   4
ATOM      4  C   UNL     1    -103.618 -82.466  35.863  1.00  0.00     0.000 C 
BRANCH   4   5
ATOM      5  C   UNL     1    -104.760 -81.799  35.079  1.00  0.00     0.000 C 
BRANCH   5   6
ATOM      6  C   UNL     1    -104.416 -81.588  33.594  1.00  0.00     0.000 C 
BRANCH   6   7
ATOM      7  C   UNL     1    -105.553 -82.021  32.654  1.00  0.00     0.000 C 
BRANCH   7   8
ATOM      8  C   UNL     1    -106.857 -82.442  33.361  1.00  0.00     0.000 C 
BRANCH   8   9
ATOM      9  C   UNL     1    -107.735 -83.408  32.536  1.00  0.00     0.000 C 
BRANCH   9  10
ATOM     10  C   UNL     1    -107.494 -83.272  31.024  1.00  0.00     0.006 C 
BRANCH  10  11
ATOM     11  C   UNL     1    -108.442 -82.243  30.403  1.00  0.00     0.053 C 
BRANCH  11  12
ATOM     12  C   UNL     1    -108.665 -82.546  28.955  1.00  0.00     0.041 C 
ATOM     13  O   UNL     1    -107.944 -82.007  28.074  1.00  0.00    -0.550 OA
ATOM     14  O   UNL     1    -109.649 -83.451  28.578  1.00  0.00    -0.550 OA
ENDBRANCH  11  12
ENDBRANCH  10  11
ENDBRANCH   9  10
ENDBRANCH   8   9
ENDBRANCH   7   8
ENDBRANCH   6   7
ENDBRANCH   5   6
ENDBRANCH   4   5
ENDBRANCH   3   4
ENDBRANCH   2   3
ENDBRANCH   1   2
BRANCH   1  15
ATOM     15  C   UNL     1    -105.619 -85.722  34.737  1.00  0.00     0.000 C 
BRANCH  15  16
ATOM     16  C   UNL     1    -105.884 -87.184  35.127  1.00  0.00     0.000 C 
BRANCH  16  17
ATOM     17  C   UNL     1    -104.904 -87.694  36.198  1.00  0.00     0.000 C 
BRANCH  17  18
ATOM     18  C   UNL     1    -105.180 -87.091  37.585  1.00  0.00    -0.000 C 
BRANCH  18  19
ATOM     19  C   UNL     1    -103.890 -86.836  38.383  1.00  0.00    -0.000 C 
BRANCH  19  20
ATOM     20  C   UNL     1    -104.080 -85.794  39.495  1.00  0.00    -0.000 C 
BRANCH  20  21
ATOM     21  C   UNL     1    -105.241 -84.825  39.205  1.00  0.00    -0.000 C 
BRANCH  21  22
ATOM     22  C   UNL     1    -104.960 -83.404  39.737  1.00  0.00    -0.000 C 
BRANCH  22  23
ATOM     23  C   UNL     1    -103.476 -83.005  39.671  1.00  0.00    -0.000 C 
BRANCH  23  24
ATOM     24  C   UNL     1    -103.270 -81.508  39.400  1.00  0.00    -0.000 C 
BRANCH  24  25
ATOM     25  C   UNL     1    -104.608 -80.810  39.131  1.00  0.00    -0.003 C 
ATOM     26  C   UNL     1    -104.400 -79.482  38.410  1.00  0.00     0.004 C 
ENDBRANCH  24  25
ENDBRANCH  23  24
ENDBRANCH  22  23
ENDBRANCH  21  22
ENDBRANCH  20  21
ENDBRANCH  19  20
ENDBRANCH  18  19
ENDBRANCH  17  18
ENDBRANCH  16  17
ENDBRANCH  15  16
ENDBRANCH   1  15
TORSDOF 22
ENDMDL
MODEL 8
REMARK VINA RESULT:    -4.804      1.443      2.690
REMARK INTER + INTRA:         -14.716
REMARK INTER:                 -10.821
REMARK INTRA:                  -3.895
REMARK UNBOUND:                -3.734
REMARK SMILES CCCCCCCCCCCCCCCCCCCCCCCC(=O)[O-]
REMARK SMILES IDX 13 1 14 2 15 3 16 4 17 5 18 6 19 7 20 8 21 9 22 10 23 11
REMARK SMILES IDX 24 12 25 13 26 14 12 15 11 16 10 17 9 18 8 19 7 20 6 21 5 22
REMARK SMILES IDX 4 23 3 24 2 25 1 26
REMARK H PARENT
REMARK Flexibility Score: inf
ROOT
ATOM      1  C   UNL     1    -103.742 -85.538  34.822  1.00  0.00     0.000 C 
ENDROOT
BRANCH   1   2
ATOM      2  C   UNL     1    -103.076 -84.484  35.726  1.00  0.00     0.000 C 
BRANCH   2   3
ATOM      3  C   UNL     1    -104.004 -83.332  36.155  1.00  0.00     0.000 C 
BRANCH   3   4
ATOM      4  C   UNL     1    -103.420 -81.946  35.827  1.00  0.00     0.000 C 
BRANCH   4   5
ATOM      5  C   UNL     1    -104.178 -81.245  34.688  1.00  0.00     0.000 C 
BRANCH   5   6
ATOM      6  C   UNL     1    -105.527 -81.914  34.372  1.00  0.00     0.000 C 
BRANCH   6   7
ATOM      7  C   UNL     1    -105.540 -82.606  32.999  1.00  0.00     0.000 C 
BRANCH   7   8
ATOM      8  C   UNL     1    -104.160 -82.731  32.320  1.00  0.00     0.000 C 
BRANCH   8   9
ATOM      9  C   UNL     1    -103.979 -84.026  31.499  1.00  0.00     0.000 C 
BRANCH   9  10
ATOM     10  C   UNL     1    -103.651 -83.743  30.025  1.00  0.00     0.006 C 
BRANCH  10  11
ATOM     11  C   UNL     1    -104.820 -84.127  29.115  1.00  0.00     0.053 C 
BRANCH  11  12
ATOM     12  C   UNL     1    -105.938 -83.141  29.257  1.00  0.00     0.041 C 
ATOM     13  O   UNL     1    -105.764 -81.934  28.945  1.00  0.00    -0.550 OA
ATOM     14  O   UNL     1    -107.183 -83.564  29.703  1.00  0.00    -0.550 OA
ENDBRANCH  11  12
ENDBRANCH  10  11
ENDBRANCH   9  10
ENDBRANCH   8   9
ENDBRANCH   7   8
ENDBRANCH   6   7
ENDBRANCH   5   6
ENDBRANCH   4   5
ENDBRANCH   3   4
ENDBRANCH   2   3
ENDBRANCH   1   2
BRANCH   1  15
ATOM     15  C   UNL     1    -105.262 -85.642  35.045  1.00  0.00     0.000 C 
BRANCH  15  16
ATOM     16  C   UNL     1    -105.738 -87.096  35.183  1.00  0.00     0.000 C 
BRANCH  16  17
ATOM     17  C   UNL     1    -105.070 -87.824  36.362  1.00  0.00     0.000 C 
BRANCH  17  18
ATOM     18  C   UNL     1    -105.190 -87.044  37.681  1.00  0.00    -0.000 C 
BRANCH  18  19
ATOM     19  C   UNL     1    -103.855 -86.969  38.443  1.00  0.00    -0.000 C 
BRANCH  19  20
ATOM     20  C   UNL     1    -103.833 -85.838  39.484  1.00  0.00    -0.000 C 
BRANCH  20  21
ATOM     21  C   UNL     1    -105.098 -84.962  39.433  1.00  0.00    -0.000 C 
BRANCH  21  22
ATOM     22  C   UNL     1    -104.788 -83.476  39.710  1.00  0.00    -0.000 C 
BRANCH  22  23
ATOM     23  C   UNL     1    -103.283 -83.156  39.736  1.00  0.00    -0.000 C 
BRANCH  23  24
ATOM     24  C   UNL     1    -102.993 -81.671  39.990  1.00  0.00    -0.000 C 
BRANCH  24  25
ATOM     25  C   UNL     1    -104.242 -80.817  39.748  1.00  0.00    -0.003 C 
ATOM     26  C   UNL     1    -103.973 -79.725  38.717  1.00  0.00     0.004 C 
ENDBRANCH  24  25
ENDBRANCH  23  24
ENDBRANCH  22  23
ENDBRANCH  21  22
ENDBRANCH  20  21
ENDBRANCH  19  20
ENDBRANCH  18  19
ENDBRANCH  17  18
ENDBRANCH  16  17
ENDBRANCH  15  16
ENDBRANCH   1  15
TORSDOF 22
ENDMDL
MODEL 9
REMARK VINA RESULT:    -4.794      1.489      4.494
REMARK INTER + INTRA:         -14.693
REMARK INTER:                 -11.155
REMARK INTRA:                  -3.538
REMARK UNBOUND:                -3.734
REMARK SMILES CCCCCCCCCCCCCCCCCCCCCCCC(=O)[O-]
REMARK SMILES IDX 13 1 14 2 15 3 16 4 17 5 18 6 19 7 20 8 21 9 22 10 23 11
REMARK SMILES IDX 24 12 25 13 26 14 12 15 11 16 10 17 9 18 8 19 7 20 6 21 5 22
REMARK SMILES IDX 4 23 3 24 2 25 1 26
REMARK H PARENT
REMARK Flexibility Score: inf
ROOT
ATOM      1  C   UNL     1    -102.120 -83.021  39.926  1.00  0.00     0.000 C 
ENDROOT
BRANCH   1   2
ATOM      2  C   UNL     1    -102.958 -81.733  39.822  1.00  0.00     0.000 C 
BRANCH   2   3
ATOM      3  C   UNL     1    -104.477 -81.964  39.717  1.00  0.00     0.000 C 
BRANCH   3   4
ATOM      4  C   UNL     1    -105.066 -81.450  38.391  1.00  0.00     0.000 C 
BRANCH   4   5
ATOM      5  C   UNL     1    -104.560 -82.246  37.177  1.00  0.00     0.000 C 
BRANCH   5   6
ATOM      6  C   UNL     1    -104.560 -81.414  35.881  1.00  0.00     0.000 C 
BRANCH   6   7
ATOM      7  C   UNL     1    -105.858 -80.613  35.689  1.00  0.00     0.000 C 
BRANCH   7   8
ATOM      8  C   UNL     1    -106.371 -80.542  34.237  1.00  0.00     0.000 C 
BRANCH   8   9
ATOM      9  C   UNL     1    -106.578 -81.922  33.576  1.00  0.00     0.000 C 
BRANCH   9  10
ATOM     10  C   UNL     1    -108.033 -82.147  33.133  1.00  0.00     0.006 C 
BRANCH  10  11
ATOM     11  C   UNL     1    -108.149 -83.370  32.220  1.00  0.00     0.053 C 
BRANCH  11  12
ATOM     12  C   UNL     1    -108.178 -82.949  30.784  1.00  0.00     0.041 C 
ATOM     13  O   UNL     1    -108.528 -81.780  30.471  1.00  0.00    -0.550 OA
ATOM     14  O   UNL     1    -107.786 -83.838  29.792  1.00  0.00    -0.550 OA
ENDBRANCH  11  12
ENDBRANCH  10  11
ENDBRANCH   9  10
ENDBRANCH   8   9
ENDBRANCH   7   8
ENDBRANCH   6   7
ENDBRANCH   5   6
ENDBRANCH   4   5
ENDBRANCH   3   4
ENDBRANCH   2   3
ENDBRANCH   1   2
BRANCH   1  15
ATOM     15  C   UNL     1    -102.985 -84.296  39.932  1.00  0.00     0.000 C 
BRANCH  15  16
ATOM     16  C   UNL     1    -102.380 -85.420  39.078  1.00  0.00     0.000 C 
BRANCH  16  17
ATOM     17  C   UNL     1    -103.328 -86.624  38.934  1.00  0.00     0.000 C 
BRANCH  17  18
ATOM     18  C   UNL     1    -104.785 -86.200  38.687  1.00  0.00    -0.000 C 
BRANCH  18  19
ATOM     19  C   UNL     1    -105.051 -85.837  37.215  1.00  0.00    -0.000 C 
BRANCH  19  20
ATOM     20  C   UNL     1    -105.109 -87.072  36.304  1.00  0.00    -0.000 C 
BRANCH  20  21
ATOM     21  C   UNL     1    -105.610 -86.739  34.887  1.00  0.00    -0.000 C 
BRANCH  21  22
ATOM     22  C   UNL     1    -105.406 -85.251  34.533  1.00  0.00    -0.000 C 
BRANCH  22  23
ATOM     23  C   UNL     1    -104.415 -85.024  33.378  1.00  0.00    -0.000 C 
BRANCH  23  24
ATOM     24  C   UNL     1    -103.394 -83.918  33.675  1.00  0.00    -0.000 C 
BRANCH  24  25
ATOM     25  C   UNL     1    -102.066 -84.511  34.157  1.00  0.00    -0.003 C 
ATOM     26  C   UNL     1    -101.965 -84.472  35.679  1.00  0.00     0.004 C 
ENDBRANCH  24  25
ENDBRANCH  23  24
ENDBRANCH  22  23
ENDBRANCH  21  22
ENDBRANCH  20  21
ENDBRANCH  19  20
ENDBRANCH  18  19
ENDBRANCH  17  18
ENDBRANCH  16  17
ENDBRANCH  15  16
ENDBRANCH   1  15
TORSDOF 22
ENDMDL
