MODEL 1
REMARK VINA RESULT:    -5.101      0.000      0.000
REMARK INTER + INTRA:          -9.448
REMARK INTER:                  -8.680
REMARK INTRA:                  -0.769
REMARK UNBOUND:                -0.769
REMARK SMILES CCCCCCCCCCCCCC(=O)[O-]
REMARK SMILES IDX 8 1 9 2 10 3 11 4 12 5 13 6 14 7 15 8 16 9 7 10 6 11 5 12
REMARK SMILES IDX 4 13 3 14 2 15 1 16
REMARK H PARENT
REMARK Flexibility Score: inf
ROOT
ATOM      1  C   UNL     1      -7.653  -5.975  -6.222  1.00  0.00     0.000 C 
ENDROOT
BRANCH   1   2
ATOM      2  C   UNL     1      -8.534  -4.748  -5.940  1.00  0.00     0.000 C 
BRANCH   2   3
ATOM      3  C   UNL     1      -9.639  -5.036  -4.912  1.00  0.00     0.000 C 
BRANCH   3   4
ATOM      4  C   UNL     1     -10.246  -3.755  -4.319  1.00  0.00     0.000 C 
BRANCH   4   5
ATOM      5  C   UNL     1     -10.973  -4.051  -3.002  1.00  0.00     0.006 C 
BRANCH   5   6
ATOM      6  C   UNL     1     -10.492  -3.117  -1.887  1.00  0.00     0.053 C 
BRANCH   6   7
ATOM      7  C   UNL     1      -9.005  -3.192  -1.745  1.00  0.00     0.041 C 
ATOM      8  O   UNL     1      -8.450  -4.289  -1.469  1.00  0.00    -0.550 OA
ATOM      9  O   UNL     1      -8.227  -2.063  -1.967  1.00  0.00    -0.550 OA
ENDBRANCH   6   7
ENDBRANCH   5   6
ENDBRANCH   4   5
ENDBRANCH   3   4
ENDBRANCH   2   3
ENDBRANCH   1   2
BRANCH   1  10
ATOM     10  C   UNL     1      -7.042  -5.902  -7.627  1.00  0.00     0.000 C 
BRANCH  10  11
ATOM     11  C   UNL     1      -5.609  -6.454  -7.633  1.00  0.00    -0.000 C 
BRANCH  11  12
ATOM     12  C   UNL     1      -5.100  -6.800  -6.223  1.00  0.00    -0.000 C 
BRANCH  12  13
ATOM     13  C   UNL     1      -3.921  -5.913  -5.788  1.00  0.00    -0.000 C 
BRANCH  13  14
ATOM     14  C   UNL     1      -4.194  -4.411  -5.992  1.00  0.00    -0.000 C 
BRANCH  14  15
ATOM     15  C   UNL     1      -3.027  -3.481  -5.617  1.00  0.00    -0.003 C 
ATOM     16  C   UNL     1      -3.283  -2.020  -5.984  1.00  0.00     0.004 C 
ENDBRANCH  14  15
ENDBRANCH  13  14
ENDBRANCH  12  13
ENDBRANCH  11  12
ENDBRANCH  10  11
ENDBRANCH   1  10
TORSDOF 12
ENDMDL
MODEL 2
REMARK VINA RESULT:    -4.743      3.026      6.244
REMARK INTER + INTRA:          -8.839
REMARK INTER:                  -7.806
REMARK INTRA:                  -1.033
REMARK UNBOUND:                -0.769
REMARK SMILES CCCCCCCCCCCCCC(=O)[O-]
REMARK SMILES IDX 8 1 9 2 10 3 11 4 12 5 13 6 14 7 15 8 16 9 7 10 6 11 5 12
REMARK SMILES IDX 4 13 3 14 2 15 1 16
REMARK H PARENT
REMARK Flexibility Score: inf
ROOT
ATOM      1  C   UNL     1      -8.948  -4.535  -5.922  1.00  0.00     0.000 C 
ENDROOT
BRANCH   1   2
ATOM      2  C   UNL     1      -9.242  -4.597  -7.429  1.00  0.00     0.000 C 
BRANCH   2   3
ATOM      3  C   UNL     1      -7.964  -4.608  -8.282  1.00  0.00     0.000 C 
BRANCH   3   4
ATOM      4  C   UNL     1      -7.483  -6.030  -8.610  1.00  0.00     0.000 C 
BRANCH   4   5
ATOM      5  C   UNL     1      -5.970  -6.159  -8.396  1.00  0.00     0.006 C 
BRANCH   5   6
ATOM      6  C   UNL     1      -5.574  -5.712  -6.985  1.00  0.00     0.053 C 
BRANCH   6   7
ATOM      7  C   UNL     1      -4.950  -6.844  -6.233  1.00  0.00     0.041 C 
ATOM      8  O   UNL     1      -3.769  -6.746  -5.805  1.00  0.00    -0.550 OA
ATOM      9  O   UNL     1      -5.688  -7.988  -5.960  1.00  0.00    -0.550 OA
ENDBRANCH   6   7
ENDBRANCH   5   6
ENDBRANCH   4   5
ENDBRANCH   3   4
ENDBRANCH   2   3
ENDBRANCH   1   2
BRANCH   1  10
ATOM     10  C   UNL     1      -9.629  -5.693  -5.181  1.00  0.00     0.000 C 
BRANCH  10  11
ATOM     11  C   UNL     1     -10.716  -5.172  -4.230  1.00  0.00    -0.000 C 
BRANCH  11  12
ATOM     12  C   UNL     1     -10.552  -3.679  -3.901  1.00  0.00    -0.000 C 
BRANCH  12  13
ATOM     13  C   UNL     1     -11.034  -3.330  -2.482  1.00  0.00    -0.000 C 
BRANCH  13  14
ATOM     14  C   UNL     1      -9.891  -3.313  -1.449  1.00  0.00    -0.000 C 
BRANCH  14  15
ATOM     15  C   UNL     1      -8.486  -3.102  -2.039  1.00  0.00    -0.003 C 
ATOM     16  C   UNL     1      -7.857  -1.771  -1.626  1.00  0.00     0.004 C 
ENDBRANCH  14  15
ENDBRANCH  13  14
ENDBRANCH  12  13
ENDBRANCH  11  12
ENDBRANCH  10  11
ENDBRANCH   1  10
TORSDOF 12
ENDMDL
MODEL 3
REMARK VINA RESULT:    -4.680      1.243      2.167
REMARK INTER + INTRA:          -8.732
REMARK INTER:                  -7.651
REMARK INTRA:                  -1.081
REMARK UNBOUND:                -0.769
REMARK SMILES CCCCCCCCCCCCCC(=O)[O-]
REMARK SMILES IDX 8 1 9 2 10 3 11 4 12 5 13 6 14 7 15 8 16 9 7 10 6 11 5 12
REMARK SMILES IDX 4 13 3 14 2 15 1 16
REMARK H PARENT
REMARK Flexibility Score: inf
ROOT
ATOM      1  C   UNL     1      -8.798  -4.460  -4.891  1.00  0.00     0.000 C 
ENDROOT
BRANCH   1   2
ATOM      2  C   UNL     1      -9.898  -3.443  -5.231  1.00  0.00     0.000 C 
BRANCH   2   3
ATOM      3  C   UNL     1     -10.926  -3.282  -4.101  1.00  0.00     0.000 C 
BRANCH   3   4
ATOM      4  C   UNL     1     -10.520  -4.027  -2.820  1.00  0.00     0.000 C 
BRANCH   4   5
ATOM      5  C   UNL     1     -10.098  -3.042  -1.723  1.00  0.00     0.006 C 
BRANCH   5   6
ATOM      6  C   UNL     1      -8.582  -3.077  -1.507  1.00  0.00     0.053 C 
BRANCH   6   7
ATOM      7  C   UNL     1      -7.967  -1.770  -1.897  1.00  0.00     0.041 C 
ATOM      8  O   UNL     1      -7.305  -1.674  -2.965  1.00  0.00    -0.550 OA
ATOM      9  O   UNL     1      -8.166  -0.645  -1.107  1.00  0.00    -0.550 OA
ENDBRANCH   6   7
ENDBRANCH   5   6
ENDBRANCH   4   5
ENDBRANCH   3   4
ENDBRANCH   2   3
ENDBRANCH   1   2
BRANCH   1  10
ATOM     10  C   UNL     1      -8.645  -5.499  -6.009  1.00  0.00     0.000 C 
BRANCH  10  11
ATOM     11  C   UNL     1      -8.159  -4.840  -7.309  1.00  0.00    -0.000 C 
BRANCH  11  12
ATOM     12  C   UNL     1      -6.649  -5.025  -7.540  1.00  0.00    -0.000 C 
BRANCH  12  13
ATOM     13  C   UNL     1      -6.029  -6.061  -6.588  1.00  0.00    -0.000 C 
BRANCH  13  14
ATOM     14  C   UNL     1      -4.639  -5.643  -6.072  1.00  0.00    -0.000 C 
BRANCH  14  15
ATOM     15  C   UNL     1      -4.375  -4.127  -6.071  1.00  0.00    -0.003 C 
ATOM     16  C   UNL     1      -2.959  -3.765  -5.623  1.00  0.00     0.004 C 
ENDBRANCH  14  15
ENDBRANCH  13  14
ENDBRANCH  12  13
ENDBRANCH  11  12
ENDBRANCH  10  11
ENDBRANCH   1  10
TORSDOF 12
ENDMDL
MODEL 4
REMARK VINA RESULT:    -4.570      2.500      6.184
REMARK INTER + INTRA:          -8.544
REMARK INTER:                  -7.520
REMARK INTRA:                  -1.024
REMARK UNBOUND:                -0.769
REMARK SMILES CCCCCCCCCCCCCC(=O)[O-]
REMARK SMILES IDX 8 1 9 2 10 3 11 4 12 5 13 6 14 7 15 8 16 9 7 10 6 11 5 12
REMARK SMILES IDX 4 13 3 14 2 15 1 16
REMARK H PARENT
REMARK Flexibility Score: inf
ROOT
ATOM      1  C   UNL     1      -9.865  -5.677  -7.213  1.00  0.00     0.000 C 
ENDROOT
BRANCH   1   2
ATOM      2  C   UNL     1      -9.458  -4.466  -8.066  1.00  0.00     0.000 C 
BRANCH   2   3
ATOM      3  C   UNL     1      -8.061  -4.619  -8.685  1.00  0.00     0.000 C 
BRANCH   3   4
ATOM      4  C   UNL     1      -7.311  -5.852  -8.157  1.00  0.00     0.000 C 
BRANCH   4   5
ATOM      5  C   UNL     1      -5.889  -5.483  -7.718  1.00  0.00     0.006 C 
BRANCH   5   6
ATOM      6  C   UNL     1      -5.783  -5.424  -6.191  1.00  0.00     0.053 C 
BRANCH   6   7
ATOM      7  C   UNL     1      -6.236  -6.714  -5.585  1.00  0.00     0.041 C 
ATOM      8  O   UNL     1      -7.224  -6.735  -4.803  1.00  0.00    -0.550 OA
ATOM      9  O   UNL     1      -5.599  -7.902  -5.921  1.00  0.00    -0.550 OA
ENDBRANCH   6   7
ENDBRANCH   5   6
ENDBRANCH   4   5
ENDBRANCH   3   4
ENDBRANCH   2   3
ENDBRANCH   1   2
BRANCH   1  10
ATOM     10  C   UNL     1     -10.526  -5.230  -5.903  1.00  0.00     0.000 C 
BRANCH  10  11
ATOM     11  C   UNL     1      -9.968  -3.876  -5.440  1.00  0.00    -0.000 C 
BRANCH  11  12
ATOM     12  C   UNL     1     -10.246  -3.596  -3.953  1.00  0.00    -0.000 C 
BRANCH  12  13
ATOM     13  C   UNL     1      -8.957  -3.495  -3.120  1.00  0.00    -0.000 C 
BRANCH  13  14
ATOM     14  C   UNL     1      -9.210  -3.626  -1.607  1.00  0.00    -0.000 C 
BRANCH  14  15
ATOM     15  C   UNL     1     -10.651  -3.321  -1.160  1.00  0.00    -0.003 C 
ATOM     16  C   UNL     1     -10.903  -3.644   0.312  1.00  0.00     0.004 C 
ENDBRANCH  14  15
ENDBRANCH  13  14
ENDBRANCH  12  13
ENDBRANCH  11  12
ENDBRANCH  10  11
ENDBRANCH   1  10
TORSDOF 12
ENDMDL
MODEL 5
REMARK VINA RESULT:    -4.556      1.895      2.911
REMARK INTER + INTRA:          -8.521
REMARK INTER:                  -6.959
REMARK INTRA:                  -1.561
REMARK UNBOUND:                -0.769
REMARK SMILES CCCCCCCCCCCCCC(=O)[O-]
REMARK SMILES IDX 8 1 9 2 10 3 11 4 12 5 13 6 14 7 15 8 16 9 7 10 6 11 5 12
REMARK SMILES IDX 4 13 3 14 2 15 1 16
REMARK H PARENT
REMARK Flexibility Score: inf
ROOT
ATOM      1  C   UNL     1     -10.255  -5.149  -7.627  1.00  0.00     0.000 C 
ENDROOT
BRANCH   1   2
ATOM      2  C   UNL     1     -10.843  -5.724  -6.329  1.00  0.00     0.000 C 
BRANCH   2   3
ATOM      3  C   UNL     1      -9.809  -5.805  -5.196  1.00  0.00     0.000 C 
BRANCH   3   4
ATOM      4  C   UNL     1      -9.210  -4.434  -4.842  1.00  0.00     0.000 C 
BRANCH   4   5
ATOM      5  C   UNL     1     -10.269  -3.519  -4.215  1.00  0.00     0.006 C 
BRANCH   5   6
ATOM      6  C   UNL     1     -10.394  -3.775  -2.710  1.00  0.00     0.053 C 
BRANCH   6   7
ATOM      7  C   UNL     1      -9.131  -3.393  -2.006  1.00  0.00     0.041 C 
ATOM      8  O   UNL     1      -8.814  -2.179  -1.888  1.00  0.00    -0.550 OA
ATOM      9  O   UNL     1      -8.328  -4.372  -1.438  1.00  0.00    -0.550 OA
ENDBRANCH   6   7
ENDBRANCH   5   6
ENDBRANCH   4   5
ENDBRANCH   3   4
ENDBRANCH   2   3
ENDBRANCH   1   2
BRANCH   1  10
ATOM     10  C   UNL     1      -9.611  -6.252  -8.476  1.00  0.00     0.000 C 
BRANCH  10  11
ATOM     11  C   UNL     1      -8.227  -5.819  -8.982  1.00  0.00    -0.000 C 
BRANCH  11  12
ATOM     12  C   UNL     1      -7.640  -4.648  -8.175  1.00  0.00    -0.000 C 
BRANCH  12  13
ATOM     13  C   UNL     1      -6.258  -4.973  -7.584  1.00  0.00    -0.000 C 
BRANCH  13  14
ATOM     14  C   UNL     1      -5.922  -6.475  -7.640  1.00  0.00    -0.000 C 
BRANCH  14  15
ATOM     15  C   UNL     1      -5.391  -7.072  -6.324  1.00  0.00    -0.003 C 
ATOM     16  C   UNL     1      -6.337  -6.855  -5.143  1.00  0.00     0.004 C 
ENDBRANCH  14  15
ENDBRANCH  13  14
ENDBRANCH  12  13
ENDBRANCH  11  12
ENDBRANCH  10  11
ENDBRANCH   1  10
TORSDOF 12
ENDMDL
MODEL 6
REMARK VINA RESULT:    -4.531      1.822      2.882
REMARK INTER + INTRA:          -8.478
REMARK INTER:                  -7.240
REMARK INTRA:                  -1.238
REMARK UNBOUND:                -0.769
REMARK SMILES CCCCCCCCCCCCCC(=O)[O-]
REMARK SMILES IDX 8 1 9 2 10 3 11 4 12 5 13 6 14 7 15 8 16 9 7 10 6 11 5 12
REMARK SMILES IDX 4 13 3 14 2 15 1 16
REMARK H PARENT
REMARK Flexibility Score: inf
ROOT
ATOM      1  C   UNL     1      -8.828  -5.016  -5.378  1.00  0.00     0.000 C 
ENDROOT
BRANCH   1   2
ATOM      2  C   UNL     1     -10.008  -5.974  -5.155  1.00  0.00     0.000 C 
BRANCH   2   3
ATOM      3  C   UNL     1     -11.125  -5.351  -4.305  1.00  0.00     0.000 C 
BRANCH   3   4
ATOM      4  C   UNL     1     -10.741  -3.975  -3.738  1.00  0.00     0.000 C 
BRANCH   4   5
ATOM      5  C   UNL     1     -11.124  -3.866  -2.257  1.00  0.00     0.006 C 
BRANCH   5   6
ATOM      6  C   UNL     1     -10.286  -2.797  -1.551  1.00  0.00     0.053 C 
BRANCH   6   7
ATOM      7  C   UNL     1      -8.828  -3.028  -1.793  1.00  0.00     0.041 C 
ATOM      8  O   UNL     1      -8.091  -2.082  -2.179  1.00  0.00    -0.550 OA
ATOM      9  O   UNL     1      -8.272  -4.276  -1.547  1.00  0.00    -0.550 OA
ENDBRANCH   6   7
ENDBRANCH   5   6
ENDBRANCH   4   5
ENDBRANCH   3   4
ENDBRANCH   2   3
ENDBRANCH   1   2
BRANCH   1  10
ATOM     10  C   UNL     1      -8.815  -4.483  -6.816  1.00  0.00     0.000 C 
BRANCH  10  11
ATOM     11  C   UNL     1      -9.195  -5.587  -7.814  1.00  0.00    -0.000 C 
BRANCH  11  12
ATOM     12  C   UNL     1      -8.088  -5.862  -8.846  1.00  0.00    -0.000 C 
BRANCH  12  13
ATOM     13  C   UNL     1      -6.705  -5.383  -8.370  1.00  0.00    -0.000 C 
BRANCH  13  14
ATOM     14  C   UNL     1      -5.759  -6.546  -8.016  1.00  0.00    -0.000 C 
BRANCH  14  15
ATOM     15  C   UNL     1      -5.125  -6.464  -6.616  1.00  0.00    -0.003 C 
ATOM     16  C   UNL     1      -5.889  -7.269  -5.565  1.00  0.00     0.004 C 
ENDBRANCH  14  15
ENDBRANCH  13  14
ENDBRANCH  12  13
ENDBRANCH  11  12
ENDBRANCH  10  11
ENDBRANCH   1  10
TORSDOF 12
ENDMDL
MODEL 7
REMARK VINA RESULT:    -4.396      2.935      6.173
REMARK INTER + INTRA:          -8.248
REMARK INTER:                  -7.432
REMARK INTRA:                  -0.815
REMARK UNBOUND:                -0.769
REMARK SMILES CCCCCCCCCCCCCC(=O)[O-]
REMARK SMILES IDX 8 1 9 2 10 3 11 4 12 5 13 6 14 7 15 8 16 9 7 10 6 11 5 12
REMARK SMILES IDX 4 13 3 14 2 15 1 16
REMARK H PARENT
REMARK Flexibility Score: inf
ROOT
ATOM      1  C   UNL     1      -9.863  -3.494  -4.555  1.00  0.00     0.000 C 
ENDROOT
BRANCH   1   2
ATOM      2  C   UNL     1      -9.687  -4.626  -5.578  1.00  0.00     0.000 C 
BRANCH   2   3
ATOM      3  C   UNL     1      -8.211  -4.957  -5.848  1.00  0.00     0.000 C 
BRANCH   3   4
ATOM      4  C   UNL     1      -7.869  -4.962  -7.346  1.00  0.00     0.000 C 
BRANCH   4   5
ATOM      5  C   UNL     1      -6.484  -5.572  -7.590  1.00  0.00     0.006 C 
BRANCH   5   6
ATOM      6  C   UNL     1      -5.605  -5.459  -6.340  1.00  0.00     0.053 C 
BRANCH   6   7
ATOM      7  C   UNL     1      -4.927  -6.762  -6.058  1.00  0.00     0.041 C 
ATOM      8  O   UNL     1      -3.693  -6.794  -5.810  1.00  0.00    -0.550 OA
ATOM      9  O   UNL     1      -5.667  -7.937  -6.019  1.00  0.00    -0.550 OA
ENDBRANCH   6   7
ENDBRANCH   5   6
ENDBRANCH   4   5
ENDBRANCH   3   4
ENDBRANCH   2   3
ENDBRANCH   1   2
BRANCH   1  10
ATOM     10  C   UNL     1     -10.887  -3.878  -3.480  1.00  0.00     0.000 C 
BRANCH  10  11
ATOM     11  C   UNL     1     -10.485  -3.312  -2.110  1.00  0.00    -0.000 C 
BRANCH  11  12
ATOM     12  C   UNL     1      -9.035  -3.657  -1.728  1.00  0.00    -0.000 C 
BRANCH  12  13
ATOM     13  C   UNL     1      -8.279  -2.454  -1.138  1.00  0.00    -0.000 C 
BRANCH  13  14
ATOM     14  C   UNL     1      -7.717  -1.512  -2.218  1.00  0.00    -0.000 C 
BRANCH  14  15
ATOM     15  C   UNL     1      -6.999  -0.261  -1.680  1.00  0.00    -0.003 C 
ATOM     16  C   UNL     1      -7.943   0.719  -0.985  1.00  0.00     0.004 C 
ENDBRANCH  14  15
ENDBRANCH  13  14
ENDBRANCH  12  13
ENDBRANCH  11  12
ENDBRANCH  10  11
ENDBRANCH   1  10
TORSDOF 12
ENDMDL
MODEL 8
REMARK VINA RESULT:    -4.291      2.497      6.243
REMARK INTER + INTRA:          -8.071
REMARK INTER:                  -7.327
REMARK INTRA:                  -0.743
REMARK UNBOUND:                -0.769
REMARK SMILES CCCCCCCCCCCCCC(=O)[O-]
REMARK SMILES IDX 8 1 9 2 10 3 11 4 12 5 13 6 14 7 15 8 16 9 7 10 6 11 5 12
REMARK SMILES IDX 4 13 3 14 2 15 1 16
REMARK H PARENT
REMARK Flexibility Score: inf
ROOT
ATOM      1  C   UNL     1      -8.310  -5.473  -6.637  1.00  0.00     0.000 C 
ENDROOT
BRANCH   1   2
ATOM      2  C   UNL     1      -7.634  -5.656  -8.005  1.00  0.00     0.000 C 
BRANCH   2   3
ATOM      3  C   UNL     1      -6.101  -5.624  -7.916  1.00  0.00     0.000 C 
BRANCH   3   4
ATOM      4  C   UNL     1      -5.552  -6.531  -6.804  1.00  0.00     0.000 C 
BRANCH   4   5
ATOM      5  C   UNL     1      -4.474  -5.807  -5.988  1.00  0.00     0.006 C 
BRANCH   5   6
ATOM      6  C   UNL     1      -4.511  -4.298  -6.246  1.00  0.00     0.053 C 
BRANCH   6   7
ATOM      7  C   UNL     1      -3.323  -3.632  -5.625  1.00  0.00     0.041 C 
ATOM      8  O   UNL     1      -2.250  -4.272  -5.464  1.00  0.00    -0.550 OA
ATOM      9  O   UNL     1      -3.385  -2.291  -5.270  1.00  0.00    -0.550 OA
ENDBRANCH   6   7
ENDBRANCH   5   6
ENDBRANCH   4   5
ENDBRANCH   3   4
ENDBRANCH   2   3
ENDBRANCH   1   2
BRANCH   1  10
ATOM     10  C   UNL     1      -9.833  -5.621  -6.752  1.00  0.00     0.000 C 
BRANCH  10  11
ATOM     11  C   UNL     1     -10.550  -4.744  -5.716  1.00  0.00    -0.000 C 
BRANCH  11  12
ATOM     12  C   UNL     1      -9.875  -4.784  -4.334  1.00  0.00    -0.000 C 
BRANCH  12  13
ATOM     13  C   UNL     1     -10.160  -3.523  -3.501  1.00  0.00    -0.000 C 
BRANCH  13  14
ATOM     14  C   UNL     1      -9.089  -3.263  -2.425  1.00  0.00    -0.000 C 
BRANCH  14  15
ATOM     15  C   UNL     1      -9.608  -3.277  -0.976  1.00  0.00    -0.003 C 
ATOM     16  C   UNL     1     -11.118  -3.494  -0.882  1.00  0.00     0.004 C 
ENDBRANCH  14  15
ENDBRANCH  13  14
ENDBRANCH  12  13
ENDBRANCH  11  12
ENDBRANCH  10  11
ENDBRANCH   1  10
TORSDOF 12
ENDMDL
MODEL 9
REMARK VINA RESULT:    -4.202      2.461      6.199
REMARK INTER + INTRA:          -7.919
REMARK INTER:                  -6.907
REMARK INTRA:                  -1.012
REMARK UNBOUND:                -0.769
REMARK SMILES CCCCCCCCCCCCCC(=O)[O-]
REMARK SMILES IDX 8 1 9 2 10 3 11 4 12 5 13 6 14 7 15 8 16 9 7 10 6 11 5 12
REMARK SMILES IDX 4 13 3 14 2 15 1 16
REMARK H PARENT
REMARK Flexibility Score: inf
ROOT
ATOM      1  C   UNL     1      -8.016  -5.571  -6.316  1.00  0.00     0.000 C 
ENDROOT
BRANCH   1   2
ATOM      2  C   UNL     1      -7.637  -6.219  -4.976  1.00  0.00     0.000 C 
BRANCH   2   3
ATOM      3  C   UNL     1      -6.240  -6.858  -5.001  1.00  0.00     0.000 C 
BRANCH   3   4
ATOM      4  C   UNL     1      -5.817  -7.302  -6.410  1.00  0.00     0.000 C 
BRANCH   4   5
ATOM      5  C   UNL     1      -4.445  -6.724  -6.777  1.00  0.00     0.006 C 
BRANCH   5   6
ATOM      6  C   UNL     1      -3.904  -5.835  -5.653  1.00  0.00     0.053 C 
BRANCH   6   7
ATOM      7  C   UNL     1      -4.051  -4.390  -6.013  1.00  0.00     0.041 C 
ATOM      8  O   UNL     1      -4.964  -4.022  -6.798  1.00  0.00    -0.550 OA
ATOM      9  O   UNL     1      -3.210  -3.443  -5.442  1.00  0.00    -0.550 OA
ENDBRANCH   6   7
ENDBRANCH   5   6
ENDBRANCH   4   5
ENDBRANCH   3   4
ENDBRANCH   2   3
ENDBRANCH   1   2
BRANCH   1  10
ATOM     10  C   UNL     1      -9.538  -5.532  -6.498  1.00  0.00     0.000 C 
BRANCH  10  11
ATOM     11  C   UNL     1     -10.258  -5.768  -5.162  1.00  0.00    -0.000 C 
BRANCH  11  12
ATOM     12  C   UNL     1     -11.092  -4.556  -4.715  1.00  0.00    -0.000 C 
BRANCH  12  13
ATOM     13  C   UNL     1     -10.321  -3.629  -3.761  1.00  0.00    -0.000 C 
BRANCH  13  14
ATOM     14  C   UNL     1     -10.969  -3.531  -2.367  1.00  0.00    -0.000 C 
BRANCH  14  15
ATOM     15  C   UNL     1      -9.977  -3.413  -1.196  1.00  0.00    -0.003 C 
ATOM     16  C   UNL     1      -8.527  -3.653  -1.613  1.00  0.00     0.004 C 
ENDBRANCH  14  15
ENDBRANCH  13  14
ENDBRANCH  12  13
ENDBRANCH  11  12
ENDBRANCH  10  11
ENDBRANCH   1  10
TORSDOF 12
ENDMDL
