MODEL 1
REMARK VINA RESULT:    -4.085      0.000      0.000
REMARK INTER + INTRA:         -10.678
REMARK INTER:                  -7.907
REMARK INTRA:                  -2.772
REMARK UNBOUND:                -2.772
REMARK SMILES CCCCCCCCCCCCCCCCCC(=O)[O-]
REMARK SMILES IDX 10 1 11 2 12 3 13 4 14 5 15 6 16 7 17 8 18 9 19 10 20 11
REMARK SMILES IDX 9 12 8 13 7 14 6 15 5 16 4 17 3 18 2 19 1 20
REMARK H PARENT
REMARK Flexibility Score: inf
ROOT
ATOM      1  C   UNL     1      17.085  29.486  70.986  1.00  0.00     0.000 C 
ENDROOT
BRANCH   1   2
ATOM      2  C   UNL     1      17.863  30.807  71.125  1.00  0.00     0.000 C 
BRANCH   2   3
ATOM      3  C   UNL     1      18.963  31.020  70.066  1.00  0.00     0.000 C 
BRANCH   3   4
ATOM      4  C   UNL     1      18.933  29.955  68.955  1.00  0.00     0.000 C 
BRANCH   4   5
ATOM      5  C   UNL     1      19.219  30.544  67.564  1.00  0.00     0.000 C 
BRANCH   5   6
ATOM      6  C   UNL     1      19.268  32.079  67.563  1.00  0.00     0.000 C 
BRANCH   6   7
ATOM      7  C   UNL     1      18.886  32.639  66.188  1.00  0.00     0.006 C 
BRANCH   7   8
ATOM      8  C   UNL     1      18.569  34.135  66.269  1.00  0.00     0.053 C 
BRANCH   8   9
ATOM      9  C   UNL     1      19.762  34.944  65.868  1.00  0.00     0.041 C 
ATOM     10  O   UNL     1      20.925  34.511  66.083  1.00  0.00    -0.550 OA
ATOM     11  O   UNL     1      19.589  36.152  65.202  1.00  0.00    -0.550 OA
ENDBRANCH   8   9
ENDBRANCH   7   8
ENDBRANCH   6   7
ENDBRANCH   5   6
ENDBRANCH   4   5
ENDBRANCH   3   4
ENDBRANCH   2   3
ENDBRANCH   1   2
BRANCH   1  12
ATOM     12  C   UNL     1      15.571  29.661  71.202  1.00  0.00     0.000 C 
BRANCH  12  13
ATOM     13  C   UNL     1      14.899  30.494  70.094  1.00  0.00    -0.000 C 
BRANCH  13  14
ATOM     14  C   UNL     1      15.049  29.922  68.671  1.00  0.00    -0.000 C 
BRANCH  14  15
ATOM     15  C   UNL     1      15.581  30.955  67.662  1.00  0.00    -0.000 C 
BRANCH  15  16
ATOM     16  C   UNL     1      15.689  32.363  68.267  1.00  0.00    -0.000 C 
BRANCH  16  17
ATOM     17  C   UNL     1      14.998  33.427  67.399  1.00  0.00    -0.000 C 
BRANCH  17  18
ATOM     18  C   UNL     1      13.676  33.881  68.037  1.00  0.00    -0.000 C 
BRANCH  18  19
ATOM     19  C   UNL     1      12.493  32.983  67.643  1.00  0.00    -0.003 C 
ATOM     20  C   UNL     1      11.918  32.207  68.829  1.00  0.00     0.004 C 
ENDBRANCH  18  19
ENDBRANCH  17  18
ENDBRANCH  16  17
ENDBRANCH  15  16
ENDBRANCH  14  15
ENDBRANCH  13  14
ENDBRANCH  12  13
ENDBRANCH   1  12
TORSDOF 16
ENDMDL
MODEL 2
REMARK VINA RESULT:    -4.065      1.277      1.932
REMARK INTER + INTRA:         -10.639
REMARK INTER:                  -8.782
REMARK INTRA:                  -1.857
REMARK UNBOUND:                -2.772
REMARK SMILES CCCCCCCCCCCCCCCCCC(=O)[O-]
REMARK SMILES IDX 10 1 11 2 12 3 13 4 14 5 15 6 16 7 17 8 18 9 19 10 20 11
REMARK SMILES IDX 9 12 8 13 7 14 6 15 5 16 4 17 3 18 2 19 1 20
REMARK H PARENT
REMARK Flexibility Score: inf
ROOT
ATOM      1  C   UNL     1      17.934  30.926  70.848  1.00  0.00     0.000 C 
ENDROOT
BRANCH   1   2
ATOM      2  C   UNL     1      19.026  29.979  70.318  1.00  0.00     0.000 C 
BRANCH   2   3
ATOM      3  C   UNL     1      20.028  30.636  69.347  1.00  0.00     0.000 C 
BRANCH   3   4
ATOM      4  C   UNL     1      19.363  31.649  68.400  1.00  0.00     0.000 C 
BRANCH   4   5
ATOM      5  C   UNL     1      18.856  31.001  67.101  1.00  0.00     0.000 C 
BRANCH   5   6
ATOM      6  C   UNL     1      19.388  31.697  65.839  1.00  0.00     0.000 C 
BRANCH   6   7
ATOM      7  C   UNL     1      19.706  33.170  66.118  1.00  0.00     0.006 C 
BRANCH   7   8
ATOM      8  C   UNL     1      18.606  34.086  65.573  1.00  0.00     0.053 C 
BRANCH   8   9
ATOM      9  C   UNL     1      19.066  35.509  65.565  1.00  0.00     0.041 C 
ATOM     10  O   UNL     1      20.280  35.782  65.371  1.00  0.00    -0.550 OA
ATOM     11  O   UNL     1      18.144  36.538  65.713  1.00  0.00    -0.550 OA
ENDBRANCH   8   9
ENDBRANCH   7   8
ENDBRANCH   6   7
ENDBRANCH   5   6
ENDBRANCH   4   5
ENDBRANCH   3   4
ENDBRANCH   2   3
ENDBRANCH   1   2
BRANCH   1  12
ATOM     12  C   UNL     1      16.729  30.173  71.440  1.00  0.00     0.000 C 
BRANCH  12  13
ATOM     13  C   UNL     1      15.409  30.488  70.712  1.00  0.00    -0.000 C 
BRANCH  13  14
ATOM     14  C   UNL     1      15.546  30.731  69.196  1.00  0.00    -0.000 C 
BRANCH  14  15
ATOM     15  C   UNL     1      14.895  32.048  68.739  1.00  0.00    -0.000 C 
BRANCH  15  16
ATOM     16  C   UNL     1      15.795  32.846  67.783  1.00  0.00    -0.000 C 
BRANCH  16  17
ATOM     17  C   UNL     1      15.005  33.871  66.955  1.00  0.00    -0.000 C 
BRANCH  17  18
ATOM     18  C   UNL     1      14.004  34.634  67.836  1.00  0.00    -0.000 C 
BRANCH  18  19
ATOM     19  C   UNL     1      13.948  36.133  67.501  1.00  0.00    -0.003 C 
ATOM     20  C   UNL     1      14.738  36.488  66.240  1.00  0.00     0.004 C 
ENDBRANCH  18  19
ENDBRANCH  17  18
ENDBRANCH  16  17
ENDBRANCH  15  16
ENDBRANCH  14  15
ENDBRANCH  13  14
ENDBRANCH  12  13
ENDBRANCH   1  12
TORSDOF 16
ENDMDL
MODEL 3
REMARK VINA RESULT:    -4.049      2.582      4.995
REMARK INTER + INTRA:         -10.609
REMARK INTER:                  -7.790
REMARK INTRA:                  -2.818
REMARK UNBOUND:                -2.772
REMARK SMILES CCCCCCCCCCCCCCCCCC(=O)[O-]
REMARK SMILES IDX 10 1 11 2 12 3 13 4 14 5 15 6 16 7 17 8 18 9 19 10 20 11
REMARK SMILES IDX 9 12 8 13 7 14 6 15 5 16 4 17 3 18 2 19 1 20
REMARK H PARENT
REMARK Flexibility Score: inf
ROOT
ATOM      1  C   UNL     1      14.984  30.387  70.750  1.00  0.00     0.000 C 
ENDROOT
BRANCH   1   2
ATOM      2  C   UNL     1      15.162  28.996  70.114  1.00  0.00     0.000 C 
BRANCH   2   3
ATOM      3  C   UNL     1      15.153  28.990  68.573  1.00  0.00     0.000 C 
BRANCH   3   4
ATOM      4  C   UNL     1      14.245  30.080  67.977  1.00  0.00     0.000 C 
BRANCH   4   5
ATOM      5  C   UNL     1      14.641  30.460  66.541  1.00  0.00     0.000 C 
BRANCH   5   6
ATOM      6  C   UNL     1      15.667  31.602  66.487  1.00  0.00     0.000 C 
BRANCH   6   7
ATOM      7  C   UNL     1      15.504  32.542  67.686  1.00  0.00     0.006 C 
BRANCH   7   8
ATOM      8  C   UNL     1      15.267  33.984  67.230  1.00  0.00     0.053 C 
BRANCH   8   9
ATOM      9  C   UNL     1      14.007  34.522  67.831  1.00  0.00     0.041 C 
ATOM     10  O   UNL     1      13.229  33.760  68.464  1.00  0.00    -0.550 OA
ATOM     11  O   UNL     1      13.718  35.878  67.741  1.00  0.00    -0.550 OA
ENDBRANCH   8   9
ENDBRANCH   7   8
ENDBRANCH   6   7
ENDBRANCH   5   6
ENDBRANCH   4   5
ENDBRANCH   3   4
ENDBRANCH   2   3
ENDBRANCH   1   2
BRANCH   1  12
ATOM     12  C   UNL     1      16.324  31.095  71.018  1.00  0.00     0.000 C 
BRANCH  12  13
ATOM     13  C   UNL     1      17.513  30.120  71.097  1.00  0.00    -0.000 C 
BRANCH  13  14
ATOM     14  C   UNL     1      18.848  30.679  70.565  1.00  0.00    -0.000 C 
BRANCH  14  15
ATOM     15  C   UNL     1      18.737  31.237  69.136  1.00  0.00    -0.000 C 
BRANCH  15  16
ATOM     16  C   UNL     1      18.643  30.127  68.078  1.00  0.00    -0.000 C 
BRANCH  16  17
ATOM     17  C   UNL     1      19.201  30.568  66.716  1.00  0.00    -0.000 C 
BRANCH  17  18
ATOM     18  C   UNL     1      19.264  32.100  66.619  1.00  0.00    -0.000 C 
BRANCH  18  19
ATOM     19  C   UNL     1      19.019  32.611  65.191  1.00  0.00    -0.003 C 
ATOM     20  C   UNL     1      18.584  31.502  64.232  1.00  0.00     0.004 C 
ENDBRANCH  18  19
ENDBRANCH  17  18
ENDBRANCH  16  17
ENDBRANCH  15  16
ENDBRANCH  14  15
ENDBRANCH  13  14
ENDBRANCH  12  13
ENDBRANCH   1  12
TORSDOF 16
ENDMDL
MODEL 4
REMARK VINA RESULT:    -4.025      1.180      1.629
REMARK INTER + INTRA:         -10.562
REMARK INTER:                  -7.717
REMARK INTRA:                  -2.845
REMARK UNBOUND:                -2.772
REMARK SMILES CCCCCCCCCCCCCCCCCC(=O)[O-]
REMARK SMILES IDX 10 1 11 2 12 3 13 4 14 5 15 6 16 7 17 8 18 9 19 10 20 11
REMARK SMILES IDX 9 12 8 13 7 14 6 15 5 16 4 17 3 18 2 19 1 20
REMARK H PARENT
REMARK Flexibility Score: inf
ROOT
ATOM      1  C   UNL     1      15.869  30.950  70.694  1.00  0.00     0.000 C 
ENDROOT
BRANCH   1   2
ATOM      2  C   UNL     1      17.134  30.353  71.338  1.00  0.00     0.000 C 
BRANCH   2   3
ATOM      3  C   UNL     1      18.458  30.967  70.841  1.00  0.00     0.000 C 
BRANCH   3   4
ATOM      4  C   UNL     1      18.953  30.332  69.530  1.00  0.00     0.000 C 
BRANCH   4   5
ATOM      5  C   UNL     1      18.782  31.264  68.319  1.00  0.00     0.000 C 
BRANCH   5   6
ATOM      6  C   UNL     1      18.564  30.500  67.005  1.00  0.00     0.000 C 
BRANCH   6   7
ATOM      7  C   UNL     1      19.446  31.068  65.887  1.00  0.00     0.006 C 
BRANCH   7   8
ATOM      8  C   UNL     1      18.708  32.151  65.096  1.00  0.00     0.053 C 
BRANCH   8   9
ATOM      9  C   UNL     1      19.076  33.510  65.600  1.00  0.00     0.041 C 
ATOM     10  O   UNL     1      18.183  34.375  65.804  1.00  0.00    -0.550 OA
ATOM     11  O   UNL     1      20.400  33.804  65.901  1.00  0.00    -0.550 OA
ENDBRANCH   8   9
ENDBRANCH   7   8
ENDBRANCH   6   7
ENDBRANCH   5   6
ENDBRANCH   4   5
ENDBRANCH   3   4
ENDBRANCH   2   3
ENDBRANCH   1   2
BRANCH   1  12
ATOM     12  C   UNL     1      14.939  29.877  70.100  1.00  0.00     0.000 C 
BRANCH  12  13
ATOM     13  C   UNL     1      15.410  29.370  68.724  1.00  0.00    -0.000 C 
BRANCH  13  14
ATOM     14  C   UNL     1      14.407  29.589  67.574  1.00  0.00    -0.000 C 
BRANCH  14  15
ATOM     15  C   UNL     1      15.054  30.203  66.321  1.00  0.00    -0.000 C 
BRANCH  15  16
ATOM     16  C   UNL     1      14.730  31.696  66.165  1.00  0.00    -0.000 C 
BRANCH  16  17
ATOM     17  C   UNL     1      15.469  32.567  67.193  1.00  0.00    -0.000 C 
BRANCH  17  18
ATOM     18  C   UNL     1      14.475  33.344  68.070  1.00  0.00    -0.000 C 
BRANCH  18  19
ATOM     19  C   UNL     1      13.012  33.000  67.749  1.00  0.00    -0.003 C 
ATOM     20  C   UNL     1      12.297  32.316  68.915  1.00  0.00     0.004 C 
ENDBRANCH  18  19
ENDBRANCH  17  18
ENDBRANCH  16  17
ENDBRANCH  15  16
ENDBRANCH  14  15
ENDBRANCH  13  14
ENDBRANCH  12  13
ENDBRANCH   1  12
TORSDOF 16
ENDMDL
MODEL 5
REMARK VINA RESULT:    -4.025      2.258      4.966
REMARK INTER + INTRA:         -10.561
REMARK INTER:                  -8.088
REMARK INTRA:                  -2.473
REMARK UNBOUND:                -2.772
REMARK SMILES CCCCCCCCCCCCCCCCCC(=O)[O-]
REMARK SMILES IDX 10 1 11 2 12 3 13 4 14 5 15 6 16 7 17 8 18 9 19 10 20 11
REMARK SMILES IDX 9 12 8 13 7 14 6 15 5 16 4 17 3 18 2 19 1 20
REMARK H PARENT
REMARK Flexibility Score: inf
ROOT
ATOM      1  C   UNL     1      15.093  30.482  69.895  1.00  0.00     0.000 C 
ENDROOT
BRANCH   1   2
ATOM      2  C   UNL     1      14.401  29.604  68.836  1.00  0.00     0.000 C 
BRANCH   2   3
ATOM      3  C   UNL     1      13.425  30.361  67.913  1.00  0.00     0.000 C 
BRANCH   3   4
ATOM      4  C   UNL     1      12.557  31.380  68.672  1.00  0.00     0.000 C 
BRANCH   4   5
ATOM      5  C   UNL     1      12.743  32.816  68.155  1.00  0.00     0.000 C 
BRANCH   5   6
ATOM      6  C   UNL     1      13.542  32.881  66.845  1.00  0.00     0.000 C 
BRANCH   6   7
ATOM      7  C   UNL     1      14.389  34.157  66.783  1.00  0.00     0.006 C 
BRANCH   7   8
ATOM      8  C   UNL     1      13.756  35.282  67.606  1.00  0.00     0.053 C 
BRANCH   8   9
ATOM      9  C   UNL     1      14.467  36.575  67.360  1.00  0.00     0.041 C 
ATOM     10  O   UNL     1      13.818  37.605  67.039  1.00  0.00    -0.550 OA
ATOM     11  O   UNL     1      15.842  36.656  67.541  1.00  0.00    -0.550 OA
ENDBRANCH   8   9
ENDBRANCH   7   8
ENDBRANCH   6   7
ENDBRANCH   5   6
ENDBRANCH   4   5
ENDBRANCH   3   4
ENDBRANCH   2   3
ENDBRANCH   1   2
BRANCH   1  12
ATOM     12  C   UNL     1      16.013  29.675  70.829  1.00  0.00     0.000 C 
BRANCH  12  13
ATOM     13  C   UNL     1      17.111  30.537  71.480  1.00  0.00    -0.000 C 
BRANCH  13  14
ATOM     14  C   UNL     1      18.281  30.910  70.547  1.00  0.00    -0.000 C 
BRANCH  14  15
ATOM     15  C   UNL     1      18.728  29.744  69.649  1.00  0.00    -0.000 C 
BRANCH  15  16
ATOM     16  C   UNL     1      18.670  30.099  68.155  1.00  0.00    -0.000 C 
BRANCH  16  17
ATOM     17  C   UNL     1      18.242  31.555  67.916  1.00  0.00    -0.000 C 
BRANCH  17  18
ATOM     18  C   UNL     1      17.000  31.621  67.014  1.00  0.00    -0.000 C 
BRANCH  18  19
ATOM     19  C   UNL     1      17.170  30.812  65.718  1.00  0.00    -0.003 C 
ATOM     20  C   UNL     1      15.834  30.412  65.091  1.00  0.00     0.004 C 
ENDBRANCH  18  19
ENDBRANCH  17  18
ENDBRANCH  16  17
ENDBRANCH  15  16
ENDBRANCH  14  15
ENDBRANCH  13  14
ENDBRANCH  12  13
ENDBRANCH   1  12
TORSDOF 16
ENDMDL
MODEL 6
REMARK VINA RESULT:    -4.008      1.143      2.286
REMARK INTER + INTRA:         -10.529
REMARK INTER:                  -7.720
REMARK INTRA:                  -2.808
REMARK UNBOUND:                -2.772
REMARK SMILES CCCCCCCCCCCCCCCCCC(=O)[O-]
REMARK SMILES IDX 10 1 11 2 12 3 13 4 14 5 15 6 16 7 17 8 18 9 19 10 20 11
REMARK SMILES IDX 9 12 8 13 7 14 6 15 5 16 4 17 3 18 2 19 1 20
REMARK H PARENT
REMARK Flexibility Score: inf
ROOT
ATOM      1  C   UNL     1      18.732  30.844  70.413  1.00  0.00     0.000 C 
ENDROOT
BRANCH   1   2
ATOM      2  C   UNL     1      18.928  29.405  69.903  1.00  0.00     0.000 C 
BRANCH   2   3
ATOM      3  C   UNL     1      19.394  29.301  68.437  1.00  0.00     0.000 C 
BRANCH   3   4
ATOM      4  C   UNL     1      19.410  30.662  67.719  1.00  0.00     0.000 C 
BRANCH   4   5
ATOM      5  C   UNL     1      19.355  30.525  66.189  1.00  0.00     0.000 C 
BRANCH   5   6
ATOM      6  C   UNL     1      19.020  31.847  65.483  1.00  0.00     0.000 C 
BRANCH   6   7
ATOM      7  C   UNL     1      19.526  33.046  66.294  1.00  0.00     0.006 C 
BRANCH   7   8
ATOM      8  C   UNL     1      19.089  34.368  65.659  1.00  0.00     0.053 C 
BRANCH   8   9
ATOM      9  C   UNL     1      20.153  35.406  65.827  1.00  0.00     0.041 C 
ATOM     10  O   UNL     1      20.057  36.515  65.238  1.00  0.00    -0.550 OA
ATOM     11  O   UNL     1      21.224  35.171  66.680  1.00  0.00    -0.550 OA
ENDBRANCH   8   9
ENDBRANCH   7   8
ENDBRANCH   6   7
ENDBRANCH   5   6
ENDBRANCH   4   5
ENDBRANCH   3   4
ENDBRANCH   2   3
ENDBRANCH   1   2
BRANCH   1  12
ATOM     12  C   UNL     1      17.487  30.996  71.305  1.00  0.00     0.000 C 
BRANCH  12  13
ATOM     13  C   UNL     1      16.718  29.674  71.491  1.00  0.00    -0.000 C 
BRANCH  13  14
ATOM     14  C   UNL     1      15.229  29.729  71.097  1.00  0.00    -0.000 C 
BRANCH  14  15
ATOM     15  C   UNL     1      14.962  30.637  69.885  1.00  0.00    -0.000 C 
BRANCH  15  16
ATOM     16  C   UNL     1      15.217  29.923  68.549  1.00  0.00    -0.000 C 
BRANCH  16  17
ATOM     17  C   UNL     1      15.805  30.864  67.486  1.00  0.00    -0.000 C 
BRANCH  17  18
ATOM     18  C   UNL     1      16.087  32.253  68.078  1.00  0.00    -0.000 C 
BRANCH  18  19
ATOM     19  C   UNL     1      15.787  33.388  67.086  1.00  0.00    -0.003 C 
ATOM     20  C   UNL     1      14.298  33.514  66.764  1.00  0.00     0.004 C 
ENDBRANCH  18  19
ENDBRANCH  17  18
ENDBRANCH  16  17
ENDBRANCH  15  16
ENDBRANCH  14  15
ENDBRANCH  13  14
ENDBRANCH  12  13
ENDBRANCH   1  12
TORSDOF 16
ENDMDL
MODEL 7
REMARK VINA RESULT:    -3.930      1.225      2.539
REMARK INTER + INTRA:         -10.378
REMARK INTER:                  -7.770
REMARK INTRA:                  -2.608
REMARK UNBOUND:                -2.772
REMARK SMILES CCCCCCCCCCCCCCCCCC(=O)[O-]
REMARK SMILES IDX 10 1 11 2 12 3 13 4 14 5 15 6 16 7 17 8 18 9 19 10 20 11
REMARK SMILES IDX 9 12 8 13 7 14 6 15 5 16 4 17 3 18 2 19 1 20
REMARK H PARENT
REMARK Flexibility Score: inf
ROOT
ATOM      1  C   UNL     1      15.903  31.524  69.362  1.00  0.00     0.000 C 
ENDROOT
BRANCH   1   2
ATOM      2  C   UNL     1      15.870  30.808  70.725  1.00  0.00     0.000 C 
BRANCH   2   3
ATOM      3  C   UNL     1      17.241  30.305  71.219  1.00  0.00     0.000 C 
BRANCH   3   4
ATOM      4  C   UNL     1      18.406  31.193  70.749  1.00  0.00     0.000 C 
BRANCH   4   5
ATOM      5  C   UNL     1      19.575  30.379  70.171  1.00  0.00     0.000 C 
BRANCH   5   6
ATOM      6  C   UNL     1      19.699  30.512  68.646  1.00  0.00     0.000 C 
BRANCH   6   7
ATOM      7  C   UNL     1      19.391  31.944  68.193  1.00  0.00     0.006 C 
BRANCH   7   8
ATOM      8  C   UNL     1      18.965  31.979  66.723  1.00  0.00     0.053 C 
BRANCH   8   9
ATOM      9  C   UNL     1      19.442  33.238  66.071  1.00  0.00     0.041 C 
ATOM     10  O   UNL     1      20.508  33.787  66.454  1.00  0.00    -0.550 OA
ATOM     11  O   UNL     1      18.739  33.774  64.998  1.00  0.00    -0.550 OA
ENDBRANCH   8   9
ENDBRANCH   7   8
ENDBRANCH   6   7
ENDBRANCH   5   6
ENDBRANCH   4   5
ENDBRANCH   3   4
ENDBRANCH   2   3
ENDBRANCH   1   2
BRANCH   1  12
ATOM     12  C   UNL     1      15.759  30.555  68.175  1.00  0.00     0.000 C 
BRANCH  12  13
ATOM     13  C   UNL     1      14.555  29.605  68.320  1.00  0.00    -0.000 C 
BRANCH  13  14
ATOM     14  C   UNL     1      13.179  30.299  68.339  1.00  0.00    -0.000 C 
BRANCH  14  15
ATOM     15  C   UNL     1      12.752  30.823  66.957  1.00  0.00    -0.000 C 
BRANCH  15  16
ATOM     16  C   UNL     1      12.261  32.277  67.006  1.00  0.00    -0.000 C 
BRANCH  16  17
ATOM     17  C   UNL     1      12.599  32.964  68.339  1.00  0.00    -0.000 C 
BRANCH  17  18
ATOM     18  C   UNL     1      13.574  34.131  68.124  1.00  0.00    -0.000 C 
BRANCH  18  19
ATOM     19  C   UNL     1      14.389  33.987  66.829  1.00  0.00    -0.003 C 
ATOM     20  C   UNL     1      15.813  34.529  66.963  1.00  0.00     0.004 C 
ENDBRANCH  18  19
ENDBRANCH  17  18
ENDBRANCH  16  17
ENDBRANCH  15  16
ENDBRANCH  14  15
ENDBRANCH  13  14
ENDBRANCH  12  13
ENDBRANCH   1  12
TORSDOF 16
ENDMDL
MODEL 8
REMARK VINA RESULT:    -3.929      2.574      6.261
REMARK INTER + INTRA:         -10.376
REMARK INTER:                  -8.034
REMARK INTRA:                  -2.342
REMARK UNBOUND:                -2.772
REMARK SMILES CCCCCCCCCCCCCCCCCC(=O)[O-]
REMARK SMILES IDX 10 1 11 2 12 3 13 4 14 5 15 6 16 7 17 8 18 9 19 10 20 11
REMARK SMILES IDX 9 12 8 13 7 14 6 15 5 16 4 17 3 18 2 19 1 20
REMARK H PARENT
REMARK Flexibility Score: inf
ROOT
ATOM      1  C   UNL     1      15.323  35.543  67.433  1.00  0.00     0.000 C 
ENDROOT
BRANCH   1   2
ATOM      2  C   UNL     1      14.023  34.720  67.365  1.00  0.00     0.000 C 
BRANCH   2   3
ATOM      3  C   UNL     1      14.110  33.328  68.021  1.00  0.00     0.000 C 
BRANCH   3   4
ATOM      4  C   UNL     1      15.161  32.421  67.357  1.00  0.00     0.000 C 
BRANCH   4   5
ATOM      5  C   UNL     1      15.456  31.157  68.179  1.00  0.00     0.000 C 
BRANCH   5   6
ATOM      6  C   UNL     1      14.936  31.247  69.622  1.00  0.00     0.000 C 
BRANCH   6   7
ATOM      7  C   UNL     1      15.910  30.578  70.599  1.00  0.00     0.006 C 
BRANCH   7   8
ATOM      8  C   UNL     1      16.966  29.759  69.852  1.00  0.00     0.053 C 
BRANCH   8   9
ATOM      9  C   UNL     1      18.322  29.994  70.439  1.00  0.00     0.041 C 
ATOM     10  O   UNL     1      19.206  29.100  70.373  1.00  0.00    -0.550 OA
ATOM     11  O   UNL     1      18.628  31.224  71.008  1.00  0.00    -0.550 OA
ENDBRANCH   8   9
ENDBRANCH   7   8
ENDBRANCH   6   7
ENDBRANCH   5   6
ENDBRANCH   4   5
ENDBRANCH   3   4
ENDBRANCH   2   3
ENDBRANCH   1   2
BRANCH   1  12
ATOM     12  C   UNL     1      15.731  36.127  66.068  1.00  0.00     0.000 C 
BRANCH  12  13
ATOM     13  C   UNL     1      17.217  35.896  65.738  1.00  0.00    -0.000 C 
BRANCH  13  14
ATOM     14  C   UNL     1      17.799  34.567  66.257  1.00  0.00    -0.000 C 
BRANCH  14  15
ATOM     15  C   UNL     1      19.325  34.472  66.086  1.00  0.00    -0.000 C 
BRANCH  15  16
ATOM     16  C   UNL     1      19.944  33.361  66.947  1.00  0.00    -0.000 C 
BRANCH  16  17
ATOM     17  C   UNL     1      18.892  32.369  67.468  1.00  0.00    -0.000 C 
BRANCH  17  18
ATOM     18  C   UNL     1      19.166  30.952  66.944  1.00  0.00    -0.000 C 
BRANCH  18  19
ATOM     19  C   UNL     1      19.172  30.882  65.408  1.00  0.00    -0.003 C 
ATOM     20  C   UNL     1      17.765  30.910  64.810  1.00  0.00     0.004 C 
ENDBRANCH  18  19
ENDBRANCH  17  18
ENDBRANCH  16  17
ENDBRANCH  15  16
ENDBRANCH  14  15
ENDBRANCH  13  14
ENDBRANCH  12  13
ENDBRANCH   1  12
TORSDOF 16
ENDMDL
MODEL 9
REMARK VINA RESULT:    -3.921      2.567      3.077
REMARK INTER + INTRA:         -10.361
REMARK INTER:                  -8.415
REMARK INTRA:                  -1.947
REMARK UNBOUND:                -2.772
REMARK SMILES CCCCCCCCCCCCCCCCCC(=O)[O-]
REMARK SMILES IDX 10 1 11 2 12 3 13 4 14 5 15 6 16 7 17 8 18 9 19 10 20 11
REMARK SMILES IDX 9 12 8 13 7 14 6 15 5 16 4 17 3 18 2 19 1 20
REMARK H PARENT
REMARK Flexibility Score: inf
ROOT
ATOM      1  C   UNL     1      17.220  30.872  71.231  1.00  0.00     0.000 C 
ENDROOT
BRANCH   1   2
ATOM      2  C   UNL     1      18.598  30.883  70.545  1.00  0.00     0.000 C 
BRANCH   2   3
ATOM      3  C   UNL     1      18.761  29.847  69.415  1.00  0.00     0.000 C 
BRANCH   3   4
ATOM      4  C   UNL     1      19.605  30.374  68.241  1.00  0.00     0.000 C 
BRANCH   4   5
ATOM      5  C   UNL     1      19.294  31.840  67.899  1.00  0.00     0.000 C 
BRANCH   5   6
ATOM      6  C   UNL     1      19.273  32.108  66.387  1.00  0.00     0.000 C 
BRANCH   6   7
ATOM      7  C   UNL     1      18.584  30.963  65.636  1.00  0.00     0.006 C 
BRANCH   7   8
ATOM      8  C   UNL     1      18.585  31.213  64.125  1.00  0.00     0.053 C 
BRANCH   8   9
ATOM      9  C   UNL     1      17.286  30.781  63.523  1.00  0.00     0.041 C 
ATOM     10  O   UNL     1      16.329  30.430  64.262  1.00  0.00    -0.550 OA
ATOM     11  O   UNL     1      17.112  30.822  62.144  1.00  0.00    -0.550 OA
ENDBRANCH   8   9
ENDBRANCH   7   8
ENDBRANCH   6   7
ENDBRANCH   5   6
ENDBRANCH   4   5
ENDBRANCH   3   4
ENDBRANCH   2   3
ENDBRANCH   1   2
BRANCH   1  12
ATOM     12  C   UNL     1      16.221  29.922  70.546  1.00  0.00     0.000 C 
BRANCH  12  13
ATOM     13  C   UNL     1      14.826  30.549  70.362  1.00  0.00    -0.000 C 
BRANCH  13  14
ATOM     14  C   UNL     1      14.425  30.821  68.898  1.00  0.00    -0.000 C 
BRANCH  14  15
ATOM     15  C   UNL     1      15.623  31.191  68.007  1.00  0.00    -0.000 C 
BRANCH  15  16
ATOM     16  C   UNL     1      15.715  32.701  67.744  1.00  0.00    -0.000 C 
BRANCH  16  17
ATOM     17  C   UNL     1      14.352  33.316  67.386  1.00  0.00    -0.000 C 
BRANCH  17  18
ATOM     18  C   UNL     1      14.526  34.700  66.743  1.00  0.00    -0.000 C 
BRANCH  18  19
ATOM     19  C   UNL     1      14.102  35.843  67.679  1.00  0.00    -0.003 C 
ATOM     20  C   UNL     1      14.066  37.200  66.976  1.00  0.00     0.004 C 
ENDBRANCH  18  19
ENDBRANCH  17  18
ENDBRANCH  16  17
ENDBRANCH  15  16
ENDBRANCH  14  15
ENDBRANCH  13  14
ENDBRANCH  12  13
ENDBRANCH   1  12
TORSDOF 16
ENDMDL
