MODEL 1
REMARK VINA RESULT:    -5.517      0.000      0.000
REMARK INTER + INTRA:         -11.832
REMARK INTER:                 -10.677
REMARK INTRA:                  -1.155
REMARK UNBOUND:                -1.155
REMARK SMILES CCCCCCCCCCCCCCCCCC(=O)[O-]
REMARK SMILES IDX 10 1 11 2 12 3 13 4 14 5 15 6 16 7 17 8 18 9 19 10 20 11
REMARK SMILES IDX 9 12 8 13 7 14 6 15 5 16 4 17 3 18 2 19 1 20
REMARK H PARENT
REMARK Flexibility Score: inf
ROOT
ATOM      1  C   UNL     1      -9.531  -3.007  -9.050  1.00  0.00     0.000 C 
ENDROOT
BRANCH   1   2
ATOM      2  C   UNL     1      -9.537  -3.064  -7.509  1.00  0.00     0.000 C 
BRANCH   2   3
ATOM      3  C   UNL     1      -9.990  -4.438  -6.984  1.00  0.00     0.000 C 
BRANCH   3   4
ATOM      4  C   UNL     1      -9.817  -5.559  -8.021  1.00  0.00     0.000 C 
BRANCH   4   5
ATOM      5  C   UNL     1     -10.716  -6.773  -7.724  1.00  0.00     0.000 C 
BRANCH   5   6
ATOM      6  C   UNL     1     -10.491  -7.348  -6.314  1.00  0.00     0.000 C 
BRANCH   6   7
ATOM      7  C   UNL     1     -11.780  -7.606  -5.512  1.00  0.00     0.006 C 
BRANCH   7   8
ATOM      8  C   UNL     1     -12.697  -6.377  -5.446  1.00  0.00     0.053 C 
BRANCH   8   9
ATOM      9  C   UNL     1     -14.006  -6.665  -6.110  1.00  0.00     0.041 C 
ATOM     10  O   UNL     1     -14.917  -7.265  -5.480  1.00  0.00    -0.550 OA
ATOM     11  O   UNL     1     -14.237  -6.230  -7.410  1.00  0.00    -0.550 OA
ENDBRANCH   8   9
ENDBRANCH   7   8
ENDBRANCH   6   7
ENDBRANCH   5   6
ENDBRANCH   4   5
ENDBRANCH   3   4
ENDBRANCH   2   3
ENDBRANCH   1   2
BRANCH   1  12
ATOM     12  C   UNL     1     -10.826  -2.428  -9.658  1.00  0.00     0.000 C 
BRANCH  12  13
ATOM     13  C   UNL     1     -10.681  -1.031 -10.290  1.00  0.00    -0.000 C 
BRANCH  13  14
ATOM     14  C   UNL     1     -11.844  -0.088  -9.932  1.00  0.00    -0.000 C 
BRANCH  14  15
ATOM     15  C   UNL     1     -13.198  -0.601 -10.448  1.00  0.00    -0.000 C 
BRANCH  15  16
ATOM     16  C   UNL     1     -14.382   0.246  -9.953  1.00  0.00    -0.000 C 
BRANCH  16  17
ATOM     17  C   UNL     1     -14.101   1.755 -10.028  1.00  0.00    -0.000 C 
BRANCH  17  18
ATOM     18  C   UNL     1     -14.790   2.545  -8.903  1.00  0.00    -0.000 C 
BRANCH  18  19
ATOM     19  C   UNL     1     -13.955   3.768  -8.504  1.00  0.00    -0.003 C 
ATOM     20  C   UNL     1     -12.501   3.609  -8.937  1.00  0.00     0.004 C 
ENDBRANCH  18  19
ENDBRANCH  17  18
ENDBRANCH  16  17
ENDBRANCH  15  16
ENDBRANCH  14  15
ENDBRANCH  13  14
ENDBRANCH  12  13
ENDBRANCH   1  12
TORSDOF 16
ENDMDL
MODEL 2
REMARK VINA RESULT:    -5.461      3.770      8.010
REMARK INTER + INTRA:         -11.724
REMARK INTER:                 -10.148
REMARK INTRA:                  -1.575
REMARK UNBOUND:                -1.155
REMARK SMILES CCCCCCCCCCCCCCCCCC(=O)[O-]
REMARK SMILES IDX 10 1 11 2 12 3 13 4 14 5 15 6 16 7 17 8 18 9 19 10 20 11
REMARK SMILES IDX 9 12 8 13 7 14 6 15 5 16 4 17 3 18 2 19 1 20
REMARK H PARENT
REMARK Flexibility Score: inf
ROOT
ATOM      1  C   UNL     1     -11.027  -2.377  -9.651  1.00  0.00     0.000 C 
ENDROOT
BRANCH   1   2
ATOM      2  C   UNL     1     -10.870  -0.888 -10.023  1.00  0.00     0.000 C 
BRANCH   2   3
ATOM      3  C   UNL     1     -12.216  -0.140  -9.988  1.00  0.00     0.000 C 
BRANCH   3   4
ATOM      4  C   UNL     1     -13.303  -0.831 -10.826  1.00  0.00     0.000 C 
BRANCH   4   5
ATOM      5  C   UNL     1     -14.723  -0.459 -10.360  1.00  0.00     0.000 C 
BRANCH   5   6
ATOM      6  C   UNL     1     -14.726   0.644  -9.287  1.00  0.00     0.000 C 
BRANCH   6   7
ATOM      7  C   UNL     1     -14.631   2.078  -9.840  1.00  0.00     0.006 C 
BRANCH   7   8
ATOM      8  C   UNL     1     -14.426   3.128  -8.740  1.00  0.00     0.053 C 
BRANCH   8   9
ATOM      9  C   UNL     1     -13.013   3.619  -8.742  1.00  0.00     0.041 C 
ATOM     10  O   UNL     1     -12.518   4.127  -7.700  1.00  0.00    -0.550 OA
ATOM     11  O   UNL     1     -12.227   3.474  -9.879  1.00  0.00    -0.550 OA
ENDBRANCH   8   9
ENDBRANCH   7   8
ENDBRANCH   6   7
ENDBRANCH   5   6
ENDBRANCH   4   5
ENDBRANCH   3   4
ENDBRANCH   2   3
ENDBRANCH   1   2
BRANCH   1  12
ATOM     12  C   UNL     1      -9.796  -3.239 -10.000  1.00  0.00     0.000 C 
BRANCH  12  13
ATOM     13  C   UNL     1      -8.914  -3.634  -8.801  1.00  0.00    -0.000 C 
BRANCH  13  14
ATOM     14  C   UNL     1      -9.617  -3.429  -7.447  1.00  0.00    -0.000 C 
BRANCH  14  15
ATOM     15  C   UNL     1     -10.308  -4.706  -6.943  1.00  0.00    -0.000 C 
BRANCH  15  16
ATOM     16  C   UNL     1      -9.927  -5.950  -7.762  1.00  0.00    -0.000 C 
BRANCH  16  17
ATOM     17  C   UNL     1     -11.123  -6.546  -8.522  1.00  0.00    -0.000 C 
BRANCH  17  18
ATOM     18  C   UNL     1     -12.370  -5.648  -8.467  1.00  0.00    -0.000 C 
BRANCH  18  19
ATOM     19  C   UNL     1     -13.225  -5.824  -9.728  1.00  0.00    -0.003 C 
ATOM     20  C   UNL     1     -14.165  -4.639  -9.927  1.00  0.00     0.004 C 
ENDBRANCH  18  19
ENDBRANCH  17  18
ENDBRANCH  16  17
ENDBRANCH  15  16
ENDBRANCH  14  15
ENDBRANCH  13  14
ENDBRANCH  12  13
ENDBRANCH   1  12
TORSDOF 16
ENDMDL
MODEL 3
REMARK VINA RESULT:    -5.397      1.740      2.132
REMARK INTER + INTRA:         -11.601
REMARK INTER:                 -10.300
REMARK INTRA:                  -1.301
REMARK UNBOUND:                -1.155
REMARK SMILES CCCCCCCCCCCCCCCCCC(=O)[O-]
REMARK SMILES IDX 10 1 11 2 12 3 13 4 14 5 15 6 16 7 17 8 18 9 19 10 20 11
REMARK SMILES IDX 9 12 8 13 7 14 6 15 5 16 4 17 3 18 2 19 1 20
REMARK H PARENT
REMARK Flexibility Score: inf
ROOT
ATOM      1  C   UNL     1      -9.587  -2.888  -9.995  1.00  0.00     0.000 C 
ENDROOT
BRANCH   1   2
ATOM      2  C   UNL     1      -9.612  -4.325  -9.436  1.00  0.00     0.000 C 
BRANCH   2   3
ATOM      3  C   UNL     1     -10.886  -4.604  -8.617  1.00  0.00     0.000 C 
BRANCH   3   4
ATOM      4  C   UNL     1     -11.723  -5.756  -9.194  1.00  0.00     0.000 C 
BRANCH   4   5
ATOM      5  C   UNL     1     -13.222  -5.606  -8.871  1.00  0.00     0.000 C 
BRANCH   5   6
ATOM      6  C   UNL     1     -13.603  -6.225  -7.515  1.00  0.00     0.000 C 
BRANCH   6   7
ATOM      7  C   UNL     1     -13.068  -7.652  -7.287  1.00  0.00     0.006 C 
BRANCH   7   8
ATOM      8  C   UNL     1     -12.494  -7.855  -5.879  1.00  0.00     0.053 C 
BRANCH   8   9
ATOM      9  C   UNL     1     -11.246  -7.050  -5.702  1.00  0.00     0.041 C 
ATOM     10  O   UNL     1     -10.209  -7.337  -6.358  1.00  0.00    -0.550 OA
ATOM     11  O   UNL     1     -11.239  -5.955  -4.847  1.00  0.00    -0.550 OA
ENDBRANCH   8   9
ENDBRANCH   7   8
ENDBRANCH   6   7
ENDBRANCH   5   6
ENDBRANCH   4   5
ENDBRANCH   3   4
ENDBRANCH   2   3
ENDBRANCH   1   2
BRANCH   1  12
ATOM     12  C   UNL     1     -10.839  -2.059  -9.639  1.00  0.00     0.000 C 
BRANCH  12  13
ATOM     13  C   UNL     1     -10.927  -0.683 -10.324  1.00  0.00    -0.000 C 
BRANCH  13  14
ATOM     14  C   UNL     1     -12.155   0.131  -9.876  1.00  0.00    -0.000 C 
BRANCH  14  15
ATOM     15  C   UNL     1     -13.469  -0.423 -10.449  1.00  0.00    -0.000 C 
BRANCH  15  16
ATOM     16  C   UNL     1     -14.710   0.293  -9.890  1.00  0.00    -0.000 C 
BRANCH  16  17
ATOM     17  C   UNL     1     -14.602   1.823  -9.986  1.00  0.00    -0.000 C 
BRANCH  17  18
ATOM     18  C   UNL     1     -14.732   2.516  -8.620  1.00  0.00    -0.000 C 
BRANCH  18  19
ATOM     19  C   UNL     1     -14.023   3.876  -8.627  1.00  0.00    -0.003 C 
ATOM     20  C   UNL     1     -12.524   3.716  -8.866  1.00  0.00     0.004 C 
ENDBRANCH  18  19
ENDBRANCH  17  18
ENDBRANCH  16  17
ENDBRANCH  15  16
ENDBRANCH  14  15
ENDBRANCH  13  14
ENDBRANCH  12  13
ENDBRANCH   1  12
TORSDOF 16
ENDMDL
MODEL 4
REMARK VINA RESULT:    -5.257      3.469      7.885
REMARK INTER + INTRA:         -11.328
REMARK INTER:                  -9.611
REMARK INTRA:                  -1.718
REMARK UNBOUND:                -1.155
REMARK SMILES CCCCCCCCCCCCCCCCCC(=O)[O-]
REMARK SMILES IDX 10 1 11 2 12 3 13 4 14 5 15 6 16 7 17 8 18 9 19 10 20 11
REMARK SMILES IDX 9 12 8 13 7 14 6 15 5 16 4 17 3 18 2 19 1 20
REMARK H PARENT
REMARK Flexibility Score: inf
ROOT
ATOM      1  C   UNL     1     -10.283  -4.349  -7.020  1.00  0.00     0.000 C 
ENDROOT
BRANCH   1   2
ATOM      2  C   UNL     1      -9.303  -3.345  -7.660  1.00  0.00     0.000 C 
BRANCH   2   3
ATOM      3  C   UNL     1      -9.429  -3.314  -9.194  1.00  0.00     0.000 C 
BRANCH   3   4
ATOM      4  C   UNL     1     -10.765  -2.722  -9.670  1.00  0.00     0.000 C 
BRANCH   4   5
ATOM      5  C   UNL     1     -10.667  -1.210  -9.947  1.00  0.00     0.000 C 
BRANCH   5   6
ATOM      6  C   UNL     1     -12.046  -0.540 -10.076  1.00  0.00     0.000 C 
BRANCH   6   7
ATOM      7  C   UNL     1     -12.100   0.920  -9.590  1.00  0.00     0.006 C 
BRANCH   7   8
ATOM      8  C   UNL     1     -13.502   1.535  -9.703  1.00  0.00     0.053 C 
BRANCH   8   9
ATOM      9  C   UNL     1     -13.513   2.920  -9.139  1.00  0.00     0.041 C 
ATOM     10  O   UNL     1     -14.511   3.331  -8.490  1.00  0.00    -0.550 OA
ATOM     11  O   UNL     1     -12.403   3.742  -9.290  1.00  0.00    -0.550 OA
ENDBRANCH   8   9
ENDBRANCH   7   8
ENDBRANCH   6   7
ENDBRANCH   5   6
ENDBRANCH   4   5
ENDBRANCH   3   4
ENDBRANCH   2   3
ENDBRANCH   1   2
BRANCH   1  12
ATOM     12  C   UNL     1      -9.975  -5.822  -7.358  1.00  0.00     0.000 C 
BRANCH  12  13
ATOM     13  C   UNL     1     -10.456  -6.846  -6.313  1.00  0.00    -0.000 C 
BRANCH  13  14
ATOM     14  C   UNL     1     -11.372  -6.225  -5.244  1.00  0.00    -0.000 C 
BRANCH  14  15
ATOM     15  C   UNL     1     -12.863  -6.409  -5.568  1.00  0.00    -0.000 C 
BRANCH  15  16
ATOM     16  C   UNL     1     -13.124  -7.588  -6.519  1.00  0.00    -0.000 C 
BRANCH  16  17
ATOM     17  C   UNL     1     -13.871  -7.165  -7.794  1.00  0.00    -0.000 C 
BRANCH  17  18
ATOM     18  C   UNL     1     -13.031  -7.361  -9.067  1.00  0.00    -0.000 C 
BRANCH  18  19
ATOM     19  C   UNL     1     -12.596  -6.010  -9.648  1.00  0.00    -0.003 C 
ATOM     20  C   UNL     1     -13.727  -4.987  -9.574  1.00  0.00     0.004 C 
ENDBRANCH  18  19
ENDBRANCH  17  18
ENDBRANCH  16  17
ENDBRANCH  15  16
ENDBRANCH  14  15
ENDBRANCH  13  14
ENDBRANCH  12  13
ENDBRANCH   1  12
TORSDOF 16
ENDMDL
MODEL 5
REMARK VINA RESULT:    -5.233      3.308      8.184
REMARK INTER + INTRA:         -11.283
REMARK INTER:                  -9.888
REMARK INTRA:                  -1.395
REMARK UNBOUND:                -1.155
REMARK SMILES CCCCCCCCCCCCCCCCCC(=O)[O-]
REMARK SMILES IDX 10 1 11 2 12 3 13 4 14 5 15 6 16 7 17 8 18 9 19 10 20 11
REMARK SMILES IDX 9 12 8 13 7 14 6 15 5 16 4 17 3 18 2 19 1 20
REMARK H PARENT
REMARK Flexibility Score: inf
ROOT
ATOM      1  C   UNL     1      -9.915  -2.964  -8.564  1.00  0.00     0.000 C 
ENDROOT
BRANCH   1   2
ATOM      2  C   UNL     1     -10.936  -2.552  -9.644  1.00  0.00     0.000 C 
BRANCH   2   3
ATOM      3  C   UNL     1     -10.715  -1.106 -10.125  1.00  0.00     0.000 C 
BRANCH   3   4
ATOM      4  C   UNL     1     -11.994  -0.256 -10.060  1.00  0.00     0.000 C 
BRANCH   4   5
ATOM      5  C   UNL     1     -13.240  -1.041 -10.510  1.00  0.00     0.000 C 
BRANCH   5   6
ATOM      6  C   UNL     1     -14.551  -0.416 -10.002  1.00  0.00     0.000 C 
BRANCH   6   7
ATOM      7  C   UNL     1     -14.723   1.078 -10.334  1.00  0.00     0.006 C 
BRANCH   7   8
ATOM      8  C   UNL     1     -15.000   1.936  -9.093  1.00  0.00     0.053 C 
BRANCH   8   9
ATOM      9  C   UNL     1     -13.972   3.013  -8.962  1.00  0.00     0.041 C 
ATOM     10  O   UNL     1     -12.807   2.835  -9.409  1.00  0.00    -0.550 OA
ATOM     11  O   UNL     1     -14.309   4.232  -8.385  1.00  0.00    -0.550 OA
ENDBRANCH   8   9
ENDBRANCH   7   8
ENDBRANCH   6   7
ENDBRANCH   5   6
ENDBRANCH   4   5
ENDBRANCH   3   4
ENDBRANCH   2   3
ENDBRANCH   1   2
BRANCH   1  12
ATOM     12  C   UNL     1     -10.279  -4.271  -7.828  1.00  0.00     0.000 C 
BRANCH  12  13
ATOM     13  C   UNL     1      -9.655  -5.548  -8.418  1.00  0.00    -0.000 C 
BRANCH  13  14
ATOM     14  C   UNL     1     -10.348  -6.833  -7.931  1.00  0.00    -0.000 C 
BRANCH  14  15
ATOM     15  C   UNL     1     -10.301  -6.984  -6.402  1.00  0.00    -0.000 C 
BRANCH  15  16
ATOM     16  C   UNL     1     -11.641  -7.450  -5.809  1.00  0.00    -0.000 C 
BRANCH  16  17
ATOM     17  C   UNL     1     -12.579  -6.279  -5.477  1.00  0.00    -0.000 C 
BRANCH  17  18
ATOM     18  C   UNL     1     -14.017  -6.511  -5.969  1.00  0.00    -0.000 C 
BRANCH  18  19
ATOM     19  C   UNL     1     -14.025  -6.984  -7.427  1.00  0.00    -0.003 C 
ATOM     20  C   UNL     1     -13.884  -5.808  -8.390  1.00  0.00     0.004 C 
ENDBRANCH  18  19
ENDBRANCH  17  18
ENDBRANCH  16  17
ENDBRANCH  15  16
ENDBRANCH  14  15
ENDBRANCH  13  14
ENDBRANCH  12  13
ENDBRANCH   1  12
TORSDOF 16
ENDMDL
MODEL 6
REMARK VINA RESULT:    -5.232      1.639      2.169
REMARK INTER + INTRA:         -11.282
REMARK INTER:                 -10.084
REMARK INTRA:                  -1.198
REMARK UNBOUND:                -1.155
REMARK SMILES CCCCCCCCCCCCCCCCCC(=O)[O-]
REMARK SMILES IDX 10 1 11 2 12 3 13 4 14 5 15 6 16 7 17 8 18 9 19 10 20 11
REMARK SMILES IDX 9 12 8 13 7 14 6 15 5 16 4 17 3 18 2 19 1 20
REMARK H PARENT
REMARK Flexibility Score: inf
ROOT
ATOM      1  C   UNL     1      -9.910  -2.303  -7.975  1.00  0.00     0.000 C 
ENDROOT
BRANCH   1   2
ATOM      2  C   UNL     1      -9.822  -3.538  -7.055  1.00  0.00     0.000 C 
BRANCH   2   3
ATOM      3  C   UNL     1      -9.857  -4.854  -7.853  1.00  0.00     0.000 C 
BRANCH   3   4
ATOM      4  C   UNL     1     -10.336  -6.047  -7.011  1.00  0.00     0.000 C 
BRANCH   4   5
ATOM      5  C   UNL     1     -11.422  -5.646  -5.995  1.00  0.00     0.000 C 
BRANCH   5   6
ATOM      6  C   UNL     1     -12.714  -6.466  -6.152  1.00  0.00     0.000 C 
BRANCH   6   7
ATOM      7  C   UNL     1     -13.434  -6.279  -7.500  1.00  0.00     0.006 C 
BRANCH   7   8
ATOM      8  C   UNL     1     -13.269  -7.485  -8.435  1.00  0.00     0.053 C 
BRANCH   8   9
ATOM      9  C   UNL     1     -12.888  -7.033  -9.809  1.00  0.00     0.041 C 
ATOM     10  O   UNL     1     -13.180  -7.739 -10.811  1.00  0.00    -0.550 OA
ATOM     11  O   UNL     1     -12.248  -5.813  -9.988  1.00  0.00    -0.550 OA
ENDBRANCH   8   9
ENDBRANCH   7   8
ENDBRANCH   6   7
ENDBRANCH   5   6
ENDBRANCH   4   5
ENDBRANCH   3   4
ENDBRANCH   2   3
ENDBRANCH   1   2
BRANCH   1  12
ATOM     12  C   UNL     1     -10.362  -2.628  -9.414  1.00  0.00     0.000 C 
BRANCH  12  13
ATOM     13  C   UNL     1     -10.459  -1.415 -10.357  1.00  0.00    -0.000 C 
BRANCH  13  14
ATOM     14  C   UNL     1     -11.597  -0.451  -9.978  1.00  0.00    -0.000 C 
BRANCH  14  15
ATOM     15  C   UNL     1     -12.972  -0.947 -10.454  1.00  0.00    -0.000 C 
BRANCH  15  16
ATOM     16  C   UNL     1     -14.080   0.103 -10.270  1.00  0.00    -0.000 C 
BRANCH  16  17
ATOM     17  C   UNL     1     -13.631   1.288  -9.399  1.00  0.00    -0.000 C 
BRANCH  17  18
ATOM     18  C   UNL     1     -14.697   2.391  -9.300  1.00  0.00    -0.000 C 
BRANCH  18  19
ATOM     19  C   UNL     1     -14.184   3.573  -8.469  1.00  0.00    -0.003 C 
ATOM     20  C   UNL     1     -12.713   3.857  -8.761  1.00  0.00     0.004 C 
ENDBRANCH  18  19
ENDBRANCH  17  18
ENDBRANCH  16  17
ENDBRANCH  15  16
ENDBRANCH  14  15
ENDBRANCH  13  14
ENDBRANCH  12  13
ENDBRANCH   1  12
TORSDOF 16
ENDMDL
MODEL 7
REMARK VINA RESULT:    -5.228      3.397      7.851
REMARK INTER + INTRA:         -11.274
REMARK INTER:                  -9.508
REMARK INTRA:                  -1.766
REMARK UNBOUND:                -1.155
REMARK SMILES CCCCCCCCCCCCCCCCCC(=O)[O-]
REMARK SMILES IDX 10 1 11 2 12 3 13 4 14 5 15 6 16 7 17 8 18 9 19 10 20 11
REMARK SMILES IDX 9 12 8 13 7 14 6 15 5 16 4 17 3 18 2 19 1 20
REMARK H PARENT
REMARK Flexibility Score: inf
ROOT
ATOM      1  C   UNL     1      -9.878  -3.128  -8.373  1.00  0.00     0.000 C 
ENDROOT
BRANCH   1   2
ATOM      2  C   UNL     1     -10.271  -1.653  -8.592  1.00  0.00     0.000 C 
BRANCH   2   3
ATOM      3  C   UNL     1     -10.686  -1.376 -10.049  1.00  0.00     0.000 C 
BRANCH   3   4
ATOM      4  C   UNL     1     -11.884  -0.420 -10.155  1.00  0.00     0.000 C 
BRANCH   4   5
ATOM      5  C   UNL     1     -13.201  -1.163 -10.447  1.00  0.00     0.000 C 
BRANCH   5   6
ATOM      6  C   UNL     1     -14.399  -0.210 -10.602  1.00  0.00     0.000 C 
BRANCH   6   7
ATOM      7  C   UNL     1     -14.724   0.623  -9.348  1.00  0.00     0.006 C 
BRANCH   7   8
ATOM      8  C   UNL     1     -14.999   2.098  -9.668  1.00  0.00     0.053 C 
BRANCH   8   9
ATOM      9  C   UNL     1     -13.964   2.973  -9.035  1.00  0.00     0.041 C 
ATOM     10  O   UNL     1     -14.303   3.853  -8.200  1.00  0.00    -0.550 OA
ATOM     11  O   UNL     1     -12.619   2.787  -9.334  1.00  0.00    -0.550 OA
ENDBRANCH   8   9
ENDBRANCH   7   8
ENDBRANCH   6   7
ENDBRANCH   5   6
ENDBRANCH   4   5
ENDBRANCH   3   4
ENDBRANCH   2   3
ENDBRANCH   1   2
BRANCH   1  12
ATOM     12  C   UNL     1     -10.130  -4.029  -9.600  1.00  0.00     0.000 C 
BRANCH  12  13
ATOM     13  C   UNL     1     -11.046  -5.240  -9.343  1.00  0.00    -0.000 C 
BRANCH  13  14
ATOM     14  C   UNL     1     -12.535  -4.859  -9.269  1.00  0.00    -0.000 C 
BRANCH  14  15
ATOM     15  C   UNL     1     -13.448  -6.084  -9.101  1.00  0.00    -0.000 C 
BRANCH  15  16
ATOM     16  C   UNL     1     -14.133  -6.131  -7.725  1.00  0.00    -0.000 C 
BRANCH  16  17
ATOM     17  C   UNL     1     -13.384  -7.026  -6.723  1.00  0.00    -0.000 C 
BRANCH  17  18
ATOM     18  C   UNL     1     -12.845  -6.244  -5.515  1.00  0.00    -0.000 C 
BRANCH  18  19
ATOM     19  C   UNL     1     -11.362  -5.900  -5.705  1.00  0.00    -0.003 C 
ATOM     20  C   UNL     1     -10.581  -7.099  -6.237  1.00  0.00     0.004 C 
ENDBRANCH  18  19
ENDBRANCH  17  18
ENDBRANCH  16  17
ENDBRANCH  15  16
ENDBRANCH  14  15
ENDBRANCH  13  14
ENDBRANCH  12  13
ENDBRANCH   1  12
TORSDOF 16
ENDMDL
MODEL 8
REMARK VINA RESULT:    -5.199      1.677      2.631
REMARK INTER + INTRA:         -11.217
REMARK INTER:                  -9.947
REMARK INTRA:                  -1.270
REMARK UNBOUND:                -1.155
REMARK SMILES CCCCCCCCCCCCCCCCCC(=O)[O-]
REMARK SMILES IDX 10 1 11 2 12 3 13 4 14 5 15 6 16 7 17 8 18 9 19 10 20 11
REMARK SMILES IDX 9 12 8 13 7 14 6 15 5 16 4 17 3 18 2 19 1 20
REMARK H PARENT
REMARK Flexibility Score: inf
ROOT
ATOM      1  C   UNL     1     -10.987  -1.042  -9.584  1.00  0.00     0.000 C 
ENDROOT
BRANCH   1   2
ATOM      2  C   UNL     1      -9.934  -1.752 -10.459  1.00  0.00     0.000 C 
BRANCH   2   3
ATOM      3  C   UNL     1      -9.664  -3.192  -9.983  1.00  0.00     0.000 C 
BRANCH   3   4
ATOM      4  C   UNL     1     -10.295  -3.494  -8.614  1.00  0.00     0.000 C 
BRANCH   4   5
ATOM      5  C   UNL     1      -9.813  -4.837  -8.033  1.00  0.00     0.000 C 
BRANCH   5   6
ATOM      6  C   UNL     1     -10.588  -5.249  -6.769  1.00  0.00     0.000 C 
BRANCH   6   7
ATOM      7  C   UNL     1     -11.882  -6.040  -7.038  1.00  0.00     0.006 C 
BRANCH   7   8
ATOM      8  C   UNL     1     -11.651  -7.280  -7.911  1.00  0.00     0.053 C 
BRANCH   8   9
ATOM      9  C   UNL     1     -12.481  -7.208  -9.153  1.00  0.00     0.041 C 
ATOM     10  O   UNL     1     -13.305  -8.124  -9.418  1.00  0.00    -0.550 OA
ATOM     11  O   UNL     1     -12.380  -6.108  -9.996  1.00  0.00    -0.550 OA
ENDBRANCH   8   9
ENDBRANCH   7   8
ENDBRANCH   6   7
ENDBRANCH   5   6
ENDBRANCH   4   5
ENDBRANCH   3   4
ENDBRANCH   2   3
ENDBRANCH   1   2
BRANCH   1  12
ATOM     12  C   UNL     1     -12.152  -0.427 -10.387  1.00  0.00     0.000 C 
BRANCH  12  13
ATOM     13  C   UNL     1     -13.452  -1.252 -10.387  1.00  0.00    -0.000 C 
BRANCH  13  14
ATOM     14  C   UNL     1     -14.703  -0.400 -10.666  1.00  0.00    -0.000 C 
BRANCH  14  15
ATOM     15  C   UNL     1     -15.120   0.448  -9.453  1.00  0.00    -0.000 C 
BRANCH  15  16
ATOM     16  C   UNL     1     -14.863   1.949  -9.661  1.00  0.00    -0.000 C 
BRANCH  16  17
ATOM     17  C   UNL     1     -14.764   2.720  -8.334  1.00  0.00    -0.000 C 
BRANCH  17  18
ATOM     18  C   UNL     1     -13.861   3.960  -8.433  1.00  0.00    -0.000 C 
BRANCH  18  19
ATOM     19  C   UNL     1     -12.619   3.664  -9.283  1.00  0.00    -0.003 C 
ATOM     20  C   UNL     1     -11.387   3.454  -8.407  1.00  0.00     0.004 C 
ENDBRANCH  18  19
ENDBRANCH  17  18
ENDBRANCH  16  17
ENDBRANCH  15  16
ENDBRANCH  14  15
ENDBRANCH  13  14
ENDBRANCH  12  13
ENDBRANCH   1  12
TORSDOF 16
ENDMDL
MODEL 9
REMARK VINA RESULT:    -5.060     16.805     19.016
REMARK INTER + INTRA:         -10.948
REMARK INTER:                  -8.665
REMARK INTRA:                  -2.283
REMARK UNBOUND:                -1.155
REMARK SMILES CCCCCCCCCCCCCCCCCC(=O)[O-]
REMARK SMILES IDX 10 1 11 2 12 3 13 4 14 5 15 6 16 7 17 8 18 9 19 10 20 11
REMARK SMILES IDX 9 12 8 13 7 14 6 15 5 16 4 17 3 18 2 19 1 20
REMARK H PARENT
REMARK Flexibility Score: inf
ROOT
ATOM      1  C   UNL     1     -11.703   3.707   6.053  1.00  0.00     0.000 C 
ENDROOT
BRANCH   1   2
ATOM      2  C   UNL     1     -10.821   4.751   5.338  1.00  0.00     0.000 C 
BRANCH   2   3
ATOM      3  C   UNL     1      -9.879   5.478   6.315  1.00  0.00     0.000 C 
BRANCH   3   4
ATOM      4  C   UNL     1      -9.915   7.005   6.151  1.00  0.00     0.000 C 
BRANCH   4   5
ATOM      5  C   UNL     1      -8.547   7.655   6.433  1.00  0.00     0.000 C 
BRANCH   5   6
ATOM      6  C   UNL     1      -8.081   8.575   5.291  1.00  0.00     0.000 C 
BRANCH   6   7
ATOM      7  C   UNL     1      -8.357  10.073   5.520  1.00  0.00     0.006 C 
BRANCH   7   8
ATOM      8  C   UNL     1      -7.089  10.932   5.428  1.00  0.00     0.053 C 
BRANCH   8   9
ATOM      9  C   UNL     1      -6.130  10.567   6.516  1.00  0.00     0.041 C 
ATOM     10  O   UNL     1      -4.944  10.247   6.235  1.00  0.00    -0.550 OA
ATOM     11  O   UNL     1      -6.531  10.622   7.846  1.00  0.00    -0.550 OA
ENDBRANCH   8   9
ENDBRANCH   7   8
ENDBRANCH   6   7
ENDBRANCH   5   6
ENDBRANCH   4   5
ENDBRANCH   3   4
ENDBRANCH   2   3
ENDBRANCH   1   2
BRANCH   1  12
ATOM     12  C   UNL     1     -11.064   3.123   7.331  1.00  0.00     0.000 C 
BRANCH  12  13
ATOM     13  C   UNL     1     -11.813   3.441   8.638  1.00  0.00    -0.000 C 
BRANCH  13  14
ATOM     14  C   UNL     1     -12.925   4.488   8.452  1.00  0.00    -0.000 C 
BRANCH  14  15
ATOM     15  C   UNL     1     -12.535   5.867   9.008  1.00  0.00    -0.000 C 
BRANCH  15  16
ATOM     16  C   UNL     1     -12.997   7.024   8.106  1.00  0.00    -0.000 C 
BRANCH  16  17
ATOM     17  C   UNL     1     -13.916   6.554   6.967  1.00  0.00    -0.000 C 
BRANCH  17  18
ATOM     18  C   UNL     1     -13.632   7.274   5.639  1.00  0.00    -0.000 C 
BRANCH  18  19
ATOM     19  C   UNL     1     -14.600   6.804   4.545  1.00  0.00    -0.003 C 
ATOM     20  C   UNL     1     -14.122   5.503   3.907  1.00  0.00     0.004 C 
ENDBRANCH  18  19
ENDBRANCH  17  18
ENDBRANCH  16  17
ENDBRANCH  15  16
ENDBRANCH  14  15
ENDBRANCH  13  14
ENDBRANCH  12  13
ENDBRANCH   1  12
TORSDOF 16
ENDMDL
