MODEL 1
REMARK VINA RESULT:    -4.213      0.000      0.000
REMARK INTER + INTRA:          -8.269
REMARK INTER:                  -6.675
REMARK INTRA:                  -1.593
REMARK UNBOUND:                -1.593
REMARK SMILES CCCCCCCCCCCC(=O)[O-]
REMARK SMILES IDX 7 1 8 2 9 3 10 4 11 5 12 6 13 7 14 8 6 9 5 10 4 11 3 12 2 13
REMARK SMILES IDX 1 14
REMARK H PARENT
REMARK Flexibility Score: inf
ROOT
ATOM      1  C   UNL     1     -20.225  44.688  -9.362  1.00  0.00     0.000 C 
ENDROOT
BRANCH   1   2
ATOM      2  C   UNL     1     -20.649  45.458  -8.106  1.00  0.00     0.000 C 
BRANCH   2   3
ATOM      3  C   UNL     1     -20.474  44.599  -6.849  1.00  0.00     0.000 C 
BRANCH   3   4
ATOM      4  C   UNL     1     -19.484  45.249  -5.870  1.00  0.00     0.006 C 
BRANCH   4   5
ATOM      5  C   UNL     1     -18.989  46.615  -6.366  1.00  0.00     0.053 C 
BRANCH   5   6
ATOM      6  C   UNL     1     -17.971  47.206  -5.439  1.00  0.00     0.041 C 
ATOM      7  O   UNL     1     -16.756  46.894  -5.551  1.00  0.00    -0.550 OA
ATOM      8  O   UNL     1     -18.369  48.078  -4.434  1.00  0.00    -0.550 OA
ENDBRANCH   5   6
ENDBRANCH   4   5
ENDBRANCH   3   4
ENDBRANCH   2   3
ENDBRANCH   1   2
BRANCH   1   9
ATOM      9  C   UNL     1     -20.498  43.187  -9.207  1.00  0.00     0.000 C 
BRANCH   9  10
ATOM     10  C   UNL     1     -19.322  42.356  -9.734  1.00  0.00    -0.000 C 
BRANCH  10  11
ATOM     11  C   UNL     1     -17.992  43.101  -9.542  1.00  0.00    -0.000 C 
BRANCH  11  12
ATOM     12  C   UNL     1     -17.294  42.735  -8.222  1.00  0.00    -0.000 C 
BRANCH  12  13
ATOM     13  C   UNL     1     -16.645  43.948  -7.541  1.00  0.00    -0.003 C 
ATOM     14  C   UNL     1     -16.336  45.046  -8.554  1.00  0.00     0.004 C 
ENDBRANCH  12  13
ENDBRANCH  11  12
ENDBRANCH  10  11
ENDBRANCH   9  10
ENDBRANCH   1   9
TORSDOF 10
ENDMDL
MODEL 2
REMARK VINA RESULT:    -4.118      1.705      3.343
REMARK INTER + INTRA:          -8.119
REMARK INTER:                  -6.414
REMARK INTRA:                  -1.705
REMARK UNBOUND:                -1.593
REMARK SMILES CCCCCCCCCCCC(=O)[O-]
REMARK SMILES IDX 7 1 8 2 9 3 10 4 11 5 12 6 13 7 14 8 6 9 5 10 4 11 3 12 2 13
REMARK SMILES IDX 1 14
REMARK H PARENT
REMARK Flexibility Score: inf
ROOT
ATOM      1  C   UNL     1     -19.517  45.020  -5.795  1.00  0.00     0.000 C 
ENDROOT
BRANCH   1   2
ATOM      2  C   UNL     1     -18.468  43.938  -5.511  1.00  0.00     0.000 C 
BRANCH   2   3
ATOM      3  C   UNL     1     -17.232  44.123  -6.399  1.00  0.00     0.000 C 
BRANCH   3   4
ATOM      4  C   UNL     1     -16.829  45.603  -6.480  1.00  0.00     0.006 C 
BRANCH   4   5
ATOM      5  C   UNL     1     -16.520  46.043  -7.917  1.00  0.00     0.053 C 
BRANCH   5   6
ATOM      6  C   UNL     1     -17.388  47.187  -8.346  1.00  0.00     0.041 C 
ATOM      7  O   UNL     1     -18.125  47.772  -7.509  1.00  0.00    -0.550 OA
ATOM      8  O   UNL     1     -17.406  47.585  -9.677  1.00  0.00    -0.550 OA
ENDBRANCH   5   6
ENDBRANCH   4   5
ENDBRANCH   3   4
ENDBRANCH   2   3
ENDBRANCH   1   2
BRANCH   1   9
ATOM      9  C   UNL     1     -20.578  44.515  -6.780  1.00  0.00     0.000 C 
BRANCH   9  10
ATOM     10  C   UNL     1     -20.681  45.437  -8.001  1.00  0.00    -0.000 C 
BRANCH  10  11
ATOM     11  C   UNL     1     -20.131  44.746  -9.258  1.00  0.00    -0.000 C 
BRANCH  11  12
ATOM     12  C   UNL     1     -20.304  43.219  -9.218  1.00  0.00    -0.000 C 
BRANCH  12  13
ATOM     13  C   UNL     1     -18.982  42.469  -9.441  1.00  0.00    -0.003 C 
ATOM     14  C   UNL     1     -17.906  43.404  -9.986  1.00  0.00     0.004 C 
ENDBRANCH  12  13
ENDBRANCH  11  12
ENDBRANCH  10  11
ENDBRANCH   9  10
ENDBRANCH   1   9
TORSDOF 10
ENDMDL
MODEL 3
REMARK VINA RESULT:    -4.107      2.022      4.404
REMARK INTER + INTRA:          -8.101
REMARK INTER:                  -6.363
REMARK INTRA:                  -1.737
REMARK UNBOUND:                -1.593
REMARK SMILES CCCCCCCCCCCC(=O)[O-]
REMARK SMILES IDX 7 1 8 2 9 3 10 4 11 5 12 6 13 7 14 8 6 9 5 10 4 11 3 12 2 13
REMARK SMILES IDX 1 14
REMARK H PARENT
REMARK Flexibility Score: inf
ROOT
ATOM      1  C   UNL     1     -17.251  44.097  -6.224  1.00  0.00     0.000 C 
ENDROOT
BRANCH   1   2
ATOM      2  C   UNL     1     -17.177  42.958  -7.248  1.00  0.00     0.000 C 
BRANCH   2   3
ATOM      3  C   UNL     1     -16.646  43.461  -8.594  1.00  0.00     0.000 C 
BRANCH   3   4
ATOM      4  C   UNL     1     -16.529  44.993  -8.603  1.00  0.00     0.006 C 
BRANCH   4   5
ATOM      5  C   UNL     1     -16.982  45.602  -9.936  1.00  0.00     0.053 C 
BRANCH   5   6
ATOM      6  C   UNL     1     -17.268  47.067  -9.809  1.00  0.00     0.041 C 
ATOM      7  O   UNL     1     -17.571  47.744 -10.827  1.00  0.00    -0.550 OA
ATOM      8  O   UNL     1     -17.168  47.691  -8.572  1.00  0.00    -0.550 OA
ENDBRANCH   5   6
ENDBRANCH   4   5
ENDBRANCH   3   4
ENDBRANCH   2   3
ENDBRANCH   1   2
BRANCH   1   9
ATOM      9  C   UNL     1     -18.687  44.296  -5.723  1.00  0.00     0.000 C 
BRANCH   9  10
ATOM     10  C   UNL     1     -19.132  45.753  -5.890  1.00  0.00    -0.000 C 
BRANCH  10  11
ATOM     11  C   UNL     1     -19.882  45.950  -7.216  1.00  0.00    -0.000 C 
BRANCH  11  12
ATOM     12  C   UNL     1     -20.621  44.682  -7.673  1.00  0.00    -0.000 C 
BRANCH  12  13
ATOM     13  C   UNL     1     -20.336  44.328  -9.139  1.00  0.00    -0.003 C 
ATOM     14  C   UNL     1     -20.293  42.816  -9.341  1.00  0.00     0.004 C 
ENDBRANCH  12  13
ENDBRANCH  11  12
ENDBRANCH  10  11
ENDBRANCH   9  10
ENDBRANCH   1   9
TORSDOF 10
ENDMDL
MODEL 4
REMARK VINA RESULT:    -4.085      1.716      3.207
REMARK INTER + INTRA:          -8.067
REMARK INTER:                  -6.363
REMARK INTRA:                  -1.703
REMARK UNBOUND:                -1.593
REMARK SMILES CCCCCCCCCCCC(=O)[O-]
REMARK SMILES IDX 7 1 8 2 9 3 10 4 11 5 12 6 13 7 14 8 6 9 5 10 4 11 3 12 2 13
REMARK SMILES IDX 1 14
REMARK H PARENT
REMARK Flexibility Score: inf
ROOT
ATOM      1  C   UNL     1     -17.482  44.097  -6.047  1.00  0.00     0.000 C 
ENDROOT
BRANCH   1   2
ATOM      2  C   UNL     1     -18.982  44.260  -5.776  1.00  0.00     0.000 C 
BRANCH   2   3
ATOM      3  C   UNL     1     -19.413  45.723  -5.932  1.00  0.00     0.000 C 
BRANCH   3   4
ATOM      4  C   UNL     1     -18.196  46.638  -6.135  1.00  0.00     0.006 C 
BRANCH   4   5
ATOM      5  C   UNL     1     -18.349  47.546  -7.362  1.00  0.00     0.053 C 
BRANCH   5   6
ATOM      6  C   UNL     1     -17.276  47.296  -8.377  1.00  0.00     0.041 C 
ATOM      7  O   UNL     1     -16.074  47.194  -8.016  1.00  0.00    -0.550 OA
ATOM      8  O   UNL     1     -17.601  47.207  -9.725  1.00  0.00    -0.550 OA
ENDBRANCH   5   6
ENDBRANCH   4   5
ENDBRANCH   3   4
ENDBRANCH   2   3
ENDBRANCH   1   2
BRANCH   1   9
ATOM      9  C   UNL     1     -17.230  43.050  -7.139  1.00  0.00     0.000 C 
BRANCH   9  10
ATOM     10  C   UNL     1     -16.712  43.707  -8.424  1.00  0.00    -0.000 C 
BRANCH  10  11
ATOM     11  C   UNL     1     -17.759  43.620  -9.545  1.00  0.00    -0.000 C 
BRANCH  11  12
ATOM     12  C   UNL     1     -18.866  42.597  -9.243  1.00  0.00    -0.000 C 
BRANCH  12  13
ATOM     13  C   UNL     1     -20.266  43.229  -9.234  1.00  0.00    -0.003 C 
ATOM     14  C   UNL     1     -20.184  44.747  -9.362  1.00  0.00     0.004 C 
ENDBRANCH  12  13
ENDBRANCH  11  12
ENDBRANCH  10  11
ENDBRANCH   9  10
ENDBRANCH   1   9
TORSDOF 10
ENDMDL
MODEL 5
REMARK VINA RESULT:    -4.019      1.211      3.198
REMARK INTER + INTRA:          -7.961
REMARK INTER:                  -6.319
REMARK INTRA:                  -1.642
REMARK UNBOUND:                -1.593
REMARK SMILES CCCCCCCCCCCC(=O)[O-]
REMARK SMILES IDX 7 1 8 2 9 3 10 4 11 5 12 6 13 7 14 8 6 9 5 10 4 11 3 12 2 13
REMARK SMILES IDX 1 14
REMARK H PARENT
REMARK Flexibility Score: inf
ROOT
ATOM      1  C   UNL     1     -16.420  43.380  -8.383  1.00  0.00     0.000 C 
ENDROOT
BRANCH   1   2
ATOM      2  C   UNL     1     -17.189  43.088  -7.090  1.00  0.00     0.000 C 
BRANCH   2   3
ATOM      3  C   UNL     1     -17.284  44.340  -6.211  1.00  0.00     0.000 C 
BRANCH   3   4
ATOM      4  C   UNL     1     -18.714  44.536  -5.684  1.00  0.00     0.006 C 
BRANCH   4   5
ATOM      5  C   UNL     1     -19.417  45.732  -6.340  1.00  0.00     0.053 C 
BRANCH   5   6
ATOM      6  C   UNL     1     -18.610  46.988  -6.213  1.00  0.00     0.041 C 
ATOM      7  O   UNL     1     -18.225  47.601  -7.244  1.00  0.00    -0.550 OA
ATOM      8  O   UNL     1     -18.255  47.464  -4.957  1.00  0.00    -0.550 OA
ENDBRANCH   5   6
ENDBRANCH   4   5
ENDBRANCH   3   4
ENDBRANCH   2   3
ENDBRANCH   1   2
BRANCH   1   9
ATOM      9  C   UNL     1     -16.679  44.812  -8.867  1.00  0.00     0.000 C 
BRANCH   9  10
ATOM     10  C   UNL     1     -17.532  44.817 -10.142  1.00  0.00    -0.000 C 
BRANCH  10  11
ATOM     11  C   UNL     1     -18.889  45.491  -9.892  1.00  0.00    -0.000 C 
BRANCH  11  12
ATOM     12  C   UNL     1     -20.077  44.573 -10.226  1.00  0.00    -0.000 C 
BRANCH  12  13
ATOM     13  C   UNL     1     -20.266  43.453  -9.193  1.00  0.00    -0.003 C 
ATOM     14  C   UNL     1     -19.882  42.096  -9.777  1.00  0.00     0.004 C 
ENDBRANCH  12  13
ENDBRANCH  11  12
ENDBRANCH  10  11
ENDBRANCH   9  10
ENDBRANCH   1   9
TORSDOF 10
ENDMDL
MODEL 6
REMARK VINA RESULT:    -3.989      1.122      3.217
REMARK INTER + INTRA:          -7.914
REMARK INTER:                  -6.496
REMARK INTRA:                  -1.418
REMARK UNBOUND:                -1.593
REMARK SMILES CCCCCCCCCCCC(=O)[O-]
REMARK SMILES IDX 7 1 8 2 9 3 10 4 11 5 12 6 13 7 14 8 6 9 5 10 4 11 3 12 2 13
REMARK SMILES IDX 1 14
REMARK H PARENT
REMARK Flexibility Score: inf
ROOT
ATOM      1  C   UNL     1     -16.568  43.426  -8.802  1.00  0.00     0.000 C 
ENDROOT
BRANCH   1   2
ATOM      2  C   UNL     1     -16.991  42.839  -7.451  1.00  0.00     0.000 C 
BRANCH   2   3
ATOM      3  C   UNL     1     -17.179  43.944  -6.405  1.00  0.00     0.000 C 
BRANCH   3   4
ATOM      4  C   UNL     1     -16.446  45.228  -6.823  1.00  0.00     0.006 C 
BRANCH   4   5
ATOM      5  C   UNL     1     -16.712  46.390  -5.857  1.00  0.00     0.053 C 
BRANCH   5   6
ATOM      6  C   UNL     1     -17.967  47.130  -6.209  1.00  0.00     0.041 C 
ATOM      7  O   UNL     1     -18.873  47.286  -5.348  1.00  0.00    -0.550 OA
ATOM      8  O   UNL     1     -18.149  47.618  -7.497  1.00  0.00    -0.550 OA
ENDBRANCH   5   6
ENDBRANCH   4   5
ENDBRANCH   3   4
ENDBRANCH   2   3
ENDBRANCH   1   2
BRANCH   1   9
ATOM      9  C   UNL     1     -17.752  43.476  -9.776  1.00  0.00     0.000 C 
BRANCH   9  10
ATOM     10  C   UNL     1     -18.854  42.495  -9.355  1.00  0.00    -0.000 C 
BRANCH  10  11
ATOM     11  C   UNL     1     -20.215  43.201  -9.273  1.00  0.00    -0.000 C 
BRANCH  11  12
ATOM     12  C   UNL     1     -20.087  44.733  -9.225  1.00  0.00    -0.000 C 
BRANCH  12  13
ATOM     13  C   UNL     1     -20.798  45.347  -8.010  1.00  0.00    -0.003 C 
ATOM     14  C   UNL     1     -20.559  44.513  -6.755  1.00  0.00     0.004 C 
ENDBRANCH  12  13
ENDBRANCH  11  12
ENDBRANCH  10  11
ENDBRANCH   9  10
ENDBRANCH   1   9
TORSDOF 10
ENDMDL
MODEL 7
REMARK VINA RESULT:    -3.973      1.640      2.559
REMARK INTER + INTRA:          -7.889
REMARK INTER:                  -6.263
REMARK INTRA:                  -1.626
REMARK UNBOUND:                -1.593
REMARK SMILES CCCCCCCCCCCC(=O)[O-]
REMARK SMILES IDX 7 1 8 2 9 3 10 4 11 5 12 6 13 7 14 8 6 9 5 10 4 11 3 12 2 13
REMARK SMILES IDX 1 14
REMARK H PARENT
REMARK Flexibility Score: inf
ROOT
ATOM      1  C   UNL     1     -20.367  44.533  -6.727  1.00  0.00     0.000 C 
ENDROOT
BRANCH   1   2
ATOM      2  C   UNL     1     -19.313  45.380  -6.004  1.00  0.00     0.000 C 
BRANCH   2   3
ATOM      3  C   UNL     1     -19.024  46.673  -6.773  1.00  0.00     0.000 C 
BRANCH   3   4
ATOM      4  C   UNL     1     -17.520  46.826  -7.048  1.00  0.00     0.006 C 
BRANCH   4   5
ATOM      5  C   UNL     1     -16.662  46.367  -5.862  1.00  0.00     0.053 C 
BRANCH   5   6
ATOM      6  C   UNL     1     -15.205  46.336  -6.209  1.00  0.00     0.041 C 
ATOM      7  O   UNL     1     -14.348  46.078  -5.322  1.00  0.00    -0.550 OA
ATOM      8  O   UNL     1     -14.791  46.624  -7.503  1.00  0.00    -0.550 OA
ENDBRANCH   5   6
ENDBRANCH   4   5
ENDBRANCH   3   4
ENDBRANCH   2   3
ENDBRANCH   1   2
BRANCH   1   9
ATOM      9  C   UNL     1     -20.297  44.744  -8.244  1.00  0.00     0.000 C 
BRANCH   9  10
ATOM     10  C   UNL     1     -20.405  43.410  -8.992  1.00  0.00    -0.000 C 
BRANCH  10  11
ATOM     11  C   UNL     1     -19.016  42.800  -9.233  1.00  0.00    -0.000 C 
BRANCH  11  12
ATOM     12  C   UNL     1     -17.935  43.866  -9.471  1.00  0.00    -0.000 C 
BRANCH  12  13
ATOM     13  C   UNL     1     -16.681  43.638  -8.615  1.00  0.00    -0.003 C 
ATOM     14  C   UNL     1     -17.010  42.826  -7.365  1.00  0.00     0.004 C 
ENDBRANCH  12  13
ENDBRANCH  11  12
ENDBRANCH  10  11
ENDBRANCH   9  10
ENDBRANCH   1   9
TORSDOF 10
ENDMDL
MODEL 8
REMARK VINA RESULT:    -3.959      1.372      3.554
REMARK INTER + INTRA:          -7.866
REMARK INTER:                  -6.228
REMARK INTRA:                  -1.638
REMARK UNBOUND:                -1.593
REMARK SMILES CCCCCCCCCCCC(=O)[O-]
REMARK SMILES IDX 7 1 8 2 9 3 10 4 11 5 12 6 13 7 14 8 6 9 5 10 4 11 3 12 2 13
REMARK SMILES IDX 1 14
REMARK H PARENT
REMARK Flexibility Score: inf
ROOT
ATOM      1  C   UNL     1     -19.366  42.394  -9.644  1.00  0.00     0.000 C 
ENDROOT
BRANCH   1   2
ATOM      2  C   UNL     1     -18.044  43.133  -9.406  1.00  0.00     0.000 C 
BRANCH   2   3
ATOM      3  C   UNL     1     -17.364  42.646  -8.122  1.00  0.00     0.000 C 
BRANCH   3   4
ATOM      4  C   UNL     1     -16.450  43.734  -7.536  1.00  0.00     0.006 C 
BRANCH   4   5
ATOM      5  C   UNL     1     -16.306  44.939  -8.474  1.00  0.00     0.053 C 
BRANCH   5   6
ATOM      6  C   UNL     1     -15.735  46.130  -7.766  1.00  0.00     0.041 C 
ATOM      7  O   UNL     1     -15.560  46.101  -6.519  1.00  0.00    -0.550 OA
ATOM      8  O   UNL     1     -15.426  47.281  -8.478  1.00  0.00    -0.550 OA
ENDBRANCH   5   6
ENDBRANCH   4   5
ENDBRANCH   3   4
ENDBRANCH   2   3
ENDBRANCH   1   2
BRANCH   1   9
ATOM      9  C   UNL     1     -20.560  43.241  -9.188  1.00  0.00     0.000 C 
BRANCH   9  10
ATOM     10  C   UNL     1     -20.216  44.736  -9.207  1.00  0.00    -0.000 C 
BRANCH  10  11
ATOM     11  C   UNL     1     -20.661  45.418  -7.905  1.00  0.00    -0.000 C 
BRANCH  11  12
ATOM     12  C   UNL     1     -19.544  46.261  -7.267  1.00  0.00    -0.000 C 
BRANCH  12  13
ATOM     13  C   UNL     1     -19.072  45.694  -5.921  1.00  0.00    -0.003 C 
ATOM     14  C   UNL     1     -19.773  44.376  -5.605  1.00  0.00     0.004 C 
ENDBRANCH  12  13
ENDBRANCH  11  12
ENDBRANCH  10  11
ENDBRANCH   9  10
ENDBRANCH   1   9
TORSDOF 10
ENDMDL
MODEL 9
REMARK VINA RESULT:    -3.941      1.625      2.993
REMARK INTER + INTRA:          -7.838
REMARK INTER:                  -6.330
REMARK INTRA:                  -1.507
REMARK UNBOUND:                -1.593
REMARK SMILES CCCCCCCCCCCC(=O)[O-]
REMARK SMILES IDX 7 1 8 2 9 3 10 4 11 5 12 6 13 7 14 8 6 9 5 10 4 11 3 12 2 13
REMARK SMILES IDX 1 14
REMARK H PARENT
REMARK Flexibility Score: inf
ROOT
ATOM      1  C   UNL     1     -20.323  44.627  -6.612  1.00  0.00     0.000 C 
ENDROOT
BRANCH   1   2
ATOM      2  C   UNL     1     -19.063  45.048  -5.846  1.00  0.00     0.000 C 
BRANCH   2   3
ATOM      3  C   UNL     1     -18.092  43.872  -5.696  1.00  0.00     0.000 C 
BRANCH   3   4
ATOM      4  C   UNL     1     -16.984  43.933  -6.759  1.00  0.00     0.006 C 
BRANCH   4   5
ATOM      5  C   UNL     1     -16.741  45.361  -7.263  1.00  0.00     0.053 C 
BRANCH   5   6
ATOM      6  C   UNL     1     -15.468  45.934  -6.719  1.00  0.00     0.041 C 
ATOM      7  O   UNL     1     -15.207  45.844  -5.490  1.00  0.00    -0.550 OA
ATOM      8  O   UNL     1     -14.585  46.594  -7.564  1.00  0.00    -0.550 OA
ENDBRANCH   5   6
ENDBRANCH   4   5
ENDBRANCH   3   4
ENDBRANCH   2   3
ENDBRANCH   1   2
BRANCH   1   9
ATOM      9  C   UNL     1     -20.594  45.572  -7.789  1.00  0.00     0.000 C 
BRANCH   9  10
ATOM     10  C   UNL     1     -20.357  44.866  -9.129  1.00  0.00    -0.000 C 
BRANCH  10  11
ATOM     11  C   UNL     1     -20.374  43.340  -8.956  1.00  0.00    -0.000 C 
BRANCH  11  12
ATOM     12  C   UNL     1     -19.145  42.659  -9.581  1.00  0.00    -0.000 C 
BRANCH  12  13
ATOM     13  C   UNL     1     -18.515  43.493 -10.705  1.00  0.00    -0.003 C 
ATOM     14  C   UNL     1     -17.003  43.600 -10.529  1.00  0.00     0.004 C 
ENDBRANCH  12  13
ENDBRANCH  11  12
ENDBRANCH  10  11
ENDBRANCH   9  10
ENDBRANCH   1   9
TORSDOF 10
ENDMDL
