MODEL 1
REMARK VINA RESULT:    -6.665      0.000      0.000
REMARK INTER + INTRA:          -7.560
REMARK INTER:                  -7.250
REMARK INTRA:                  -0.310
REMARK UNBOUND:                -0.310
REMARK SMILES C[C@@H]1[C@H]2C3=CC[C@@H]4[C@]5(C)CC[C@H](O)C(C)(C)[C@H]5CC[C@]4(C)[C@]3(C)CC[C@@]2(C(=O)[O-])CC[C@@H]1C
REMARK SMILES IDX 26 1 30 2 25 3 3 4 31 5 24 6 4 7 2 8 32 9 22 10 5 11 1 12
REMARK SMILES IDX 33 13 23 14 20 15 6 16 7 17 19 18 21 19 8 20 18 21 17 22
REMARK SMILES IDX 10 23 9 24 14 25 11 26 12 27 15 28 16 29 27 30 28 31 29 32
REMARK SMILES IDX 13 33
REMARK H PARENT 13 34
REMARK Flexibility Score: inf
ROOT
ATOM      1  C   UNL     1     154.907 158.547 131.141  1.00  0.00     0.017 C 
ATOM      2  C   UNL     1     153.739 158.849 132.136  1.00  0.00     0.014 C 
ATOM      3  C   UNL     1     154.487 159.061 129.736  1.00  0.00     0.014 C 
ATOM      4  C   UNL     1     155.261 157.001 131.131  1.00  0.00     0.030 C 
ATOM      5  C   UNL     1     153.967 158.210 133.510  1.00  0.00     0.004 C 
ATOM      6  C   UNL     1     153.684 158.033 128.924  1.00  0.00     0.013 C 
ATOM      7  C   UNL     1     155.471 156.444 129.705  1.00  0.00    -0.063 C 
ATOM      8  C   UNL     1     154.276 156.137 131.983  1.00  0.00    -0.003 C 
ATOM      9  C   UNL     1     154.158 156.672 133.447  1.00  0.00    -0.011 C 
ATOM     10  C   UNL     1     154.476 156.716 128.571  1.00  0.00    -0.006 C 
ATOM     11  C   UNL     1     156.517 155.632 129.504  1.00  0.00    -0.027 C 
ATOM     12  C   UNL     1     154.618 154.633 131.954  1.00  0.00     0.008 C 
ATOM     13  C   UNL     1     155.327 156.251 134.362  1.00  0.00     0.008 C 
ATOM     14  C   UNL     1     153.451 155.538 128.589  1.00  0.00     0.017 C 
ATOM     15  C   UNL     1     155.203 156.771 127.125  1.00  0.00    -0.020 C 
ATOM     16  C   UNL     1     156.982 155.142 128.176  1.00  0.00     0.032 C 
ATOM     17  C   UNL     1     156.134 155.490 126.908  1.00  0.00     0.006 C 
ATOM     18  C   UNL     1     156.093 158.044 126.990  1.00  0.00     0.008 C 
ATOM     19  C   UNL     1     154.088 156.821 126.019  1.00  0.00     0.012 C 
ATOM     20  C   UNL     1     157.051 155.526 125.585  1.00  0.00    -0.025 C 
ATOM     21  C   UNL     1     156.969 158.106 125.723  1.00  0.00     0.005 C 
ATOM     22  C   UNL     1     157.884 156.867 125.585  1.00  0.00     0.003 C 
ATOM     23  C   UNL     1     158.046 154.309 125.558  1.00  0.00     0.010 C 
ATOM     24  C   UNL     1     156.143 155.363 124.318  1.00  0.00     0.012 C 
ATOM     25  C   UNL     1     159.013 156.991 124.478  1.00  0.00    -0.006 C 
ATOM     26  C   UNL     1     159.115 154.388 124.451  1.00  0.00     0.033 C 
ATOM     27  C   UNL     1     159.912 155.704 124.476  1.00  0.00     0.120 C 
ATOM     28  C   UNL     1     158.446 157.225 123.053  1.00  0.00     0.014 C 
ATOM     29  C   UNL     1     159.928 158.209 124.788  1.00  0.00     0.014 C 
ENDROOT
BRANCH   1  30
ATOM     30  C   UNL     1     156.152 159.343 131.534  1.00  0.00     0.048 C 
ATOM     31  O   UNL     1     157.210 158.769 131.907  1.00  0.00    -0.550 OA
ATOM     32  O   UNL     1     156.105 160.733 131.550  1.00  0.00    -0.550 OA
ENDBRANCH   1  30
BRANCH  27  33
ATOM     33  O   UNL     1     160.842 155.694 125.536  1.00  0.00    -0.393 OA
ATOM     34  H   UNL     1     160.448 155.197 126.296  1.00  0.00     0.210 HD
ENDBRANCH  27  33
TORSDOF 2
ENDMDL
MODEL 2
REMARK VINA RESULT:    -6.660      3.125      7.455
REMARK INTER + INTRA:          -7.554
REMARK INTER:                  -7.255
REMARK INTRA:                  -0.299
REMARK UNBOUND:                -0.310
REMARK SMILES C[C@@H]1[C@H]2C3=CC[C@@H]4[C@]5(C)CC[C@H](O)C(C)(C)[C@H]5CC[C@]4(C)[C@]3(C)CC[C@@]2(C(=O)[O-])CC[C@@H]1C
REMARK SMILES IDX 26 1 30 2 25 3 3 4 31 5 24 6 4 7 2 8 32 9 22 10 5 11 1 12
REMARK SMILES IDX 33 13 23 14 20 15 6 16 7 17 19 18 21 19 8 20 18 21 17 22
REMARK SMILES IDX 10 23 9 24 14 25 11 26 12 27 15 28 16 29 27 30 28 31 29 32
REMARK SMILES IDX 13 33
REMARK H PARENT 13 34
REMARK Flexibility Score: inf
ROOT
ATOM      1  C   UNL     1     161.767 157.399 125.718  1.00  0.00     0.017 C 
ATOM      2  C   UNL     1     162.949 157.949 124.854  1.00  0.00     0.014 C 
ATOM      3  C   UNL     1     161.154 156.180 124.975  1.00  0.00     0.014 C 
ATOM      4  C   UNL     1     160.692 158.532 125.998  1.00  0.00     0.030 C 
ATOM      5  C   UNL     1     163.501 159.270 125.400  1.00  0.00     0.004 C 
ATOM      6  C   UNL     1     160.075 156.568 123.952  1.00  0.00     0.013 C 
ATOM      7  C   UNL     1     159.240 158.036 125.816  1.00  0.00    -0.063 C 
ATOM      8  C   UNL     1     160.982 159.862 125.230  1.00  0.00    -0.003 C 
ATOM      9  C   UNL     1     162.428 160.385 125.509  1.00  0.00    -0.011 C 
ATOM     10  C   UNL     1     158.797 157.251 124.577  1.00  0.00    -0.006 C 
ATOM     11  C   UNL     1     158.342 158.392 126.745  1.00  0.00    -0.027 C 
ATOM     12  C   UNL     1     159.923 160.952 125.495  1.00  0.00     0.008 C 
ATOM     13  C   UNL     1     162.577 161.124 126.855  1.00  0.00     0.008 C 
ATOM     14  C   UNL     1     158.280 158.304 123.546  1.00  0.00     0.017 C 
ATOM     15  C   UNL     1     157.608 156.203 124.915  1.00  0.00    -0.020 C 
ATOM     16  C   UNL     1     156.949 157.873 126.838  1.00  0.00     0.032 C 
ATOM     17  C   UNL     1     156.424 156.925 125.710  1.00  0.00     0.006 C 
ATOM     18  C   UNL     1     158.129 155.023 125.789  1.00  0.00     0.008 C 
ATOM     19  C   UNL     1     157.071 155.621 123.557  1.00  0.00     0.012 C 
ATOM     20  C   UNL     1     155.272 155.944 126.261  1.00  0.00    -0.025 C 
ATOM     21  C   UNL     1     157.045 154.063 126.315  1.00  0.00     0.005 C 
ATOM     22  C   UNL     1     155.948 154.803 127.117  1.00  0.00     0.003 C 
ATOM     23  C   UNL     1     154.255 156.726 127.168  1.00  0.00     0.010 C 
ATOM     24  C   UNL     1     154.435 155.397 125.055  1.00  0.00     0.012 C 
ATOM     25  C   UNL     1     154.966 153.863 127.931  1.00  0.00    -0.006 C 
ATOM     26  C   UNL     1     153.257 155.828 127.923  1.00  0.00     0.033 C 
ATOM     27  C   UNL     1     153.943 154.727 128.750  1.00  0.00     0.120 C 
ATOM     28  C   UNL     1     154.191 152.864 127.030  1.00  0.00     0.014 C 
ATOM     29  C   UNL     1     155.773 152.999 128.941  1.00  0.00     0.014 C 
ENDROOT
BRANCH   1  30
ATOM     30  C   UNL     1     162.293 156.868 127.052  1.00  0.00     0.048 C 
ATOM     31  O   UNL     1     161.854 157.299 128.152  1.00  0.00    -0.550 OA
ATOM     32  O   UNL     1     163.329 155.938 127.063  1.00  0.00    -0.550 OA
ENDBRANCH   1  30
BRANCH  27  33
ATOM     33  O   UNL     1     154.513 155.275 129.918  1.00  0.00    -0.393 OA
ATOM     34  H   UNL     1     154.307 156.242 129.946  1.00  0.00     0.210 HD
ENDBRANCH  27  33
TORSDOF 2
ENDMDL
MODEL 3
REMARK VINA RESULT:    -6.373      6.857     11.380
REMARK INTER + INTRA:          -7.242
REMARK INTER:                  -7.190
REMARK INTRA:                  -0.053
REMARK UNBOUND:                -0.310
REMARK SMILES C[C@@H]1[C@H]2C3=CC[C@@H]4[C@]5(C)CC[C@H](O)C(C)(C)[C@H]5CC[C@]4(C)[C@]3(C)CC[C@@]2(C(=O)[O-])CC[C@@H]1C
REMARK SMILES IDX 26 1 30 2 25 3 3 4 31 5 24 6 4 7 2 8 32 9 22 10 5 11 1 12
REMARK SMILES IDX 33 13 23 14 20 15 6 16 7 17 19 18 21 19 8 20 18 21 17 22
REMARK SMILES IDX 10 23 9 24 14 25 11 26 12 27 15 28 16 29 27 30 28 31 29 32
REMARK SMILES IDX 13 33
REMARK H PARENT 13 34
REMARK Flexibility Score: inf
ROOT
ATOM      1  C   UNL     1     156.075 152.572 133.802  1.00  0.00     0.017 C 
ATOM      2  C   UNL     1     157.162 151.610 133.222  1.00  0.00     0.014 C 
ATOM      3  C   UNL     1     156.801 153.732 134.537  1.00  0.00     0.014 C 
ATOM      4  C   UNL     1     155.075 151.793 134.755  1.00  0.00     0.030 C 
ATOM      5  C   UNL     1     156.555 150.328 132.643  1.00  0.00     0.004 C 
ATOM      6  C   UNL     1     157.135 153.413 136.002  1.00  0.00     0.013 C 
ATOM      7  C   UNL     1     154.768 152.564 136.058  1.00  0.00    -0.063 C 
ATOM      8  C   UNL     1     155.496 150.309 135.010  1.00  0.00    -0.003 C 
ATOM      9  C   UNL     1     155.708 149.531 133.671  1.00  0.00    -0.011 C 
ATOM     10  C   UNL     1     155.876 153.175 136.922  1.00  0.00    -0.006 C 
ATOM     11  C   UNL     1     153.492 152.609 136.466  1.00  0.00    -0.027 C 
ATOM     12  C   UNL     1     154.527 149.564 135.952  1.00  0.00     0.008 C 
ATOM     13  C   UNL     1     154.399 149.052 133.012  1.00  0.00     0.008 C 
ATOM     14  C   UNL     1     156.266 152.091 137.976  1.00  0.00     0.017 C 
ATOM     15  C   UNL     1     155.379 154.513 137.691  1.00  0.00    -0.020 C 
ATOM     16  C   UNL     1     152.977 153.442 137.589  1.00  0.00     0.032 C 
ATOM     17  C   UNL     1     154.000 154.249 138.455  1.00  0.00     0.006 C 
ATOM     18  C   UNL     1     155.161 155.688 136.690  1.00  0.00     0.008 C 
ATOM     19  C   UNL     1     156.494 154.929 138.717  1.00  0.00     0.012 C 
ATOM     20  C   UNL     1     153.315 155.556 139.100  1.00  0.00    -0.025 C 
ATOM     21  C   UNL     1     154.519 156.955 137.290  1.00  0.00     0.005 C 
ATOM     22  C   UNL     1     153.165 156.655 137.976  1.00  0.00     0.003 C 
ATOM     23  C   UNL     1     151.891 155.218 139.674  1.00  0.00     0.010 C 
ATOM     24  C   UNL     1     154.165 156.038 140.325  1.00  0.00     0.012 C 
ATOM     25  C   UNL     1     152.311 157.934 138.357  1.00  0.00    -0.006 C 
ATOM     26  C   UNL     1     151.070 156.450 140.100  1.00  0.00     0.033 C 
ATOM     27  C   UNL     1     150.939 157.503 138.985  1.00  0.00     0.120 C 
ATOM     28  C   UNL     1     153.047 158.891 139.333  1.00  0.00     0.014 C 
ATOM     29  C   UNL     1     152.007 158.768 137.080  1.00  0.00     0.014 C 
ENDROOT
BRANCH   1  30
ATOM     30  C   UNL     1     155.282 153.215 132.664  1.00  0.00     0.048 C 
ATOM     31  O   UNL     1     155.634 153.086 131.461  1.00  0.00    -0.550 OA
ATOM     32  O   UNL     1     154.184 154.019 132.957  1.00  0.00    -0.550 OA
ENDBRANCH   1  30
BRANCH  27  33
ATOM     33  O   UNL     1     150.012 157.075 138.014  1.00  0.00    -0.393 OA
ATOM     34  H   UNL     1     150.027 157.714 137.258  1.00  0.00     0.210 HD
ENDBRANCH  27  33
TORSDOF 2
ENDMDL
MODEL 4
REMARK VINA RESULT:    -6.207      2.880      7.599
REMARK INTER + INTRA:          -7.062
REMARK INTER:                  -6.750
REMARK INTRA:                  -0.311
REMARK UNBOUND:                -0.310
REMARK SMILES C[C@@H]1[C@H]2C3=CC[C@@H]4[C@]5(C)CC[C@H](O)C(C)(C)[C@H]5CC[C@]4(C)[C@]3(C)CC[C@@]2(C(=O)[O-])CC[C@@H]1C
REMARK SMILES IDX 26 1 30 2 25 3 3 4 31 5 24 6 4 7 2 8 32 9 22 10 5 11 1 12
REMARK SMILES IDX 33 13 23 14 20 15 6 16 7 17 19 18 21 19 8 20 18 21 17 22
REMARK SMILES IDX 10 23 9 24 14 25 11 26 12 27 15 28 16 29 27 30 28 31 29 32
REMARK SMILES IDX 13 33
REMARK H PARENT 13 34
REMARK Flexibility Score: inf
ROOT
ATOM      1  C   UNL     1     161.772 159.190 126.762  1.00  0.00     0.017 C 
ATOM      2  C   UNL     1     163.303 159.423 126.547  1.00  0.00     0.014 C 
ATOM      3  C   UNL     1     161.599 158.137 127.891  1.00  0.00     0.014 C 
ATOM      4  C   UNL     1     161.070 158.742 125.413  1.00  0.00     0.030 C 
ATOM      5  C   UNL     1     163.592 160.299 125.324  1.00  0.00     0.004 C 
ATOM      6  C   UNL     1     161.630 156.687 127.384  1.00  0.00     0.013 C 
ATOM      7  C   UNL     1     160.079 157.573 125.614  1.00  0.00    -0.063 C 
ATOM      8  C   UNL     1     162.079 158.491 124.246  1.00  0.00    -0.003 C 
ATOM      9  C   UNL     1     163.005 159.728 124.007  1.00  0.00    -0.011 C 
ATOM     10  C   UNL     1     160.456 156.313 126.400  1.00  0.00    -0.006 C 
ATOM     11  C   UNL     1     158.892 157.654 124.998  1.00  0.00    -0.027 C 
ATOM     12  C   UNL     1     161.389 158.039 122.942  1.00  0.00     0.008 C 
ATOM     13  C   UNL     1     162.339 160.859 123.196  1.00  0.00     0.008 C 
ATOM     14  C   UNL     1     161.025 155.296 125.361  1.00  0.00     0.017 C 
ATOM     15  C   UNL     1     159.176 155.657 127.146  1.00  0.00    -0.020 C 
ATOM     16  C   UNL     1     157.748 156.722 125.210  1.00  0.00     0.032 C 
ATOM     17  C   UNL     1     157.957 155.473 126.127  1.00  0.00     0.006 C 
ATOM     18  C   UNL     1     158.691 156.554 128.324  1.00  0.00     0.008 C 
ATOM     19  C   UNL     1     159.611 154.262 127.725  1.00  0.00     0.012 C 
ATOM     20  C   UNL     1     156.571 155.002 126.797  1.00  0.00    -0.025 C 
ATOM     21  C   UNL     1     157.372 156.113 128.990  1.00  0.00     0.005 C 
ATOM     22  C   UNL     1     156.214 155.996 127.970  1.00  0.00     0.003 C 
ATOM     23  C   UNL     1     155.405 155.019 125.744  1.00  0.00     0.010 C 
ATOM     24  C   UNL     1     156.700 153.513 127.267  1.00  0.00     0.012 C 
ATOM     25  C   UNL     1     154.773 155.834 128.611  1.00  0.00    -0.006 C 
ATOM     26  C   UNL     1     154.003 154.807 126.346  1.00  0.00     0.033 C 
ATOM     27  C   UNL     1     153.681 155.790 127.485  1.00  0.00     0.120 C 
ATOM     28  C   UNL     1     154.642 154.573 129.506  1.00  0.00     0.014 C 
ATOM     29  C   UNL     1     154.461 157.051 129.528  1.00  0.00     0.014 C 
ENDROOT
BRANCH   1  30
ATOM     30  C   UNL     1     161.112 160.473 127.267  1.00  0.00     0.048 C 
ATOM     31  O   UNL     1     160.279 161.107 126.564  1.00  0.00    -0.550 OA
ATOM     32  O   UNL     1     161.482 161.000 128.501  1.00  0.00    -0.550 OA
ENDBRANCH   1  30
BRANCH  27  33
ATOM     33  O   UNL     1     153.392 157.067 126.963  1.00  0.00    -0.393 OA
ATOM     34  H   UNL     1     153.302 156.994 125.980  1.00  0.00     0.210 HD
ENDBRANCH  27  33
TORSDOF 2
ENDMDL
MODEL 5
REMARK VINA RESULT:    -6.160      1.769      2.584
REMARK INTER + INTRA:          -7.011
REMARK INTER:                  -6.702
REMARK INTRA:                  -0.309
REMARK UNBOUND:                -0.310
REMARK SMILES C[C@@H]1[C@H]2C3=CC[C@@H]4[C@]5(C)CC[C@H](O)C(C)(C)[C@H]5CC[C@]4(C)[C@]3(C)CC[C@@]2(C(=O)[O-])CC[C@@H]1C
REMARK SMILES IDX 26 1 30 2 25 3 3 4 31 5 24 6 4 7 2 8 32 9 22 10 5 11 1 12
REMARK SMILES IDX 33 13 23 14 20 15 6 16 7 17 19 18 21 19 8 20 18 21 17 22
REMARK SMILES IDX 10 23 9 24 14 25 11 26 12 27 15 28 16 29 27 30 28 31 29 32
REMARK SMILES IDX 13 33
REMARK H PARENT 13 34
REMARK Flexibility Score: inf
ROOT
ATOM      1  C   UNL     1     155.211 155.460 130.785  1.00  0.00     0.017 C 
ATOM      2  C   UNL     1     154.122 154.906 131.761  1.00  0.00     0.014 C 
ATOM      3  C   UNL     1     154.487 156.116 129.578  1.00  0.00     0.014 C 
ATOM      4  C   UNL     1     156.208 154.313 130.334  1.00  0.00     0.030 C 
ATOM      5  C   UNL     1     154.728 154.068 132.892  1.00  0.00     0.004 C 
ATOM      6  C   UNL     1     154.151 155.123 128.454  1.00  0.00     0.013 C 
ATOM      7  C   UNL     1     156.516 154.349 128.820  1.00  0.00    -0.063 C 
ATOM      8  C   UNL     1     155.784 152.894 130.835  1.00  0.00    -0.003 C 
ATOM      9  C   UNL     1     155.571 152.869 132.384  1.00  0.00    -0.011 C 
ATOM     10  C   UNL     1     155.409 154.464 127.768  1.00  0.00    -0.006 C 
ATOM     11  C   UNL     1     157.791 154.187 128.443  1.00  0.00    -0.027 C 
ATOM     12  C   UNL     1     156.750 151.782 130.377  1.00  0.00     0.008 C 
ATOM     13  C   UNL     1     156.881 152.770 133.193  1.00  0.00     0.008 C 
ATOM     14  C   UNL     1     155.014 153.004 127.377  1.00  0.00     0.017 C 
ATOM     15  C   UNL     1     155.908 155.255 126.444  1.00  0.00    -0.020 C 
ATOM     16  C   UNL     1     158.307 154.365 127.056  1.00  0.00     0.032 C 
ATOM     17  C   UNL     1     157.285 154.649 125.906  1.00  0.00     0.006 C 
ATOM     18  C   UNL     1     156.129 156.768 126.744  1.00  0.00     0.008 C 
ATOM     19  C   UNL     1     154.792 155.121 125.346  1.00  0.00     0.012 C 
ATOM     20  C   UNL     1     157.972 155.473 124.705  1.00  0.00    -0.025 C 
ATOM     21  C   UNL     1     156.773 157.580 125.603  1.00  0.00     0.005 C 
ATOM     22  C   UNL     1     158.125 156.980 125.150  1.00  0.00     0.003 C 
ATOM     23  C   UNL     1     159.395 154.895 124.370  1.00  0.00     0.010 C 
ATOM     24  C   UNL     1     157.122 155.298 123.401  1.00  0.00     0.012 C 
ATOM     25  C   UNL     1     158.982 157.910 124.194  1.00  0.00    -0.006 C 
ATOM     26  C   UNL     1     160.218 155.760 123.397  1.00  0.00     0.033 C 
ATOM     27  C   UNL     1     160.352 157.223 123.856  1.00  0.00     0.120 C 
ATOM     28  C   UNL     1     158.247 158.270 122.875  1.00  0.00     0.014 C 
ATOM     29  C   UNL     1     159.289 159.260 124.902  1.00  0.00     0.014 C 
ENDROOT
BRANCH   1  30
ATOM     30  C   UNL     1     156.007 156.575 131.465  1.00  0.00     0.048 C 
ATOM     31  O   UNL     1     157.209 156.413 131.807  1.00  0.00    -0.550 OA
ATOM     32  O   UNL     1     155.379 157.777 131.779  1.00  0.00    -0.550 OA
ENDBRANCH   1  30
BRANCH  27  33
ATOM     33  O   UNL     1     161.280 157.321 124.913  1.00  0.00    -0.393 OA
ATOM     34  H   UNL     1     162.195 157.294 124.535  1.00  0.00     0.210 HD
ENDBRANCH  27  33
TORSDOF 2
ENDMDL
MODEL 6
REMARK VINA RESULT:    -6.127      1.904      7.754
REMARK INTER + INTRA:          -6.974
REMARK INTER:                  -6.728
REMARK INTRA:                  -0.247
REMARK UNBOUND:                -0.310
REMARK SMILES C[C@@H]1[C@H]2C3=CC[C@@H]4[C@]5(C)CC[C@H](O)C(C)(C)[C@H]5CC[C@]4(C)[C@]3(C)CC[C@@]2(C(=O)[O-])CC[C@@H]1C
REMARK SMILES IDX 26 1 30 2 25 3 3 4 31 5 24 6 4 7 2 8 32 9 22 10 5 11 1 12
REMARK SMILES IDX 33 13 23 14 20 15 6 16 7 17 19 18 21 19 8 20 18 21 17 22
REMARK SMILES IDX 10 23 9 24 14 25 11 26 12 27 15 28 16 29 27 30 28 31 29 32
REMARK SMILES IDX 13 33
REMARK H PARENT 13 34
REMARK Flexibility Score: inf
ROOT
ATOM      1  C   UNL     1     160.284 156.941 124.218  1.00  0.00     0.017 C 
ATOM      2  C   UNL     1     160.977 157.342 122.875  1.00  0.00     0.014 C 
ATOM      3  C   UNL     1     159.005 156.126 123.875  1.00  0.00     0.014 C 
ATOM      4  C   UNL     1     159.960 158.220 125.097  1.00  0.00     0.030 C 
ATOM      5  C   UNL     1     162.143 158.312 123.091  1.00  0.00     0.004 C 
ATOM      6  C   UNL     1     157.769 157.005 123.633  1.00  0.00     0.013 C 
ATOM      7  C   UNL     1     158.547 158.177 125.718  1.00  0.00    -0.063 C 
ATOM      8  C   UNL     1     160.262 159.566 124.361  1.00  0.00    -0.003 C 
ATOM      9  C   UNL     1     161.729 159.615 123.825  1.00  0.00    -0.011 C 
ATOM     10  C   UNL     1     157.304 157.839 124.889  1.00  0.00    -0.006 C 
ATOM     11  C   UNL     1     158.423 158.536 127.003  1.00  0.00    -0.027 C 
ATOM     12  C   UNL     1     159.929 160.806 125.217  1.00  0.00     0.008 C 
ATOM     13  C   UNL     1     162.777 159.964 124.903  1.00  0.00     0.008 C 
ATOM     14  C   UNL     1     156.737 159.196 124.364  1.00  0.00     0.017 C 
ATOM     15  C   UNL     1     156.169 157.091 125.773  1.00  0.00    -0.020 C 
ATOM     16  C   UNL     1     157.185 158.393 127.821  1.00  0.00     0.032 C 
ATOM     17  C   UNL     1     155.877 157.898 127.122  1.00  0.00     0.006 C 
ATOM     18  C   UNL     1     156.617 155.649 126.159  1.00  0.00     0.008 C 
ATOM     19  C   UNL     1     154.861 156.995 124.907  1.00  0.00     0.012 C 
ATOM     20  C   UNL     1     154.903 157.155 128.166  1.00  0.00    -0.025 C 
ATOM     21  C   UNL     1     155.690 154.913 127.147  1.00  0.00     0.005 C 
ATOM     22  C   UNL     1     155.477 155.713 128.454  1.00  0.00     0.003 C 
ATOM     23  C   UNL     1     154.820 157.949 129.519  1.00  0.00     0.010 C 
ATOM     24  C   UNL     1     153.445 157.134 127.593  1.00  0.00     0.012 C 
ATOM     25  C   UNL     1     154.783 154.903 129.627  1.00  0.00    -0.006 C 
ATOM     26  C   UNL     1     154.098 157.197 130.654  1.00  0.00     0.033 C 
ATOM     27  C   UNL     1     154.680 155.796 130.914  1.00  0.00     0.120 C 
ATOM     28  C   UNL     1     153.373 154.375 129.252  1.00  0.00     0.014 C 
ATOM     29  C   UNL     1     155.635 153.652 129.985  1.00  0.00     0.014 C 
ENDROOT
BRANCH   1  30
ATOM     30  C   UNL     1     161.189 156.001 125.016  1.00  0.00     0.048 C 
ATOM     31  O   UNL     1     161.986 156.439 125.889  1.00  0.00    -0.550 OA
ATOM     32  O   UNL     1     161.190 154.639 124.732  1.00  0.00    -0.550 OA
ENDBRANCH   1  30
BRANCH  27  33
ATOM     33  O   UNL     1     155.907 155.895 131.602  1.00  0.00    -0.393 OA
ATOM     34  H   UNL     1     156.633 155.599 130.997  1.00  0.00     0.210 HD
ENDBRANCH  27  33
TORSDOF 2
ENDMDL
MODEL 7
REMARK VINA RESULT:    -6.106      2.594      5.281
REMARK INTER + INTRA:          -6.951
REMARK INTER:                  -6.640
REMARK INTRA:                  -0.311
REMARK UNBOUND:                -0.310
REMARK SMILES C[C@@H]1[C@H]2C3=CC[C@@H]4[C@]5(C)CC[C@H](O)C(C)(C)[C@H]5CC[C@]4(C)[C@]3(C)CC[C@@]2(C(=O)[O-])CC[C@@H]1C
REMARK SMILES IDX 26 1 30 2 25 3 3 4 31 5 24 6 4 7 2 8 32 9 22 10 5 11 1 12
REMARK SMILES IDX 33 13 23 14 20 15 6 16 7 17 19 18 21 19 8 20 18 21 17 22
REMARK SMILES IDX 10 23 9 24 14 25 11 26 12 27 15 28 16 29 27 30 28 31 29 32
REMARK SMILES IDX 13 33
REMARK H PARENT 13 34
REMARK Flexibility Score: inf
ROOT
ATOM      1  C   UNL     1     155.869 157.723 128.008  1.00  0.00     0.017 C 
ATOM      2  C   UNL     1     154.310 157.737 128.121  1.00  0.00     0.014 C 
ATOM      3  C   UNL     1     156.354 159.191 127.851  1.00  0.00     0.014 C 
ATOM      4  C   UNL     1     156.344 156.803 126.806  1.00  0.00     0.030 C 
ATOM      5  C   UNL     1     153.711 156.327 128.086  1.00  0.00     0.004 C 
ATOM      6  C   UNL     1     156.368 159.676 126.393  1.00  0.00     0.013 C 
ATOM      7  C   UNL     1     157.464 157.453 125.963  1.00  0.00    -0.063 C 
ATOM      8  C   UNL     1     155.163 156.264 125.937  1.00  0.00    -0.003 C 
ATOM      9  C   UNL     1     154.093 155.530 126.810  1.00  0.00    -0.011 C 
ATOM     10  C   UNL     1     157.366 158.895 125.454  1.00  0.00    -0.006 C 
ATOM     11  C   UNL     1     158.500 156.681 125.608  1.00  0.00    -0.027 C 
ATOM     12  C   UNL     1     155.635 155.384 124.761  1.00  0.00     0.008 C 
ATOM     13  C   UNL     1     154.480 154.086 127.190  1.00  0.00     0.008 C 
ATOM     14  C   UNL     1     156.713 158.823 124.038  1.00  0.00     0.017 C 
ATOM     15  C   UNL     1     158.822 159.598 125.337  1.00  0.00    -0.020 C 
ATOM     16  C   UNL     1     159.748 157.166 124.953  1.00  0.00     0.032 C 
ATOM     17  C   UNL     1     159.838 158.668 124.526  1.00  0.00     0.006 C 
ATOM     18  C   UNL     1     159.431 159.868 126.746  1.00  0.00     0.008 C 
ATOM     19  C   UNL     1     158.642 160.973 124.598  1.00  0.00     0.012 C 
ATOM     20  C   UNL     1     161.365 159.178 124.506  1.00  0.00    -0.025 C 
ATOM     21  C   UNL     1     160.888 160.371 126.750  1.00  0.00     0.005 C 
ATOM     22  C   UNL     1     161.839 159.413 125.993  1.00  0.00     0.003 C 
ATOM     23  C   UNL     1     162.304 158.111 123.835  1.00  0.00     0.010 C 
ATOM     24  C   UNL     1     161.473 160.462 123.614  1.00  0.00     0.012 C 
ATOM     25  C   UNL     1     163.383 159.704 126.199  1.00  0.00    -0.006 C 
ATOM     26  C   UNL     1     163.809 158.411 123.979  1.00  0.00     0.033 C 
ATOM     27  C   UNL     1     164.243 158.633 125.439  1.00  0.00     0.120 C 
ATOM     28  C   UNL     1     163.803 161.125 125.736  1.00  0.00     0.014 C 
ATOM     29  C   UNL     1     163.744 159.616 127.709  1.00  0.00     0.014 C 
ENDROOT
BRANCH   1  30
ATOM     30  C   UNL     1     156.485 157.205 129.308  1.00  0.00     0.048 C 
ATOM     31  O   UNL     1     157.110 156.111 129.351  1.00  0.00    -0.550 OA
ATOM     32  O   UNL     1     156.299 157.915 130.490  1.00  0.00    -0.550 OA
ENDBRANCH   1  30
BRANCH  27  33
ATOM     33  O   UNL     1     164.302 157.403 126.125  1.00  0.00    -0.393 OA
ATOM     34  H   UNL     1     165.205 157.304 126.518  1.00  0.00     0.210 HD
ENDBRANCH  27  33
TORSDOF 2
ENDMDL
MODEL 8
REMARK VINA RESULT:    -6.074      4.838      6.775
REMARK INTER + INTRA:          -6.917
REMARK INTER:                  -6.618
REMARK INTRA:                  -0.299
REMARK UNBOUND:                -0.310
REMARK SMILES C[C@@H]1[C@H]2C3=CC[C@@H]4[C@]5(C)CC[C@H](O)C(C)(C)[C@H]5CC[C@]4(C)[C@]3(C)CC[C@@]2(C(=O)[O-])CC[C@@H]1C
REMARK SMILES IDX 26 1 30 2 25 3 3 4 31 5 24 6 4 7 2 8 32 9 22 10 5 11 1 12
REMARK SMILES IDX 33 13 23 14 20 15 6 16 7 17 19 18 21 19 8 20 18 21 17 22
REMARK SMILES IDX 10 23 9 24 14 25 11 26 12 27 15 28 16 29 27 30 28 31 29 32
REMARK SMILES IDX 13 33
REMARK H PARENT 13 34
REMARK Flexibility Score: inf
ROOT
ATOM      1  C   UNL     1     155.666 153.499 128.057  1.00  0.00     0.017 C 
ATOM      2  C   UNL     1     154.103 153.505 128.103  1.00  0.00     0.014 C 
ATOM      3  C   UNL     1     156.122 152.202 127.335  1.00  0.00     0.014 C 
ATOM      4  C   UNL     1     156.279 153.619 129.515  1.00  0.00     0.030 C 
ATOM      5  C   UNL     1     153.551 154.646 128.964  1.00  0.00     0.004 C 
ATOM      6  C   UNL     1     156.261 150.995 128.276  1.00  0.00     0.013 C 
ATOM      7  C   UNL     1     157.455 152.645 129.752  1.00  0.00    -0.063 C 
ATOM      8  C   UNL     1     155.201 153.558 130.645  1.00  0.00    -0.003 C 
ATOM      9  C   UNL     1     154.074 154.619 130.425  1.00  0.00    -0.011 C 
ATOM     10  C   UNL     1     157.365 151.159 129.390  1.00  0.00    -0.006 C 
ATOM     11  C   UNL     1     158.541 153.124 130.372  1.00  0.00    -0.027 C 
ATOM     12  C   UNL     1     155.806 153.659 132.060  1.00  0.00     0.008 C 
ATOM     13  C   UNL     1     154.464 156.045 130.867  1.00  0.00     0.008 C 
ATOM     14  C   UNL     1     156.851 150.422 130.667  1.00  0.00     0.017 C 
ATOM     15  C   UNL     1     158.804 150.550 128.963  1.00  0.00    -0.020 C 
ATOM     16  C   UNL     1     159.831 152.395 130.532  1.00  0.00     0.032 C 
ATOM     17  C   UNL     1     159.919 150.909 130.051  1.00  0.00     0.006 C 
ATOM     18  C   UNL     1     159.270 151.117 127.588  1.00  0.00     0.008 C 
ATOM     19  C   UNL     1     158.656 148.990 128.837  1.00  0.00     0.012 C 
ATOM     20  C   UNL     1     161.426 150.516 129.643  1.00  0.00    -0.025 C 
ATOM     21  C   UNL     1     160.705 150.740 127.171  1.00  0.00     0.005 C 
ATOM     22  C   UNL     1     161.750 151.151 128.235  1.00  0.00     0.003 C 
ATOM     23  C   UNL     1     162.454 151.064 130.698  1.00  0.00     0.010 C 
ATOM     24  C   UNL     1     161.581 148.957 129.667  1.00  0.00     0.012 C 
ATOM     25  C   UNL     1     163.259 151.065 127.758  1.00  0.00    -0.006 C 
ATOM     26  C   UNL     1     163.929 150.936 130.272  1.00  0.00     0.033 C 
ATOM     27  C   UNL     1     164.217 151.565 128.897  1.00  0.00     0.120 C 
ATOM     28  C   UNL     1     163.680 149.637 127.322  1.00  0.00     0.014 C 
ATOM     29  C   UNL     1     163.477 151.980 126.520  1.00  0.00     0.014 C 
ENDROOT
BRANCH   1  30
ATOM     30  C   UNL     1     156.171 154.665 127.205  1.00  0.00     0.048 C 
ATOM     31  O   UNL     1     156.980 155.515 127.665  1.00  0.00    -0.550 OA
ATOM     32  O   UNL     1     155.680 154.838 125.914  1.00  0.00    -0.550 OA
ENDBRANCH   1  30
BRANCH  27  33
ATOM     33  O   UNL     1     164.246 152.971 128.999  1.00  0.00    -0.393 OA
ATOM     34  H   UNL     1     165.127 153.293 128.682  1.00  0.00     0.210 HD
ENDBRANCH  27  33
TORSDOF 2
ENDMDL
MODEL 9
REMARK VINA RESULT:    -5.986      3.775      7.834
REMARK INTER + INTRA:          -6.821
REMARK INTER:                  -6.520
REMARK INTRA:                  -0.301
REMARK UNBOUND:                -0.310
REMARK SMILES C[C@@H]1[C@H]2C3=CC[C@@H]4[C@]5(C)CC[C@H](O)C(C)(C)[C@H]5CC[C@]4(C)[C@]3(C)CC[C@@]2(C(=O)[O-])CC[C@@H]1C
REMARK SMILES IDX 26 1 30 2 25 3 3 4 31 5 24 6 4 7 2 8 32 9 22 10 5 11 1 12
REMARK SMILES IDX 33 13 23 14 20 15 6 16 7 17 19 18 21 19 8 20 18 21 17 22
REMARK SMILES IDX 10 23 9 24 14 25 11 26 12 27 15 28 16 29 27 30 28 31 29 32
REMARK SMILES IDX 13 33
REMARK H PARENT 13 34
REMARK Flexibility Score: inf
ROOT
ATOM      1  C   UNL     1     160.717 151.569 127.511  1.00  0.00     0.017 C 
ATOM      2  C   UNL     1     161.797 150.506 127.895  1.00  0.00     0.014 C 
ATOM      3  C   UNL     1     160.731 152.682 128.596  1.00  0.00     0.014 C 
ATOM      4  C   UNL     1     159.288 150.900 127.358  1.00  0.00     0.030 C 
ATOM      5  C   UNL     1     161.737 149.266 126.996  1.00  0.00     0.004 C 
ATOM      6  C   UNL     1     159.829 152.371 129.800  1.00  0.00     0.013 C 
ATOM      7  C   UNL     1     158.166 151.725 128.027  1.00  0.00    -0.063 C 
ATOM      8  C   UNL     1     159.265 149.393 127.771  1.00  0.00    -0.003 C 
ATOM      9  C   UNL     1     160.351 148.568 127.007  1.00  0.00    -0.011 C 
ATOM     10  C   UNL     1     158.294 152.262 129.457  1.00  0.00    -0.006 C 
ATOM     11  C   UNL     1     157.024 151.887 127.345  1.00  0.00    -0.027 C 
ATOM     12  C   UNL     1     157.867 148.754 127.635  1.00  0.00     0.008 C 
ATOM     13  C   UNL     1     159.947 148.185 125.568  1.00  0.00     0.008 C 
ATOM     14  C   UNL     1     157.683 151.174 130.395  1.00  0.00     0.017 C 
ATOM     15  C   UNL     1     157.489 153.654 129.657  1.00  0.00    -0.020 C 
ATOM     16  C   UNL     1     155.906 152.787 127.743  1.00  0.00     0.032 C 
ATOM     17  C   UNL     1     155.989 153.526 129.120  1.00  0.00     0.006 C 
ATOM     18  C   UNL     1     158.182 154.819 128.887  1.00  0.00     0.008 C 
ATOM     19  C   UNL     1     157.486 154.000 131.190  1.00  0.00     0.012 C 
ATOM     20  C   UNL     1     155.151 154.900 129.096  1.00  0.00    -0.025 C 
ATOM     21  C   UNL     1     157.403 156.149 128.864  1.00  0.00     0.005 C 
ATOM     22  C   UNL     1     155.975 155.980 128.292  1.00  0.00     0.003 C 
ATOM     23  C   UNL     1     153.760 154.697 128.395  1.00  0.00     0.010 C 
ATOM     24  C   UNL     1     154.829 155.338 130.565  1.00  0.00     0.012 C 
ATOM     25  C   UNL     1     155.222 157.336 127.966  1.00  0.00    -0.006 C 
ATOM     26  C   UNL     1     152.990 156.004 128.122  1.00  0.00     0.033 C 
ATOM     27  C   UNL     1     153.816 157.037 127.335  1.00  0.00     0.120 C 
ATOM     28  C   UNL     1     155.045 158.250 129.207  1.00  0.00     0.014 C 
ATOM     29  C   UNL     1     156.039 158.162 126.932  1.00  0.00     0.014 C 
ENDROOT
BRANCH   1  30
ATOM     30  C   UNL     1     161.095 152.249 126.194  1.00  0.00     0.048 C 
ATOM     31  O   UNL     1     160.511 151.965 125.115  1.00  0.00    -0.550 OA
ATOM     32  O   UNL     1     162.151 153.155 126.164  1.00  0.00    -0.550 OA
ENDBRANCH   1  30
BRANCH  27  33
ATOM     33  O   UNL     1     153.901 156.665 125.978  1.00  0.00    -0.393 OA
ATOM     34  H   UNL     1     154.317 155.768 125.921  1.00  0.00     0.210 HD
ENDBRANCH  27  33
TORSDOF 2
ENDMDL
