MODEL 1
REMARK VINA RESULT:    32.334      0.000      0.000
REMARK INTER + INTRA:          48.173
REMARK INTER:                  47.456
REMARK INTRA:                   0.717
REMARK UNBOUND:                 0.717
REMARK SMILES O=c1c(O[C@@H]2O[C@H](CO)[C@@H](O)[C@H](O)[C@@H]2O)c(-c2ccc(O)c(O)c2)oc2cc(O)cc(O)c12
REMARK SMILES IDX 4 1 3 2 16 3 25 4 2 5 26 6 1 7 33 8 27 9 31 10 28 11 30 12
REMARK SMILES IDX 17 13 18 14 19 15 20 16 24 17 22 18 21 19 23 21 32 23 29 25
REMARK SMILES IDX 5 27 14 28 6 29 12 30 7 31 10 32 15 33 13 35 8 37 9 38 11 40
REMARK H PARENT 21 20 23 22 32 24 29 26 15 34 13 36 9 39 11 41
REMARK Flexibility Score: inf
ROOT
ATOM      1  O   UNL     1     -18.467   3.222  16.080  1.00  0.00    -0.454 OA
ENDROOT
BRANCH   1   2
ATOM      2  C   UNL     1     -17.152   2.832  16.364  1.00  0.00     0.214 A 
ATOM      3  C   UNL     1     -16.454   3.329  17.484  1.00  0.00     0.180 A 
ATOM      4  O   UNL     1     -15.192   2.971  17.690  1.00  0.00    -0.452 OA
ATOM      5  C   UNL     1     -16.515   1.911  15.525  1.00  0.00     0.239 A 
ATOM      6  C   UNL     1     -14.536   2.131  16.900  1.00  0.00     0.146 A 
ATOM      7  O   UNL     1     -17.185   1.391  14.590  1.00  0.00    -0.285 OA
ATOM      8  C   UNL     1     -15.158   1.570  15.751  1.00  0.00     0.111 A 
ATOM      9  C   UNL     1     -13.223   1.786  17.237  1.00  0.00     0.094 A 
ATOM     10  C   UNL     1     -14.394   0.688  14.927  1.00  0.00     0.134 A 
ATOM     11  C   UNL     1     -12.509   0.873  16.462  1.00  0.00     0.123 A 
ATOM     12  C   UNL     1     -13.094   0.332  15.314  1.00  0.00     0.093 A 
BRANCH   3  13
ATOM     13  C   UNL     1     -17.096   4.217  18.476  1.00  0.00     0.025 A 
ATOM     14  C   UNL     1     -18.309   3.851  19.082  1.00  0.00     0.016 A 
ATOM     15  C   UNL     1     -18.899   4.687  20.034  1.00  0.00     0.051 A 
ATOM     16  C   UNL     1     -18.290   5.895  20.389  1.00  0.00     0.157 A 
ATOM     17  C   UNL     1     -16.467   5.411  18.858  1.00  0.00     0.062 A 
ATOM     18  C   UNL     1     -17.069   6.263  19.797  1.00  0.00     0.158 A 
BRANCH  16  19
ATOM     19  O   UNL     1     -18.915   6.718  21.325  1.00  0.00    -0.504 OA
ATOM     20  H   UNL     1     -19.528   7.482  21.054  1.00  0.00     0.293 HD
ENDBRANCH  16  19
BRANCH  18  21
ATOM     21  O   UNL     1     -16.456   7.470  20.144  1.00  0.00    -0.504 OA
ATOM     22  H   UNL     1     -16.411   8.249  19.499  1.00  0.00     0.293 HD
ENDBRANCH  18  21
ENDBRANCH   3  13
BRANCH  10  23
ATOM     23  O   UNL     1     -14.850   0.155  13.717  1.00  0.00    -0.507 OA
ATOM     24  H   UNL     1     -15.558   0.571  13.129  1.00  0.00     0.293 HD
ENDBRANCH  10  23
BRANCH  11  25
ATOM     25  O   UNL     1     -11.220   0.507  16.846  1.00  0.00    -0.508 OA
ATOM     26  H   UNL     1     -10.764   0.928  17.647  1.00  0.00     0.293 HD
ENDBRANCH  11  25
ENDBRANCH   1   2
BRANCH   1  27
ATOM     27  C   UNL     1     -18.802   4.487  15.499  1.00  0.00     0.339 C 
ATOM     28  C   UNL     1     -18.288   4.596  14.052  1.00  0.00     0.214 C 
ATOM     29  O   UNL     1     -20.196   4.736  15.592  1.00  0.00    -0.332 OA
ATOM     30  C   UNL     1     -19.053   3.645  13.125  1.00  0.00     0.180 C 
ATOM     31  C   UNL     1     -20.999   3.885  14.782  1.00  0.00     0.179 C 
ATOM     32  C   UNL     1     -20.568   3.867  13.290  1.00  0.00     0.177 C 
BRANCH  28  33
ATOM     33  O   UNL     1     -16.911   4.320  13.995  1.00  0.00    -0.384 OA
ATOM     34  H   UNL     1     -16.489   4.834  14.727  1.00  0.00     0.211 HD
ENDBRANCH  28  33
BRANCH  30  35
ATOM     35  O   UNL     1     -18.732   2.303  13.400  1.00  0.00    -0.387 OA
ATOM     36  H   UNL     1     -18.247   1.953  12.607  1.00  0.00     0.211 HD
ENDBRANCH  30  35
BRANCH  31  37
ATOM     37  C   UNL     1     -21.191   2.487  15.410  1.00  0.00     0.191 C 
BRANCH  37  38
ATOM     38  O   UNL     1     -20.992   1.488  14.446  1.00  0.00    -0.394 OA
ATOM     39  H   UNL     1     -21.591   1.693  13.682  1.00  0.00     0.210 HD
ENDBRANCH  37  38
ENDBRANCH  31  37
BRANCH  32  40
ATOM     40  O   UNL     1     -20.932   5.095  12.705  1.00  0.00    -0.387 OA
ATOM     41  H   UNL     1     -21.248   4.896  11.784  1.00  0.00     0.211 HD
ENDBRANCH  32  40
ENDBRANCH   1  27
TORSDOF 12
ENDMDL
MODEL 2
REMARK VINA RESULT:    33.888     10.683     13.625
REMARK INTER + INTRA:          50.454
REMARK INTER:                  45.391
REMARK INTRA:                   5.064
REMARK UNBOUND:                 0.717
REMARK SMILES O=c1c(O[C@@H]2O[C@H](CO)[C@@H](O)[C@H](O)[C@@H]2O)c(-c2ccc(O)c(O)c2)oc2cc(O)cc(O)c12
REMARK SMILES IDX 4 1 3 2 16 3 25 4 2 5 26 6 1 7 33 8 27 9 31 10 28 11 30 12
REMARK SMILES IDX 17 13 18 14 19 15 20 16 24 17 22 18 21 19 23 21 32 23 29 25
REMARK SMILES IDX 5 27 14 28 6 29 12 30 7 31 10 32 15 33 13 35 8 37 9 38 11 40
REMARK H PARENT 21 20 23 22 32 24 29 26 15 34 13 36 9 39 11 41
REMARK Flexibility Score: inf
ROOT
ATOM      1  O   UNL     1     -20.056  -8.326  10.277  1.00  0.00    -0.454 OA
ENDROOT
BRANCH   1   2
ATOM      2  C   UNL     1     -19.845  -7.164  11.030  1.00  0.00     0.214 A 
ATOM      3  C   UNL     1     -19.491  -7.214  12.394  1.00  0.00     0.180 A 
ATOM      4  O   UNL     1     -19.349  -6.088  13.083  1.00  0.00    -0.452 OA
ATOM      5  C   UNL     1     -19.974  -5.915  10.410  1.00  0.00     0.239 A 
ATOM      6  C   UNL     1     -19.498  -4.883  12.547  1.00  0.00     0.146 A 
ATOM      7  O   UNL     1     -20.185  -5.883   9.167  1.00  0.00    -0.285 OA
ATOM      8  C   UNL     1     -19.847  -4.730  11.177  1.00  0.00     0.111 A 
ATOM      9  C   UNL     1     -19.279  -3.762  13.355  1.00  0.00     0.094 A 
ATOM     10  C   UNL     1     -20.015  -3.408  10.663  1.00  0.00     0.134 A 
ATOM     11  C   UNL     1     -19.381  -2.477  12.825  1.00  0.00     0.123 A 
ATOM     12  C   UNL     1     -19.749  -2.305  11.488  1.00  0.00     0.093 A 
BRANCH   3  13
ATOM     13  C   UNL     1     -19.229  -8.492  13.088  1.00  0.00     0.025 A 
ATOM     14  C   UNL     1     -18.413  -8.529  14.231  1.00  0.00     0.016 A 
ATOM     15  C   UNL     1     -18.186  -9.739  14.893  1.00  0.00     0.051 A 
ATOM     16  C   UNL     1     -18.765 -10.922  14.423  1.00  0.00     0.157 A 
ATOM     17  C   UNL     1     -19.837  -9.673  12.637  1.00  0.00     0.062 A 
ATOM     18  C   UNL     1     -19.593 -10.892  13.287  1.00  0.00     0.158 A 
BRANCH  16  19
ATOM     19  O   UNL     1     -18.501 -12.116  15.092  1.00  0.00    -0.504 OA
ATOM     20  H   UNL     1     -18.543 -13.020  14.629  1.00  0.00     0.293 HD
ENDBRANCH  16  19
BRANCH  18  21
ATOM     21  O   UNL     1     -20.172 -12.071  12.810  1.00  0.00    -0.504 OA
ATOM     22  H   UNL     1     -19.887 -12.485  11.931  1.00  0.00     0.293 HD
ENDBRANCH  18  21
ENDBRANCH   3  13
BRANCH  10  23
ATOM     23  O   UNL     1     -20.458  -3.122   9.367  1.00  0.00    -0.507 OA
ATOM     24  H   UNL     1     -21.278  -2.579   9.140  1.00  0.00     0.293 HD
ENDBRANCH  10  23
BRANCH  11  25
ATOM     25  O   UNL     1     -19.109  -1.376  13.636  1.00  0.00    -0.508 OA
ATOM     26  H   UNL     1     -18.201  -0.926  13.633  1.00  0.00     0.293 HD
ENDBRANCH  11  25
ENDBRANCH   1   2
BRANCH   1  27
ATOM     27  C   UNL     1     -19.393  -8.586   9.034  1.00  0.00     0.339 C 
ATOM     28  C   UNL     1     -17.881  -8.796   9.236  1.00  0.00     0.214 C 
ATOM     29  O   UNL     1     -19.998  -9.675   8.354  1.00  0.00    -0.332 OA
ATOM     30  C   UNL     1     -17.603 -10.102   9.989  1.00  0.00     0.180 C 
ATOM     31  C   UNL     1     -19.816 -10.936   8.987  1.00  0.00     0.179 C 
ATOM     32  C   UNL     1     -18.328 -11.267   9.288  1.00  0.00     0.177 C 
BRANCH  28  33
ATOM     33  O   UNL     1     -17.322  -7.711   9.934  1.00  0.00    -0.384 OA
ATOM     34  H   UNL     1     -17.768  -6.897   9.595  1.00  0.00     0.211 HD
ENDBRANCH  28  33
BRANCH  30  35
ATOM     35  O   UNL     1     -18.021 -10.014  11.329  1.00  0.00    -0.387 OA
ATOM     36  H   UNL     1     -18.999  -9.842  11.317  1.00  0.00     0.211 HD
ENDBRANCH  30  35
BRANCH  31  37
ATOM     37  C   UNL     1     -20.771 -11.135  10.186  1.00  0.00     0.191 C 
BRANCH  37  38
ATOM     38  O   UNL     1     -21.712 -10.095  10.235  1.00  0.00    -0.394 OA
ATOM     39  H   UNL     1     -21.974  -9.892   9.300  1.00  0.00     0.210 HD
ENDBRANCH  37  38
ENDBRANCH  31  37
BRANCH  32  40
ATOM     40  O   UNL     1     -17.682 -11.563   8.073  1.00  0.00    -0.387 OA
ATOM     41  H   UNL     1     -18.252 -11.200   7.344  1.00  0.00     0.211 HD
ENDBRANCH  32  40
ENDBRANCH   1  27
TORSDOF 12
ENDMDL
MODEL 3
REMARK VINA RESULT:    34.126      2.572      7.327
REMARK INTER + INTRA:          50.803
REMARK INTER:                  50.463
REMARK INTRA:                   0.340
REMARK UNBOUND:                 0.717
REMARK SMILES O=c1c(O[C@@H]2O[C@H](CO)[C@@H](O)[C@H](O)[C@@H]2O)c(-c2ccc(O)c(O)c2)oc2cc(O)cc(O)c12
REMARK SMILES IDX 4 1 3 2 16 3 25 4 2 5 26 6 1 7 33 8 27 9 31 10 28 11 30 12
REMARK SMILES IDX 17 13 18 14 19 15 20 16 24 17 22 18 21 19 23 21 32 23 29 25
REMARK SMILES IDX 5 27 14 28 6 29 12 30 7 31 10 32 15 33 13 35 8 37 9 38 11 40
REMARK H PARENT 21 20 23 22 32 24 29 26 15 34 13 36 9 39 11 41
REMARK Flexibility Score: inf
ROOT
ATOM      1  O   UNL     1     -16.399   3.025  14.095  1.00  0.00    -0.454 OA
ENDROOT
BRANCH   1   2
ATOM      2  C   UNL     1     -17.720   3.371  13.780  1.00  0.00     0.214 A 
ATOM      3  C   UNL     1     -18.036   4.576  13.119  1.00  0.00     0.180 A 
ATOM      4  O   UNL     1     -19.305   4.888  12.882  1.00  0.00    -0.452 OA
ATOM      5  C   UNL     1     -18.756   2.491  14.114  1.00  0.00     0.239 A 
ATOM      6  C   UNL     1     -20.322   4.102  13.215  1.00  0.00     0.146 A 
ATOM      7  O   UNL     1     -18.452   1.370  14.606  1.00  0.00    -0.285 OA
ATOM      8  C   UNL     1     -20.102   2.863  13.877  1.00  0.00     0.111 A 
ATOM      9  C   UNL     1     -21.617   4.508  12.876  1.00  0.00     0.094 A 
ATOM     10  C   UNL     1     -21.238   2.071  14.230  1.00  0.00     0.134 A 
ATOM     11  C   UNL     1     -22.711   3.696  13.166  1.00  0.00     0.123 A 
ATOM     12  C   UNL     1     -22.519   2.487  13.840  1.00  0.00     0.093 A 
BRANCH   3  13
ATOM     13  C   UNL     1     -16.991   5.501  12.636  1.00  0.00     0.025 A 
ATOM     14  C   UNL     1     -16.596   6.602  13.414  1.00  0.00     0.016 A 
ATOM     15  C   UNL     1     -15.593   7.462  12.959  1.00  0.00     0.051 A 
ATOM     16  C   UNL     1     -14.975   7.237  11.724  1.00  0.00     0.157 A 
ATOM     17  C   UNL     1     -16.347   5.256  11.414  1.00  0.00     0.062 A 
ATOM     18  C   UNL     1     -15.355   6.130  10.944  1.00  0.00     0.158 A 
BRANCH  16  19
ATOM     19  O   UNL     1     -13.994   8.125  11.288  1.00  0.00    -0.504 OA
ATOM     20  H   UNL     1     -13.009   7.876  11.260  1.00  0.00     0.293 HD
ENDBRANCH  16  19
BRANCH  18  21
ATOM     21  O   UNL     1     -14.745   5.901   9.708  1.00  0.00    -0.504 OA
ATOM     22  H   UNL     1     -14.269   6.640   9.205  1.00  0.00     0.293 HD
ENDBRANCH  18  21
ENDBRANCH   3  13
BRANCH  10  23
ATOM     23  O   UNL     1     -21.167   0.888  14.974  1.00  0.00    -0.507 OA
ATOM     24  H   UNL     1     -21.074  -0.038  14.584  1.00  0.00     0.293 HD
ENDBRANCH  10  23
BRANCH  11  25
ATOM     25  O   UNL     1     -23.988   4.097  12.774  1.00  0.00    -0.508 OA
ATOM     26  H   UNL     1     -24.821   3.690  13.182  1.00  0.00     0.293 HD
ENDBRANCH  11  25
ENDBRANCH   1   2
BRANCH   1  27
ATOM     27  C   UNL     1     -15.644   3.673  15.125  1.00  0.00     0.339 C 
ATOM     28  C   UNL     1     -16.173   3.311  16.524  1.00  0.00     0.214 C 
ATOM     29  O   UNL     1     -14.258   3.395  14.988  1.00  0.00    -0.332 OA
ATOM     30  C   UNL     1     -15.899   1.838  16.851  1.00  0.00     0.180 C 
ATOM     31  C   UNL     1     -13.902   2.043  15.250  1.00  0.00     0.179 C 
ATOM     32  C   UNL     1     -14.408   1.526  16.625  1.00  0.00     0.177 C 
BRANCH  28  33
ATOM     33  O   UNL     1     -17.551   3.575  16.614  1.00  0.00    -0.384 OA
ATOM     34  H   UNL     1     -18.014   2.803  16.206  1.00  0.00     0.211 HD
ENDBRANCH  28  33
BRANCH  30  35
ATOM     35  O   UNL     1     -16.693   0.988  16.060  1.00  0.00    -0.387 OA
ATOM     36  H   UNL     1     -16.876   0.175  16.601  1.00  0.00     0.211 HD
ENDBRANCH  30  35
BRANCH  31  37
ATOM     37  C   UNL     1     -14.221   1.112  14.059  1.00  0.00     0.191 C 
BRANCH  37  38
ATOM     38  O   UNL     1     -15.444   0.456  14.268  1.00  0.00    -0.394 OA
ATOM     39  H   UNL     1     -16.039   0.697  13.511  1.00  0.00     0.210 HD
ENDBRANCH  37  38
ENDBRANCH  31  37
BRANCH  32  40
ATOM     40  O   UNL     1     -13.640   2.131  17.639  1.00  0.00    -0.387 OA
ATOM     41  H   UNL     1     -12.687   1.923  17.446  1.00  0.00     0.211 HD
ENDBRANCH  32  40
ENDBRANCH   1  27
TORSDOF 12
ENDMDL
MODEL 4
REMARK VINA RESULT:    34.463      2.693      5.700
REMARK INTER + INTRA:          51.297
REMARK INTER:                  51.361
REMARK INTRA:                  -0.064
REMARK UNBOUND:                 0.717
REMARK SMILES O=c1c(O[C@@H]2O[C@H](CO)[C@@H](O)[C@H](O)[C@@H]2O)c(-c2ccc(O)c(O)c2)oc2cc(O)cc(O)c12
REMARK SMILES IDX 4 1 3 2 16 3 25 4 2 5 26 6 1 7 33 8 27 9 31 10 28 11 30 12
REMARK SMILES IDX 17 13 18 14 19 15 20 16 24 17 22 18 21 19 23 21 32 23 29 25
REMARK SMILES IDX 5 27 14 28 6 29 12 30 7 31 10 32 15 33 13 35 8 37 9 38 11 40
REMARK H PARENT 21 20 23 22 32 24 29 26 15 34 13 36 9 39 11 41
REMARK Flexibility Score: inf
ROOT
ATOM      1  O   UNL     1     -18.398   2.255  14.969  1.00  0.00    -0.454 OA
ENDROOT
BRANCH   1   2
ATOM      2  C   UNL     1     -17.150   1.675  15.231  1.00  0.00     0.214 A 
ATOM      3  C   UNL     1     -16.835   0.365  14.815  1.00  0.00     0.180 A 
ATOM      4  O   UNL     1     -15.657  -0.163  15.127  1.00  0.00    -0.452 OA
ATOM      5  C   UNL     1     -16.180   2.421  15.912  1.00  0.00     0.239 A 
ATOM      6  C   UNL     1     -14.721   0.493  15.803  1.00  0.00     0.146 A 
ATOM      7  O   UNL     1     -16.433   3.626  16.183  1.00  0.00    -0.285 OA
ATOM      8  C   UNL     1     -14.943   1.821  16.258  1.00  0.00     0.111 A 
ATOM      9  C   UNL     1     -13.498  -0.144  16.037  1.00  0.00     0.094 A 
ATOM     10  C   UNL     1     -13.906   2.467  17.000  1.00  0.00     0.134 A 
ATOM     11  C   UNL     1     -12.470   0.520  16.704  1.00  0.00     0.123 A 
ATOM     12  C   UNL     1     -12.678   1.816  17.182  1.00  0.00     0.093 A 
BRANCH   3  13
ATOM     13  C   UNL     1     -17.764  -0.441  13.998  1.00  0.00     0.025 A 
ATOM     14  C   UNL     1     -18.550  -1.444  14.590  1.00  0.00     0.016 A 
ATOM     15  C   UNL     1     -19.440  -2.189  13.813  1.00  0.00     0.051 A 
ATOM     16  C   UNL     1     -19.556  -1.946  12.440  1.00  0.00     0.157 A 
ATOM     17  C   UNL     1     -17.906  -0.174  12.628  1.00  0.00     0.062 A 
ATOM     18  C   UNL     1     -18.783  -0.936  11.842  1.00  0.00     0.158 A 
BRANCH  16  19
ATOM     19  O   UNL     1     -20.437  -2.722  11.689  1.00  0.00    -0.504 OA
ATOM     20  H   UNL     1     -20.118  -3.467  11.075  1.00  0.00     0.293 HD
ENDBRANCH  16  19
BRANCH  18  21
ATOM     21  O   UNL     1     -18.891  -0.690  10.471  1.00  0.00    -0.504 OA
ATOM     22  H   UNL     1     -19.508   0.025  10.105  1.00  0.00     0.293 HD
ENDBRANCH  18  21
ENDBRANCH   3  13
BRANCH  10  23
ATOM     23  O   UNL     1     -14.037   3.728  17.591  1.00  0.00    -0.507 OA
ATOM     24  H   UNL     1     -13.512   4.051  18.391  1.00  0.00     0.293 HD
ENDBRANCH  10  23
BRANCH  11  25
ATOM     25  O   UNL     1     -11.242  -0.117  16.881  1.00  0.00    -0.508 OA
ATOM     26  H   UNL     1     -10.371   0.401  16.884  1.00  0.00     0.293 HD
ENDBRANCH  11  25
ENDBRANCH   1   2
BRANCH   1  27
ATOM     27  C   UNL     1     -19.112   2.057  13.744  1.00  0.00     0.339 C 
ATOM     28  C   UNL     1     -20.618   1.856  13.996  1.00  0.00     0.214 C 
ATOM     29  O   UNL     1     -18.859   3.115  12.832  1.00  0.00    -0.332 OA
ATOM     30  C   UNL     1     -21.267   3.149  14.501  1.00  0.00     0.180 C 
ATOM     31  C   UNL     1     -19.404   4.370  13.223  1.00  0.00     0.179 C 
ATOM     32  C   UNL     1     -20.922   4.309  13.548  1.00  0.00     0.177 C 
BRANCH  28  33
ATOM     33  O   UNL     1     -20.828   0.819  14.921  1.00  0.00    -0.384 OA
ATOM     34  H   UNL     1     -19.937   0.553  15.255  1.00  0.00     0.211 HD
ENDBRANCH  28  33
BRANCH  30  35
ATOM     35  O   UNL     1     -20.838   3.456  15.804  1.00  0.00    -0.387 OA
ATOM     36  H   UNL     1     -19.858   3.614  15.758  1.00  0.00     0.211 HD
ENDBRANCH  30  35
BRANCH  31  37
ATOM     37  C   UNL     1     -18.547   5.072  14.299  1.00  0.00     0.191 C 
BRANCH  37  38
ATOM     38  O   UNL     1     -17.189   5.018  13.952  1.00  0.00    -0.394 OA
ATOM     39  H   UNL     1     -16.683   4.808  14.780  1.00  0.00     0.210 HD
ENDBRANCH  37  38
ENDBRANCH  31  37
BRANCH  32  40
ATOM     40  O   UNL     1     -21.631   4.155  12.340  1.00  0.00    -0.387 OA
ATOM     41  H   UNL     1     -22.584   4.360  12.535  1.00  0.00     0.211 HD
ENDBRANCH  32  40
ENDBRANCH   1  27
TORSDOF 12
ENDMDL
MODEL 5
REMARK VINA RESULT:    34.691      1.470      5.984
REMARK INTER + INTRA:          51.632
REMARK INTER:                  51.337
REMARK INTRA:                   0.295
REMARK UNBOUND:                 0.717
REMARK SMILES O=c1c(O[C@@H]2O[C@H](CO)[C@@H](O)[C@H](O)[C@@H]2O)c(-c2ccc(O)c(O)c2)oc2cc(O)cc(O)c12
REMARK SMILES IDX 4 1 3 2 16 3 25 4 2 5 26 6 1 7 33 8 27 9 31 10 28 11 30 12
REMARK SMILES IDX 17 13 18 14 19 15 20 16 24 17 22 18 21 19 23 21 32 23 29 25
REMARK SMILES IDX 5 27 14 28 6 29 12 30 7 31 10 32 15 33 13 35 8 37 9 38 11 40
REMARK H PARENT 21 20 23 22 32 24 29 26 15 34 13 36 9 39 11 41
REMARK Flexibility Score: inf
ROOT
ATOM      1  O   UNL     1     -16.243   2.732  15.857  1.00  0.00    -0.454 OA
ENDROOT
BRANCH   1   2
ATOM      2  C   UNL     1     -17.541   3.040  15.430  1.00  0.00     0.214 A 
ATOM      3  C   UNL     1     -18.422   3.807  16.220  1.00  0.00     0.180 A 
ATOM      4  O   UNL     1     -19.661   4.034  15.799  1.00  0.00    -0.452 OA
ATOM      5  C   UNL     1     -17.974   2.589  14.177  1.00  0.00     0.239 A 
ATOM      6  C   UNL     1     -20.127   3.595  14.636  1.00  0.00     0.146 A 
ATOM      7  O   UNL     1     -17.143   1.998  13.435  1.00  0.00    -0.285 OA
ATOM      8  C   UNL     1     -19.310   2.820  13.767  1.00  0.00     0.111 A 
ATOM      9  C   UNL     1     -21.434   3.933  14.271  1.00  0.00     0.094 A 
ATOM     10  C   UNL     1     -19.875   2.357  12.539  1.00  0.00     0.134 A 
ATOM     11  C   UNL     1     -21.951   3.531  13.041  1.00  0.00     0.123 A 
ATOM     12  C   UNL     1     -21.175   2.747  12.184  1.00  0.00     0.093 A 
BRANCH   3  13
ATOM     13  C   UNL     1     -18.001   4.410  17.501  1.00  0.00     0.025 A 
ATOM     14  C   UNL     1     -16.885   5.261  17.557  1.00  0.00     0.016 A 
ATOM     15  C   UNL     1     -16.505   5.843  18.769  1.00  0.00     0.051 A 
ATOM     16  C   UNL     1     -17.230   5.584  19.937  1.00  0.00     0.157 A 
ATOM     17  C   UNL     1     -18.749   4.178  18.665  1.00  0.00     0.062 A 
ATOM     18  C   UNL     1     -18.357   4.745  19.887  1.00  0.00     0.158 A 
BRANCH  16  19
ATOM     19  O   UNL     1     -16.813   6.162  21.134  1.00  0.00    -0.504 OA
ATOM     20  H   UNL     1     -17.391   6.820  21.651  1.00  0.00     0.293 HD
ENDBRANCH  16  19
BRANCH  18  21
ATOM     21  O   UNL     1     -19.084   4.478  21.050  1.00  0.00    -0.504 OA
ATOM     22  H   UNL     1     -20.048   4.771  21.154  1.00  0.00     0.293 HD
ENDBRANCH  18  21
ENDBRANCH   3  13
BRANCH  10  23
ATOM     23  O   UNL     1     -19.217   1.503  11.648  1.00  0.00    -0.507 OA
ATOM     24  H   UNL     1     -19.169   0.498  11.735  1.00  0.00     0.293 HD
ENDBRANCH  10  23
BRANCH  11  25
ATOM     25  O   UNL     1     -23.239   3.922  12.677  1.00  0.00    -0.508 OA
ATOM     26  H   UNL     1     -23.399   4.639  11.979  1.00  0.00     0.293 HD
ENDBRANCH  11  25
ENDBRANCH   1   2
BRANCH   1  27
ATOM     27  C   UNL     1     -15.933   1.590  16.663  1.00  0.00     0.339 C 
ATOM     28  C   UNL     1     -15.605   0.361  15.795  1.00  0.00     0.214 C 
ATOM     29  O   UNL     1     -14.894   1.886  17.585  1.00  0.00    -0.332 OA
ATOM     30  C   UNL     1     -14.281   0.553  15.048  1.00  0.00     0.180 C 
ATOM     31  C   UNL     1     -13.622   2.104  16.986  1.00  0.00     0.179 C 
ATOM     32  C   UNL     1     -13.176   0.951  16.046  1.00  0.00     0.177 C 
BRANCH  28  33
ATOM     33  O   UNL     1     -16.642   0.114  14.879  1.00  0.00    -0.384 OA
ATOM     34  H   UNL     1     -17.274   0.871  14.956  1.00  0.00     0.211 HD
ENDBRANCH  28  33
BRANCH  30  35
ATOM     35  O   UNL     1     -14.401   1.535  14.049  1.00  0.00    -0.387 OA
ATOM     36  H   UNL     1     -14.696   1.072  13.221  1.00  0.00     0.211 HD
ENDBRANCH  30  35
BRANCH  31  37
ATOM     37  C   UNL     1     -13.498   3.516  16.370  1.00  0.00     0.191 C 
BRANCH  37  38
ATOM     38  O   UNL     1     -13.883   3.494  15.021  1.00  0.00    -0.394 OA
ATOM     39  H   UNL     1     -13.128   3.109  14.506  1.00  0.00     0.210 HD
ENDBRANCH  37  38
ENDBRANCH  31  37
BRANCH  32  40
ATOM     40  O   UNL     1     -12.831  -0.162  16.837  1.00  0.00    -0.387 OA
ATOM     41  H   UNL     1     -12.549   0.188  17.724  1.00  0.00     0.211 HD
ENDBRANCH  32  40
ENDBRANCH   1  27
TORSDOF 12
ENDMDL
MODEL 6
REMARK VINA RESULT:    34.834     10.739     13.196
REMARK INTER + INTRA:          51.842
REMARK INTER:                  44.592
REMARK INTRA:                   7.250
REMARK UNBOUND:                 0.717
REMARK SMILES O=c1c(O[C@@H]2O[C@H](CO)[C@@H](O)[C@H](O)[C@@H]2O)c(-c2ccc(O)c(O)c2)oc2cc(O)cc(O)c12
REMARK SMILES IDX 4 1 3 2 16 3 25 4 2 5 26 6 1 7 33 8 27 9 31 10 28 11 30 12
REMARK SMILES IDX 17 13 18 14 19 15 20 16 24 17 22 18 21 19 23 21 32 23 29 25
REMARK SMILES IDX 5 27 14 28 6 29 12 30 7 31 10 32 15 33 13 35 8 37 9 38 11 40
REMARK H PARENT 21 20 23 22 32 24 29 26 15 34 13 36 9 39 11 41
REMARK Flexibility Score: inf
ROOT
ATOM      1  O   UNL     1     -20.321  -8.529  10.839  1.00  0.00    -0.454 OA
ENDROOT
BRANCH   1   2
ATOM      2  C   UNL     1     -19.714  -8.331  12.086  1.00  0.00     0.214 A 
ATOM      3  C   UNL     1     -19.330  -7.049  12.531  1.00  0.00     0.180 A 
ATOM      4  O   UNL     1     -18.713  -6.912  13.699  1.00  0.00    -0.452 OA
ATOM      5  C   UNL     1     -19.496  -9.432  12.922  1.00  0.00     0.239 A 
ATOM      6  C   UNL     1     -18.452  -7.932  14.508  1.00  0.00     0.146 A 
ATOM      7  O   UNL     1     -19.941 -10.556  12.560  1.00  0.00    -0.285 OA
ATOM      8  C   UNL     1     -18.808  -9.261  14.149  1.00  0.00     0.111 A 
ATOM      9  C   UNL     1     -17.839  -7.667  15.738  1.00  0.00     0.094 A 
ATOM     10  C   UNL     1     -18.480 -10.319  15.051  1.00  0.00     0.134 A 
ATOM     11  C   UNL     1     -17.584  -8.700  16.638  1.00  0.00     0.123 A 
ATOM     12  C   UNL     1     -17.902 -10.016  16.293  1.00  0.00     0.093 A 
BRANCH   3  13
ATOM     13  C   UNL     1     -19.628  -5.829  11.755  1.00  0.00     0.025 A 
ATOM     14  C   UNL     1     -19.409  -5.793  10.368  1.00  0.00     0.016 A 
ATOM     15  C   UNL     1     -19.711  -4.641   9.638  1.00  0.00     0.051 A 
ATOM     16  C   UNL     1     -20.232  -3.512  10.280  1.00  0.00     0.157 A 
ATOM     17  C   UNL     1     -20.183  -4.709  12.393  1.00  0.00     0.062 A 
ATOM     18  C   UNL     1     -20.467  -3.544  11.666  1.00  0.00     0.158 A 
BRANCH  16  19
ATOM     19  O   UNL     1     -20.502  -2.371   9.528  1.00  0.00    -0.504 OA
ATOM     20  H   UNL     1     -19.968  -2.128   8.697  1.00  0.00     0.293 HD
ENDBRANCH  16  19
BRANCH  18  21
ATOM     21  O   UNL     1     -20.983  -2.419  12.315  1.00  0.00    -0.504 OA
ATOM     22  H   UNL     1     -20.567  -1.503  12.203  1.00  0.00     0.293 HD
ENDBRANCH  18  21
ENDBRANCH   3  13
BRANCH  10  23
ATOM     23  O   UNL     1     -18.680 -11.675  14.772  1.00  0.00    -0.507 OA
ATOM     24  H   UNL     1     -19.500 -12.206  15.028  1.00  0.00     0.293 HD
ENDBRANCH  10  23
BRANCH  11  25
ATOM     25  O   UNL     1     -17.018  -8.406  17.878  1.00  0.00    -0.508 OA
ATOM     26  H   UNL     1     -16.019  -8.474  18.035  1.00  0.00     0.293 HD
ENDBRANCH  11  25
ENDBRANCH   1   2
BRANCH   1  27
ATOM     27  C   UNL     1     -19.605  -8.470   9.600  1.00  0.00     0.339 C 
ATOM     28  C   UNL     1     -18.118  -8.818   9.792  1.00  0.00     0.214 C 
ATOM     29  O   UNL     1     -20.223  -9.288   8.617  1.00  0.00    -0.332 OA
ATOM     30  C   UNL     1     -17.941 -10.296  10.156  1.00  0.00     0.180 C 
ATOM     31  C   UNL     1     -20.133 -10.685   8.876  1.00  0.00     0.179 C 
ATOM     32  C   UNL     1     -18.681 -11.174   9.128  1.00  0.00     0.177 C 
BRANCH  28  33
ATOM     33  O   UNL     1     -17.547  -8.006  10.788  1.00  0.00    -0.384 OA
ATOM     34  H   UNL     1     -16.972  -8.594  11.337  1.00  0.00     0.211 HD
ENDBRANCH  28  33
BRANCH  30  35
ATOM     35  O   UNL     1     -18.426 -10.561  11.449  1.00  0.00    -0.387 OA
ATOM     36  H   UNL     1     -17.711 -11.056  11.931  1.00  0.00     0.211 HD
ENDBRANCH  30  35
BRANCH  31  37
ATOM     37  C   UNL     1     -21.159 -11.153   9.932  1.00  0.00     0.191 C 
BRANCH  37  38
ATOM     38  O   UNL     1     -20.589 -12.125  10.768  1.00  0.00    -0.394 OA
ATOM     39  H   UNL     1     -20.189 -11.649  11.541  1.00  0.00     0.210 HD
ENDBRANCH  37  38
ENDBRANCH  31  37
BRANCH  32  40
ATOM     40  O   UNL     1     -17.984 -11.156   7.904  1.00  0.00    -0.387 OA
ATOM     41  H   UNL     1     -17.123 -11.631   8.052  1.00  0.00     0.211 HD
ENDBRANCH  32  40
ENDBRANCH   1  27
TORSDOF 12
ENDMDL
MODEL 7
REMARK VINA RESULT:    34.973      1.663      5.923
REMARK INTER + INTRA:          52.047
REMARK INTER:                  51.934
REMARK INTRA:                   0.112
REMARK UNBOUND:                 0.717
REMARK SMILES O=c1c(O[C@@H]2O[C@H](CO)[C@@H](O)[C@H](O)[C@@H]2O)c(-c2ccc(O)c(O)c2)oc2cc(O)cc(O)c12
REMARK SMILES IDX 4 1 3 2 16 3 25 4 2 5 26 6 1 7 33 8 27 9 31 10 28 11 30 12
REMARK SMILES IDX 17 13 18 14 19 15 20 16 24 17 22 18 21 19 23 21 32 23 29 25
REMARK SMILES IDX 5 27 14 28 6 29 12 30 7 31 10 32 15 33 13 35 8 37 9 38 11 40
REMARK H PARENT 21 20 23 22 32 24 29 26 15 34 13 36 9 39 11 41
REMARK Flexibility Score: inf
ROOT
ATOM      1  O   UNL     1     -16.332   2.470  15.886  1.00  0.00    -0.454 OA
ENDROOT
BRANCH   1   2
ATOM      2  C   UNL     1     -17.595   2.861  15.423  1.00  0.00     0.214 A 
ATOM      3  C   UNL     1     -18.428   3.721  16.169  1.00  0.00     0.180 A 
ATOM      4  O   UNL     1     -19.638   4.028  15.716  1.00  0.00    -0.452 OA
ATOM      5  C   UNL     1     -18.041   2.400  14.178  1.00  0.00     0.239 A 
ATOM      6  C   UNL     1     -20.117   3.584  14.560  1.00  0.00     0.146 A 
ATOM      7  O   UNL     1     -17.245   1.721  13.473  1.00  0.00    -0.285 OA
ATOM      8  C   UNL     1     -19.348   2.719  13.734  1.00  0.00     0.111 A 
ATOM      9  C   UNL     1     -21.387   4.009  14.158  1.00  0.00     0.094 A 
ATOM     10  C   UNL     1     -19.926   2.257  12.512  1.00  0.00     0.134 A 
ATOM     11  C   UNL     1     -21.913   3.604  12.932  1.00  0.00     0.123 A 
ATOM     12  C   UNL     1     -21.185   2.732  12.118  1.00  0.00     0.093 A 
BRANCH   3  13
ATOM     13  C   UNL     1     -17.983   4.336  17.436  1.00  0.00     0.025 A 
ATOM     14  C   UNL     1     -16.919   5.253  17.451  1.00  0.00     0.016 A 
ATOM     15  C   UNL     1     -16.518   5.845  18.651  1.00  0.00     0.051 A 
ATOM     16  C   UNL     1     -17.169   5.529  19.848  1.00  0.00     0.157 A 
ATOM     17  C   UNL     1     -18.659   4.046  18.631  1.00  0.00     0.062 A 
ATOM     18  C   UNL     1     -18.243   4.623  19.841  1.00  0.00     0.158 A 
BRANCH  16  19
ATOM     19  O   UNL     1     -16.731   6.119  21.032  1.00  0.00    -0.504 OA
ATOM     20  H   UNL     1     -16.513   5.575  21.864  1.00  0.00     0.293 HD
ENDBRANCH  16  19
BRANCH  18  21
ATOM     21  O   UNL     1     -18.896   4.299  21.033  1.00  0.00    -0.504 OA
ATOM     22  H   UNL     1     -19.179   3.350  21.245  1.00  0.00     0.293 HD
ENDBRANCH  18  21
ENDBRANCH   3  13
BRANCH  10  23
ATOM     23  O   UNL     1     -19.321   1.323  11.664  1.00  0.00    -0.507 OA
ATOM     24  H   UNL     1     -19.297   1.383  10.656  1.00  0.00     0.293 HD
ENDBRANCH  10  23
BRANCH  11  25
ATOM     25  O   UNL     1     -23.161   4.080  12.530  1.00  0.00    -0.508 OA
ATOM     26  H   UNL     1     -23.912   3.449  12.274  1.00  0.00     0.293 HD
ENDBRANCH  11  25
ENDBRANCH   1   2
BRANCH   1  27
ATOM     27  C   UNL     1     -15.326   1.906  15.037  1.00  0.00     0.339 C 
ATOM     28  C   UNL     1     -13.935   2.485  15.352  1.00  0.00     0.214 C 
ATOM     29  O   UNL     1     -15.343   0.488  15.102  1.00  0.00    -0.332 OA
ATOM     30  C   UNL     1     -13.445   2.018  16.727  1.00  0.00     0.180 C 
ATOM     31  C   UNL     1     -14.924  -0.047  16.351  1.00  0.00     0.179 C 
ATOM     32  C   UNL     1     -13.540   0.483  16.817  1.00  0.00     0.177 C 
BRANCH  28  33
ATOM     33  O   UNL     1     -13.963   3.890  15.304  1.00  0.00    -0.384 OA
ATOM     34  H   UNL     1     -14.370   4.194  16.152  1.00  0.00     0.211 HD
ENDBRANCH  28  33
BRANCH  30  35
ATOM     35  O   UNL     1     -14.196   2.606  17.760  1.00  0.00    -0.387 OA
ATOM     36  H   UNL     1     -14.669   3.387  17.367  1.00  0.00     0.211 HD
ENDBRANCH  30  35
BRANCH  31  37
ATOM     37  C   UNL     1     -16.033   0.030  17.424  1.00  0.00     0.191 C 
BRANCH  37  38
ATOM     38  O   UNL     1     -16.641  -1.224  17.587  1.00  0.00    -0.394 OA
ATOM     39  H   UNL     1     -16.492  -1.733  16.749  1.00  0.00     0.210 HD
ENDBRANCH  37  38
ENDBRANCH  31  37
BRANCH  32  40
ATOM     40  O   UNL     1     -12.544  -0.100  16.011  1.00  0.00    -0.387 OA
ATOM     41  H   UNL     1     -12.892  -0.981  15.708  1.00  0.00     0.211 HD
ENDBRANCH  32  40
ENDBRANCH   1  27
TORSDOF 12
ENDMDL
