MODEL 1
REMARK VINA RESULT:     8.462      0.000      0.000
REMARK INTER + INTRA:          10.707
REMARK INTER:                  10.441
REMARK INTRA:                   0.265
REMARK UNBOUND:                 0.265
REMARK SMILES Oc1cc(O)c2cc(O)c(-c3cc(O)c(O)c(O)c3)[o+]c2c1.[Cl-]
REMARK SMILES IDX 10 1 20 2 21 3 22 4 2 5 3 6 4 7 6 8 7 9 8 10 11 11 12 12
REMARK SMILES IDX 13 13 19 14 15 15 17 16 14 17 16 19 18 21 9 23 1 25 5 27
REMARK H PARENT 14 18 16 20 18 22 9 24 1 26 5 28
REMARK Flexibility Score: inf
ROOT
ATOM      1  C   UNL     1      13.316  21.523   0.868  1.00  0.00     0.402 A 
ATOM      2  O   UNL     1      12.581  20.690   0.137  1.00  0.00    -0.202 OA
ATOM      3  C   UNL     1      12.554  20.714  -1.192  1.00  0.00     0.368 A 
ATOM      4  C   UNL     1      11.745  19.801  -1.872  1.00  0.00     0.162 A 
ATOM      5  C   UNL     1      11.695  19.804  -3.266  1.00  0.00     0.128 A 
ATOM      6  C   UNL     1      12.456  20.731  -3.988  1.00  0.00     0.093 A 
ATOM      7  C   UNL     1      13.274  21.658  -3.330  1.00  0.00     0.136 A 
ATOM      8  C   UNL     1      13.330  21.654  -1.912  1.00  0.00     0.125 A 
ATOM      9  C   UNL     1      14.130  22.537  -1.169  1.00  0.00     0.078 A 
ATOM     10  C   UNL     1      14.137  22.471   0.227  1.00  0.00     0.223 A 
ENDROOT
BRANCH   1  11
ATOM     11  C   UNL     1      13.254  21.403   2.342  1.00  0.00     0.091 A 
ATOM     12  C   UNL     1      12.761  20.223   2.919  1.00  0.00     0.068 A 
ATOM     13  C   UNL     1      12.668  20.083   4.308  1.00  0.00     0.162 A 
ATOM     14  C   UNL     1      13.624  22.468   3.179  1.00  0.00     0.068 A 
ATOM     15  C   UNL     1      13.066  21.153   5.146  1.00  0.00     0.200 A 
ATOM     16  C   UNL     1      13.536  22.341   4.571  1.00  0.00     0.162 A 
BRANCH  13  17
ATOM     17  O   UNL     1      12.179  18.875   4.809  1.00  0.00    -0.504 OA
ATOM     18  H   UNL     1      11.250  18.522   4.631  1.00  0.00     0.293 HD
ENDBRANCH  13  17
BRANCH  15  19
ATOM     19  O   UNL     1      13.005  21.076   6.539  1.00  0.00    -0.502 OA
ATOM     20  H   UNL     1      13.617  20.506   7.103  1.00  0.00     0.293 HD
ENDBRANCH  15  19
BRANCH  16  21
ATOM     21  O   UNL     1      13.914  23.402   5.395  1.00  0.00    -0.504 OA
ATOM     22  H   UNL     1      14.542  23.269   6.177  1.00  0.00     0.293 HD
ENDBRANCH  16  21
ENDBRANCH   1  11
BRANCH  10  23
ATOM     23  O   UNL     1      14.970  23.314   0.965  1.00  0.00    -0.500 OA
ATOM     24  H   UNL     1      15.125  23.174   1.956  1.00  0.00     0.294 HD
ENDBRANCH  10  23
BRANCH   5  25
ATOM     25  O   UNL     1      10.883  18.884  -3.927  1.00  0.00    -0.507 OA
ATOM     26  H   UNL     1      10.085  19.180  -4.477  1.00  0.00     0.293 HD
ENDBRANCH   5  25
BRANCH   7  27
ATOM     27  O   UNL     1      14.002  22.551  -4.122  1.00  0.00    -0.507 OA
ATOM     28  H   UNL     1      14.707  23.180  -3.770  1.00  0.00     0.293 HD
ENDBRANCH   7  27
TORSDOF 7
ENDMDL
MODEL 2
REMARK VINA RESULT:     8.585      0.174      1.803
REMARK INTER + INTRA:          10.858
REMARK INTER:                  10.533
REMARK INTRA:                   0.325
REMARK UNBOUND:                 0.265
REMARK SMILES Oc1cc(O)c2cc(O)c(-c3cc(O)c(O)c(O)c3)[o+]c2c1.[Cl-]
REMARK SMILES IDX 10 1 20 2 21 3 22 4 2 5 3 6 4 7 6 8 7 9 8 10 11 11 12 12
REMARK SMILES IDX 13 13 19 14 15 15 17 16 14 17 16 19 18 21 9 23 1 25 5 27
REMARK H PARENT 14 18 16 20 18 22 9 24 1 26 5 28
REMARK Flexibility Score: inf
ROOT
ATOM      1  C   UNL     1      13.317  21.597   0.836  1.00  0.00     0.402 A 
ATOM      2  O   UNL     1      12.636  20.750   0.068  1.00  0.00    -0.202 OA
ATOM      3  C   UNL     1      12.650  20.797  -1.261  1.00  0.00     0.368 A 
ATOM      4  C   UNL     1      11.898  19.867  -1.982  1.00  0.00     0.162 A 
ATOM      5  C   UNL     1      11.891  19.893  -3.376  1.00  0.00     0.128 A 
ATOM      6  C   UNL     1      12.640  20.859  -4.058  1.00  0.00     0.093 A 
ATOM      7  C   UNL     1      13.401  21.804  -3.359  1.00  0.00     0.136 A 
ATOM      8  C   UNL     1      13.413  21.777  -1.940  1.00  0.00     0.125 A 
ATOM      9  C   UNL     1      14.156  22.676  -1.158  1.00  0.00     0.078 A 
ATOM     10  C   UNL     1      14.122  22.585   0.237  1.00  0.00     0.223 A 
ENDROOT
BRANCH   1  11
ATOM     11  C   UNL     1      13.213  21.449   2.305  1.00  0.00     0.091 A 
ATOM     12  C   UNL     1      13.521  22.539   3.132  1.00  0.00     0.068 A 
ATOM     13  C   UNL     1      13.454  22.428   4.526  1.00  0.00     0.162 A 
ATOM     14  C   UNL     1      12.869  20.222   2.894  1.00  0.00     0.068 A 
ATOM     15  C   UNL     1      13.083  21.194   5.111  1.00  0.00     0.200 A 
ATOM     16  C   UNL     1      12.799  20.097   4.287  1.00  0.00     0.162 A 
BRANCH  13  17
ATOM     17  O   UNL     1      13.762  23.560   5.283  1.00  0.00    -0.504 OA
ATOM     18  H   UNL     1      14.574  24.141   5.130  1.00  0.00     0.293 HD
ENDBRANCH  13  17
BRANCH  15  19
ATOM     19  O   UNL     1      12.992  21.018   6.494  1.00  0.00    -0.502 OA
ATOM     20  H   UNL     1      12.122  20.992   7.006  1.00  0.00     0.293 HD
ENDBRANCH  15  19
BRANCH  16  21
ATOM     21  O   UNL     1      12.449  18.876   4.863  1.00  0.00    -0.504 OA
ATOM     22  H   UNL     1      12.768  17.995   4.477  1.00  0.00     0.293 HD
ENDBRANCH  16  21
ENDBRANCH   1  11
BRANCH  10  23
ATOM     23  O   UNL     1      14.899  23.445   1.015  1.00  0.00    -0.500 OA
ATOM     24  H   UNL     1      15.769  23.142   1.436  1.00  0.00     0.294 HD
ENDBRANCH  10  23
BRANCH   5  25
ATOM     25  O   UNL     1      11.136  18.956  -4.077  1.00  0.00    -0.507 OA
ATOM     26  H   UNL     1      10.139  18.856  -3.924  1.00  0.00     0.293 HD
ENDBRANCH   5  25
BRANCH   7  27
ATOM     27  O   UNL     1      14.120  22.737  -4.113  1.00  0.00    -0.507 OA
ATOM     28  H   UNL     1      14.427  23.634  -3.766  1.00  0.00     0.293 HD
ENDBRANCH   7  27
TORSDOF 7
ENDMDL
MODEL 3
REMARK VINA RESULT:    10.801      1.293      2.650
REMARK INTER + INTRA:          13.592
REMARK INTER:                  13.169
REMARK INTRA:                   0.423
REMARK UNBOUND:                 0.265
REMARK SMILES Oc1cc(O)c2cc(O)c(-c3cc(O)c(O)c(O)c3)[o+]c2c1.[Cl-]
REMARK SMILES IDX 10 1 20 2 21 3 22 4 2 5 3 6 4 7 6 8 7 9 8 10 11 11 12 12
REMARK SMILES IDX 13 13 19 14 15 15 17 16 14 17 16 19 18 21 9 23 1 25 5 27
REMARK H PARENT 14 18 16 20 18 22 9 24 1 26 5 28
REMARK Flexibility Score: inf
ROOT
ATOM      1  C   UNL     1      13.261  21.426   0.986  1.00  0.00     0.402 A 
ATOM      2  O   UNL     1      13.383  22.619   0.411  1.00  0.00    -0.202 OA
ATOM      3  C   UNL     1      13.448  22.793  -0.906  1.00  0.00     0.368 A 
ATOM      4  C   UNL     1      13.581  24.086  -1.415  1.00  0.00     0.162 A 
ATOM      5  C   UNL     1      13.654  24.299  -2.792  1.00  0.00     0.128 A 
ATOM      6  C   UNL     1      13.599  23.209  -3.668  1.00  0.00     0.093 A 
ATOM      7  C   UNL     1      13.467  21.902  -3.183  1.00  0.00     0.136 A 
ATOM      8  C   UNL     1      13.388  21.683  -1.783  1.00  0.00     0.125 A 
ATOM      9  C   UNL     1      13.243  20.410  -1.207  1.00  0.00     0.078 A 
ATOM     10  C   UNL     1      13.168  20.273   0.182  1.00  0.00     0.223 A 
ENDROOT
BRANCH   1  11
ATOM     11  C   UNL     1      13.208  21.362   2.464  1.00  0.00     0.091 A 
ATOM     12  C   UNL     1      12.786  20.180   3.089  1.00  0.00     0.068 A 
ATOM     13  C   UNL     1      12.704  20.090   4.483  1.00  0.00     0.162 A 
ATOM     14  C   UNL     1      13.517  22.479   3.256  1.00  0.00     0.068 A 
ATOM     15  C   UNL     1      13.039  21.214   5.276  1.00  0.00     0.200 A 
ATOM     16  C   UNL     1      13.438  22.404   4.652  1.00  0.00     0.162 A 
BRANCH  13  17
ATOM     17  O   UNL     1      12.288  18.877   5.034  1.00  0.00    -0.504 OA
ATOM     18  H   UNL     1      11.397  18.442   4.840  1.00  0.00     0.293 HD
ENDBRANCH  13  17
BRANCH  15  19
ATOM     19  O   UNL     1      12.984  21.191   6.671  1.00  0.00    -0.502 OA
ATOM     20  H   UNL     1      12.474  21.858   7.230  1.00  0.00     0.293 HD
ENDBRANCH  15  19
BRANCH  16  21
ATOM     21  O   UNL     1      13.754  23.517   5.431  1.00  0.00    -0.504 OA
ATOM     22  H   UNL     1      14.449  23.471   6.166  1.00  0.00     0.293 HD
ENDBRANCH  16  21
ENDBRANCH   1  11
BRANCH  10  23
ATOM     23  O   UNL     1      12.973  19.015   0.753  1.00  0.00    -0.500 OA
ATOM     24  H   UNL     1      13.750  18.399   0.958  1.00  0.00     0.294 HD
ENDBRANCH  10  23
BRANCH   5  25
ATOM     25  O   UNL     1      13.785  25.596  -3.281  1.00  0.00    -0.507 OA
ATOM     26  H   UNL     1      13.020  26.260  -3.236  1.00  0.00     0.293 HD
ENDBRANCH   5  25
BRANCH   7  27
ATOM     27  O   UNL     1      13.421  20.867  -4.122  1.00  0.00    -0.507 OA
ATOM     28  H   UNL     1      13.126  20.982  -5.081  1.00  0.00     0.293 HD
ENDBRANCH   7  27
TORSDOF 7
ENDMDL
MODEL 4
REMARK VINA RESULT:    11.013      1.301      3.220
REMARK INTER + INTRA:          13.854
REMARK INTER:                  13.478
REMARK INTRA:                   0.377
REMARK UNBOUND:                 0.265
REMARK SMILES Oc1cc(O)c2cc(O)c(-c3cc(O)c(O)c(O)c3)[o+]c2c1.[Cl-]
REMARK SMILES IDX 10 1 20 2 21 3 22 4 2 5 3 6 4 7 6 8 7 9 8 10 11 11 12 12
REMARK SMILES IDX 13 13 19 14 15 15 17 16 14 17 16 19 18 21 9 23 1 25 5 27
REMARK H PARENT 14 18 16 20 18 22 9 24 1 26 5 28
REMARK Flexibility Score: inf
ROOT
ATOM      1  C   UNL     1      13.272  21.401   0.992  1.00  0.00     0.402 A 
ATOM      2  O   UNL     1      13.417  22.600   0.436  1.00  0.00    -0.202 OA
ATOM      3  C   UNL     1      13.497  22.791  -0.878  1.00  0.00     0.368 A 
ATOM      4  C   UNL     1      13.654  24.089  -1.369  1.00  0.00     0.162 A 
ATOM      5  C   UNL     1      13.743  24.320  -2.741  1.00  0.00     0.128 A 
ATOM      6  C   UNL     1      13.678  23.243  -3.633  1.00  0.00     0.093 A 
ATOM      7  C   UNL     1      13.521  21.932  -3.167  1.00  0.00     0.136 A 
ATOM      8  C   UNL     1      13.426  21.695  -1.772  1.00  0.00     0.125 A 
ATOM      9  C   UNL     1      13.256  20.417  -1.215  1.00  0.00     0.078 A 
ATOM     10  C   UNL     1      13.166  20.262   0.171  1.00  0.00     0.223 A 
ENDROOT
BRANCH   1  11
ATOM     11  C   UNL     1      13.205  21.317   2.468  1.00  0.00     0.091 A 
ATOM     12  C   UNL     1      13.562  22.433   3.240  1.00  0.00     0.068 A 
ATOM     13  C   UNL     1      13.531  22.382   4.638  1.00  0.00     0.162 A 
ATOM     14  C   UNL     1      12.847  20.126   3.118  1.00  0.00     0.068 A 
ATOM     15  C   UNL     1      13.146  21.184   5.286  1.00  0.00     0.200 A 
ATOM     16  C   UNL     1      12.812  20.061   4.516  1.00  0.00     0.162 A 
BRANCH  13  17
ATOM     17  O   UNL     1      13.888  23.536   5.339  1.00  0.00    -0.504 OA
ATOM     18  H   UNL     1      13.873  23.616   6.345  1.00  0.00     0.293 HD
ENDBRANCH  13  17
BRANCH  15  19
ATOM     19  O   UNL     1      13.088  21.068   6.677  1.00  0.00    -0.502 OA
ATOM     20  H   UNL     1      12.565  20.358   7.165  1.00  0.00     0.293 HD
ENDBRANCH  15  19
BRANCH  16  21
ATOM     21  O   UNL     1      12.447  18.875   5.153  1.00  0.00    -0.504 OA
ATOM     22  H   UNL     1      12.131  18.864   6.115  1.00  0.00     0.293 HD
ENDBRANCH  16  21
ENDBRANCH   1  11
BRANCH  10  23
ATOM     23  O   UNL     1      12.947  18.999   0.723  1.00  0.00    -0.500 OA
ATOM     24  H   UNL     1      13.687  18.311   0.787  1.00  0.00     0.294 HD
ENDBRANCH  10  23
BRANCH   5  25
ATOM     25  O   UNL     1      13.899  25.622  -3.211  1.00  0.00    -0.507 OA
ATOM     26  H   UNL     1      14.254  25.812  -4.141  1.00  0.00     0.293 HD
ENDBRANCH   5  25
BRANCH   7  27
ATOM     27  O   UNL     1      13.466  20.912  -4.122  1.00  0.00    -0.507 OA
ATOM     28  H   UNL     1      12.842  20.907  -4.915  1.00  0.00     0.293 HD
ENDBRANCH   7  27
TORSDOF 7
ENDMDL
