MODEL 1
REMARK VINA RESULT:    38.787      0.000      0.000
REMARK INTER + INTRA:          47.038
REMARK INTER:                  46.723
REMARK INTRA:                   0.315
REMARK UNBOUND:                 0.315
REMARK SMILES O=c1c(O)c(-c2ccc(O)c(O)c2)oc2cc(O)cc(O)c12
REMARK SMILES IDX 5 1 3 2 2 3 1 4 22 5 20 6 19 7 17 8 16 9 15 10 14 11 6 12
REMARK SMILES IDX 7 13 8 14 9 15 13 16 11 17 10 18 12 20 4 22 21 24 18 26
REMARK H PARENT 10 19 12 21 4 23 21 25 18 27
REMARK Flexibility Score: inf
ROOT
ATOM      1  C   UNL     1      12.107  12.552   4.450  1.00  0.00     0.180 A 
ATOM      2  C   UNL     1      11.932  11.297   3.835  1.00  0.00     0.208 A 
ATOM      3  C   UNL     1      11.414  11.246   2.531  1.00  0.00     0.238 A 
ATOM      4  O   UNL     1      11.242  10.128   1.975  1.00  0.00    -0.285 OA
ATOM      5  C   UNL     1      11.101  12.445   1.859  1.00  0.00     0.111 A 
ATOM      6  C   UNL     1      10.579  12.482   0.543  1.00  0.00     0.134 A 
ATOM      7  C   UNL     1      10.301  13.717  -0.061  1.00  0.00     0.093 A 
ATOM      8  C   UNL     1      10.535  14.913   0.622  1.00  0.00     0.123 A 
ATOM      9  C   UNL     1      11.049  14.883   1.922  1.00  0.00     0.094 A 
ATOM     10  C   UNL     1      11.331  13.662   2.543  1.00  0.00     0.146 A 
ATOM     11  O   UNL     1      11.814  13.662   3.780  1.00  0.00    -0.452 OA
ENDROOT
BRANCH   1  12
ATOM     12  C   UNL     1      12.629  12.685   5.829  1.00  0.00     0.025 A 
ATOM     13  C   UNL     1      12.266  13.766   6.647  1.00  0.00     0.016 A 
ATOM     14  C   UNL     1      12.791  13.883   7.936  1.00  0.00     0.051 A 
ATOM     15  C   UNL     1      13.695  12.935   8.428  1.00  0.00     0.157 A 
ATOM     16  C   UNL     1      13.553  11.745   6.312  1.00  0.00     0.062 A 
ATOM     17  C   UNL     1      14.085  11.854   7.603  1.00  0.00     0.158 A 
BRANCH  15  18
ATOM     18  O   UNL     1      14.180  13.107   9.726  1.00  0.00    -0.504 OA
ATOM     19  H   UNL     1      14.263  12.362  10.401  1.00  0.00     0.293 HD
ENDBRANCH  15  18
BRANCH  17  20
ATOM     20  O   UNL     1      14.989  10.875   8.020  1.00  0.00    -0.504 OA
ATOM     21  H   UNL     1      15.541  10.310   7.390  1.00  0.00     0.293 HD
ENDBRANCH  17  20
ENDBRANCH   1  12
BRANCH   2  22
ATOM     22  O   UNL     1      12.296  10.126   4.505  1.00  0.00    -0.502 OA
ATOM     23  H   UNL     1      11.687   9.317   4.554  1.00  0.00     0.293 HD
ENDBRANCH   2  22
BRANCH   6  24
ATOM     24  O   UNL     1      10.336  11.305  -0.166  1.00  0.00    -0.507 OA
ATOM     25  H   UNL     1      10.124  11.314  -1.157  1.00  0.00     0.293 HD
ENDBRANCH   6  24
BRANCH   8  26
ATOM     26  O   UNL     1      10.251  16.126  -0.001  1.00  0.00    -0.508 OA
ATOM     27  H   UNL     1       9.624  16.179  -0.796  1.00  0.00     0.293 HD
ENDBRANCH   8  26
TORSDOF 6
ENDMDL
MODEL 2
REMARK VINA RESULT:    39.780      1.430      7.283
REMARK INTER + INTRA:          48.234
REMARK INTER:                  48.091
REMARK INTRA:                   0.143
REMARK UNBOUND:                 0.315
REMARK SMILES O=c1c(O)c(-c2ccc(O)c(O)c2)oc2cc(O)cc(O)c12
REMARK SMILES IDX 5 1 3 2 2 3 1 4 22 5 20 6 19 7 17 8 16 9 15 10 14 11 6 12
REMARK SMILES IDX 7 13 8 14 9 15 13 16 11 17 10 18 12 20 4 22 21 24 18 26
REMARK H PARENT 10 19 12 21 4 23 21 25 18 27
REMARK Flexibility Score: inf
ROOT
ATOM      1  C   UNL     1      11.819  12.929   4.528  1.00  0.00     0.180 A 
ATOM      2  C   UNL     1      11.210  13.805   5.448  1.00  0.00     0.208 A 
ATOM      3  C   UNL     1      11.720  13.879   6.754  1.00  0.00     0.238 A 
ATOM      4  O   UNL     1      11.177  14.651   7.589  1.00  0.00    -0.285 OA
ATOM      5  C   UNL     1      12.836  13.095   7.112  1.00  0.00     0.111 A 
ATOM      6  C   UNL     1      13.413  13.113   8.405  1.00  0.00     0.134 A 
ATOM      7  C   UNL     1      14.529  12.310   8.680  1.00  0.00     0.093 A 
ATOM      8  C   UNL     1      15.079  11.492   7.690  1.00  0.00     0.123 A 
ATOM      9  C   UNL     1      14.514  11.468   6.412  1.00  0.00     0.094 A 
ATOM     10  C   UNL     1      13.400  12.261   6.118  1.00  0.00     0.146 A 
ATOM     11  O   UNL     1      12.878  12.216   4.897  1.00  0.00    -0.452 OA
ENDROOT
BRANCH   1  12
ATOM     12  C   UNL     1      11.327  12.782   3.139  1.00  0.00     0.025 A 
ATOM     13  C   UNL     1      11.255  11.526   2.518  1.00  0.00     0.016 A 
ATOM     14  C   UNL     1      10.810  11.416   1.199  1.00  0.00     0.051 A 
ATOM     15  C   UNL     1      10.443  12.553   0.471  1.00  0.00     0.157 A 
ATOM     16  C   UNL     1      10.981  13.926   2.404  1.00  0.00     0.062 A 
ATOM     17  C   UNL     1      10.534  13.827   1.081  1.00  0.00     0.158 A 
BRANCH  15  18
ATOM     18  O   UNL     1      10.004  12.374  -0.842  1.00  0.00    -0.504 OA
ATOM     19  H   UNL     1      10.036  11.493  -1.334  1.00  0.00     0.293 HD
ENDBRANCH  15  18
BRANCH  17  20
ATOM     20  O   UNL     1      10.195  15.007   0.416  1.00  0.00    -0.504 OA
ATOM     21  H   UNL     1      10.316  15.930   0.806  1.00  0.00     0.293 HD
ENDBRANCH  17  20
ENDBRANCH   1  12
BRANCH   2  22
ATOM     22  O   UNL     1      10.137  14.608   5.054  1.00  0.00    -0.502 OA
ATOM     23  H   UNL     1       9.876  14.727   4.082  1.00  0.00     0.293 HD
ENDBRANCH   2  22
BRANCH   6  24
ATOM     24  O   UNL     1      12.887  13.921   9.414  1.00  0.00    -0.507 OA
ATOM     25  H   UNL     1      12.673  13.553  10.334  1.00  0.00     0.293 HD
ENDBRANCH   6  24
BRANCH   8  26
ATOM     26  O   UNL     1      16.189  10.704   7.990  1.00  0.00    -0.508 OA
ATOM     27  H   UNL     1      16.206  10.103   8.806  1.00  0.00     0.293 HD
ENDBRANCH   8  26
TORSDOF 6
ENDMDL
MODEL 3
REMARK VINA RESULT:    40.576      2.914      4.348
REMARK INTER + INTRA:          49.193
REMARK INTER:                  49.525
REMARK INTRA:                  -0.332
REMARK UNBOUND:                 0.315
REMARK SMILES O=c1c(O)c(-c2ccc(O)c(O)c2)oc2cc(O)cc(O)c12
REMARK SMILES IDX 5 1 3 2 2 3 1 4 22 5 20 6 19 7 17 8 16 9 15 10 14 11 6 12
REMARK SMILES IDX 7 13 8 14 9 15 13 16 11 17 10 18 12 20 4 22 21 24 18 26
REMARK H PARENT 10 19 12 21 4 23 21 25 18 27
REMARK Flexibility Score: inf
ROOT
ATOM      1  C   UNL     1      10.434  12.945   4.284  1.00  0.00     0.180 A 
ATOM      2  C   UNL     1      10.203  13.938   3.313  1.00  0.00     0.208 A 
ATOM      3  C   UNL     1      10.743  13.768   2.028  1.00  0.00     0.238 A 
ATOM      4  O   UNL     1      10.553  14.656   1.153  1.00  0.00    -0.285 OA
ATOM      5  C   UNL     1      11.484  12.606   1.731  1.00  0.00     0.111 A 
ATOM      6  C   UNL     1      12.059  12.357   0.462  1.00  0.00     0.134 A 
ATOM      7  C   UNL     1      12.775  11.171   0.242  1.00  0.00     0.093 A 
ATOM      8  C   UNL     1      12.927  10.231   1.264  1.00  0.00     0.123 A 
ATOM      9  C   UNL     1      12.362  10.472   2.521  1.00  0.00     0.094 A 
ATOM     10  C   UNL     1      11.646  11.649   2.760  1.00  0.00     0.146 A 
ATOM     11  O   UNL     1      11.125  11.855   3.964  1.00  0.00    -0.452 OA
ENDROOT
BRANCH   1  12
ATOM     12  C   UNL     1       9.914  13.060   5.666  1.00  0.00     0.025 A 
ATOM     13  C   UNL     1      10.651  13.700   6.674  1.00  0.00     0.016 A 
ATOM     14  C   UNL     1      10.150  13.775   7.975  1.00  0.00     0.051 A 
ATOM     15  C   UNL     1       8.913  13.205   8.299  1.00  0.00     0.157 A 
ATOM     16  C   UNL     1       8.684  12.469   5.992  1.00  0.00     0.062 A 
ATOM     17  C   UNL     1       8.172  12.539   7.294  1.00  0.00     0.158 A 
BRANCH  15  18
ATOM     18  O   UNL     1       8.467  13.319   9.616  1.00  0.00    -0.504 OA
ATOM     19  H   UNL     1       7.935  12.607  10.096  1.00  0.00     0.293 HD
ENDBRANCH  15  18
BRANCH  17  20
ATOM     20  O   UNL     1       6.936  11.937   7.543  1.00  0.00    -0.504 OA
ATOM     21  H   UNL     1       6.556  11.789   8.467  1.00  0.00     0.293 HD
ENDBRANCH  17  20
ENDBRANCH   1  12
BRANCH   2  22
ATOM     22  O   UNL     1       9.424  15.056   3.618  1.00  0.00    -0.502 OA
ATOM     23  H   UNL     1       9.832  15.955   3.850  1.00  0.00     0.293 HD
ENDBRANCH   2  22
BRANCH   6  24
ATOM     24  O   UNL     1      11.923  13.276  -0.580  1.00  0.00    -0.507 OA
ATOM     25  H   UNL     1      11.555  14.207  -0.425  1.00  0.00     0.293 HD
ENDBRANCH   6  24
BRANCH   8  26
ATOM     26  O   UNL     1      13.642   9.061   1.020  1.00  0.00    -0.508 OA
ATOM     27  H   UNL     1      14.629   9.082   0.787  1.00  0.00     0.293 HD
ENDBRANCH   8  26
TORSDOF 6
ENDMDL
MODEL 4
REMARK VINA RESULT:    40.802      1.616      2.399
REMARK INTER + INTRA:          49.465
REMARK INTER:                  49.318
REMARK INTRA:                   0.147
REMARK UNBOUND:                 0.315
REMARK SMILES O=c1c(O)c(-c2ccc(O)c(O)c2)oc2cc(O)cc(O)c12
REMARK SMILES IDX 5 1 3 2 2 3 1 4 22 5 20 6 19 7 17 8 16 9 15 10 14 11 6 12
REMARK SMILES IDX 7 13 8 14 9 15 13 16 11 17 10 18 12 20 4 22 21 24 18 26
REMARK H PARENT 10 19 12 21 4 23 21 25 18 27
REMARK Flexibility Score: inf
ROOT
ATOM      1  C   UNL     1      12.111  13.253   4.604  1.00  0.00     0.180 A 
ATOM      2  C   UNL     1      10.797  13.716   4.402  1.00  0.00     0.208 A 
ATOM      3  C   UNL     1      10.323  13.862   3.088  1.00  0.00     0.238 A 
ATOM      4  O   UNL     1       9.152  14.287   2.894  1.00  0.00    -0.285 OA
ATOM      5  C   UNL     1      11.160  13.525   2.004  1.00  0.00     0.111 A 
ATOM      6  C   UNL     1      10.759  13.640   0.651  1.00  0.00     0.134 A 
ATOM      7  C   UNL     1      11.647  13.275  -0.371  1.00  0.00     0.093 A 
ATOM      8  C   UNL     1      12.925  12.799  -0.068  1.00  0.00     0.123 A 
ATOM      9  C   UNL     1      13.328  12.684   1.266  1.00  0.00     0.094 A 
ATOM     10  C   UNL     1      12.457  13.044   2.300  1.00  0.00     0.146 A 
ATOM     11  O   UNL     1      12.866  12.931   3.558  1.00  0.00    -0.452 OA
ENDROOT
BRANCH   1  12
ATOM     12  C   UNL     1      12.688  13.091   5.958  1.00  0.00     0.025 A 
ATOM     13  C   UNL     1      12.403  14.000   6.988  1.00  0.00     0.016 A 
ATOM     14  C   UNL     1      12.979  13.840   8.250  1.00  0.00     0.051 A 
ATOM     15  C   UNL     1      13.857  12.781   8.506  1.00  0.00     0.157 A 
ATOM     16  C   UNL     1      13.586  12.041   6.205  1.00  0.00     0.062 A 
ATOM     17  C   UNL     1      14.168  11.871   7.467  1.00  0.00     0.158 A 
BRANCH  15  18
ATOM     18  O   UNL     1      14.395  12.674   9.789  1.00  0.00    -0.504 OA
ATOM     19  H   UNL     1      15.025  13.350  10.196  1.00  0.00     0.293 HD
ENDBRANCH  15  18
BRANCH  17  20
ATOM     20  O   UNL     1      15.043  10.796   7.643  1.00  0.00    -0.504 OA
ATOM     21  H   UNL     1      15.116  10.017   7.005  1.00  0.00     0.293 HD
ENDBRANCH  17  20
ENDBRANCH   1  12
BRANCH   2  22
ATOM     22  O   UNL     1       9.971  13.996   5.494  1.00  0.00    -0.502 OA
ATOM     23  H   UNL     1       8.997  14.253   5.386  1.00  0.00     0.293 HD
ENDBRANCH   2  22
BRANCH   6  24
ATOM     24  O   UNL     1       9.489  14.110   0.317  1.00  0.00    -0.507 OA
ATOM     25  H   UNL     1       9.175  15.036   0.587  1.00  0.00     0.293 HD
ENDBRANCH   6  24
BRANCH   8  26
ATOM     26  O   UNL     1      13.787  12.443  -1.103  1.00  0.00    -0.508 OA
ATOM     27  H   UNL     1      13.767  11.516  -1.514  1.00  0.00     0.293 HD
ENDBRANCH   8  26
TORSDOF 6
ENDMDL
MODEL 5
REMARK VINA RESULT:    41.559      1.856      3.330
REMARK INTER + INTRA:          50.377
REMARK INTER:                  50.332
REMARK INTRA:                   0.046
REMARK UNBOUND:                 0.315
REMARK SMILES O=c1c(O)c(-c2ccc(O)c(O)c2)oc2cc(O)cc(O)c12
REMARK SMILES IDX 5 1 3 2 2 3 1 4 22 5 20 6 19 7 17 8 16 9 15 10 14 11 6 12
REMARK SMILES IDX 7 13 8 14 9 15 13 16 11 17 10 18 12 20 4 22 21 24 18 26
REMARK H PARENT 10 19 12 21 4 23 21 25 18 27
REMARK Flexibility Score: inf
ROOT
ATOM      1  C   UNL     1      12.883  12.776   5.845  1.00  0.00     0.180 A 
ATOM      2  C   UNL     1      11.979  13.777   6.249  1.00  0.00     0.208 A 
ATOM      3  C   UNL     1      11.031  14.247   5.327  1.00  0.00     0.238 A 
ATOM      4  O   UNL     1      10.223  15.152   5.673  1.00  0.00    -0.285 OA
ATOM      5  C   UNL     1      10.988  13.698   4.029  1.00  0.00     0.111 A 
ATOM      6  C   UNL     1      10.062  14.112   3.042  1.00  0.00     0.134 A 
ATOM      7  C   UNL     1      10.078  13.509   1.776  1.00  0.00     0.093 A 
ATOM      8  C   UNL     1      10.998  12.502   1.478  1.00  0.00     0.123 A 
ATOM      9  C   UNL     1      11.916  12.088   2.448  1.00  0.00     0.094 A 
ATOM     10  C   UNL     1      11.918  12.678   3.716  1.00  0.00     0.146 A 
ATOM     11  O   UNL     1      12.804  12.271   4.618  1.00  0.00    -0.452 OA
ENDROOT
BRANCH   1  12
ATOM     12  C   UNL     1      13.924  12.243   6.754  1.00  0.00     0.025 A 
ATOM     13  C   UNL     1      13.619  11.856   8.068  1.00  0.00     0.016 A 
ATOM     14  C   UNL     1      14.623  11.379   8.914  1.00  0.00     0.051 A 
ATOM     15  C   UNL     1      15.947  11.291   8.472  1.00  0.00     0.157 A 
ATOM     16  C   UNL     1      15.255  12.176   6.315  1.00  0.00     0.062 A 
ATOM     17  C   UNL     1      16.269  11.699   7.156  1.00  0.00     0.158 A 
BRANCH  15  18
ATOM     18  O   UNL     1      16.902  10.802   9.365  1.00  0.00    -0.504 OA
ATOM     19  H   UNL     1      17.870  10.643   9.127  1.00  0.00     0.293 HD
ENDBRANCH  15  18
BRANCH  17  20
ATOM     20  O   UNL     1      17.569  11.650   6.648  1.00  0.00    -0.504 OA
ATOM     21  H   UNL     1      17.828  11.154   5.807  1.00  0.00     0.293 HD
ENDBRANCH  17  20
ENDBRANCH   1  12
BRANCH   2  22
ATOM     22  O   UNL     1      12.010  14.271   7.556  1.00  0.00    -0.502 OA
ATOM     23  H   UNL     1      11.283  14.872   7.926  1.00  0.00     0.293 HD
ENDBRANCH   2  22
BRANCH   6  24
ATOM     24  O   UNL     1       9.129  15.115   3.309  1.00  0.00    -0.507 OA
ATOM     25  H   UNL     1       9.026  15.922   2.705  1.00  0.00     0.293 HD
ENDBRANCH   6  24
BRANCH   8  26
ATOM     26  O   UNL     1      10.992  11.919   0.213  1.00  0.00    -0.508 OA
ATOM     27  H   UNL     1      10.125  11.702  -0.266  1.00  0.00     0.293 HD
ENDBRANCH   8  26
TORSDOF 6
ENDMDL
