MODEL 1
REMARK VINA RESULT:   117.226      0.000      0.000
REMARK INTER + INTRA:         120.652
REMARK INTER:                 120.652
REMARK INTRA:                   0.000
REMARK UNBOUND:                 0.000
REMARK SMILES CC1(C)CC[C@@]2(C)CC[C@@]3(C)C(=CC[C@@H]4[C@@]5(C)CC[C@@H](O)C(C)(C)[C@H]5CC[C@@]43C)[C@@H]2C1
REMARK SMILES IDX 1 1 2 2 4 3 5 4 6 5 8 6 9 7 10 8 12 9 13 10 14 11 15 12
REMARK SMILES IDX 28 13 27 14 26 15 25 16 16 17 18 18 19 19 20 20 22 21 23 22
REMARK SMILES IDX 24 23 17 24 29 25 30 26 31 27 11 28 7 29 3 30 21 31
REMARK H PARENT 21 32
REMARK Flexibility Score: inf
ROOT
ATOM      1  C   UNL     1     -27.052  23.014   4.553  1.00  0.00     0.011 C 
ATOM      2  C   UNL     1     -28.054  24.186   4.644  1.00  0.00    -0.035 C 
ATOM      3  C   UNL     1     -27.704  25.073   5.884  1.00  0.00     0.007 C 
ATOM      4  C   UNL     1     -28.246  24.510   7.210  1.00  0.00     0.008 C 
ATOM      5  C   UNL     1     -29.785  24.191   7.196  1.00  0.00    -0.026 C 
ATOM      6  C   UNL     1     -30.547  25.178   8.125  1.00  0.00     0.008 C 
ATOM      7  C   UNL     1     -32.095  25.037   8.066  1.00  0.00     0.012 C 
ATOM      8  C   UNL     1     -32.735  25.047   6.622  1.00  0.00    -0.006 C 
ATOM      9  C   UNL     1     -31.877  24.081   5.788  1.00  0.00    -0.064 C 
ATOM     10  C   UNL     1     -32.322  22.873   5.422  1.00  0.00    -0.027 C 
ATOM     11  C   UNL     1     -33.691  22.363   5.678  1.00  0.00     0.032 C 
ATOM     12  C   UNL     1     -34.515  23.087   6.795  1.00  0.00     0.006 C 
ATOM     13  C   UNL     1     -34.314  24.653   6.661  1.00  0.00    -0.020 C 
ATOM     14  C   UNL     1     -35.043  25.068   5.350  1.00  0.00     0.008 C 
ATOM     15  C   UNL     1     -36.519  24.636   5.279  1.00  0.00     0.005 C 
ATOM     16  C   UNL     1     -36.818  23.122   5.515  1.00  0.00     0.003 C 
ATOM     17  C   UNL     1     -36.034  22.537   6.767  1.00  0.00    -0.025 C 
ATOM     18  C   UNL     1     -36.806  22.839   8.093  1.00  0.00     0.010 C 
ATOM     19  C   UNL     1     -38.297  22.455   8.065  1.00  0.00     0.033 C 
ATOM     20  C   UNL     1     -39.047  23.111   6.898  1.00  0.00     0.120 C 
ATOM     21  C   UNL     1     -38.390  22.821   5.506  1.00  0.00    -0.006 C 
ATOM     22  C   UNL     1     -39.124  23.671   4.424  1.00  0.00     0.014 C 
ATOM     23  C   UNL     1     -38.676  21.345   5.094  1.00  0.00     0.014 C 
ATOM     24  C   UNL     1     -35.945  20.970   6.689  1.00  0.00     0.012 C 
ATOM     25  C   UNL     1     -34.954  25.439   7.857  1.00  0.00     0.012 C 
ATOM     26  C   UNL     1     -30.372  24.361   5.762  1.00  0.00     0.022 C 
ATOM     27  C   UNL     1     -29.517  23.618   4.712  1.00  0.00     0.015 C 
ATOM     28  C   UNL     1     -32.569  26.483   6.016  1.00  0.00     0.017 C 
ATOM     29  C   UNL     1     -29.975  22.746   7.742  1.00  0.00     0.012 C 
ATOM     30  C   UNL     1     -27.899  25.051   3.375  1.00  0.00     0.011 C 
ENDROOT
BRANCH  20  31
ATOM     31  O   UNL     1     -39.125  24.494   7.147  1.00  0.00    -0.393 OA
ATOM     32  H   UNL     1     -39.743  24.627   7.914  1.00  0.00     0.210 HD
ENDBRANCH  20  31
TORSDOF 1
ENDMDL
MODEL 2
REMARK VINA RESULT:   117.659     11.328     15.256
REMARK INTER + INTRA:         121.098
REMARK INTER:                 121.098
REMARK INTRA:                   0.000
REMARK UNBOUND:                 0.000
REMARK SMILES CC1(C)CC[C@@]2(C)CC[C@@]3(C)C(=CC[C@@H]4[C@@]5(C)CC[C@@H](O)C(C)(C)[C@H]5CC[C@@]43C)[C@@H]2C1
REMARK SMILES IDX 1 1 2 2 4 3 5 4 6 5 8 6 9 7 10 8 12 9 13 10 14 11 15 12
REMARK SMILES IDX 28 13 27 14 26 15 25 16 16 17 18 18 19 19 20 20 22 21 23 22
REMARK SMILES IDX 24 23 17 24 29 25 30 26 31 27 11 28 7 29 3 30 21 31
REMARK H PARENT 21 32
REMARK Flexibility Score: inf
ROOT
ATOM      1  C   UNL     1     -25.011  33.159 -10.534  1.00  0.00     0.011 C 
ATOM      2  C   UNL     1     -24.603  32.365  -9.272  1.00  0.00    -0.035 C 
ATOM      3  C   UNL     1     -24.594  30.836  -9.601  1.00  0.00     0.007 C 
ATOM      4  C   UNL     1     -25.991  30.193  -9.551  1.00  0.00     0.008 C 
ATOM      5  C   UNL     1     -26.773  30.449  -8.211  1.00  0.00    -0.026 C 
ATOM      6  C   UNL     1     -26.913  29.124  -7.410  1.00  0.00     0.008 C 
ATOM      7  C   UNL     1     -27.546  29.301  -5.999  1.00  0.00     0.012 C 
ATOM      8  C   UNL     1     -26.902  30.421  -5.090  1.00  0.00    -0.006 C 
ATOM      9  C   UNL     1     -26.768  31.657  -5.995  1.00  0.00    -0.064 C 
ATOM     10  C   UNL     1     -27.567  32.723  -5.861  1.00  0.00    -0.027 C 
ATOM     11  C   UNL     1     -28.584  32.890  -4.795  1.00  0.00     0.032 C 
ATOM     12  C   UNL     1     -29.047  31.590  -4.054  1.00  0.00     0.006 C 
ATOM     13  C   UNL     1     -27.783  30.685  -3.747  1.00  0.00    -0.020 C 
ATOM     14  C   UNL     1     -26.966  31.445  -2.662  1.00  0.00     0.008 C 
ATOM     15  C   UNL     1     -27.770  31.816  -1.403  1.00  0.00     0.005 C 
ATOM     16  C   UNL     1     -29.094  32.612  -1.626  1.00  0.00     0.003 C 
ATOM     17  C   UNL     1     -29.976  32.004  -2.800  1.00  0.00    -0.025 C 
ATOM     18  C   UNL     1     -30.846  30.813  -2.277  1.00  0.00     0.010 C 
ATOM     19  C   UNL     1     -31.647  31.121  -1.000  1.00  0.00     0.033 C 
ATOM     20  C   UNL     1     -30.753  31.617   0.145  1.00  0.00     0.120 C 
ATOM     21  C   UNL     1     -29.878  32.853  -0.252  1.00  0.00    -0.006 C 
ATOM     22  C   UNL     1     -28.893  33.160   0.917  1.00  0.00     0.014 C 
ATOM     23  C   UNL     1     -30.780  34.122  -0.336  1.00  0.00     0.014 C 
ATOM     24  C   UNL     1     -31.006  33.064  -3.332  1.00  0.00     0.012 C 
ATOM     25  C   UNL     1     -28.182  29.281  -3.175  1.00  0.00     0.012 C 
ATOM     26  C   UNL     1     -26.003  31.457  -7.306  1.00  0.00     0.022 C 
ATOM     27  C   UNL     1     -25.582  32.715  -8.096  1.00  0.00     0.015 C 
ATOM     28  C   UNL     1     -25.458  29.963  -4.686  1.00  0.00     0.017 C 
ATOM     29  C   UNL     1     -28.195  30.960  -8.582  1.00  0.00     0.012 C 
ATOM     30  C   UNL     1     -23.168  32.782  -8.886  1.00  0.00     0.011 C 
ENDROOT
BRANCH  20  31
ATOM     31  O   UNL     1     -29.952  30.542   0.575  1.00  0.00    -0.393 OA
ATOM     32  H   UNL     1     -29.756  29.977  -0.218  1.00  0.00     0.210 HD
ENDBRANCH  20  31
TORSDOF 1
ENDMDL
MODEL 3
REMARK VINA RESULT:   119.921      1.544      2.254
REMARK INTER + INTRA:         123.426
REMARK INTER:                 123.426
REMARK INTRA:                   0.000
REMARK UNBOUND:                 0.000
REMARK SMILES CC1(C)CC[C@@]2(C)CC[C@@]3(C)C(=CC[C@@H]4[C@@]5(C)CC[C@@H](O)C(C)(C)[C@H]5CC[C@@]43C)[C@@H]2C1
REMARK SMILES IDX 1 1 2 2 4 3 5 4 6 5 8 6 9 7 10 8 12 9 13 10 14 11 15 12
REMARK SMILES IDX 28 13 27 14 26 15 25 16 16 17 18 18 19 19 20 20 22 21 23 22
REMARK SMILES IDX 24 23 17 24 29 25 30 26 31 27 11 28 7 29 3 30 21 31
REMARK H PARENT 21 32
REMARK Flexibility Score: inf
ROOT
ATOM      1  C   UNL     1     -27.505  27.021   3.380  1.00  0.00     0.011 C 
ATOM      2  C   UNL     1     -28.302  27.139   4.697  1.00  0.00    -0.035 C 
ATOM      3  C   UNL     1     -27.572  26.333   5.821  1.00  0.00     0.007 C 
ATOM      4  C   UNL     1     -27.868  24.824   5.780  1.00  0.00     0.008 C 
ATOM      5  C   UNL     1     -29.399  24.466   5.773  1.00  0.00    -0.026 C 
ATOM      6  C   UNL     1     -29.799  23.788   7.113  1.00  0.00     0.008 C 
ATOM      7  C   UNL     1     -31.326  23.527   7.261  1.00  0.00     0.012 C 
ATOM      8  C   UNL     1     -32.268  24.762   6.974  1.00  0.00    -0.006 C 
ATOM      9  C   UNL     1     -31.751  25.376   5.663  1.00  0.00    -0.064 C 
ATOM     10  C   UNL     1     -32.418  25.248   4.509  1.00  0.00    -0.027 C 
ATOM     11  C   UNL     1     -33.747  24.607   4.367  1.00  0.00     0.032 C 
ATOM     12  C   UNL     1     -34.199  23.658   5.528  1.00  0.00     0.006 C 
ATOM     13  C   UNL     1     -33.834  24.324   6.919  1.00  0.00    -0.020 C 
ATOM     14  C   UNL     1     -34.781  25.550   7.069  1.00  0.00     0.008 C 
ATOM     15  C   UNL     1     -36.278  25.219   6.926  1.00  0.00     0.005 C 
ATOM     16  C   UNL     1     -36.707  24.459   5.631  1.00  0.00     0.003 C 
ATOM     17  C   UNL     1     -35.742  23.243   5.295  1.00  0.00    -0.025 C 
ATOM     18  C   UNL     1     -36.151  21.971   6.110  1.00  0.00     0.010 C 
ATOM     19  C   UNL     1     -37.646  21.614   6.027  1.00  0.00     0.033 C 
ATOM     20  C   UNL     1     -38.550  22.781   6.448  1.00  0.00     0.120 C 
ATOM     21  C   UNL     1     -38.266  24.097   5.648  1.00  0.00    -0.006 C 
ATOM     22  C   UNL     1     -39.110  25.249   6.272  1.00  0.00     0.014 C 
ATOM     23  C   UNL     1     -38.824  23.954   4.199  1.00  0.00     0.014 C 
ATOM     24  C   UNL     1     -35.874  22.825   3.786  1.00  0.00     0.012 C 
ATOM     25  C   UNL     1     -34.083  23.354   8.125  1.00  0.00     0.012 C 
ATOM     26  C   UNL     1     -30.267  25.752   5.629  1.00  0.00     0.022 C 
ATOM     27  C   UNL     1     -29.772  26.638   4.465  1.00  0.00     0.015 C 
ATOM     28  C   UNL     1     -32.060  25.819   8.114  1.00  0.00     0.017 C 
ATOM     29  C   UNL     1     -29.644  23.458   4.612  1.00  0.00     0.012 C 
ATOM     30  C   UNL     1     -28.328  28.626   5.111  1.00  0.00     0.011 C 
ENDROOT
BRANCH  20  31
ATOM     31  O   UNL     1     -38.392  22.982   7.833  1.00  0.00    -0.393 OA
ATOM     32  H   UNL     1     -37.723  23.705   7.957  1.00  0.00     0.210 HD
ENDBRANCH  20  31
TORSDOF 1
ENDMDL
