MODEL 1
REMARK VINA RESULT:     6.434      0.000      0.000
REMARK INTER + INTRA:          13.900
REMARK INTER:                   9.442
REMARK INTRA:                   4.457
REMARK UNBOUND:                 4.457
REMARK SMILES O=c1c(O[C@@H]2O[C@@H](CO)[C@@H](O)[C@H](O)[C@H]2O)c(-c2ccc(O)c(O)c2)oc2cc(O)cc(O)c12
REMARK SMILES IDX 4 1 3 2 16 3 25 4 2 5 26 6 1 7 33 8 27 9 31 10 28 11 30 12
REMARK SMILES IDX 17 13 18 14 19 15 20 16 24 17 22 18 21 19 23 21 32 23 29 25
REMARK SMILES IDX 5 27 14 28 6 29 12 30 7 31 10 32 15 33 13 35 8 37 9 38 11 40
REMARK H PARENT 21 20 23 22 32 24 29 26 15 34 13 36 9 39 11 41
REMARK Flexibility Score: inf
ROOT
ATOM      1  O   UNL     1     -25.073 -10.037   6.263  1.00  0.00    -0.454 OA
ENDROOT
BRANCH   1   2
ATOM      2  C   UNL     1     -24.739 -10.798   7.406  1.00  0.00     0.214 A 
ATOM      3  C   UNL     1     -24.719 -10.145   8.655  1.00  0.00     0.180 A 
ATOM      4  O   UNL     1     -24.496 -10.831   9.771  1.00  0.00    -0.452 OA
ATOM      5  C   UNL     1     -24.457 -12.185   7.378  1.00  0.00     0.239 A 
ATOM      6  C   UNL     1     -24.250 -12.132   9.789  1.00  0.00     0.146 A 
ATOM      7  O   UNL     1     -24.423 -12.808   6.285  1.00  0.00    -0.285 OA
ATOM      8  C   UNL     1     -24.209 -12.873   8.586  1.00  0.00     0.111 A 
ATOM      9  C   UNL     1     -24.025 -12.763  11.016  1.00  0.00     0.094 A 
ATOM     10  C   UNL     1     -23.930 -14.261   8.644  1.00  0.00     0.134 A 
ATOM     11  C   UNL     1     -23.751 -14.134  11.066  1.00  0.00     0.123 A 
ATOM     12  C   UNL     1     -23.705 -14.876   9.884  1.00  0.00     0.093 A 
BRANCH   3  13
ATOM     13  C   UNL     1     -24.953  -8.695   8.771  1.00  0.00     0.025 A 
ATOM     14  C   UNL     1     -26.259  -8.184   8.831  1.00  0.00     0.016 A 
ATOM     15  C   UNL     1     -26.473  -6.806   8.919  1.00  0.00     0.051 A 
ATOM     16  C   UNL     1     -25.389  -5.922   8.930  1.00  0.00     0.157 A 
ATOM     17  C   UNL     1     -23.867  -7.808   8.756  1.00  0.00     0.062 A 
ATOM     18  C   UNL     1     -24.079  -6.424   8.844  1.00  0.00     0.158 A 
BRANCH  16  19
ATOM     19  O   UNL     1     -25.632  -4.553   9.022  1.00  0.00    -0.504 OA
ATOM     20  H   UNL     1     -25.484  -4.036   9.881  1.00  0.00     0.293 HD
ENDBRANCH  16  19
BRANCH  18  21
ATOM     21  O   UNL     1     -22.994  -5.549   8.844  1.00  0.00    -0.504 OA
ATOM     22  H   UNL     1     -22.959  -4.746   8.226  1.00  0.00     0.293 HD
ENDBRANCH  18  21
ENDBRANCH   3  13
BRANCH  10  23
ATOM     23  O   UNL     1     -23.878 -15.033   7.483  1.00  0.00    -0.507 OA
ATOM     24  H   UNL     1     -23.903 -16.046   7.514  1.00  0.00     0.293 HD
ENDBRANCH  10  23
BRANCH  11  25
ATOM     25  O   UNL     1     -23.526 -14.768  12.286  1.00  0.00    -0.508 OA
ATOM     26  H   UNL     1     -22.916 -15.574  12.359  1.00  0.00     0.293 HD
ENDBRANCH  11  25
ENDBRANCH   1   2
BRANCH   1  27
ATOM     27  C   UNL     1     -24.162  -9.412   5.351  1.00  0.00     0.339 C 
ATOM     28  C   UNL     1     -22.986  -8.745   6.107  1.00  0.00     0.214 C 
ATOM     29  O   UNL     1     -23.705 -10.326   4.365  1.00  0.00    -0.332 OA
ATOM     30  C   UNL     1     -21.905  -9.755   6.573  1.00  0.00     0.180 C 
ATOM     31  C   UNL     1     -22.974 -11.390   4.949  1.00  0.00     0.179 C 
ATOM     32  C   UNL     1     -21.643 -10.868   5.533  1.00  0.00     0.177 C 
BRANCH  28  33
ATOM     33  O   UNL     1     -22.403  -7.737   5.317  1.00  0.00    -0.384 OA
ATOM     34  H   UNL     1     -21.958  -7.092   5.926  1.00  0.00     0.211 HD
ENDBRANCH  28  33
BRANCH  30  35
ATOM     35  O   UNL     1     -22.228 -10.302   7.828  1.00  0.00    -0.387 OA
ATOM     36  H   UNL     1     -21.476 -10.878   8.111  1.00  0.00     0.211 HD
ENDBRANCH  30  35
BRANCH  31  37
ATOM     37  C   UNL     1     -22.742 -12.465   3.876  1.00  0.00     0.191 C 
BRANCH  37  38
ATOM     38  O   UNL     1     -23.777 -13.411   3.875  1.00  0.00    -0.394 OA
ATOM     39  H   UNL     1     -23.544 -14.088   3.187  1.00  0.00     0.210 HD
ENDBRANCH  37  38
ENDBRANCH  31  37
BRANCH  32  40
ATOM     40  O   UNL     1     -20.834 -10.372   4.495  1.00  0.00    -0.387 OA
ATOM     41  H   UNL     1     -21.393  -9.741   3.970  1.00  0.00     0.211 HD
ENDBRANCH  32  40
ENDBRANCH   1  27
TORSDOF 12
ENDMDL
MODEL 2
REMARK VINA RESULT:     6.694      1.928      6.719
REMARK INTER + INTRA:          14.282
REMARK INTER:                  12.692
REMARK INTRA:                   1.590
REMARK UNBOUND:                 4.457
REMARK SMILES O=c1c(O[C@@H]2O[C@@H](CO)[C@@H](O)[C@H](O)[C@H]2O)c(-c2ccc(O)c(O)c2)oc2cc(O)cc(O)c12
REMARK SMILES IDX 4 1 3 2 16 3 25 4 2 5 26 6 1 7 33 8 27 9 31 10 28 11 30 12
REMARK SMILES IDX 17 13 18 14 19 15 20 16 24 17 22 18 21 19 23 21 32 23 29 25
REMARK SMILES IDX 5 27 14 28 6 29 12 30 7 31 10 32 15 33 13 35 8 37 9 38 11 40
REMARK H PARENT 21 20 23 22 32 24 29 26 15 34 13 36 9 39 11 41
REMARK Flexibility Score: inf
ROOT
ATOM      1  O   UNL     1     -22.098 -11.475   8.200  1.00  0.00    -0.454 OA
ENDROOT
BRANCH   1   2
ATOM      2  C   UNL     1     -23.109 -10.491   8.140  1.00  0.00     0.214 A 
ATOM      3  C   UNL     1     -24.372 -10.865   7.638  1.00  0.00     0.180 A 
ATOM      4  O   UNL     1     -25.382 -10.003   7.640  1.00  0.00    -0.452 OA
ATOM      5  C   UNL     1     -22.943  -9.157   8.586  1.00  0.00     0.239 A 
ATOM      6  C   UNL     1     -25.272  -8.754   8.069  1.00  0.00     0.146 A 
ATOM      7  O   UNL     1     -21.825  -8.760   9.008  1.00  0.00    -0.285 OA
ATOM      8  C   UNL     1     -24.038  -8.267   8.556  1.00  0.00     0.111 A 
ATOM      9  C   UNL     1     -26.395  -7.921   8.027  1.00  0.00     0.094 A 
ATOM     10  C   UNL     1     -23.956  -6.922   8.995  1.00  0.00     0.134 A 
ATOM     11  C   UNL     1     -26.307  -6.595   8.463  1.00  0.00     0.123 A 
ATOM     12  C   UNL     1     -25.092  -6.101   8.943  1.00  0.00     0.093 A 
BRANCH   3  13
ATOM     13  C   UNL     1     -24.619 -12.218   7.108  1.00  0.00     0.025 A 
ATOM     14  C   UNL     1     -24.994 -13.264   7.964  1.00  0.00     0.016 A 
ATOM     15  C   UNL     1     -25.206 -14.548   7.457  1.00  0.00     0.051 A 
ATOM     16  C   UNL     1     -25.030 -14.808   6.094  1.00  0.00     0.157 A 
ATOM     17  C   UNL     1     -24.417 -12.482   5.745  1.00  0.00     0.062 A 
ATOM     18  C   UNL     1     -24.630 -13.771   5.232  1.00  0.00     0.158 A 
BRANCH  16  19
ATOM     19  O   UNL     1     -25.252 -16.097   5.615  1.00  0.00    -0.504 OA
ATOM     20  H   UNL     1     -26.152 -16.389   5.251  1.00  0.00     0.293 HD
ENDBRANCH  16  19
BRANCH  18  21
ATOM     21  O   UNL     1     -24.442 -14.024   3.875  1.00  0.00    -0.504 OA
ATOM     22  H   UNL     1     -24.042 -14.895   3.547  1.00  0.00     0.293 HD
ENDBRANCH  18  21
ENDBRANCH   3  13
BRANCH  10  23
ATOM     23  O   UNL     1     -22.759  -6.396   9.482  1.00  0.00    -0.507 OA
ATOM     24  H   UNL     1     -22.078  -5.962   8.870  1.00  0.00     0.293 HD
ENDBRANCH  10  23
BRANCH  11  25
ATOM     25  O   UNL     1     -27.421  -5.760   8.423  1.00  0.00    -0.508 OA
ATOM     26  H   UNL     1     -27.368  -4.822   8.045  1.00  0.00     0.293 HD
ENDBRANCH  11  25
ENDBRANCH   1   2
BRANCH   1  27
ATOM     27  C   UNL     1     -21.437 -11.957   9.377  1.00  0.00     0.339 C 
ATOM     28  C   UNL     1     -22.131 -11.436  10.660  1.00  0.00     0.214 C 
ATOM     29  O   UNL     1     -21.333 -13.373   9.372  1.00  0.00    -0.332 OA
ATOM     30  C   UNL     1     -23.430 -12.208  11.012  1.00  0.00     0.180 C 
ATOM     31  C   UNL     1     -22.612 -13.983   9.388  1.00  0.00     0.179 C 
ATOM     32  C   UNL     1     -23.310 -13.726  10.741  1.00  0.00     0.177 C 
BRANCH  28  33
ATOM     33  O   UNL     1     -21.239 -11.462  11.747  1.00  0.00    -0.384 OA
ATOM     34  H   UNL     1     -21.200 -10.548  12.132  1.00  0.00     0.211 HD
ENDBRANCH  28  33
BRANCH  30  35
ATOM     35  O   UNL     1     -24.542 -11.663  10.346  1.00  0.00    -0.387 OA
ATOM     36  H   UNL     1     -25.245 -12.357  10.311  1.00  0.00     0.211 HD
ENDBRANCH  30  35
BRANCH  31  37
ATOM     37  C   UNL     1     -22.436 -15.485   9.115  1.00  0.00     0.191 C 
BRANCH  37  38
ATOM     38  O   UNL     1     -21.153 -15.918   9.483  1.00  0.00    -0.394 OA
ATOM     39  H   UNL     1     -20.905 -16.642   8.850  1.00  0.00     0.210 HD
ENDBRANCH  37  38
ENDBRANCH  31  37
BRANCH  32  40
ATOM     40  O   UNL     1     -22.580 -14.340  11.775  1.00  0.00    -0.387 OA
ATOM     41  H   UNL     1     -21.838 -14.842  11.345  1.00  0.00     0.211 HD
ENDBRANCH  32  40
ENDBRANCH   1  27
TORSDOF 12
ENDMDL
MODEL 3
REMARK VINA RESULT:     6.948      2.121      4.313
REMARK INTER + INTRA:          14.654
REMARK INTER:                  10.310
REMARK INTRA:                   4.345
REMARK UNBOUND:                 4.457
REMARK SMILES O=c1c(O[C@@H]2O[C@@H](CO)[C@@H](O)[C@H](O)[C@H]2O)c(-c2ccc(O)c(O)c2)oc2cc(O)cc(O)c12
REMARK SMILES IDX 4 1 3 2 16 3 25 4 2 5 26 6 1 7 33 8 27 9 31 10 28 11 30 12
REMARK SMILES IDX 17 13 18 14 19 15 20 16 24 17 22 18 21 19 23 21 32 23 29 25
REMARK SMILES IDX 5 27 14 28 6 29 12 30 7 31 10 32 15 33 13 35 8 37 9 38 11 40
REMARK H PARENT 21 20 23 22 32 24 29 26 15 34 13 36 9 39 11 41
REMARK Flexibility Score: inf
ROOT
ATOM      1  O   UNL     1     -23.985 -10.751  10.470  1.00  0.00    -0.454 OA
ENDROOT
BRANCH   1   2
ATOM      2  C   UNL     1     -24.247 -11.391   9.238  1.00  0.00     0.214 A 
ATOM      3  C   UNL     1     -24.391 -10.586   8.090  1.00  0.00     0.180 A 
ATOM      4  O   UNL     1     -24.552 -11.140   6.893  1.00  0.00    -0.452 OA
ATOM      5  C   UNL     1     -24.338 -12.795   9.079  1.00  0.00     0.239 A 
ATOM      6  C   UNL     1     -24.621 -12.450   6.700  1.00  0.00     0.146 A 
ATOM      7  O   UNL     1     -24.256 -13.557  10.078  1.00  0.00    -0.285 OA
ATOM      8  C   UNL     1     -24.526 -13.343   7.792  1.00  0.00     0.111 A 
ATOM      9  C   UNL     1     -24.794 -12.936   5.401  1.00  0.00     0.094 A 
ATOM     10  C   UNL     1     -24.616 -14.736   7.548  1.00  0.00     0.134 A 
ATOM     11  C   UNL     1     -24.882 -14.312   5.168  1.00  0.00     0.123 A 
ATOM     12  C   UNL     1     -24.793 -15.205   6.238  1.00  0.00     0.093 A 
BRANCH   3  13
ATOM     13  C   UNL     1     -24.359  -9.115   8.171  1.00  0.00     0.025 A 
ATOM     14  C   UNL     1     -23.231  -8.400   7.741  1.00  0.00     0.016 A 
ATOM     15  C   UNL     1     -23.199  -7.007   7.841  1.00  0.00     0.051 A 
ATOM     16  C   UNL     1     -24.284  -6.313   8.386  1.00  0.00     0.157 A 
ATOM     17  C   UNL     1     -25.436  -8.422   8.742  1.00  0.00     0.062 A 
ATOM     18  C   UNL     1     -25.408  -7.023   8.843  1.00  0.00     0.158 A 
BRANCH  16  19
ATOM     19  O   UNL     1     -24.226  -4.923   8.470  1.00  0.00    -0.504 OA
ATOM     20  H   UNL     1     -24.607  -4.323   7.748  1.00  0.00     0.293 HD
ENDBRANCH  16  19
BRANCH  18  21
ATOM     21  O   UNL     1     -26.488  -6.340   9.397  1.00  0.00    -0.504 OA
ATOM     22  H   UNL     1     -26.886  -5.522   8.949  1.00  0.00     0.293 HD
ENDBRANCH  18  21
ENDBRANCH   3  13
BRANCH  10  23
ATOM     23  O   UNL     1     -24.530 -15.656   8.593  1.00  0.00    -0.507 OA
ATOM     24  H   UNL     1     -24.325 -15.368   9.543  1.00  0.00     0.293 HD
ENDBRANCH  10  23
BRANCH  11  25
ATOM     25  O   UNL     1     -25.055 -14.802   3.875  1.00  0.00    -0.508 OA
ATOM     26  H   UNL     1     -24.352 -15.379   3.428  1.00  0.00     0.293 HD
ENDBRANCH  11  25
ENDBRANCH   1   2
BRANCH   1  27
ATOM     27  C   UNL     1     -22.743 -10.176  10.893  1.00  0.00     0.339 C 
ATOM     28  C   UNL     1     -21.928 -11.176  11.750  1.00  0.00     0.214 C 
ATOM     29  O   UNL     1     -21.992  -9.693   9.789  1.00  0.00    -0.332 OA
ATOM     30  C   UNL     1     -21.199 -12.255  10.907  1.00  0.00     0.180 C 
ATOM     31  C   UNL     1     -21.634 -10.746   8.910  1.00  0.00     0.179 C 
ATOM     32  C   UNL     1     -20.618 -11.689   9.591  1.00  0.00     0.177 C 
BRANCH  28  33
ATOM     33  O   UNL     1     -21.008 -10.489  12.563  1.00  0.00    -0.384 OA
ATOM     34  H   UNL     1     -20.657 -11.130  13.235  1.00  0.00     0.211 HD
ENDBRANCH  28  33
BRANCH  30  35
ATOM     35  O   UNL     1     -22.038 -13.356  10.657  1.00  0.00    -0.387 OA
ATOM     36  H   UNL     1     -21.651 -13.866   9.902  1.00  0.00     0.211 HD
ENDBRANCH  30  35
BRANCH  31  37
ATOM     37  C   UNL     1     -21.063 -10.130   7.623  1.00  0.00     0.191 C 
BRANCH  37  38
ATOM     38  O   UNL     1     -20.268  -9.010   7.908  1.00  0.00    -0.394 OA
ATOM     39  H   UNL     1     -20.538  -8.692   8.810  1.00  0.00     0.210 HD
ENDBRANCH  37  38
ENDBRANCH  31  37
BRANCH  32  40
ATOM     40  O   UNL     1     -19.427 -10.989   9.856  1.00  0.00    -0.387 OA
ATOM     41  H   UNL     1     -19.413 -10.803  10.831  1.00  0.00     0.211 HD
ENDBRANCH  32  40
ENDBRANCH   1  27
TORSDOF 12
ENDMDL
MODEL 4
REMARK VINA RESULT:     7.495      2.388      5.289
REMARK INTER + INTRA:          15.458
REMARK INTER:                  15.872
REMARK INTRA:                  -0.414
REMARK UNBOUND:                 4.457
REMARK SMILES O=c1c(O[C@@H]2O[C@@H](CO)[C@@H](O)[C@H](O)[C@H]2O)c(-c2ccc(O)c(O)c2)oc2cc(O)cc(O)c12
REMARK SMILES IDX 4 1 3 2 16 3 25 4 2 5 26 6 1 7 33 8 27 9 31 10 28 11 30 12
REMARK SMILES IDX 17 13 18 14 19 15 20 16 24 17 22 18 21 19 23 21 32 23 29 25
REMARK SMILES IDX 5 27 14 28 6 29 12 30 7 31 10 32 15 33 13 35 8 37 9 38 11 40
REMARK H PARENT 21 20 23 22 32 24 29 26 15 34 13 36 9 39 11 41
REMARK Flexibility Score: inf
ROOT
ATOM      1  O   UNL     1     -23.714  -9.765   7.601  1.00  0.00    -0.454 OA
ENDROOT
BRANCH   1   2
ATOM      2  C   UNL     1     -23.951 -11.127   7.313  1.00  0.00     0.214 A 
ATOM      3  C   UNL     1     -23.499 -12.090   8.238  1.00  0.00     0.180 A 
ATOM      4  O   UNL     1     -23.771 -13.378   8.059  1.00  0.00    -0.452 OA
ATOM      5  C   UNL     1     -24.646 -11.584   6.167  1.00  0.00     0.239 A 
ATOM      6  C   UNL     1     -24.437 -13.843   7.011  1.00  0.00     0.146 A 
ATOM      7  O   UNL     1     -25.036 -10.769   5.290  1.00  0.00    -0.285 OA
ATOM      8  C   UNL     1     -24.900 -12.963   6.006  1.00  0.00     0.111 A 
ATOM      9  C   UNL     1     -24.671 -15.217   6.912  1.00  0.00     0.094 A 
ATOM     10  C   UNL     1     -25.598 -13.498   4.895  1.00  0.00     0.134 A 
ATOM     11  C   UNL     1     -25.361 -15.738   5.813  1.00  0.00     0.123 A 
ATOM     12  C   UNL     1     -25.820 -14.881   4.811  1.00  0.00     0.093 A 
BRANCH   3  13
ATOM     13  C   UNL     1     -22.726 -11.707   9.432  1.00  0.00     0.025 A 
ATOM     14  C   UNL     1     -23.329 -11.687  10.699  1.00  0.00     0.016 A 
ATOM     15  C   UNL     1     -22.595 -11.303  11.823  1.00  0.00     0.051 A 
ATOM     16  C   UNL     1     -21.257 -10.917  11.696  1.00  0.00     0.157 A 
ATOM     17  C   UNL     1     -21.391 -11.296   9.299  1.00  0.00     0.062 A 
ATOM     18  C   UNL     1     -20.651 -10.910  10.427  1.00  0.00     0.158 A 
BRANCH  16  19
ATOM     19  O   UNL     1     -20.547 -10.542  12.835  1.00  0.00    -0.504 OA
ATOM     20  H   UNL     1     -20.816  -9.743  13.398  1.00  0.00     0.293 HD
ENDBRANCH  16  19
BRANCH  18  21
ATOM     21  O   UNL     1     -19.321 -10.518  10.290  1.00  0.00    -0.504 OA
ATOM     22  H   UNL     1     -18.956 -10.177   9.408  1.00  0.00     0.293 HD
ENDBRANCH  18  21
ENDBRANCH   3  13
BRANCH  10  23
ATOM     23  O   UNL     1     -26.072 -12.671   3.877  1.00  0.00    -0.507 OA
ATOM     24  H   UNL     1     -26.259 -13.024   2.945  1.00  0.00     0.293 HD
ENDBRANCH  10  23
BRANCH  11  25
ATOM     25  O   UNL     1     -25.597 -17.107   5.707  1.00  0.00    -0.508 OA
ATOM     26  H   UNL     1     -24.903 -17.788   5.993  1.00  0.00     0.293 HD
ENDBRANCH  11  25
ENDBRANCH   1   2
BRANCH   1  27
ATOM     27  C   UNL     1     -24.352  -8.635   6.994  1.00  0.00     0.339 C 
ATOM     28  C   UNL     1     -25.878  -8.646   7.260  1.00  0.00     0.214 C 
ATOM     29  O   UNL     1     -23.753  -7.416   7.408  1.00  0.00    -0.332 OA
ATOM     30  C   UNL     1     -26.257  -8.159   8.683  1.00  0.00     0.180 C 
ATOM     31  C   UNL     1     -23.899  -7.219   8.804  1.00  0.00     0.179 C 
ATOM     32  C   UNL     1     -25.383  -6.975   9.158  1.00  0.00     0.177 C 
BRANCH  28  33
ATOM     33  O   UNL     1     -26.551  -7.884   6.288  1.00  0.00    -0.384 OA
ATOM     34  H   UNL     1     -26.600  -8.423   5.457  1.00  0.00     0.211 HD
ENDBRANCH  28  33
BRANCH  30  35
ATOM     35  O   UNL     1     -26.220  -9.217   9.608  1.00  0.00    -0.387 OA
ATOM     36  H   UNL     1     -25.660  -8.933  10.373  1.00  0.00     0.211 HD
ENDBRANCH  30  35
BRANCH  31  37
ATOM     37  C   UNL     1     -23.013  -6.034   9.222  1.00  0.00     0.191 C 
BRANCH  37  38
ATOM     38  O   UNL     1     -23.275  -4.906   8.432  1.00  0.00    -0.394 OA
ATOM     39  H   UNL     1     -23.199  -5.197   7.485  1.00  0.00     0.210 HD
ENDBRANCH  37  38
ENDBRANCH  31  37
BRANCH  32  40
ATOM     40  O   UNL     1     -25.824  -5.784   8.555  1.00  0.00    -0.387 OA
ATOM     41  H   UNL     1     -26.698  -5.983   8.129  1.00  0.00     0.211 HD
ENDBRANCH  32  40
ENDBRANCH   1  27
TORSDOF 12
ENDMDL
MODEL 5
REMARK VINA RESULT:     7.751      2.318      4.353
REMARK INTER + INTRA:          15.833
REMARK INTER:                  14.132
REMARK INTRA:                   1.701
REMARK UNBOUND:                 4.457
REMARK SMILES O=c1c(O[C@@H]2O[C@@H](CO)[C@@H](O)[C@H](O)[C@H]2O)c(-c2ccc(O)c(O)c2)oc2cc(O)cc(O)c12
REMARK SMILES IDX 4 1 3 2 16 3 25 4 2 5 26 6 1 7 33 8 27 9 31 10 28 11 30 12
REMARK SMILES IDX 17 13 18 14 19 15 20 16 24 17 22 18 21 19 23 21 32 23 29 25
REMARK SMILES IDX 5 27 14 28 6 29 12 30 7 31 10 32 15 33 13 35 8 37 9 38 11 40
REMARK H PARENT 21 20 23 22 32 24 29 26 15 34 13 36 9 39 11 41
REMARK Flexibility Score: inf
ROOT
ATOM      1  O   UNL     1     -24.339 -10.071   7.873  1.00  0.00    -0.454 OA
ENDROOT
BRANCH   1   2
ATOM      2  C   UNL     1     -24.382 -11.407   7.417  1.00  0.00     0.214 A 
ATOM      3  C   UNL     1     -23.745 -12.395   8.195  1.00  0.00     0.180 A 
ATOM      4  O   UNL     1     -23.828 -13.677   7.858  1.00  0.00    -0.452 OA
ATOM      5  C   UNL     1     -25.057 -11.821   6.243  1.00  0.00     0.239 A 
ATOM      6  C   UNL     1     -24.468 -14.107   6.780  1.00  0.00     0.146 A 
ATOM      7  O   UNL     1     -25.609 -10.975   5.492  1.00  0.00    -0.285 OA
ATOM      8  C   UNL     1     -25.108 -13.193   5.913  1.00  0.00     0.111 A 
ATOM      9  C   UNL     1     -24.497 -15.478   6.510  1.00  0.00     0.094 A 
ATOM     10  C   UNL     1     -25.772 -13.688   4.763  1.00  0.00     0.134 A 
ATOM     11  C   UNL     1     -25.155 -15.960   5.374  1.00  0.00     0.123 A 
ATOM     12  C   UNL     1     -25.788 -15.068   4.507  1.00  0.00     0.093 A 
BRANCH   3  13
ATOM     13  C   UNL     1     -22.979 -12.047   9.405  1.00  0.00     0.025 A 
ATOM     14  C   UNL     1     -23.606 -11.999  10.659  1.00  0.00     0.016 A 
ATOM     15  C   UNL     1     -22.878 -11.648  11.798  1.00  0.00     0.051 A 
ATOM     16  C   UNL     1     -21.521 -11.323  11.697  1.00  0.00     0.157 A 
ATOM     17  C   UNL     1     -21.625 -11.696   9.299  1.00  0.00     0.062 A 
ATOM     18  C   UNL     1     -20.891 -11.343  10.441  1.00  0.00     0.158 A 
BRANCH  16  19
ATOM     19  O   UNL     1     -20.819 -10.979  12.851  1.00  0.00    -0.504 OA
ATOM     20  H   UNL     1     -20.029 -11.521  13.182  1.00  0.00     0.293 HD
ENDBRANCH  16  19
BRANCH  18  21
ATOM     21  O   UNL     1     -19.542 -11.010  10.331  1.00  0.00    -0.504 OA
ATOM     22  H   UNL     1     -19.220 -10.308   9.675  1.00  0.00     0.293 HD
ENDBRANCH  18  21
ENDBRANCH   3  13
BRANCH  10  23
ATOM     23  O   UNL     1     -26.416 -12.825   3.876  1.00  0.00    -0.507 OA
ATOM     24  H   UNL     1     -27.407 -12.905   3.678  1.00  0.00     0.293 HD
ENDBRANCH  10  23
BRANCH  11  25
ATOM     25  O   UNL     1     -25.186 -17.326   5.099  1.00  0.00    -0.508 OA
ATOM     26  H   UNL     1     -24.336 -17.855   4.942  1.00  0.00     0.293 HD
ENDBRANCH  11  25
ENDBRANCH   1   2
BRANCH   1  27
ATOM     27  C   UNL     1     -24.175  -8.894   7.071  1.00  0.00     0.339 C 
ATOM     28  C   UNL     1     -23.153  -7.921   7.710  1.00  0.00     0.214 C 
ATOM     29  O   UNL     1     -23.826  -9.222   5.734  1.00  0.00    -0.332 OA
ATOM     30  C   UNL     1     -21.678  -8.344   7.482  1.00  0.00     0.180 C 
ATOM     31  C   UNL     1     -22.577  -9.888   5.677  1.00  0.00     0.179 C 
ATOM     32  C   UNL     1     -21.436  -8.923   6.069  1.00  0.00     0.177 C 
BRANCH  28  33
ATOM     33  O   UNL     1     -23.363  -6.611   7.242  1.00  0.00    -0.384 OA
ATOM     34  H   UNL     1     -23.769  -6.672   6.338  1.00  0.00     0.211 HD
ENDBRANCH  28  33
BRANCH  30  35
ATOM     35  O   UNL     1     -21.248  -9.241   8.476  1.00  0.00    -0.387 OA
ATOM     36  H   UNL     1     -21.414 -10.159   8.149  1.00  0.00     0.211 HD
ENDBRANCH  30  35
BRANCH  31  37
ATOM     37  C   UNL     1     -22.388 -10.442   4.255  1.00  0.00     0.191 C 
BRANCH  37  38
ATOM     38  O   UNL     1     -21.027 -10.585   3.946  1.00  0.00    -0.394 OA
ATOM     39  H   UNL     1     -20.541 -10.621   4.812  1.00  0.00     0.210 HD
ENDBRANCH  37  38
ENDBRANCH  31  37
BRANCH  32  40
ATOM     40  O   UNL     1     -21.357  -7.878   5.132  1.00  0.00    -0.387 OA
ATOM     41  H   UNL     1     -21.549  -8.274   4.241  1.00  0.00     0.211 HD
ENDBRANCH  32  40
ENDBRANCH   1  27
TORSDOF 12
ENDMDL
MODEL 6
REMARK VINA RESULT:     7.881      2.310      5.137
REMARK INTER + INTRA:          16.024
REMARK INTER:                  14.377
REMARK INTRA:                   1.648
REMARK UNBOUND:                 4.457
REMARK SMILES O=c1c(O[C@@H]2O[C@@H](CO)[C@@H](O)[C@H](O)[C@H]2O)c(-c2ccc(O)c(O)c2)oc2cc(O)cc(O)c12
REMARK SMILES IDX 4 1 3 2 16 3 25 4 2 5 26 6 1 7 33 8 27 9 31 10 28 11 30 12
REMARK SMILES IDX 17 13 18 14 19 15 20 16 24 17 22 18 21 19 23 21 32 23 29 25
REMARK SMILES IDX 5 27 14 28 6 29 12 30 7 31 10 32 15 33 13 35 8 37 9 38 11 40
REMARK H PARENT 21 20 23 22 32 24 29 26 15 34 13 36 9 39 11 41
REMARK Flexibility Score: inf
ROOT
ATOM      1  O   UNL     1     -24.362 -10.316   7.682  1.00  0.00    -0.454 OA
ENDROOT
BRANCH   1   2
ATOM      2  C   UNL     1     -24.355 -11.688   7.346  1.00  0.00     0.214 A 
ATOM      3  C   UNL     1     -23.723 -12.586   8.230  1.00  0.00     0.180 A 
ATOM      4  O   UNL     1     -23.762 -13.894   8.005  1.00  0.00    -0.452 OA
ATOM      5  C   UNL     1     -24.975 -12.223   6.190  1.00  0.00     0.239 A 
ATOM      6  C   UNL     1     -24.350 -14.435   6.948  1.00  0.00     0.146 A 
ATOM      7  O   UNL     1     -25.520 -11.461   5.349  1.00  0.00    -0.285 OA
ATOM      8  C   UNL     1     -24.980 -13.619   5.981  1.00  0.00     0.111 A 
ATOM      9  C   UNL     1     -24.335 -15.825   6.800  1.00  0.00     0.094 A 
ATOM     10  C   UNL     1     -25.589 -14.231   4.857  1.00  0.00     0.134 A 
ATOM     11  C   UNL     1     -24.938 -16.423   5.689  1.00  0.00     0.123 A 
ATOM     12  C   UNL     1     -25.561 -15.627   4.724  1.00  0.00     0.093 A 
BRANCH   3  13
ATOM     13  C   UNL     1     -23.011 -12.112   9.430  1.00  0.00     0.025 A 
ATOM     14  C   UNL     1     -23.705 -11.879  10.627  1.00  0.00     0.016 A 
ATOM     15  C   UNL     1     -23.027 -11.410  11.755  1.00  0.00     0.051 A 
ATOM     16  C   UNL     1     -21.654 -11.150  11.697  1.00  0.00     0.157 A 
ATOM     17  C   UNL     1     -21.639 -11.828   9.363  1.00  0.00     0.062 A 
ATOM     18  C   UNL     1     -20.955 -11.356  10.494  1.00  0.00     0.158 A 
BRANCH  16  19
ATOM     19  O   UNL     1     -21.002 -10.686  12.838  1.00  0.00    -0.504 OA
ATOM     20  H   UNL     1     -20.577  -9.768  12.880  1.00  0.00     0.293 HD
ENDBRANCH  16  19
BRANCH  18  21
ATOM     21  O   UNL     1     -19.589 -11.090  10.425  1.00  0.00    -0.504 OA
ATOM     22  H   UNL     1     -18.969 -11.291  11.201  1.00  0.00     0.293 HD
ENDBRANCH  18  21
ENDBRANCH   3  13
BRANCH  10  23
ATOM     23  O   UNL     1     -26.220 -13.468   3.875  1.00  0.00    -0.507 OA
ATOM     24  H   UNL     1     -27.102 -13.751   3.464  1.00  0.00     0.293 HD
ENDBRANCH  10  23
BRANCH  11  25
ATOM     25  O   UNL     1     -24.926 -17.807   5.535  1.00  0.00    -0.508 OA
ATOM     26  H   UNL     1     -24.477 -18.249   4.741  1.00  0.00     0.293 HD
ENDBRANCH  11  25
ENDBRANCH   1   2
BRANCH   1  27
ATOM     27  C   UNL     1     -23.487  -9.653   8.604  1.00  0.00     0.339 C 
ATOM     28  C   UNL     1     -22.218  -9.127   7.887  1.00  0.00     0.214 C 
ATOM     29  O   UNL     1     -24.161  -8.622   9.309  1.00  0.00    -0.332 OA
ATOM     30  C   UNL     1     -22.460  -7.816   7.095  1.00  0.00     0.180 C 
ATOM     31  C   UNL     1     -24.612  -7.607   8.429  1.00  0.00     0.179 C 
ATOM     32  C   UNL     1     -23.410  -6.843   7.831  1.00  0.00     0.177 C 
BRANCH  28  33
ATOM     33  O   UNL     1     -21.170  -8.953   8.810  1.00  0.00    -0.384 OA
ATOM     34  H   UNL     1     -21.573  -8.763   9.697  1.00  0.00     0.211 HD
ENDBRANCH  28  33
BRANCH  30  35
ATOM     35  O   UNL     1     -22.922  -8.086   5.795  1.00  0.00    -0.387 OA
ATOM     36  H   UNL     1     -23.265  -9.014   5.781  1.00  0.00     0.211 HD
ENDBRANCH  30  35
BRANCH  31  37
ATOM     37  C   UNL     1     -25.549  -6.670   9.209  1.00  0.00     0.191 C 
BRANCH  37  38
ATOM     38  O   UNL     1     -25.523  -5.373   8.677  1.00  0.00    -0.394 OA
ATOM     39  H   UNL     1     -26.011  -5.410   7.813  1.00  0.00     0.210 HD
ENDBRANCH  37  38
ENDBRANCH  31  37
BRANCH  32  40
ATOM     40  O   UNL     1     -22.713  -6.179   8.856  1.00  0.00    -0.387 OA
ATOM     41  H   UNL     1     -23.230  -5.359   9.072  1.00  0.00     0.211 HD
ENDBRANCH  32  40
ENDBRANCH   1  27
TORSDOF 12
ENDMDL
MODEL 7
REMARK VINA RESULT:     8.332      2.169      7.241
REMARK INTER + INTRA:          16.685
REMARK INTER:                  13.933
REMARK INTRA:                   2.752
REMARK UNBOUND:                 4.457
REMARK SMILES O=c1c(O[C@@H]2O[C@@H](CO)[C@@H](O)[C@H](O)[C@H]2O)c(-c2ccc(O)c(O)c2)oc2cc(O)cc(O)c12
REMARK SMILES IDX 4 1 3 2 16 3 25 4 2 5 26 6 1 7 33 8 27 9 31 10 28 11 30 12
REMARK SMILES IDX 17 13 18 14 19 15 20 16 24 17 22 18 21 19 23 21 32 23 29 25
REMARK SMILES IDX 5 27 14 28 6 29 12 30 7 31 10 32 15 33 13 35 8 37 9 38 11 40
REMARK H PARENT 21 20 23 22 32 24 29 26 15 34 13 36 9 39 11 41
REMARK Flexibility Score: inf
ROOT
ATOM      1  O   UNL     1     -24.937 -12.764   9.461  1.00  0.00    -0.454 OA
ENDROOT
BRANCH   1   2
ATOM      2  C   UNL     1     -24.363 -11.857   8.542  1.00  0.00     0.214 A 
ATOM      3  C   UNL     1     -24.378 -12.198   7.175  1.00  0.00     0.180 A 
ATOM      4  O   UNL     1     -23.930 -11.344   6.261  1.00  0.00    -0.452 OA
ATOM      5  C   UNL     1     -23.802 -10.609   8.908  1.00  0.00     0.239 A 
ATOM      6  C   UNL     1     -23.419 -10.159   6.560  1.00  0.00     0.146 A 
ATOM      7  O   UNL     1     -23.728 -10.273  10.118  1.00  0.00    -0.285 OA
ATOM      8  C   UNL     1     -23.322  -9.738   7.906  1.00  0.00     0.111 A 
ATOM      9  C   UNL     1     -22.971  -9.332   5.526  1.00  0.00     0.094 A 
ATOM     10  C   UNL     1     -22.758  -8.468   8.189  1.00  0.00     0.134 A 
ATOM     11  C   UNL     1     -22.417  -8.081   5.812  1.00  0.00     0.123 A 
ATOM     12  C   UNL     1     -22.312  -7.654   7.138  1.00  0.00     0.093 A 
BRANCH   3  13
ATOM     13  C   UNL     1     -24.898 -13.497   6.710  1.00  0.00     0.025 A 
ATOM     14  C   UNL     1     -25.819 -14.217   7.485  1.00  0.00     0.016 A 
ATOM     15  C   UNL     1     -26.291 -15.457   7.048  1.00  0.00     0.051 A 
ATOM     16  C   UNL     1     -25.836 -16.001   5.843  1.00  0.00     0.157 A 
ATOM     17  C   UNL     1     -24.421 -14.053   5.514  1.00  0.00     0.062 A 
ATOM     18  C   UNL     1     -24.893 -15.299   5.072  1.00  0.00     0.158 A 
BRANCH  16  19
ATOM     19  O   UNL     1     -26.326 -17.238   5.429  1.00  0.00    -0.504 OA
ATOM     20  H   UNL     1     -26.102 -17.631   4.523  1.00  0.00     0.293 HD
ENDBRANCH  16  19
BRANCH  18  21
ATOM     21  O   UNL     1     -24.427 -15.839   3.875  1.00  0.00    -0.504 OA
ATOM     22  H   UNL     1     -23.810 -15.318   3.262  1.00  0.00     0.293 HD
ENDBRANCH  18  21
ENDBRANCH   3  13
BRANCH  10  23
ATOM     23  O   UNL     1     -22.640  -8.010   9.501  1.00  0.00    -0.507 OA
ATOM     24  H   UNL     1     -23.298  -7.348   9.897  1.00  0.00     0.293 HD
ENDBRANCH  10  23
BRANCH  11  25
ATOM     25  O   UNL     1     -21.968  -7.253   4.786  1.00  0.00    -0.508 OA
ATOM     26  H   UNL     1     -22.448  -6.392   4.551  1.00  0.00     0.293 HD
ENDBRANCH  11  25
ENDBRANCH   1   2
BRANCH   1  27
ATOM     27  C   UNL     1     -24.332 -13.276  10.654  1.00  0.00     0.339 C 
ATOM     28  C   UNL     1     -24.209 -14.820  10.599  1.00  0.00     0.214 C 
ATOM     29  O   UNL     1     -23.081 -12.656  10.910  1.00  0.00    -0.332 OA
ATOM     30  C   UNL     1     -23.024 -15.310   9.727  1.00  0.00     0.180 C 
ATOM     31  C   UNL     1     -22.151 -12.929   9.875  1.00  0.00     0.179 C 
ATOM     32  C   UNL     1     -21.766 -14.424   9.882  1.00  0.00     0.177 C 
BRANCH  28  33
ATOM     33  O   UNL     1     -24.112 -15.351  11.898  1.00  0.00    -0.384 OA
ATOM     34  H   UNL     1     -25.017 -15.652  12.173  1.00  0.00     0.211 HD
ENDBRANCH  28  33
BRANCH  30  35
ATOM     35  O   UNL     1     -23.400 -15.423   8.376  1.00  0.00    -0.387 OA
ATOM     36  H   UNL     1     -22.705 -14.978   7.830  1.00  0.00     0.211 HD
ENDBRANCH  30  35
BRANCH  31  37
ATOM     37  C   UNL     1     -20.924 -12.025  10.076  1.00  0.00     0.191 C 
BRANCH  37  38
ATOM     38  O   UNL     1     -20.916 -11.463  11.361  1.00  0.00    -0.394 OA
ATOM     39  H   UNL     1     -19.988 -11.151  11.529  1.00  0.00     0.210 HD
ENDBRANCH  37  38
ENDBRANCH  31  37
BRANCH  32  40
ATOM     40  O   UNL     1     -21.105 -14.738  11.083  1.00  0.00    -0.387 OA
ATOM     41  H   UNL     1     -21.181 -13.941  11.670  1.00  0.00     0.211 HD
ENDBRANCH  32  40
ENDBRANCH   1  27
TORSDOF 12
ENDMDL
