MODEL 1
REMARK VINA RESULT:    -2.271      0.000      0.000
REMARK INTER + INTRA:          -7.536
REMARK INTER:                  -4.395
REMARK INTRA:                  -3.141
REMARK UNBOUND:                -3.141
REMARK SMILES CCCCCCCCCCCCCCCCCC(=O)[O-]
REMARK SMILES IDX 10 1 11 2 12 3 13 4 14 5 15 6 16 7 17 8 18 9 19 10 20 11
REMARK SMILES IDX 9 12 8 13 7 14 6 15 5 16 4 17 3 18 2 19 1 20
REMARK H PARENT
REMARK Flexibility Score: inf
ROOT
ATOM      1  C   UNL     1     -22.047  27.656 -21.626  1.00  0.00     0.000 C 
ENDROOT
BRANCH   1   2
ATOM      2  C   UNL     1     -21.179  28.767 -21.006  1.00  0.00     0.000 C 
BRANCH   2   3
ATOM      3  C   UNL     1     -19.924  28.273 -20.260  1.00  0.00     0.000 C 
BRANCH   3   4
ATOM      4  C   UNL     1     -19.851  28.670 -18.774  1.00  0.00     0.000 C 
BRANCH   4   5
ATOM      5  C   UNL     1     -19.468  27.493 -17.861  1.00  0.00     0.000 C 
BRANCH   5   6
ATOM      6  C   UNL     1     -19.365  26.160 -18.622  1.00  0.00     0.000 C 
BRANCH   6   7
ATOM      7  C   UNL     1     -20.411  25.131 -18.165  1.00  0.00     0.006 C 
BRANCH   7   8
ATOM      8  C   UNL     1     -21.378  24.788 -19.302  1.00  0.00     0.053 C 
BRANCH   8   9
ATOM      9  C   UNL     1     -20.705  23.924 -20.319  1.00  0.00     0.041 C 
ATOM     10  O   UNL     1     -20.716  24.251 -21.536  1.00  0.00    -0.550 OA
ATOM     11  O   UNL     1     -20.022  22.782 -19.920  1.00  0.00    -0.550 OA
ENDBRANCH   8   9
ENDBRANCH   7   8
ENDBRANCH   6   7
ENDBRANCH   5   6
ENDBRANCH   4   5
ENDBRANCH   3   4
ENDBRANCH   2   3
ENDBRANCH   1   2
BRANCH   1  12
ATOM     12  C   UNL     1     -23.433  28.144 -22.104  1.00  0.00     0.000 C 
BRANCH  12  13
ATOM     13  C   UNL     1     -23.633  29.652 -21.879  1.00  0.00    -0.000 C 
BRANCH  13  14
ATOM     14  C   UNL     1     -24.924  29.972 -21.109  1.00  0.00    -0.000 C 
BRANCH  14  15
ATOM     15  C   UNL     1     -25.017  29.262 -19.742  1.00  0.00    -0.000 C 
BRANCH  15  16
ATOM     16  C   UNL     1     -24.374  30.083 -18.615  1.00  0.00    -0.000 C 
BRANCH  16  17
ATOM     17  C   UNL     1     -23.293  29.269 -17.889  1.00  0.00    -0.000 C 
BRANCH  17  18
ATOM     18  C   UNL     1     -23.393  27.762 -18.175  1.00  0.00    -0.000 C 
BRANCH  18  19
ATOM     19  C   UNL     1     -23.785  26.950 -16.933  1.00  0.00    -0.003 C 
ATOM     20  C   UNL     1     -22.661  26.950 -15.899  1.00  0.00     0.004 C 
ENDBRANCH  18  19
ENDBRANCH  17  18
ENDBRANCH  16  17
ENDBRANCH  15  16
ENDBRANCH  14  15
ENDBRANCH  13  14
ENDBRANCH  12  13
ENDBRANCH   1  12
TORSDOF 16
ENDMDL
MODEL 2
REMARK VINA RESULT:    -2.213     11.902     14.317
REMARK INTER + INTRA:          -7.424
REMARK INTER:                  -4.916
REMARK INTRA:                  -2.508
REMARK UNBOUND:                -3.141
REMARK SMILES CCCCCCCCCCCCCCCCCC(=O)[O-]
REMARK SMILES IDX 10 1 11 2 12 3 13 4 14 5 15 6 16 7 17 8 18 9 19 10 20 11
REMARK SMILES IDX 9 12 8 13 7 14 6 15 5 16 4 17 3 18 2 19 1 20
REMARK H PARENT
REMARK Flexibility Score: inf
ROOT
ATOM      1  C   UNL     1     -21.325  15.398 -21.498  1.00  0.00     0.000 C 
ENDROOT
BRANCH   1   2
ATOM      2  C   UNL     1     -20.098  16.328 -21.498  1.00  0.00     0.000 C 
BRANCH   2   3
ATOM      3  C   UNL     1     -19.477  16.587 -20.111  1.00  0.00     0.000 C 
BRANCH   3   4
ATOM      4  C   UNL     1     -20.420  16.342 -18.919  1.00  0.00     0.000 C 
BRANCH   4   5
ATOM      5  C   UNL     1     -19.846  15.339 -17.903  1.00  0.00     0.000 C 
BRANCH   5   6
ATOM      6  C   UNL     1     -20.063  13.876 -18.324  1.00  0.00     0.000 C 
BRANCH   6   7
ATOM      7  C   UNL     1     -21.542  13.459 -18.288  1.00  0.00     0.006 C 
BRANCH   7   8
ATOM      8  C   UNL     1     -22.169  13.778 -16.927  1.00  0.00     0.053 C 
BRANCH   8   9
ATOM      9  C   UNL     1     -22.340  12.528 -16.123  1.00  0.00     0.041 C 
ATOM     10  O   UNL     1     -21.504  11.591 -16.224  1.00  0.00    -0.550 OA
ATOM     11  O   UNL     1     -23.392  12.419 -15.225  1.00  0.00    -0.550 OA
ENDBRANCH   8   9
ENDBRANCH   7   8
ENDBRANCH   6   7
ENDBRANCH   5   6
ENDBRANCH   4   5
ENDBRANCH   3   4
ENDBRANCH   2   3
ENDBRANCH   1   2
BRANCH   1  12
ATOM     12  C   UNL     1     -21.037  13.988 -22.059  1.00  0.00     0.000 C 
BRANCH  12  13
ATOM     13  C   UNL     1     -21.815  13.703 -23.355  1.00  0.00    -0.000 C 
BRANCH  13  14
ATOM     14  C   UNL     1     -20.940  13.062 -24.445  1.00  0.00    -0.000 C 
BRANCH  14  15
ATOM     15  C   UNL     1     -19.543  13.708 -24.571  1.00  0.00    -0.000 C 
BRANCH  15  16
ATOM     16  C   UNL     1     -18.412  12.686 -24.380  1.00  0.00    -0.000 C 
BRANCH  16  17
ATOM     17  C   UNL     1     -17.106  13.383 -23.973  1.00  0.00    -0.000 C 
BRANCH  17  18
ATOM     18  C   UNL     1     -17.345  14.687 -23.196  1.00  0.00    -0.000 C 
BRANCH  18  19
ATOM     19  C   UNL     1     -16.711  14.666 -21.797  1.00  0.00    -0.003 C 
ATOM     20  C   UNL     1     -17.430  13.675 -20.884  1.00  0.00     0.004 C 
ENDBRANCH  18  19
ENDBRANCH  17  18
ENDBRANCH  16  17
ENDBRANCH  15  16
ENDBRANCH  14  15
ENDBRANCH  13  14
ENDBRANCH  12  13
ENDBRANCH   1  12
TORSDOF 16
ENDMDL
MODEL 3
REMARK VINA RESULT:    -2.212     12.276     14.413
REMARK INTER + INTRA:          -7.422
REMARK INTER:                  -5.472
REMARK INTRA:                  -1.950
REMARK UNBOUND:                -3.141
REMARK SMILES CCCCCCCCCCCCCCCCCC(=O)[O-]
REMARK SMILES IDX 10 1 11 2 12 3 13 4 14 5 15 6 16 7 17 8 18 9 19 10 20 11
REMARK SMILES IDX 9 12 8 13 7 14 6 15 5 16 4 17 3 18 2 19 1 20
REMARK H PARENT
REMARK Flexibility Score: inf
ROOT
ATOM      1  C   UNL     1     -20.958  14.115 -19.513  1.00  0.00     0.000 C 
ENDROOT
BRANCH   1   2
ATOM      2  C   UNL     1     -21.219  15.369 -20.370  1.00  0.00     0.000 C 
BRANCH   2   3
ATOM      3  C   UNL     1     -20.899  15.210 -21.869  1.00  0.00     0.000 C 
BRANCH   3   4
ATOM      4  C   UNL     1     -21.397  13.899 -22.506  1.00  0.00     0.000 C 
BRANCH   4   5
ATOM      5  C   UNL     1     -21.902  14.091 -23.947  1.00  0.00     0.000 C 
BRANCH   5   6
ATOM      6  C   UNL     1     -21.038  13.352 -24.982  1.00  0.00     0.000 C 
BRANCH   6   7
ATOM      7  C   UNL     1     -19.587  13.859 -25.017  1.00  0.00     0.006 C 
BRANCH   7   8
ATOM      8  C   UNL     1     -18.632  12.834 -24.399  1.00  0.00     0.053 C 
BRANCH   8   9
ATOM      9  C   UNL     1     -17.530  13.523 -23.659  1.00  0.00     0.041 C 
ATOM     10  O   UNL     1     -17.559  13.593 -22.402  1.00  0.00    -0.550 OA
ATOM     11  O   UNL     1     -16.445  14.043 -24.353  1.00  0.00    -0.550 OA
ENDBRANCH   8   9
ENDBRANCH   7   8
ENDBRANCH   6   7
ENDBRANCH   5   6
ENDBRANCH   4   5
ENDBRANCH   3   4
ENDBRANCH   2   3
ENDBRANCH   1   2
BRANCH   1  12
ATOM     12  C   UNL     1     -19.496  13.984 -19.032  1.00  0.00     0.000 C 
BRANCH  12  13
ATOM     13  C   UNL     1     -19.368  13.094 -17.785  1.00  0.00    -0.000 C 
BRANCH  13  14
ATOM     14  C   UNL     1     -20.633  12.263 -17.514  1.00  0.00    -0.000 C 
BRANCH  14  15
ATOM     15  C   UNL     1     -20.895  12.014 -16.013  1.00  0.00    -0.000 C 
BRANCH  15  16
ATOM     16  C   UNL     1     -22.356  12.290 -15.626  1.00  0.00    -0.000 C 
BRANCH  16  17
ATOM     17  C   UNL     1     -23.067  13.108 -16.713  1.00  0.00    -0.000 C 
BRANCH  17  18
ATOM     18  C   UNL     1     -23.574  14.465 -16.199  1.00  0.00    -0.000 C 
BRANCH  18  19
ATOM     19  C   UNL     1     -22.854  15.651 -16.856  1.00  0.00    -0.003 C 
ATOM     20  C   UNL     1     -21.485  15.883 -16.221  1.00  0.00     0.004 C 
ENDBRANCH  18  19
ENDBRANCH  17  18
ENDBRANCH  16  17
ENDBRANCH  15  16
ENDBRANCH  14  15
ENDBRANCH  13  14
ENDBRANCH  12  13
ENDBRANCH   1  12
TORSDOF 16
ENDMDL
MODEL 4
REMARK VINA RESULT:    -2.184     12.831     14.789
REMARK INTER + INTRA:          -7.369
REMARK INTER:                  -5.510
REMARK INTRA:                  -1.859
REMARK UNBOUND:                -3.141
REMARK SMILES CCCCCCCCCCCCCCCCCC(=O)[O-]
REMARK SMILES IDX 10 1 11 2 12 3 13 4 14 5 15 6 16 7 17 8 18 9 19 10 20 11
REMARK SMILES IDX 9 12 8 13 7 14 6 15 5 16 4 17 3 18 2 19 1 20
REMARK H PARENT
REMARK Flexibility Score: inf
ROOT
ATOM      1  C   UNL     1     -20.843  14.762 -19.784  1.00  0.00     0.000 C 
ENDROOT
BRANCH   1   2
ATOM      2  C   UNL     1     -21.222  13.721 -18.714  1.00  0.00     0.000 C 
BRANCH   2   3
ATOM      3  C   UNL     1     -22.047  14.270 -17.535  1.00  0.00     0.000 C 
BRANCH   3   4
ATOM      4  C   UNL     1     -22.935  13.234 -16.821  1.00  0.00     0.000 C 
BRANCH   4   5
ATOM      5  C   UNL     1     -22.366  12.798 -15.460  1.00  0.00     0.000 C 
BRANCH   5   6
ATOM      6  C   UNL     1     -21.311  11.686 -15.586  1.00  0.00     0.000 C 
BRANCH   6   7
ATOM      7  C   UNL     1     -20.043  11.974 -14.765  1.00  0.00     0.006 C 
BRANCH   7   8
ATOM      8  C   UNL     1     -18.785  11.818 -15.625  1.00  0.00     0.053 C 
BRANCH   8   9
ATOM      9  C   UNL     1     -18.490  13.087 -16.358  1.00  0.00     0.041 C 
ATOM     10  O   UNL     1     -17.894  13.055 -17.468  1.00  0.00    -0.550 OA
ATOM     11  O   UNL     1     -18.919  14.304 -15.843  1.00  0.00    -0.550 OA
ENDBRANCH   8   9
ENDBRANCH   7   8
ENDBRANCH   6   7
ENDBRANCH   5   6
ENDBRANCH   4   5
ENDBRANCH   3   4
ENDBRANCH   2   3
ENDBRANCH   1   2
BRANCH   1  12
ATOM     12  C   UNL     1     -21.020  14.257 -21.233  1.00  0.00     0.000 C 
BRANCH  12  13
ATOM     13  C   UNL     1     -21.732  15.284 -22.129  1.00  0.00    -0.000 C 
BRANCH  13  14
ATOM     14  C   UNL     1     -22.298  14.661 -23.416  1.00  0.00    -0.000 C 
BRANCH  14  15
ATOM     15  C   UNL     1     -21.860  13.197 -23.633  1.00  0.00    -0.000 C 
BRANCH  15  16
ATOM     16  C   UNL     1     -20.942  13.041 -24.855  1.00  0.00    -0.000 C 
BRANCH  16  17
ATOM     17  C   UNL     1     -19.468  12.970 -24.428  1.00  0.00    -0.000 C 
BRANCH  17  18
ATOM     18  C   UNL     1     -18.686  14.246 -24.778  1.00  0.00    -0.000 C 
BRANCH  18  19
ATOM     19  C   UNL     1     -18.160  14.975 -23.533  1.00  0.00    -0.003 C 
ATOM     20  C   UNL     1     -17.580  13.988 -22.522  1.00  0.00     0.004 C 
ENDBRANCH  18  19
ENDBRANCH  17  18
ENDBRANCH  16  17
ENDBRANCH  15  16
ENDBRANCH  14  15
ENDBRANCH  13  14
ENDBRANCH  12  13
ENDBRANCH   1  12
TORSDOF 16
ENDMDL
MODEL 5
REMARK VINA RESULT:    -2.156     12.250     14.280
REMARK INTER + INTRA:          -7.315
REMARK INTER:                  -5.177
REMARK INTRA:                  -2.137
REMARK UNBOUND:                -3.141
REMARK SMILES CCCCCCCCCCCCCCCCCC(=O)[O-]
REMARK SMILES IDX 10 1 11 2 12 3 13 4 14 5 15 6 16 7 17 8 18 9 19 10 20 11
REMARK SMILES IDX 9 12 8 13 7 14 6 15 5 16 4 17 3 18 2 19 1 20
REMARK H PARENT
REMARK Flexibility Score: inf
ROOT
ATOM      1  C   UNL     1     -17.695  15.328 -21.553  1.00  0.00     0.000 C 
ENDROOT
BRANCH   1   2
ATOM      2  C   UNL     1     -17.959  13.856 -21.185  1.00  0.00     0.000 C 
BRANCH   2   3
ATOM      3  C   UNL     1     -17.722  13.502 -19.704  1.00  0.00     0.000 C 
BRANCH   3   4
ATOM      4  C   UNL     1     -18.776  14.053 -18.726  1.00  0.00     0.000 C 
BRANCH   4   5
ATOM      5  C   UNL     1     -19.538  12.942 -17.983  1.00  0.00     0.000 C 
BRANCH   5   6
ATOM      6  C   UNL     1     -21.064  13.082 -18.109  1.00  0.00     0.000 C 
BRANCH   6   7
ATOM      7  C   UNL     1     -21.796  12.836 -16.780  1.00  0.00     0.006 C 
BRANCH   7   8
ATOM      8  C   UNL     1     -23.256  13.290 -16.865  1.00  0.00     0.053 C 
BRANCH   8   9
ATOM      9  C   UNL     1     -23.423  14.640 -16.244  1.00  0.00     0.041 C 
ATOM     10  O   UNL     1     -24.564  15.171 -16.179  1.00  0.00    -0.550 OA
ATOM     11  O   UNL     1     -22.328  15.291 -15.690  1.00  0.00    -0.550 OA
ENDBRANCH   8   9
ENDBRANCH   7   8
ENDBRANCH   6   7
ENDBRANCH   5   6
ENDBRANCH   4   5
ENDBRANCH   3   4
ENDBRANCH   2   3
ENDBRANCH   1   2
BRANCH   1  12
ATOM     12  C   UNL     1     -18.070  15.683 -23.009  1.00  0.00     0.000 C 
BRANCH  12  13
ATOM     13  C   UNL     1     -17.580  14.627 -24.013  1.00  0.00    -0.000 C 
BRANCH  13  14
ATOM     14  C   UNL     1     -18.679  14.179 -24.990  1.00  0.00    -0.000 C 
BRANCH  14  15
ATOM     15  C   UNL     1     -19.566  13.042 -24.438  1.00  0.00    -0.000 C 
BRANCH  15  16
ATOM     16  C   UNL     1     -21.036  13.199 -24.852  1.00  0.00    -0.000 C 
BRANCH  16  17
ATOM     17  C   UNL     1     -21.961  13.141 -23.627  1.00  0.00    -0.000 C 
BRANCH  17  18
ATOM     18  C   UNL     1     -21.327  13.765 -22.374  1.00  0.00    -0.000 C 
BRANCH  18  19
ATOM     19  C   UNL     1     -21.696  15.245 -22.200  1.00  0.00    -0.003 C 
ATOM     20  C   UNL     1     -21.363  15.732 -20.791  1.00  0.00     0.004 C 
ENDBRANCH  18  19
ENDBRANCH  17  18
ENDBRANCH  16  17
ENDBRANCH  15  16
ENDBRANCH  14  15
ENDBRANCH  13  14
ENDBRANCH  12  13
ENDBRANCH   1  12
TORSDOF 16
ENDMDL
MODEL 6
REMARK VINA RESULT:    -2.145      3.164      5.173
REMARK INTER + INTRA:          -7.293
REMARK INTER:                  -5.008
REMARK INTRA:                  -2.284
REMARK UNBOUND:                -3.141
REMARK SMILES CCCCCCCCCCCCCCCCCC(=O)[O-]
REMARK SMILES IDX 10 1 11 2 12 3 13 4 14 5 15 6 16 7 17 8 18 9 19 10 20 11
REMARK SMILES IDX 9 12 8 13 7 14 6 15 5 16 4 17 3 18 2 19 1 20
REMARK H PARENT
REMARK Flexibility Score: inf
ROOT
ATOM      1  C   UNL     1     -21.700  27.707 -17.811  1.00  0.00     0.000 C 
ENDROOT
BRANCH   1   2
ATOM      2  C   UNL     1     -20.703  28.877 -17.707  1.00  0.00     0.000 C 
BRANCH   2   3
ATOM      3  C   UNL     1     -19.745  29.023 -18.905  1.00  0.00     0.000 C 
BRANCH   3   4
ATOM      4  C   UNL     1     -19.361  27.702 -19.598  1.00  0.00     0.000 C 
BRANCH   4   5
ATOM      5  C   UNL     1     -18.583  27.920 -20.907  1.00  0.00     0.000 C 
BRANCH   5   6
ATOM      6  C   UNL     1     -18.546  29.397 -21.336  1.00  0.00     0.000 C 
BRANCH   6   7
ATOM      7  C   UNL     1     -17.191  29.808 -21.937  1.00  0.00     0.006 C 
BRANCH   7   8
ATOM      8  C   UNL     1     -16.531  30.907 -21.099  1.00  0.00     0.053 C 
BRANCH   8   9
ATOM      9  C   UNL     1     -15.958  30.335 -19.842  1.00  0.00     0.041 C 
ATOM     10  O   UNL     1     -16.470  30.620 -18.726  1.00  0.00    -0.550 OA
ATOM     11  O   UNL     1     -14.892  29.448 -19.904  1.00  0.00    -0.550 OA
ENDBRANCH   8   9
ENDBRANCH   7   8
ENDBRANCH   6   7
ENDBRANCH   5   6
ENDBRANCH   4   5
ENDBRANCH   3   4
ENDBRANCH   2   3
ENDBRANCH   1   2
BRANCH   1  12
ATOM     12  C   UNL     1     -23.144  28.083 -17.409  1.00  0.00     0.000 C 
BRANCH  12  13
ATOM     13  C   UNL     1     -23.308  29.591 -17.161  1.00  0.00    -0.000 C 
BRANCH  13  14
ATOM     14  C   UNL     1     -24.423  30.217 -18.015  1.00  0.00    -0.000 C 
BRANCH  14  15
ATOM     15  C   UNL     1     -24.823  29.354 -19.231  1.00  0.00    -0.000 C 
BRANCH  15  16
ATOM     16  C   UNL     1     -24.806  30.155 -20.541  1.00  0.00    -0.000 C 
BRANCH  16  17
ATOM     17  C   UNL     1     -24.046  29.397 -21.639  1.00  0.00    -0.000 C 
BRANCH  17  18
ATOM     18  C   UNL     1     -22.733  28.779 -21.134  1.00  0.00    -0.000 C 
BRANCH  18  19
ATOM     19  C   UNL     1     -22.280  27.581 -21.980  1.00  0.00    -0.003 C 
ATOM     20  C   UNL     1     -23.234  27.341 -23.148  1.00  0.00     0.004 C 
ENDBRANCH  18  19
ENDBRANCH  17  18
ENDBRANCH  16  17
ENDBRANCH  15  16
ENDBRANCH  14  15
ENDBRANCH  13  14
ENDBRANCH  12  13
ENDBRANCH   1  12
TORSDOF 16
ENDMDL
MODEL 7
REMARK VINA RESULT:    -2.101     12.493     14.643
REMARK INTER + INTRA:          -7.207
REMARK INTER:                  -5.006
REMARK INTRA:                  -2.201
REMARK UNBOUND:                -3.141
REMARK SMILES CCCCCCCCCCCCCCCCCC(=O)[O-]
REMARK SMILES IDX 10 1 11 2 12 3 13 4 14 5 15 6 16 7 17 8 18 9 19 10 20 11
REMARK SMILES IDX 9 12 8 13 7 14 6 15 5 16 4 17 3 18 2 19 1 20
REMARK H PARENT
REMARK Flexibility Score: inf
ROOT
ATOM      1  C   UNL     1     -18.567  14.263 -18.039  1.00  0.00     0.000 C 
ENDROOT
BRANCH   1   2
ATOM      2  C   UNL     1     -18.801  14.854 -16.636  1.00  0.00     0.000 C 
BRANCH   2   3
ATOM      3  C   UNL     1     -20.020  15.790 -16.519  1.00  0.00     0.000 C 
BRANCH   3   4
ATOM      4  C   UNL     1     -21.293  15.135 -15.952  1.00  0.00     0.000 C 
BRANCH   4   5
ATOM      5  C   UNL     1     -22.321  14.787 -17.043  1.00  0.00     0.000 C 
BRANCH   5   6
ATOM      6  C   UNL     1     -22.273  13.305 -17.453  1.00  0.00     0.000 C 
BRANCH   6   7
ATOM      7  C   UNL     1     -21.872  12.380 -16.293  1.00  0.00     0.006 C 
BRANCH   7   8
ATOM      8  C   UNL     1     -20.632  11.557 -16.652  1.00  0.00     0.053 C 
BRANCH   8   9
ATOM      9  C   UNL     1     -19.769  11.355 -15.446  1.00  0.00     0.041 C 
ATOM     10  O   UNL     1     -18.519  11.483 -15.533  1.00  0.00    -0.550 OA
ATOM     11  O   UNL     1     -20.349  11.077 -14.216  1.00  0.00    -0.550 OA
ENDBRANCH   8   9
ENDBRANCH   7   8
ENDBRANCH   6   7
ENDBRANCH   5   6
ENDBRANCH   4   5
ENDBRANCH   3   4
ENDBRANCH   2   3
ENDBRANCH   1   2
BRANCH   1  12
ATOM     12  C   UNL     1     -18.974  15.210 -19.189  1.00  0.00     0.000 C 
BRANCH  12  13
ATOM     13  C   UNL     1     -20.106  14.630 -20.052  1.00  0.00    -0.000 C 
BRANCH  13  14
ATOM     14  C   UNL     1     -20.953  15.718 -20.734  1.00  0.00    -0.000 C 
BRANCH  14  15
ATOM     15  C   UNL     1     -21.723  15.212 -21.972  1.00  0.00    -0.000 C 
BRANCH  15  16
ATOM     16  C   UNL     1     -21.348  13.769 -22.340  1.00  0.00    -0.000 C 
BRANCH  16  17
ATOM     17  C   UNL     1     -21.669  13.477 -23.812  1.00  0.00    -0.000 C 
BRANCH  17  18
ATOM     18  C   UNL     1     -20.422  13.104 -24.630  1.00  0.00    -0.000 C 
BRANCH  18  19
ATOM     19  C   UNL     1     -19.119  13.301 -23.841  1.00  0.00    -0.003 C 
ATOM     20  C   UNL     1     -17.927  13.464 -24.782  1.00  0.00     0.004 C 
ENDBRANCH  18  19
ENDBRANCH  17  18
ENDBRANCH  16  17
ENDBRANCH  15  16
ENDBRANCH  14  15
ENDBRANCH  13  14
ENDBRANCH  12  13
ENDBRANCH   1  12
TORSDOF 16
ENDMDL
MODEL 8
REMARK VINA RESULT:    -2.089     10.280     13.385
REMARK INTER + INTRA:          -7.184
REMARK INTER:                  -5.022
REMARK INTRA:                  -2.162
REMARK UNBOUND:                -3.141
REMARK SMILES CCCCCCCCCCCCCCCCCC(=O)[O-]
REMARK SMILES IDX 10 1 11 2 12 3 13 4 14 5 15 6 16 7 17 8 18 9 19 10 20 11
REMARK SMILES IDX 9 12 8 13 7 14 6 15 5 16 4 17 3 18 2 19 1 20
REMARK H PARENT
REMARK Flexibility Score: inf
ROOT
ATOM      1  C   UNL     1     -20.287  17.235 -19.693  1.00  0.00     0.000 C 
ENDROOT
BRANCH   1   2
ATOM      2  C   UNL     1     -19.840  16.464 -20.950  1.00  0.00     0.000 C 
BRANCH   2   3
ATOM      3  C   UNL     1     -19.890  14.929 -20.825  1.00  0.00     0.000 C 
BRANCH   3   4
ATOM      4  C   UNL     1     -21.141  14.266 -21.431  1.00  0.00     0.000 C 
BRANCH   4   5
ATOM      5  C   UNL     1     -21.844  15.158 -22.469  1.00  0.00     0.000 C 
BRANCH   5   6
ATOM      6  C   UNL     1     -22.471  14.350 -23.618  1.00  0.00     0.000 C 
BRANCH   6   7
ATOM      7  C   UNL     1     -21.533  13.259 -24.159  1.00  0.00     0.006 C 
BRANCH   7   8
ATOM      8  C   UNL     1     -20.473  13.857 -25.087  1.00  0.00     0.053 C 
BRANCH   8   9
ATOM      9  C   UNL     1     -19.108  13.692 -24.499  1.00  0.00     0.041 C 
ATOM     10  O   UNL     1     -18.591  12.546 -24.409  1.00  0.00    -0.550 OA
ATOM     11  O   UNL     1     -18.384  14.807 -24.098  1.00  0.00    -0.550 OA
ENDBRANCH   8   9
ENDBRANCH   7   8
ENDBRANCH   6   7
ENDBRANCH   5   6
ENDBRANCH   4   5
ENDBRANCH   3   4
ENDBRANCH   2   3
ENDBRANCH   1   2
BRANCH   1  12
ATOM     12  C   UNL     1     -21.696  17.855 -19.813  1.00  0.00     0.000 C 
BRANCH  12  13
ATOM     13  C   UNL     1     -22.790  16.939 -19.242  1.00  0.00    -0.000 C 
BRANCH  13  14
ATOM     14  C   UNL     1     -22.812  16.925 -17.705  1.00  0.00    -0.000 C 
BRANCH  14  15
ATOM     15  C   UNL     1     -22.884  15.505 -17.104  1.00  0.00    -0.000 C 
BRANCH  15  16
ATOM     16  C   UNL     1     -21.522  14.796 -17.127  1.00  0.00    -0.000 C 
BRANCH  16  17
ATOM     17  C   UNL     1     -21.603  13.476 -17.910  1.00  0.00    -0.000 C 
BRANCH  17  18
ATOM     18  C   UNL     1     -21.087  12.275 -17.102  1.00  0.00    -0.000 C 
BRANCH  18  19
ATOM     19  C   UNL     1     -21.892  12.038 -15.816  1.00  0.00    -0.003 C 
ATOM     20  C   UNL     1     -20.969  11.727 -14.640  1.00  0.00     0.004 C 
ENDBRANCH  18  19
ENDBRANCH  17  18
ENDBRANCH  16  17
ENDBRANCH  15  16
ENDBRANCH  14  15
ENDBRANCH  13  14
ENDBRANCH  12  13
ENDBRANCH   1  12
TORSDOF 16
ENDMDL
MODEL 9
REMARK VINA RESULT:    -2.042      3.610      6.854
REMARK INTER + INTRA:          -7.093
REMARK INTER:                  -5.375
REMARK INTRA:                  -1.718
REMARK UNBOUND:                -3.141
REMARK SMILES CCCCCCCCCCCCCCCCCC(=O)[O-]
REMARK SMILES IDX 10 1 11 2 12 3 13 4 14 5 15 6 16 7 17 8 18 9 19 10 20 11
REMARK SMILES IDX 9 12 8 13 7 14 6 15 5 16 4 17 3 18 2 19 1 20
REMARK H PARENT
REMARK Flexibility Score: inf
ROOT
ATOM      1  C   UNL     1     -21.000  27.264 -20.148  1.00  0.00     0.000 C 
ENDROOT
BRANCH   1   2
ATOM      2  C   UNL     1     -21.820  27.572 -21.415  1.00  0.00     0.000 C 
BRANCH   2   3
ATOM      3  C   UNL     1     -22.358  29.013 -21.508  1.00  0.00     0.000 C 
BRANCH   3   4
ATOM      4  C   UNL     1     -23.839  29.131 -21.913  1.00  0.00     0.000 C 
BRANCH   4   5
ATOM      5  C   UNL     1     -24.666  29.959 -20.914  1.00  0.00     0.000 C 
BRANCH   5   6
ATOM      6  C   UNL     1     -24.913  29.217 -19.590  1.00  0.00     0.000 C 
BRANCH   6   7
ATOM      7  C   UNL     1     -24.488  30.036 -18.361  1.00  0.00     0.006 C 
BRANCH   7   8
ATOM      8  C   UNL     1     -23.381  29.322 -17.580  1.00  0.00     0.053 C 
BRANCH   8   9
ATOM      9  C   UNL     1     -23.872  28.009 -17.057  1.00  0.00     0.041 C 
ATOM     10  O   UNL     1     -24.835  27.971 -16.246  1.00  0.00    -0.550 OA
ATOM     11  O   UNL     1     -23.299  26.825 -17.503  1.00  0.00    -0.550 OA
ENDBRANCH   8   9
ENDBRANCH   7   8
ENDBRANCH   6   7
ENDBRANCH   5   6
ENDBRANCH   4   5
ENDBRANCH   3   4
ENDBRANCH   2   3
ENDBRANCH   1   2
BRANCH   1  12
ATOM     12  C   UNL     1     -20.481  28.524 -19.421  1.00  0.00     0.000 C 
BRANCH  12  13
ATOM     13  C   UNL     1     -18.968  28.465 -19.156  1.00  0.00    -0.000 C 
BRANCH  13  14
ATOM     14  C   UNL     1     -18.142  28.337 -20.447  1.00  0.00    -0.000 C 
BRANCH  14  15
ATOM     15  C   UNL     1     -18.110  29.631 -21.288  1.00  0.00    -0.000 C 
BRANCH  15  16
ATOM     16  C   UNL     1     -17.479  30.804 -20.524  1.00  0.00    -0.000 C 
BRANCH  16  17
ATOM     17  C   UNL     1     -16.023  31.023 -20.960  1.00  0.00    -0.000 C 
BRANCH  17  18
ATOM     18  C   UNL     1     -15.765  30.587 -22.411  1.00  0.00    -0.000 C 
BRANCH  18  19
ATOM     19  C   UNL     1     -14.296  30.751 -22.825  1.00  0.00    -0.003 C 
ATOM     20  C   UNL     1     -13.441  29.608 -22.281  1.00  0.00     0.004 C 
ENDBRANCH  18  19
ENDBRANCH  17  18
ENDBRANCH  16  17
ENDBRANCH  15  16
ENDBRANCH  14  15
ENDBRANCH  13  14
ENDBRANCH  12  13
ENDBRANCH   1  12
TORSDOF 16
ENDMDL
