MODEL 1
REMARK VINA RESULT:    -4.920      0.000      0.000
REMARK INTER + INTRA:          -6.079
REMARK INTER:                  -5.783
REMARK INTRA:                  -0.296
REMARK UNBOUND:                -0.296
REMARK SMILES O=c1cc(-c2ccc(O)c(O)c2)oc2cc(O)cc(O)c12
REMARK SMILES IDX 4 1 3 2 2 3 1 4 21 5 19 6 18 7 16 8 15 9 14 10 13 11 5 12
REMARK SMILES IDX 6 13 7 14 8 15 12 16 10 17 9 18 11 20 20 22 17 24
REMARK H PARENT 9 19 11 21 20 23 17 25
REMARK Flexibility Score: inf
ROOT
ATOM      1  C   UNL     1      31.465  19.626  31.422  1.00  0.00     0.138 A 
ATOM      2  C   UNL     1      30.771  19.944  32.598  1.00  0.00     0.100 A 
ATOM      3  C   UNL     1      29.747  20.890  32.561  1.00  0.00     0.197 A 
ATOM      4  O   UNL     1      29.100  21.109  33.619  1.00  0.00    -0.289 OA
ATOM      5  C   UNL     1      29.439  21.546  31.345  1.00  0.00     0.107 A 
ATOM      6  C   UNL     1      28.443  22.559  31.197  1.00  0.00     0.134 A 
ATOM      7  C   UNL     1      28.147  23.053  29.921  1.00  0.00     0.093 A 
ATOM      8  C   UNL     1      28.852  22.616  28.796  1.00  0.00     0.123 A 
ATOM      9  C   UNL     1      29.862  21.668  28.939  1.00  0.00     0.094 A 
ATOM     10  C   UNL     1      30.157  21.130  30.193  1.00  0.00     0.146 A 
ATOM     11  O   UNL     1      31.119  20.216  30.283  1.00  0.00    -0.456 OA
ENDROOT
BRANCH   1  12
ATOM     12  C   UNL     1      32.563  18.627  31.405  1.00  0.00     0.021 A 
ATOM     13  C   UNL     1      33.116  18.227  30.176  1.00  0.00     0.016 A 
ATOM     14  C   UNL     1      34.155  17.295  30.134  1.00  0.00     0.051 A 
ATOM     15  C   UNL     1      34.667  16.751  31.316  1.00  0.00     0.157 A 
ATOM     16  C   UNL     1      33.091  18.087  32.595  1.00  0.00     0.062 A 
ATOM     17  C   UNL     1      34.135  17.151  32.553  1.00  0.00     0.158 A 
BRANCH  15  18
ATOM     18  O   UNL     1      35.702  15.822  31.241  1.00  0.00    -0.504 OA
ATOM     19  H   UNL     1      36.649  16.046  31.526  1.00  0.00     0.293 HD
ENDBRANCH  15  18
BRANCH  17  20
ATOM     20  O   UNL     1      34.649  16.622  33.736  1.00  0.00    -0.504 OA
ATOM     21  H   UNL     1      34.612  17.136  34.608  1.00  0.00     0.293 HD
ENDBRANCH  17  20
ENDBRANCH   1  12
BRANCH   6  22
ATOM     22  O   UNL     1      27.741  23.125  32.265  1.00  0.00    -0.507 OA
ATOM     23  H   UNL     1      28.163  23.486  33.106  1.00  0.00     0.293 HD
ENDBRANCH   6  22
BRANCH   8  24
ATOM     24  O   UNL     1      28.560  23.125  27.533  1.00  0.00    -0.508 OA
ATOM     25  H   UNL     1      28.943  22.710  26.692  1.00  0.00     0.293 HD
ENDBRANCH   8  24
TORSDOF 5
ENDMDL
MODEL 2
REMARK VINA RESULT:    -4.809      1.179      2.734
REMARK INTER + INTRA:          -5.948
REMARK INTER:                  -5.631
REMARK INTRA:                  -0.318
REMARK UNBOUND:                -0.296
REMARK SMILES O=c1cc(-c2ccc(O)c(O)c2)oc2cc(O)cc(O)c12
REMARK SMILES IDX 4 1 3 2 2 3 1 4 21 5 19 6 18 7 16 8 15 9 14 10 13 11 5 12
REMARK SMILES IDX 6 13 7 14 8 15 12 16 10 17 9 18 11 20 20 22 17 24
REMARK H PARENT 9 19 11 21 20 23 17 25
REMARK Flexibility Score: inf
ROOT
ATOM      1  C   UNL     1      32.050  19.104  30.746  1.00  0.00     0.138 A 
ATOM      2  C   UNL     1      31.750  19.575  29.460  1.00  0.00     0.100 A 
ATOM      3  C   UNL     1      30.751  20.534  29.292  1.00  0.00     0.197 A 
ATOM      4  O   UNL     1      30.547  20.984  28.134  1.00  0.00    -0.289 OA
ATOM      5  C   UNL     1      30.026  20.999  30.415  1.00  0.00     0.107 A 
ATOM      6  C   UNL     1      28.958  21.945  30.359  1.00  0.00     0.134 A 
ATOM      7  C   UNL     1      28.393  22.418  31.549  1.00  0.00     0.093 A 
ATOM      8  C   UNL     1      28.815  21.935  32.791  1.00  0.00     0.123 A 
ATOM      9  C   UNL     1      29.819  20.972  32.853  1.00  0.00     0.094 A 
ATOM     10  C   UNL     1      30.428  20.506  31.685  1.00  0.00     0.146 A 
ATOM     11  O   UNL     1      31.392  19.598  31.790  1.00  0.00    -0.456 OA
ENDROOT
BRANCH   1  12
ATOM     12  C   UNL     1      33.102  18.084  30.981  1.00  0.00     0.021 A 
ATOM     13  C   UNL     1      33.750  17.491  29.883  1.00  0.00     0.016 A 
ATOM     14  C   UNL     1      34.749  16.535  30.078  1.00  0.00     0.051 A 
ATOM     15  C   UNL     1      35.126  16.159  31.371  1.00  0.00     0.157 A 
ATOM     16  C   UNL     1      33.495  17.712  32.282  1.00  0.00     0.062 A 
ATOM     17  C   UNL     1      34.499  16.752  32.479  1.00  0.00     0.158 A 
BRANCH  15  18
ATOM     18  O   UNL     1      36.125  15.201  31.534  1.00  0.00    -0.504 OA
ATOM     19  H   UNL     1      37.035  15.431  31.917  1.00  0.00     0.293 HD
ENDBRANCH  15  18
BRANCH  17  20
ATOM     20  O   UNL     1      34.879  16.390  33.771  1.00  0.00    -0.504 OA
ATOM     21  H   UNL     1      35.166  17.081  34.453  1.00  0.00     0.293 HD
ENDBRANCH  17  20
ENDBRANCH   1  12
BRANCH   6  22
ATOM     22  O   UNL     1      28.405  22.428  29.169  1.00  0.00    -0.507 OA
ATOM     23  H   UNL     1      28.878  23.034  28.517  1.00  0.00     0.293 HD
ENDBRANCH   6  22
BRANCH   8  24
ATOM     24  O   UNL     1      28.236  22.401  33.968  1.00  0.00    -0.508 OA
ATOM     25  H   UNL     1      27.998  21.773  34.727  1.00  0.00     0.293 HD
ENDBRANCH   8  24
TORSDOF 5
ENDMDL
MODEL 3
REMARK VINA RESULT:    -4.709      1.626      7.317
REMARK INTER + INTRA:          -5.832
REMARK INTER:                  -5.514
REMARK INTRA:                  -0.318
REMARK UNBOUND:                -0.296
REMARK SMILES O=c1cc(-c2ccc(O)c(O)c2)oc2cc(O)cc(O)c12
REMARK SMILES IDX 4 1 3 2 2 3 1 4 21 5 19 6 18 7 16 8 15 9 14 10 13 11 5 12
REMARK SMILES IDX 6 13 7 14 8 15 12 16 10 17 9 18 11 20 20 22 17 24
REMARK H PARENT 9 19 11 21 20 23 17 25
REMARK Flexibility Score: inf
ROOT
ATOM      1  C   UNL     1      31.776  19.303  30.925  1.00  0.00     0.138 A 
ATOM      2  C   UNL     1      32.123  19.068  29.587  1.00  0.00     0.100 A 
ATOM      3  C   UNL     1      33.134  18.155  29.287  1.00  0.00     0.197 A 
ATOM      4  O   UNL     1      33.381  17.919  28.076  1.00  0.00    -0.289 OA
ATOM      5  C   UNL     1      33.823  17.499  30.335  1.00  0.00     0.107 A 
ATOM      6  C   UNL     1      34.899  16.579  30.149  1.00  0.00     0.134 A 
ATOM      7  C   UNL     1      35.427  15.903  31.256  1.00  0.00     0.093 A 
ATOM      8  C   UNL     1      34.958  16.157  32.548  1.00  0.00     0.123 A 
ATOM      9  C   UNL     1      33.945  17.092  32.744  1.00  0.00     0.094 A 
ATOM     10  C   UNL     1      33.374  17.758  31.657  1.00  0.00     0.146 A 
ATOM     11  O   UNL     1      32.400  18.632  31.888  1.00  0.00    -0.456 OA
ENDROOT
BRANCH   1  12
ATOM     12  C   UNL     1      30.708  20.264  31.301  1.00  0.00     0.021 A 
ATOM     13  C   UNL     1      29.975  20.913  30.292  1.00  0.00     0.016 A 
ATOM     14  C   UNL     1      28.960  21.816  30.620  1.00  0.00     0.051 A 
ATOM     15  C   UNL     1      28.652  22.079  31.957  1.00  0.00     0.157 A 
ATOM     16  C   UNL     1      30.385  20.523  32.648  1.00  0.00     0.062 A 
ATOM     17  C   UNL     1      29.365  21.428  32.977  1.00  0.00     0.158 A 
BRANCH  15  18
ATOM     18  O   UNL     1      27.636  22.986  32.253  1.00  0.00    -0.504 OA
ATOM     19  H   UNL     1      27.026  23.364  31.537  1.00  0.00     0.293 HD
ENDBRANCH  15  18
BRANCH  17  20
ATOM     20  O   UNL     1      29.055  21.678  34.314  1.00  0.00    -0.504 OA
ATOM     21  H   UNL     1      28.739  22.589  34.624  1.00  0.00     0.293 HD
ENDBRANCH  17  20
ENDBRANCH   1  12
BRANCH   6  22
ATOM     22  O   UNL     1      35.497  16.316  28.913  1.00  0.00    -0.507 OA
ATOM     23  H   UNL     1      36.265  16.839  28.521  1.00  0.00     0.293 HD
ENDBRANCH   6  22
BRANCH   8  24
ATOM     24  O   UNL     1      35.500  15.490  33.644  1.00  0.00    -0.508 OA
ATOM     25  H   UNL     1      35.513  14.478  33.695  1.00  0.00     0.293 HD
ENDBRANCH   8  24
TORSDOF 5
ENDMDL
MODEL 4
REMARK VINA RESULT:    -4.420      1.909      2.361
REMARK INTER + INTRA:          -5.491
REMARK INTER:                  -5.225
REMARK INTRA:                  -0.266
REMARK UNBOUND:                -0.296
REMARK SMILES O=c1cc(-c2ccc(O)c(O)c2)oc2cc(O)cc(O)c12
REMARK SMILES IDX 4 1 3 2 2 3 1 4 21 5 19 6 18 7 16 8 15 9 14 10 13 11 5 12
REMARK SMILES IDX 6 13 7 14 8 15 12 16 10 17 9 18 11 20 20 22 17 24
REMARK H PARENT 9 19 11 21 20 23 17 25
REMARK Flexibility Score: inf
ROOT
ATOM      1  C   UNL     1      31.331  19.389  30.191  1.00  0.00     0.138 A 
ATOM      2  C   UNL     1      31.209  20.724  30.603  1.00  0.00     0.100 A 
ATOM      3  C   UNL     1      30.163  21.505  30.112  1.00  0.00     0.197 A 
ATOM      4  O   UNL     1      30.042  22.680  30.548  1.00  0.00    -0.289 OA
ATOM      5  C   UNL     1      29.253  20.956  29.177  1.00  0.00     0.107 A 
ATOM      6  C   UNL     1      28.173  21.671  28.577  1.00  0.00     0.134 A 
ATOM      7  C   UNL     1      27.268  20.989  27.753  1.00  0.00     0.093 A 
ATOM      8  C   UNL     1      27.439  19.633  27.461  1.00  0.00     0.123 A 
ATOM      9  C   UNL     1      28.521  18.941  27.998  1.00  0.00     0.094 A 
ATOM     10  C   UNL     1      29.421  19.583  28.851  1.00  0.00     0.146 A 
ATOM     11  O   UNL     1      30.431  18.882  29.355  1.00  0.00    -0.456 OA
ENDROOT
BRANCH   1  12
ATOM     12  C   UNL     1      32.424  18.514  30.682  1.00  0.00     0.021 A 
ATOM     13  C   UNL     1      33.342  17.972  29.765  1.00  0.00     0.016 A 
ATOM     14  C   UNL     1      34.384  17.152  30.203  1.00  0.00     0.051 A 
ATOM     15  C   UNL     1      34.536  16.865  31.562  1.00  0.00     0.157 A 
ATOM     16  C   UNL     1      32.589  18.233  32.053  1.00  0.00     0.062 A 
ATOM     17  C   UNL     1      33.637  17.410  32.493  1.00  0.00     0.158 A 
BRANCH  15  18
ATOM     18  O   UNL     1      35.585  16.042  31.968  1.00  0.00    -0.504 OA
ATOM     19  H   UNL     1      36.538  16.378  32.035  1.00  0.00     0.293 HD
ENDBRANCH  15  18
BRANCH  17  20
ATOM     20  O   UNL     1      33.789  17.137  33.852  1.00  0.00    -0.504 OA
ATOM     21  H   UNL     1      34.568  16.590  34.199  1.00  0.00     0.293 HD
ENDBRANCH  17  20
ENDBRANCH   1  12
BRANCH   6  22
ATOM     22  O   UNL     1      27.962  23.043  28.735  1.00  0.00    -0.507 OA
ATOM     23  H   UNL     1      28.285  23.590  29.519  1.00  0.00     0.293 HD
ENDBRANCH   6  22
BRANCH   8  24
ATOM     24  O   UNL     1      26.542  18.968  26.628  1.00  0.00    -0.508 OA
ATOM     25  H   UNL     1      26.101  19.434  25.844  1.00  0.00     0.293 HD
ENDBRANCH   8  24
TORSDOF 5
ENDMDL
MODEL 5
REMARK VINA RESULT:    -4.354      2.827      4.074
REMARK INTER + INTRA:          -5.414
REMARK INTER:                  -5.121
REMARK INTRA:                  -0.294
REMARK UNBOUND:                -0.296
REMARK SMILES O=c1cc(-c2ccc(O)c(O)c2)oc2cc(O)cc(O)c12
REMARK SMILES IDX 4 1 3 2 2 3 1 4 21 5 19 6 18 7 16 8 15 9 14 10 13 11 5 12
REMARK SMILES IDX 6 13 7 14 8 15 12 16 10 17 9 18 11 20 20 22 17 24
REMARK H PARENT 9 19 11 21 20 23 17 25
REMARK Flexibility Score: inf
ROOT
ATOM      1  C   UNL     1      30.407  20.047  29.754  1.00  0.00     0.138 A 
ATOM      2  C   UNL     1      30.218  18.787  29.169  1.00  0.00     0.100 A 
ATOM      3  C   UNL     1      29.175  18.597  28.262  1.00  0.00     0.197 A 
ATOM      4  O   UNL     1      29.067  17.473  27.706  1.00  0.00    -0.289 OA
ATOM      5  C   UNL     1      28.298  19.667  27.964  1.00  0.00     0.107 A 
ATOM      6  C   UNL     1      27.175  19.579  27.087  1.00  0.00     0.134 A 
ATOM      7  C   UNL     1      26.448  20.735  26.779  1.00  0.00     0.093 A 
ATOM      8  C   UNL     1      26.766  21.964  27.363  1.00  0.00     0.123 A 
ATOM      9  C   UNL     1      27.825  22.049  28.262  1.00  0.00     0.094 A 
ATOM     10  C   UNL     1      28.592  20.921  28.563  1.00  0.00     0.146 A 
ATOM     11  O   UNL     1      29.604  21.050  29.415  1.00  0.00    -0.456 OA
ENDROOT
BRANCH   1  12
ATOM     12  C   UNL     1      31.501  20.304  30.725  1.00  0.00     0.021 A 
ATOM     13  C   UNL     1      31.880  21.628  31.006  1.00  0.00     0.016 A 
ATOM     14  C   UNL     1      32.900  21.896  31.922  1.00  0.00     0.051 A 
ATOM     15  C   UNL     1      33.553  20.850  32.580  1.00  0.00     0.157 A 
ATOM     16  C   UNL     1      32.153  19.253  31.400  1.00  0.00     0.062 A 
ATOM     17  C   UNL     1      33.177  19.522  32.321  1.00  0.00     0.158 A 
BRANCH  15  18
ATOM     18  O   UNL     1      34.569  21.149  33.486  1.00  0.00    -0.504 OA
ATOM     19  H   UNL     1      34.375  21.538  34.403  1.00  0.00     0.293 HD
ENDBRANCH  15  18
BRANCH  17  20
ATOM     20  O   UNL     1      33.818  18.475  32.982  1.00  0.00    -0.504 OA
ATOM     21  H   UNL     1      33.755  17.520  32.650  1.00  0.00     0.293 HD
ENDBRANCH  17  20
ENDBRANCH   1  12
BRANCH   6  22
ATOM     22  O   UNL     1      26.722  18.386  26.517  1.00  0.00    -0.507 OA
ATOM     23  H   UNL     1      26.777  17.479  26.956  1.00  0.00     0.293 HD
ENDBRANCH   6  22
BRANCH   8  24
ATOM     24  O   UNL     1      26.026  23.105  27.061  1.00  0.00    -0.508 OA
ATOM     25  H   UNL     1      25.889  23.844  27.741  1.00  0.00     0.293 HD
ENDBRANCH   8  24
TORSDOF 5
ENDMDL
MODEL 6
REMARK VINA RESULT:    -4.288      2.890      4.173
REMARK INTER + INTRA:          -5.336
REMARK INTER:                  -5.020
REMARK INTRA:                  -0.316
REMARK UNBOUND:                -0.296
REMARK SMILES O=c1cc(-c2ccc(O)c(O)c2)oc2cc(O)cc(O)c12
REMARK SMILES IDX 4 1 3 2 2 3 1 4 21 5 19 6 18 7 16 8 15 9 14 10 13 11 5 12
REMARK SMILES IDX 6 13 7 14 8 15 12 16 10 17 9 18 11 20 20 22 17 24
REMARK H PARENT 9 19 11 21 20 23 17 25
REMARK Flexibility Score: inf
ROOT
ATOM      1  C   UNL     1      30.363  21.073  30.236  1.00  0.00     0.138 A 
ATOM      2  C   UNL     1      29.575  22.205  29.982  1.00  0.00     0.100 A 
ATOM      3  C   UNL     1      28.490  22.109  29.112  1.00  0.00     0.197 A 
ATOM      4  O   UNL     1      27.764  23.125  28.952  1.00  0.00    -0.289 OA
ATOM      5  C   UNL     1      28.212  20.881  28.466  1.00  0.00     0.107 A 
ATOM      6  C   UNL     1      27.156  20.676  27.527  1.00  0.00     0.134 A 
ATOM      7  C   UNL     1      26.905  19.387  27.041  1.00  0.00     0.093 A 
ATOM      8  C   UNL     1      27.709  18.306  27.414  1.00  0.00     0.123 A 
ATOM      9  C   UNL     1      28.775  18.506  28.288  1.00  0.00     0.094 A 
ATOM     10  C   UNL     1      29.029  19.773  28.817  1.00  0.00     0.146 A 
ATOM     11  O   UNL     1      30.047  19.918  29.660  1.00  0.00    -0.456 OA
ENDROOT
BRANCH   1  12
ATOM     12  C   UNL     1      31.529  21.119  31.153  1.00  0.00     0.021 A 
ATOM     13  C   UNL     1      32.027  22.363  31.578  1.00  0.00     0.016 A 
ATOM     14  C   UNL     1      33.118  22.433  32.447  1.00  0.00     0.051 A 
ATOM     15  C   UNL     1      33.727  21.265  32.914  1.00  0.00     0.157 A 
ATOM     16  C   UNL     1      32.138  19.944  31.637  1.00  0.00     0.062 A 
ATOM     17  C   UNL     1      33.233  20.013  32.510  1.00  0.00     0.158 A 
BRANCH  15  18
ATOM     18  O   UNL     1      34.816  21.367  33.778  1.00  0.00    -0.504 OA
ATOM     19  H   UNL     1      35.686  20.875  33.609  1.00  0.00     0.293 HD
ENDBRANCH  15  18
BRANCH  17  20
ATOM     20  O   UNL     1      33.829  18.844  32.982  1.00  0.00    -0.504 OA
ATOM     21  H   UNL     1      34.519  18.342  32.436  1.00  0.00     0.293 HD
ENDBRANCH  17  20
ENDBRANCH   1  12
BRANCH   6  22
ATOM     22  O   UNL     1      26.349  21.701  27.024  1.00  0.00    -0.507 OA
ATOM     23  H   UNL     1      25.500  22.031  27.456  1.00  0.00     0.293 HD
ENDBRANCH   6  22
BRANCH   8  24
ATOM     24  O   UNL     1      27.461  17.031  26.913  1.00  0.00    -0.508 OA
ATOM     25  H   UNL     1      26.982  16.329  27.464  1.00  0.00     0.293 HD
ENDBRANCH   8  24
TORSDOF 5
ENDMDL
MODEL 7
REMARK VINA RESULT:    -4.267      2.943      7.503
REMARK INTER + INTRA:          -5.311
REMARK INTER:                  -5.048
REMARK INTRA:                  -0.263
REMARK UNBOUND:                -0.296
REMARK SMILES O=c1cc(-c2ccc(O)c(O)c2)oc2cc(O)cc(O)c12
REMARK SMILES IDX 4 1 3 2 2 3 1 4 21 5 19 6 18 7 16 8 15 9 14 10 13 11 5 12
REMARK SMILES IDX 6 13 7 14 8 15 12 16 10 17 9 18 11 20 20 22 17 24
REMARK H PARENT 9 19 11 21 20 23 17 25
REMARK Flexibility Score: inf
ROOT
ATOM      1  C   UNL     1      33.869  17.694  31.577  1.00  0.00     0.138 A 
ATOM      2  C   UNL     1      34.286  16.742  32.519  1.00  0.00     0.100 A 
ATOM      3  C   UNL     1      34.859  15.547  32.085  1.00  0.00     0.197 A 
ATOM      4  O   UNL     1      35.281  14.740  32.954  1.00  0.00    -0.289 OA
ATOM      5  C   UNL     1      34.986  15.290  30.699  1.00  0.00     0.107 A 
ATOM      6  C   UNL     1      35.517  14.088  30.141  1.00  0.00     0.134 A 
ATOM      7  C   UNL     1      35.702  13.994  28.756  1.00  0.00     0.093 A 
ATOM      8  C   UNL     1      35.318  15.034  27.905  1.00  0.00     0.123 A 
ATOM      9  C   UNL     1      34.749  16.188  28.436  1.00  0.00     0.094 A 
ATOM     10  C   UNL     1      34.585  16.327  29.816  1.00  0.00     0.146 A 
ATOM     11  O   UNL     1      34.051  17.451  30.283  1.00  0.00    -0.456 OA
ENDROOT
BRANCH   1  12
ATOM     12  C   UNL     1      33.253  18.982  31.983  1.00  0.00     0.021 A 
ATOM     13  C   UNL     1      31.861  19.147  31.877  1.00  0.00     0.016 A 
ATOM     14  C   UNL     1      31.256  20.346  32.260  1.00  0.00     0.051 A 
ATOM     15  C   UNL     1      32.026  21.398  32.764  1.00  0.00     0.157 A 
ATOM     16  C   UNL     1      34.024  20.040  32.504  1.00  0.00     0.062 A 
ATOM     17  C   UNL     1      33.416  21.244  32.890  1.00  0.00     0.158 A 
BRANCH  15  18
ATOM     18  O   UNL     1      31.394  22.583  33.136  1.00  0.00    -0.504 OA
ATOM     19  H   UNL     1      30.468  22.827  32.803  1.00  0.00     0.293 HD
ENDBRANCH  15  18
BRANCH  17  20
ATOM     20  O   UNL     1      34.189  22.286  33.402  1.00  0.00    -0.504 OA
ATOM     21  H   UNL     1      33.887  23.251  33.342  1.00  0.00     0.293 HD
ENDBRANCH  17  20
ENDBRANCH   1  12
BRANCH   6  22
ATOM     22  O   UNL     1      35.853  12.959  30.894  1.00  0.00    -0.507 OA
ATOM     23  H   UNL     1      35.336  12.093  30.897  1.00  0.00     0.293 HD
ENDBRANCH   6  22
BRANCH   8  24
ATOM     24  O   UNL     1      35.491  14.924  26.527  1.00  0.00    -0.508 OA
ATOM     25  H   UNL     1      34.767  14.544  25.930  1.00  0.00     0.293 HD
ENDBRANCH   8  24
TORSDOF 5
ENDMDL
MODEL 8
REMARK VINA RESULT:    -4.073      2.202      7.088
REMARK INTER + INTRA:          -5.083
REMARK INTER:                  -4.788
REMARK INTRA:                  -0.296
REMARK UNBOUND:                -0.296
REMARK SMILES O=c1cc(-c2ccc(O)c(O)c2)oc2cc(O)cc(O)c12
REMARK SMILES IDX 4 1 3 2 2 3 1 4 21 5 19 6 18 7 16 8 15 9 14 10 13 11 5 12
REMARK SMILES IDX 6 13 7 14 8 15 12 16 10 17 9 18 11 20 20 22 17 24
REMARK H PARENT 9 19 11 21 20 23 17 25
REMARK Flexibility Score: inf
ROOT
ATOM      1  C   UNL     1      29.651  20.634  29.496  1.00  0.00     0.138 A 
ATOM      2  C   UNL     1      29.852  21.091  30.806  1.00  0.00     0.100 A 
ATOM      3  C   UNL     1      30.936  20.616  31.544  1.00  0.00     0.197 A 
ATOM      4  O   UNL     1      31.127  21.091  32.694  1.00  0.00    -0.289 OA
ATOM      5  C   UNL     1      31.804  19.652  30.978  1.00  0.00     0.107 A 
ATOM      6  C   UNL     1      32.917  19.065  31.652  1.00  0.00     0.134 A 
ATOM      7  C   UNL     1      33.775  18.209  30.950  1.00  0.00     0.093 A 
ATOM      8  C   UNL     1      33.525  17.871  29.617  1.00  0.00     0.123 A 
ATOM      9  C   UNL     1      32.411  18.396  28.968  1.00  0.00     0.094 A 
ATOM     10  C   UNL     1      31.556  19.281  29.629  1.00  0.00     0.146 A 
ATOM     11  O   UNL     1      30.513  19.771  28.968  1.00  0.00    -0.456 OA
ENDROOT
BRANCH   1  12
ATOM     12  C   UNL     1      28.514  21.106  28.667  1.00  0.00     0.021 A 
ATOM     13  C   UNL     1      28.162  22.467  28.685  1.00  0.00     0.016 A 
ATOM     14  C   UNL     1      27.101  22.938  27.908  1.00  0.00     0.051 A 
ATOM     15  C   UNL     1      26.379  22.063  27.092  1.00  0.00     0.157 A 
ATOM     16  C   UNL     1      27.791  20.230  27.833  1.00  0.00     0.062 A 
ATOM     17  C   UNL     1      26.726  20.703  27.051  1.00  0.00     0.158 A 
BRANCH  15  18
ATOM     18  O   UNL     1      25.324  22.562  26.330  1.00  0.00    -0.504 OA
ATOM     19  H   UNL     1      24.939  22.051  25.544  1.00  0.00     0.293 HD
ENDBRANCH  15  18
BRANCH  17  20
ATOM     20  O   UNL     1      26.017  19.826  26.231  1.00  0.00    -0.504 OA
ATOM     21  H   UNL     1      25.899  20.004  25.240  1.00  0.00     0.293 HD
ENDBRANCH  17  20
ENDBRANCH   1  12
BRANCH   6  22
ATOM     22  O   UNL     1      33.208  19.269  33.003  1.00  0.00    -0.507 OA
ATOM     23  H   UNL     1      32.598  19.730  33.662  1.00  0.00     0.293 HD
ENDBRANCH   6  22
BRANCH   8  24
ATOM     24  O   UNL     1      34.375  17.006  28.932  1.00  0.00    -0.508 OA
ATOM     25  H   UNL     1      35.182  17.348  28.424  1.00  0.00     0.293 HD
ENDBRANCH   8  24
TORSDOF 5
ENDMDL
MODEL 9
REMARK VINA RESULT:    -2.737      3.842      5.705
REMARK INTER + INTRA:          -3.514
REMARK INTER:                  -3.251
REMARK INTRA:                  -0.263
REMARK UNBOUND:                -0.296
REMARK SMILES O=c1cc(-c2ccc(O)c(O)c2)oc2cc(O)cc(O)c12
REMARK SMILES IDX 4 1 3 2 2 3 1 4 21 5 19 6 18 7 16 8 15 9 14 10 13 11 5 12
REMARK SMILES IDX 6 13 7 14 8 15 12 16 10 17 9 18 11 20 20 22 17 24
REMARK H PARENT 9 19 11 21 20 23 17 25
REMARK Flexibility Score: inf
ROOT
ATOM      1  C   UNL     1      29.552  19.181  29.389  1.00  0.00     0.138 A 
ATOM      2  C   UNL     1      28.982  20.453  29.531  1.00  0.00     0.100 A 
ATOM      3  C   UNL     1      29.572  21.382  30.389  1.00  0.00     0.197 A 
ATOM      4  O   UNL     1      29.075  22.537  30.449  1.00  0.00    -0.289 OA
ATOM      5  C   UNL     1      30.722  21.022  31.132  1.00  0.00     0.107 A 
ATOM      6  C   UNL     1      31.384  21.872  32.068  1.00  0.00     0.134 A 
ATOM      7  C   UNL     1      32.582  21.448  32.657  1.00  0.00     0.093 A 
ATOM      8  C   UNL     1      33.108  20.181  32.392  1.00  0.00     0.123 A 
ATOM      9  C   UNL     1      32.439  19.323  31.522  1.00  0.00     0.094 A 
ATOM     10  C   UNL     1      31.262  19.730  30.890  1.00  0.00     0.146 A 
ATOM     11  O   UNL     1      30.663  18.887  30.056  1.00  0.00    -0.456 OA
ENDROOT
BRANCH   1  12
ATOM     12  C   UNL     1      28.965  18.155  28.491  1.00  0.00     0.021 A 
ATOM     13  C   UNL     1      29.551  17.917  27.235  1.00  0.00     0.016 A 
ATOM     14  C   UNL     1      29.022  16.951  26.375  1.00  0.00     0.051 A 
ATOM     15  C   UNL     1      27.906  16.200  26.755  1.00  0.00     0.157 A 
ATOM     16  C   UNL     1      27.849  17.386  28.875  1.00  0.00     0.062 A 
ATOM     17  C   UNL     1      27.317  16.415  28.012  1.00  0.00     0.158 A 
BRANCH  15  18
ATOM     18  O   UNL     1      27.400  15.246  25.875  1.00  0.00    -0.504 OA
ATOM     19  H   UNL     1      26.845  14.460  26.194  1.00  0.00     0.293 HD
ENDBRANCH  15  18
BRANCH  17  20
ATOM     20  O   UNL     1      26.211  15.661  28.402  1.00  0.00    -0.504 OA
ATOM     21  H   UNL     1      25.414  16.086  28.861  1.00  0.00     0.293 HD
ENDBRANCH  17  20
ENDBRANCH   1  12
BRANCH   6  22
ATOM     22  O   UNL     1      30.900  23.121  32.467  1.00  0.00    -0.507 OA
ATOM     23  H   UNL     1      30.372  23.750  31.881  1.00  0.00     0.293 HD
ENDBRANCH   6  22
BRANCH   8  24
ATOM     24  O   UNL     1      34.291  19.763  32.995  1.00  0.00    -0.508 OA
ATOM     25  H   UNL     1      34.903  20.415  33.470  1.00  0.00     0.293 HD
ENDBRANCH   8  24
TORSDOF 5
ENDMDL
