MODEL 1
REMARK VINA RESULT:    -6.755      0.000      0.000
REMARK INTER + INTRA:         -10.002
REMARK INTER:                  -8.928
REMARK INTRA:                  -1.074
REMARK UNBOUND:                -1.074
REMARK SMILES CC[C@H](C=C[C@@H](C)[C@@H]1CC[C@H]2[C@@H]3CC=C4C[C@@H](O)CC[C@]4(C)[C@H]3CC[C@@]21C)C(C)C
REMARK SMILES IDX 6 1 7 2 5 3 4 4 3 5 2 6 1 7 28 8 29 9 30 10 8 11 9 12 26 13
REMARK SMILES IDX 10 14 11 15 25 16 27 17 12 18 24 19 23 20 13 21 21 22 14 23
REMARK SMILES IDX 15 24 20 25 22 26 16 27 19 28 17 29 18 30
REMARK H PARENT 18 31
REMARK Flexibility Score: inf
ROOT
ATOM      1  C   UNL     1     140.253 137.973 141.732  1.00  0.00     0.012 C 
ATOM      2  C   UNL     1     140.407 139.300 142.493  1.00  0.00     0.012 C 
ENDROOT
BRANCH   1   3
ATOM      3  C   UNL     1     138.998 137.292 142.238  1.00  0.00    -0.028 C 
ATOM      4  C   UNL     1     137.844 137.954 142.445  1.00  0.00    -0.027 C 
BRANCH   4   5
ATOM      5  C   UNL     1     136.588 137.275 142.969  1.00  0.00     0.014 C 
BRANCH   5   6
ATOM      6  C   UNL     1     136.855 135.763 143.242  1.00  0.00     0.004 C 
ATOM      7  C   UNL     1     135.602 134.957 143.590  1.00  0.00     0.004 C 
ENDBRANCH   5   6
BRANCH   5   8
ATOM      8  C   UNL     1     135.960 138.100 144.150  1.00  0.00    -0.011 C 
ATOM      9  C   UNL     1     137.008 138.546 145.185  1.00  0.00     0.008 C 
ATOM     10  C   UNL     1     135.100 139.301 143.714  1.00  0.00     0.008 C 
ENDBRANCH   5   8
ENDBRANCH   4   5
ENDBRANCH   1   3
BRANCH   1  11
ATOM     11  C   UNL     1     141.472 137.025 141.956  1.00  0.00     0.002 C 
ATOM     12  C   UNL     1     142.171 137.177 143.330  1.00  0.00     0.005 C 
ATOM     13  C   UNL     1     142.627 137.100 140.885  1.00  0.00    -0.026 C 
ATOM     14  C   UNL     1     143.658 136.967 143.070  1.00  0.00     0.005 C 
ATOM     15  C   UNL     1     143.822 137.608 141.710  1.00  0.00    -0.001 C 
ATOM     16  C   UNL     1     142.486 138.093 139.699  1.00  0.00     0.007 C 
ATOM     17  C   UNL     1     142.817 135.657 140.319  1.00  0.00     0.012 C 
ATOM     18  C   UNL     1     145.166 137.494 140.966  1.00  0.00     0.000 C 
ATOM     19  C   UNL     1     143.785 138.171 138.853  1.00  0.00     0.005 C 
ATOM     20  C   UNL     1     145.090 138.398 139.695  1.00  0.00     0.003 C 
ATOM     21  C   UNL     1     146.324 137.951 141.863  1.00  0.00     0.031 C 
ATOM     22  C   UNL     1     146.422 138.321 138.854  1.00  0.00    -0.008 C 
ATOM     23  C   UNL     1     147.597 138.186 141.096  1.00  0.00    -0.027 C 
ATOM     24  C   UNL     1     147.645 138.479 139.777  1.00  0.00    -0.065 C 
ATOM     25  C   UNL     1     146.431 139.485 137.811  1.00  0.00     0.014 C 
ATOM     26  C   UNL     1     146.550 136.966 138.106  1.00  0.00     0.016 C 
ATOM     27  C   UNL     1     148.996 138.795 139.162  1.00  0.00     0.063 C 
ATOM     28  C   UNL     1     147.793 139.703 137.129  1.00  0.00     0.033 C 
ATOM     29  C   UNL     1     148.887 139.965 138.173  1.00  0.00     0.118 C 
BRANCH  29  30
ATOM     30  O   UNL     1     150.125 140.202 137.550  1.00  0.00    -0.393 OA
ATOM     31  H   UNL     1     150.428 141.111 137.819  1.00  0.00     0.210 HD
ENDBRANCH  29  30
ENDBRANCH   1  11
TORSDOF 6
ENDMDL
MODEL 2
REMARK VINA RESULT:    -6.613      3.469      8.938
REMARK INTER + INTRA:          -9.814
REMARK INTER:                  -9.189
REMARK INTRA:                  -0.625
REMARK UNBOUND:                -1.074
REMARK SMILES CC[C@H](C=C[C@@H](C)[C@@H]1CC[C@H]2[C@@H]3CC=C4C[C@@H](O)CC[C@]4(C)[C@H]3CC[C@@]21C)C(C)C
REMARK SMILES IDX 6 1 7 2 5 3 4 4 3 5 2 6 1 7 28 8 29 9 30 10 8 11 9 12 26 13
REMARK SMILES IDX 10 14 11 15 25 16 27 17 12 18 24 19 23 20 13 21 21 22 14 23
REMARK SMILES IDX 15 24 20 25 22 26 16 27 19 28 17 29 18 30
REMARK H PARENT 18 31
REMARK Flexibility Score: inf
ROOT
ATOM      1  C   UNL     1     150.119 138.499 140.574  1.00  0.00     0.012 C 
ATOM      2  C   UNL     1     149.756 138.822 142.032  1.00  0.00     0.012 C 
ENDROOT
BRANCH   1   3
ATOM      3  C   UNL     1     149.947 139.766 139.763  1.00  0.00    -0.028 C 
ATOM      4  C   UNL     1     148.974 140.663 140.011  1.00  0.00    -0.027 C 
BRANCH   4   5
ATOM      5  C   UNL     1     148.790 141.928 139.186  1.00  0.00     0.014 C 
BRANCH   5   6
ATOM      6  C   UNL     1     147.722 141.705 138.071  1.00  0.00     0.004 C 
ATOM      7  C   UNL     1     146.616 140.719 138.450  1.00  0.00     0.004 C 
ENDBRANCH   5   6
BRANCH   5   8
ATOM      8  C   UNL     1     148.579 143.174 140.118  1.00  0.00    -0.011 C 
ATOM      9  C   UNL     1     147.523 142.928 141.210  1.00  0.00     0.008 C 
ATOM     10  C   UNL     1     149.868 143.739 140.744  1.00  0.00     0.008 C 
ENDBRANCH   5   8
ENDBRANCH   4   5
ENDBRANCH   1   3
BRANCH   1  11
ATOM     11  C   UNL     1     149.207 137.383 139.976  1.00  0.00     0.002 C 
ATOM     12  C   UNL     1     148.878 137.548 138.472  1.00  0.00     0.005 C 
ATOM     13  C   UNL     1     147.820 137.153 140.688  1.00  0.00    -0.026 C 
ATOM     14  C   UNL     1     147.445 137.061 138.299  1.00  0.00     0.005 C 
ATOM     15  C   UNL     1     146.809 137.527 139.591  1.00  0.00    -0.001 C 
ATOM     16  C   UNL     1     147.450 138.033 141.914  1.00  0.00     0.007 C 
ATOM     17  C   UNL     1     147.769 135.650 141.109  1.00  0.00     0.012 C 
ATOM     18  C   UNL     1     145.365 137.112 139.928  1.00  0.00     0.000 C 
ATOM     19  C   UNL     1     145.985 137.803 142.370  1.00  0.00     0.005 C 
ATOM     20  C   UNL     1     144.929 137.885 141.213  1.00  0.00     0.003 C 
ATOM     21  C   UNL     1     144.417 137.449 138.768  1.00  0.00     0.031 C 
ATOM     22  C   UNL     1     143.463 137.498 141.647  1.00  0.00    -0.008 C 
ATOM     23  C   UNL     1     142.967 137.386 139.164  1.00  0.00    -0.027 C 
ATOM     24  C   UNL     1     142.520 137.534 140.431  1.00  0.00    -0.065 C 
ATOM     25  C   UNL     1     142.958 138.534 142.702  1.00  0.00     0.014 C 
ATOM     26  C   UNL     1     143.406 136.074 142.264  1.00  0.00     0.016 C 
ATOM     27  C   UNL     1     141.019 137.552 140.663  1.00  0.00     0.063 C 
ATOM     28  C   UNL     1     141.448 138.447 142.991  1.00  0.00     0.033 C 
ATOM     29  C   UNL     1     140.638 138.619 141.699  1.00  0.00     0.118 C 
BRANCH  29  30
ATOM     30  O   UNL     1     139.258 138.577 141.966  1.00  0.00    -0.393 OA
ATOM     31  H   UNL     1     139.090 137.795 142.558  1.00  0.00     0.210 HD
ENDBRANCH  29  30
ENDBRANCH   1  11
TORSDOF 6
ENDMDL
MODEL 3
REMARK VINA RESULT:    -6.558      5.346      8.289
REMARK INTER + INTRA:          -9.740
REMARK INTER:                  -8.388
REMARK INTRA:                  -1.352
REMARK UNBOUND:                -1.074
REMARK SMILES CC[C@H](C=C[C@@H](C)[C@@H]1CC[C@H]2[C@@H]3CC=C4C[C@@H](O)CC[C@]4(C)[C@H]3CC[C@@]21C)C(C)C
REMARK SMILES IDX 6 1 7 2 5 3 4 4 3 5 2 6 1 7 28 8 29 9 30 10 8 11 9 12 26 13
REMARK SMILES IDX 10 14 11 15 25 16 27 17 12 18 24 19 23 20 13 21 21 22 14 23
REMARK SMILES IDX 15 24 20 25 22 26 16 27 19 28 17 29 18 30
REMARK H PARENT 18 31
REMARK Flexibility Score: inf
ROOT
ATOM      1  C   UNL     1     148.497 141.890 139.744  1.00  0.00     0.012 C 
ATOM      2  C   UNL     1     148.300 142.805 140.963  1.00  0.00     0.012 C 
ENDROOT
BRANCH   1   3
ATOM      3  C   UNL     1     147.130 141.409 139.302  1.00  0.00    -0.028 C 
ATOM      4  C   UNL     1     146.827 141.160 138.015  1.00  0.00    -0.027 C 
BRANCH   4   5
ATOM      5  C   UNL     1     145.450 140.693 137.568  1.00  0.00     0.014 C 
BRANCH   5   6
ATOM      6  C   UNL     1     144.875 141.646 136.475  1.00  0.00     0.004 C 
ATOM      7  C   UNL     1     143.605 141.129 135.797  1.00  0.00     0.004 C 
ENDBRANCH   5   6
BRANCH   5   8
ATOM      8  C   UNL     1     145.466 139.160 137.225  1.00  0.00    -0.011 C 
ATOM      9  C   UNL     1     146.872 138.647 136.867  1.00  0.00     0.008 C 
ATOM     10  C   UNL     1     144.823 138.252 138.289  1.00  0.00     0.008 C 
ENDBRANCH   5   8
ENDBRANCH   4   5
ENDBRANCH   1   3
BRANCH   1  11
ATOM     11  C   UNL     1     149.389 140.654 140.077  1.00  0.00     0.002 C 
ATOM     12  C   UNL     1     150.110 140.025 138.859  1.00  0.00     0.005 C 
ATOM     13  C   UNL     1     148.680 139.454 140.813  1.00  0.00    -0.026 C 
ATOM     14  C   UNL     1     150.125 138.522 139.109  1.00  0.00     0.005 C 
ATOM     15  C   UNL     1     148.787 138.315 139.785  1.00  0.00    -0.001 C 
ATOM     16  C   UNL     1     147.169 139.569 141.153  1.00  0.00     0.007 C 
ATOM     17  C   UNL     1     149.479 139.193 142.129  1.00  0.00     0.012 C 
ATOM     18  C   UNL     1     148.429 136.935 140.367  1.00  0.00     0.000 C 
ATOM     19  C   UNL     1     146.597 138.234 141.702  1.00  0.00     0.005 C 
ATOM     20  C   UNL     1     146.937 136.978 140.825  1.00  0.00     0.003 C 
ATOM     21  C   UNL     1     148.620 135.834 139.314  1.00  0.00     0.031 C 
ATOM     22  C   UNL     1     146.490 135.606 141.462  1.00  0.00    -0.008 C 
ATOM     23  C   UNL     1     147.971 134.534 139.706  1.00  0.00    -0.027 C 
ATOM     24  C   UNL     1     146.934 134.434 140.568  1.00  0.00    -0.065 C 
ATOM     25  C   UNL     1     144.932 135.585 141.576  1.00  0.00     0.014 C 
ATOM     26  C   UNL     1     147.107 135.403 142.872  1.00  0.00     0.016 C 
ATOM     27  C   UNL     1     146.314 133.066 140.785  1.00  0.00     0.063 C 
ATOM     28  C   UNL     1     144.348 134.199 141.906  1.00  0.00     0.033 C 
ATOM     29  C   UNL     1     144.783 133.164 140.860  1.00  0.00     0.118 C 
BRANCH  29  30
ATOM     30  O   UNL     1     144.220 131.906 141.139  1.00  0.00    -0.393 OA
ATOM     31  H   UNL     1     143.860 131.936 142.066  1.00  0.00     0.210 HD
ENDBRANCH  29  30
ENDBRANCH   1  11
TORSDOF 6
ENDMDL
MODEL 4
REMARK VINA RESULT:    -6.389      3.634      8.975
REMARK INTER + INTRA:          -9.517
REMARK INTER:                  -8.466
REMARK INTRA:                  -1.051
REMARK UNBOUND:                -1.074
REMARK SMILES CC[C@H](C=C[C@@H](C)[C@@H]1CC[C@H]2[C@@H]3CC=C4C[C@@H](O)CC[C@]4(C)[C@H]3CC[C@@]21C)C(C)C
REMARK SMILES IDX 6 1 7 2 5 3 4 4 3 5 2 6 1 7 28 8 29 9 30 10 8 11 9 12 26 13
REMARK SMILES IDX 10 14 11 15 25 16 27 17 12 18 24 19 23 20 13 21 21 22 14 23
REMARK SMILES IDX 15 24 20 25 22 26 16 27 19 28 17 29 18 30
REMARK H PARENT 18 31
REMARK Flexibility Score: inf
ROOT
ATOM      1  C   UNL     1     148.741 139.442 137.436  1.00  0.00     0.012 C 
ATOM      2  C   UNL     1     149.667 138.260 137.766  1.00  0.00     0.012 C 
ENDROOT
BRANCH   1   3
ATOM      3  C   UNL     1     148.578 140.267 138.696  1.00  0.00    -0.028 C 
ATOM      4  C   UNL     1     149.509 140.303 139.668  1.00  0.00    -0.027 C 
BRANCH   4   5
ATOM      5  C   UNL     1     149.338 141.117 140.942  1.00  0.00     0.014 C 
BRANCH   5   6
ATOM      6  C   UNL     1     148.579 142.448 140.645  1.00  0.00     0.004 C 
ATOM      7  C   UNL     1     149.378 143.711 140.971  1.00  0.00     0.004 C 
ENDBRANCH   5   6
BRANCH   5   8
ATOM      8  C   UNL     1     148.762 140.225 142.099  1.00  0.00    -0.011 C 
ATOM      9  C   UNL     1     147.224 140.234 142.146  1.00  0.00     0.008 C 
ATOM     10  C   UNL     1     149.287 138.778 142.122  1.00  0.00     0.008 C 
ENDBRANCH   5   8
ENDBRANCH   4   5
ENDBRANCH   1   3
BRANCH   1  11
ATOM     11  C   UNL     1     147.336 138.968 136.951  1.00  0.00     0.002 C 
ATOM     12  C   UNL     1     146.348 140.110 136.604  1.00  0.00     0.005 C 
ATOM     13  C   UNL     1     146.546 138.008 137.920  1.00  0.00    -0.026 C 
ATOM     14  C   UNL     1     144.972 139.622 137.040  1.00  0.00     0.005 C 
ATOM     15  C   UNL     1     145.310 138.843 138.293  1.00  0.00    -0.001 C 
ATOM     16  C   UNL     1     147.197 137.601 139.270  1.00  0.00     0.007 C 
ATOM     17  C   UNL     1     146.213 136.716 137.107  1.00  0.00     0.012 C 
ATOM     18  C   UNL     1     144.215 138.026 139.005  1.00  0.00     0.000 C 
ATOM     19  C   UNL     1     146.212 136.812 140.173  1.00  0.00     0.005 C 
ATOM     20  C   UNL     1     144.810 137.493 140.347  1.00  0.00     0.003 C 
ATOM     21  C   UNL     1     142.983 138.897 139.289  1.00  0.00     0.031 C 
ATOM     22  C   UNL     1     143.759 136.618 141.134  1.00  0.00    -0.008 C 
ATOM     23  C   UNL     1     142.035 138.264 140.270  1.00  0.00    -0.027 C 
ATOM     24  C   UNL     1     142.398 137.337 141.185  1.00  0.00    -0.065 C 
ATOM     25  C   UNL     1     144.269 136.409 142.596  1.00  0.00     0.014 C 
ATOM     26  C   UNL     1     143.553 135.233 140.464  1.00  0.00     0.016 C 
ATOM     27  C   UNL     1     141.353 136.865 142.180  1.00  0.00     0.063 C 
ATOM     28  C   UNL     1     143.211 135.827 143.550  1.00  0.00     0.033 C 
ATOM     29  C   UNL     1     141.961 136.717 143.582  1.00  0.00     0.118 C 
BRANCH  29  30
ATOM     30  O   UNL     1     141.008 136.206 144.481  1.00  0.00    -0.393 OA
ATOM     31  H   UNL     1     141.094 135.214 144.480  1.00  0.00     0.210 HD
ENDBRANCH  29  30
ENDBRANCH   1  11
TORSDOF 6
ENDMDL
MODEL 5
REMARK VINA RESULT:    -6.342      3.678      9.587
REMARK INTER + INTRA:          -9.455
REMARK INTER:                  -8.078
REMARK INTRA:                  -1.377
REMARK UNBOUND:                -1.074
REMARK SMILES CC[C@H](C=C[C@@H](C)[C@@H]1CC[C@H]2[C@@H]3CC=C4C[C@@H](O)CC[C@]4(C)[C@H]3CC[C@@]21C)C(C)C
REMARK SMILES IDX 6 1 7 2 5 3 4 4 3 5 2 6 1 7 28 8 29 9 30 10 8 11 9 12 26 13
REMARK SMILES IDX 10 14 11 15 25 16 27 17 12 18 24 19 23 20 13 21 21 22 14 23
REMARK SMILES IDX 15 24 20 25 22 26 16 27 19 28 17 29 18 30
REMARK H PARENT 18 31
REMARK Flexibility Score: inf
ROOT
ATOM      1  C   UNL     1     142.661 138.346 139.029  1.00  0.00     0.012 C 
ATOM      2  C   UNL     1     142.603 138.535 137.504  1.00  0.00     0.012 C 
ENDROOT
BRANCH   1   3
ATOM      3  C   UNL     1     144.118 138.364 139.442  1.00  0.00    -0.028 C 
ATOM      4  C   UNL     1     144.540 137.928 140.643  1.00  0.00    -0.027 C 
BRANCH   4   5
ATOM      5  C   UNL     1     146.002 137.962 141.065  1.00  0.00     0.014 C 
BRANCH   5   6
ATOM      6  C   UNL     1     146.899 138.470 139.895  1.00  0.00     0.004 C 
ATOM      7  C   UNL     1     148.084 137.559 139.571  1.00  0.00     0.004 C 
ENDBRANCH   5   6
BRANCH   5   8
ATOM      8  C   UNL     1     146.166 138.696 142.444  1.00  0.00    -0.011 C 
ATOM      9  C   UNL     1     146.889 140.048 142.314  1.00  0.00     0.008 C 
ATOM     10  C   UNL     1     144.862 138.865 143.246  1.00  0.00     0.008 C 
ENDBRANCH   5   8
ENDBRANCH   4   5
ENDBRANCH   1   3
BRANCH   1  11
ATOM     11  C   UNL     1     142.021 136.996 139.477  1.00  0.00     0.002 C 
ATOM     12  C   UNL     1     141.175 136.285 138.391  1.00  0.00     0.005 C 
ATOM     13  C   UNL     1     141.106 137.044 140.759  1.00  0.00    -0.026 C 
ATOM     14  C   UNL     1     140.009 135.635 139.126  1.00  0.00     0.005 C 
ATOM     15  C   UNL     1     139.724 136.655 140.205  1.00  0.00    -0.001 C 
ATOM     16  C   UNL     1     140.898 138.402 141.483  1.00  0.00     0.007 C 
ATOM     17  C   UNL     1     141.692 136.011 141.774  1.00  0.00     0.012 C 
ATOM     18  C   UNL     1     138.695 136.339 141.306  1.00  0.00     0.000 C 
ATOM     19  C   UNL     1     139.829 138.303 142.604  1.00  0.00     0.005 C 
ATOM     20  C   UNL     1     138.483 137.634 142.154  1.00  0.00     0.003 C 
ATOM     21  C   UNL     1     137.360 135.893 140.691  1.00  0.00     0.031 C 
ATOM     22  C   UNL     1     137.458 137.391 143.327  1.00  0.00    -0.008 C 
ATOM     23  C   UNL     1     136.230 135.902 141.684  1.00  0.00    -0.027 C 
ATOM     24  C   UNL     1     136.207 136.664 142.800  1.00  0.00    -0.065 C 
ATOM     25  C   UNL     1     137.023 138.774 143.912  1.00  0.00     0.014 C 
ATOM     26  C   UNL     1     138.079 136.532 144.461  1.00  0.00     0.016 C 
ATOM     27  C   UNL     1     134.951 136.647 143.654  1.00  0.00     0.063 C 
ATOM     28  C   UNL     1     135.812 138.699 144.860  1.00  0.00     0.033 C 
ATOM     29  C   UNL     1     134.609 138.058 144.153  1.00  0.00     0.118 C 
BRANCH  29  30
ATOM     30  O   UNL     1     133.491 138.023 145.005  1.00  0.00    -0.393 OA
ATOM     31  H   UNL     1     132.912 137.269 144.711  1.00  0.00     0.210 HD
ENDBRANCH  29  30
ENDBRANCH   1  11
TORSDOF 6
ENDMDL
MODEL 6
REMARK VINA RESULT:    -6.225      3.417      9.154
REMARK INTER + INTRA:          -9.301
REMARK INTER:                  -8.065
REMARK INTRA:                  -1.236
REMARK UNBOUND:                -1.074
REMARK SMILES CC[C@H](C=C[C@@H](C)[C@@H]1CC[C@H]2[C@@H]3CC=C4C[C@@H](O)CC[C@]4(C)[C@H]3CC[C@@]21C)C(C)C
REMARK SMILES IDX 6 1 7 2 5 3 4 4 3 5 2 6 1 7 28 8 29 9 30 10 8 11 9 12 26 13
REMARK SMILES IDX 10 14 11 15 25 16 27 17 12 18 24 19 23 20 13 21 21 22 14 23
REMARK SMILES IDX 15 24 20 25 22 26 16 27 19 28 17 29 18 30
REMARK H PARENT 18 31
REMARK Flexibility Score: inf
ROOT
ATOM      1  C   UNL     1     146.555 136.794 141.259  1.00  0.00     0.012 C 
ATOM      2  C   UNL     1     147.462 135.555 141.352  1.00  0.00     0.012 C 
ENDROOT
BRANCH   1   3
ATOM      3  C   UNL     1     147.431 137.983 140.922  1.00  0.00    -0.028 C 
ATOM      4  C   UNL     1     146.929 139.198 140.633  1.00  0.00    -0.027 C 
BRANCH   4   5
ATOM      5  C   UNL     1     147.808 140.389 140.278  1.00  0.00     0.014 C 
BRANCH   5   6
ATOM      6  C   UNL     1     147.484 140.901 138.841  1.00  0.00     0.004 C 
ATOM      7  C   UNL     1     148.457 140.412 137.767  1.00  0.00     0.004 C 
ENDBRANCH   5   6
BRANCH   5   8
ATOM      8  C   UNL     1     147.783 141.460 141.426  1.00  0.00    -0.011 C 
ATOM      9  C   UNL     1     148.870 141.217 142.488  1.00  0.00     0.008 C 
ATOM     10  C   UNL     1     147.825 142.923 140.947  1.00  0.00     0.008 C 
ENDBRANCH   5   8
ENDBRANCH   4   5
ENDBRANCH   1   3
BRANCH   1  11
ATOM     11  C   UNL     1     145.807 137.074 142.599  1.00  0.00     0.002 C 
ATOM     12  C   UNL     1     145.851 135.914 143.624  1.00  0.00     0.005 C 
ATOM     13  C   UNL     1     144.287 137.477 142.484  1.00  0.00    -0.026 C 
ATOM     14  C   UNL     1     144.499 135.921 144.325  1.00  0.00     0.005 C 
ATOM     15  C   UNL     1     143.574 136.314 143.194  1.00  0.00    -0.001 C 
ATOM     16  C   UNL     1     143.639 137.566 141.075  1.00  0.00     0.007 C 
ATOM     17  C   UNL     1     144.126 138.853 143.205  1.00  0.00     0.012 C 
ATOM     18  C   UNL     1     142.088 136.599 143.484  1.00  0.00     0.000 C 
ATOM     19  C   UNL     1     142.105 137.788 141.157  1.00  0.00     0.005 C 
ATOM     20  C   UNL     1     141.360 136.794 142.116  1.00  0.00     0.003 C 
ATOM     21  C   UNL     1     141.450 135.433 144.253  1.00  0.00     0.031 C 
ATOM     22  C   UNL     1     139.830 137.118 142.320  1.00  0.00    -0.008 C 
ATOM     23  C   UNL     1     139.947 135.495 144.263  1.00  0.00    -0.027 C 
ATOM     24  C   UNL     1     139.208 136.139 143.332  1.00  0.00    -0.065 C 
ATOM     25  C   UNL     1     139.092 136.958 140.952  1.00  0.00     0.014 C 
ATOM     26  C   UNL     1     139.616 138.563 142.847  1.00  0.00     0.016 C 
ATOM     27  C   UNL     1     137.696 136.026 143.414  1.00  0.00     0.063 C 
ATOM     28  C   UNL     1     137.557 136.958 141.065  1.00  0.00     0.033 C 
ATOM     29  C   UNL     1     137.084 135.851 142.017  1.00  0.00     0.118 C 
BRANCH  29  30
ATOM     30  O   UNL     1     135.680 135.825 142.093  1.00  0.00    -0.393 OA
ATOM     31  H   UNL     1     135.328 136.399 141.361  1.00  0.00     0.210 HD
ENDBRANCH  29  30
ENDBRANCH   1  11
TORSDOF 6
ENDMDL
MODEL 7
REMARK VINA RESULT:    -6.195      4.523      8.865
REMARK INTER + INTRA:          -9.261
REMARK INTER:                  -8.541
REMARK INTRA:                  -0.720
REMARK UNBOUND:                -1.074
REMARK SMILES CC[C@H](C=C[C@@H](C)[C@@H]1CC[C@H]2[C@@H]3CC=C4C[C@@H](O)CC[C@]4(C)[C@H]3CC[C@@]21C)C(C)C
REMARK SMILES IDX 6 1 7 2 5 3 4 4 3 5 2 6 1 7 28 8 29 9 30 10 8 11 9 12 26 13
REMARK SMILES IDX 10 14 11 15 25 16 27 17 12 18 24 19 23 20 13 21 21 22 14 23
REMARK SMILES IDX 15 24 20 25 22 26 16 27 19 28 17 29 18 30
REMARK H PARENT 18 31
REMARK Flexibility Score: inf
ROOT
ATOM      1  C   UNL     1     149.977 138.530 140.911  1.00  0.00     0.012 C 
ATOM      2  C   UNL     1     148.982 138.596 142.080  1.00  0.00     0.012 C 
ENDROOT
BRANCH   1   3
ATOM      3  C   UNL     1     149.875 139.831 140.142  1.00  0.00    -0.028 C 
ATOM      4  C   UNL     1     148.717 140.500 139.995  1.00  0.00    -0.027 C 
BRANCH   4   5
ATOM      5  C   UNL     1     148.610 141.798 139.208  1.00  0.00     0.014 C 
BRANCH   5   6
ATOM      6  C   UNL     1     147.573 141.655 138.052  1.00  0.00     0.004 C 
ATOM      7  C   UNL     1     147.882 140.525 137.069  1.00  0.00     0.004 C 
ENDBRANCH   5   6
BRANCH   5   8
ATOM      8  C   UNL     1     148.417 143.021 140.176  1.00  0.00    -0.011 C 
ATOM      9  C   UNL     1     147.561 142.674 141.406  1.00  0.00     0.008 C 
ATOM     10  C   UNL     1     149.722 143.711 140.614  1.00  0.00     0.008 C 
ENDBRANCH   5   8
ENDBRANCH   4   5
ENDBRANCH   1   3
BRANCH   1  11
ATOM     11  C   UNL     1     149.670 137.342 139.946  1.00  0.00     0.002 C 
ATOM     12  C   UNL     1     150.125 137.559 138.482  1.00  0.00     0.005 C 
ATOM     13  C   UNL     1     148.165 136.882 139.857  1.00  0.00    -0.026 C 
ATOM     14  C   UNL     1     149.065 136.895 137.610  1.00  0.00     0.005 C 
ATOM     15  C   UNL     1     147.804 137.187 138.393  1.00  0.00    -0.001 C 
ATOM     16  C   UNL     1     147.101 137.623 140.712  1.00  0.00     0.007 C 
ATOM     17  C   UNL     1     148.133 135.361 140.211  1.00  0.00     0.012 C 
ATOM     18  C   UNL     1     146.468 136.559 137.953  1.00  0.00     0.000 C 
ATOM     19  C   UNL     1     145.659 137.168 140.362  1.00  0.00     0.005 C 
ATOM     20  C   UNL     1     145.333 137.182 138.827  1.00  0.00     0.003 C 
ATOM     21  C   UNL     1     146.197 136.841 136.469  1.00  0.00     0.031 C 
ATOM     22  C   UNL     1     143.925 136.573 138.460  1.00  0.00    -0.008 C 
ATOM     23  C   UNL     1     144.774 136.557 136.072  1.00  0.00    -0.027 C 
ATOM     24  C   UNL     1     143.732 136.561 136.933  1.00  0.00    -0.065 C 
ATOM     25  C   UNL     1     142.808 137.461 139.098  1.00  0.00     0.014 C 
ATOM     26  C   UNL     1     143.777 135.118 138.981  1.00  0.00     0.016 C 
ATOM     27  C   UNL     1     142.336 136.361 136.369  1.00  0.00     0.063 C 
ATOM     28  C   UNL     1     141.392 137.153 138.580  1.00  0.00     0.033 C 
ATOM     29  C   UNL     1     141.330 137.298 137.053  1.00  0.00     0.118 C 
BRANCH  29  30
ATOM     30  O   UNL     1     140.028 137.053 136.582  1.00  0.00    -0.393 OA
ATOM     31  H   UNL     1     139.949 136.077 136.409  1.00  0.00     0.210 HD
ENDBRANCH  29  30
ENDBRANCH   1  11
TORSDOF 6
ENDMDL
MODEL 8
REMARK VINA RESULT:    -6.147      4.546      8.541
REMARK INTER + INTRA:          -9.197
REMARK INTER:                  -8.332
REMARK INTRA:                  -0.866
REMARK UNBOUND:                -1.074
REMARK SMILES CC[C@H](C=C[C@@H](C)[C@@H]1CC[C@H]2[C@@H]3CC=C4C[C@@H](O)CC[C@]4(C)[C@H]3CC[C@@]21C)C(C)C
REMARK SMILES IDX 6 1 7 2 5 3 4 4 3 5 2 6 1 7 28 8 29 9 30 10 8 11 9 12 26 13
REMARK SMILES IDX 10 14 11 15 25 16 27 17 12 18 24 19 23 20 13 21 21 22 14 23
REMARK SMILES IDX 15 24 20 25 22 26 16 27 19 28 17 29 18 30
REMARK H PARENT 18 31
REMARK Flexibility Score: inf
ROOT
ATOM      1  C   UNL     1     147.238 140.907 136.796  1.00  0.00     0.012 C 
ATOM      2  C   UNL     1     148.251 140.520 135.705  1.00  0.00     0.012 C 
ENDROOT
BRANCH   1   3
ATOM      3  C   UNL     1     147.942 140.814 138.134  1.00  0.00    -0.028 C 
ATOM      4  C   UNL     1     147.748 141.707 139.123  1.00  0.00    -0.027 C 
BRANCH   4   5
ATOM      5  C   UNL     1     148.468 141.623 140.460  1.00  0.00     0.014 C 
BRANCH   5   6
ATOM      6  C   UNL     1     148.400 142.991 141.207  1.00  0.00     0.004 C 
ATOM      7  C   UNL     1     149.737 143.730 141.285  1.00  0.00     0.004 C 
ENDBRANCH   5   6
BRANCH   5   8
ATOM      8  C   UNL     1     147.998 140.360 141.267  1.00  0.00    -0.011 C 
ATOM      9  C   UNL     1     149.165 139.436 141.655  1.00  0.00     0.008 C 
ATOM     10  C   UNL     1     147.131 140.668 142.502  1.00  0.00     0.008 C 
ENDBRANCH   5   8
ENDBRANCH   4   5
ENDBRANCH   1   3
BRANCH   1  11
ATOM     11  C   UNL     1     145.997 139.961 136.806  1.00  0.00     0.002 C 
ATOM     12  C   UNL     1     144.674 140.628 137.257  1.00  0.00     0.005 C 
ATOM     13  C   UNL     1     146.123 138.647 137.668  1.00  0.00    -0.026 C 
ATOM     14  C   UNL     1     143.916 139.566 138.044  1.00  0.00     0.005 C 
ATOM     15  C   UNL     1     145.045 138.846 138.747  1.00  0.00    -0.001 C 
ATOM     16  C   UNL     1     147.443 138.380 138.441  1.00  0.00     0.007 C 
ATOM     17  C   UNL     1     145.843 137.446 136.709  1.00  0.00     0.012 C 
ATOM     18  C   UNL     1     144.752 137.568 139.556  1.00  0.00     0.000 C 
ATOM     19  C   UNL     1     147.325 137.148 139.378  1.00  0.00     0.005 C 
ATOM     20  C   UNL     1     146.060 137.163 140.307  1.00  0.00     0.003 C 
ATOM     21  C   UNL     1     143.623 137.811 140.567  1.00  0.00     0.031 C 
ATOM     22  C   UNL     1     145.858 135.842 141.144  1.00  0.00    -0.008 C 
ATOM     23  C   UNL     1     143.527 136.725 141.605  1.00  0.00    -0.027 C 
ATOM     24  C   UNL     1     144.555 135.924 141.961  1.00  0.00    -0.065 C 
ATOM     25  C   UNL     1     147.058 135.680 142.132  1.00  0.00     0.014 C 
ATOM     26  C   UNL     1     145.780 134.591 140.229  1.00  0.00     0.016 C 
ATOM     27  C   UNL     1     144.337 134.943 143.099  1.00  0.00     0.063 C 
ATOM     28  C   UNL     1     146.843 134.599 143.206  1.00  0.00     0.033 C 
ATOM     29  C   UNL     1     145.569 134.883 144.014  1.00  0.00     0.118 C 
BRANCH  29  30
ATOM     30  O   UNL     1     145.391 133.917 145.020  1.00  0.00    -0.393 OA
ATOM     31  H   UNL     1     144.425 133.904 145.258  1.00  0.00     0.210 HD
ENDBRANCH  29  30
ENDBRANCH   1  11
TORSDOF 6
ENDMDL
MODEL 9
REMARK VINA RESULT:    -6.122      3.810     10.018
REMARK INTER + INTRA:          -9.165
REMARK INTER:                  -7.990
REMARK INTRA:                  -1.175
REMARK UNBOUND:                -1.074
REMARK SMILES CC[C@H](C=C[C@@H](C)[C@@H]1CC[C@H]2[C@@H]3CC=C4C[C@@H](O)CC[C@]4(C)[C@H]3CC[C@@]21C)C(C)C
REMARK SMILES IDX 6 1 7 2 5 3 4 4 3 5 2 6 1 7 28 8 29 9 30 10 8 11 9 12 26 13
REMARK SMILES IDX 10 14 11 15 25 16 27 17 12 18 24 19 23 20 13 21 21 22 14 23
REMARK SMILES IDX 15 24 20 25 22 26 16 27 19 28 17 29 18 30
REMARK H PARENT 18 31
REMARK Flexibility Score: inf
ROOT
ATOM      1  C   UNL     1     142.955 138.084 141.329  1.00  0.00     0.012 C 
ATOM      2  C   UNL     1     143.232 138.340 139.839  1.00  0.00     0.012 C 
ENDROOT
BRANCH   1   3
ATOM      3  C   UNL     1     144.289 138.013 142.042  1.00  0.00    -0.028 C 
ATOM      4  C   UNL     1     145.453 137.826 141.392  1.00  0.00    -0.027 C 
BRANCH   4   5
ATOM      5  C   UNL     1     146.792 137.736 142.109  1.00  0.00     0.014 C 
BRANCH   5   6
ATOM      6  C   UNL     1     147.447 136.340 141.877  1.00  0.00     0.004 C 
ATOM      7  C   UNL     1     147.167 135.737 140.499  1.00  0.00     0.004 C 
ENDBRANCH   5   6
BRANCH   5   8
ATOM      8  C   UNL     1     147.681 138.991 141.786  1.00  0.00    -0.011 C 
ATOM      9  C   UNL     1     149.186 138.671 141.803  1.00  0.00     0.008 C 
ATOM     10  C   UNL     1     147.308 139.730 140.487  1.00  0.00     0.008 C 
ENDBRANCH   5   8
ENDBRANCH   4   5
ENDBRANCH   1   3
BRANCH   1  11
ATOM     11  C   UNL     1     142.181 136.749 141.560  1.00  0.00     0.002 C 
ATOM     12  C   UNL     1     142.024 135.862 140.301  1.00  0.00     0.005 C 
ATOM     13  C   UNL     1     140.733 136.874 142.172  1.00  0.00    -0.026 C 
ATOM     14  C   UNL     1     140.649 135.215 140.412  1.00  0.00     0.005 C 
ATOM     15  C   UNL     1     139.841 136.326 141.045  1.00  0.00    -0.001 C 
ATOM     16  C   UNL     1     140.174 138.286 142.498  1.00  0.00     0.007 C 
ATOM     17  C   UNL     1     140.712 136.007 143.471  1.00  0.00     0.012 C 
ATOM     18  C   UNL     1     138.391 136.061 141.491  1.00  0.00     0.000 C 
ATOM     19  C   UNL     1     138.680 138.235 142.913  1.00  0.00     0.005 C 
ATOM     20  C   UNL     1     137.765 137.423 141.929  1.00  0.00     0.003 C 
ATOM     21  C   UNL     1     137.571 135.454 140.345  1.00  0.00     0.031 C 
ATOM     22  C   UNL     1     136.281 137.240 142.430  1.00  0.00    -0.008 C 
ATOM     23  C   UNL     1     136.089 135.491 140.605  1.00  0.00    -0.027 C 
ATOM     24  C   UNL     1     135.488 136.369 141.438  1.00  0.00    -0.065 C 
ATOM     25  C   UNL     1     135.600 138.643 142.518  1.00  0.00     0.014 C 
ATOM     26  C   UNL     1     136.228 136.560 143.825  1.00  0.00     0.016 C 
ATOM     27  C   UNL     1     133.972 136.356 141.519  1.00  0.00     0.063 C 
ATOM     28  C   UNL     1     134.073 138.587 142.710  1.00  0.00     0.033 C 
ATOM     29  C   UNL     1     133.414 137.785 141.579  1.00  0.00     0.118 C 
BRANCH  29  30
ATOM     30  O   UNL     1     132.017 137.764 141.733  1.00  0.00    -0.393 OA
ATOM     31  H   UNL     1     131.800 138.232 142.584  1.00  0.00     0.210 HD
ENDBRANCH  29  30
ENDBRANCH   1  11
TORSDOF 6
ENDMDL
