MODEL 1
REMARK VINA RESULT:    -4.608      0.000      0.000
REMARK INTER + INTRA:         -15.224
REMARK INTER:                 -11.613
REMARK INTRA:                  -3.612
REMARK UNBOUND:                -3.612
REMARK SMILES CCCCCCCCCCCCCCCCCCCCCCCCCCCC(=O)[O-]
REMARK SMILES IDX 15 1 16 2 17 3 18 4 19 5 20 6 21 7 22 8 23 9 24 10 25 11
REMARK SMILES IDX 26 12 27 13 28 14 29 15 30 16 14 17 13 18 12 19 11 20 10 21
REMARK SMILES IDX 9 22 8 23 7 24 6 25 5 26 4 27 3 28 2 29 1 30
REMARK H PARENT
REMARK Flexibility Score: inf
ROOT
ATOM      1  C   UNL     1      -8.478  -3.186  -7.933  1.00  0.00     0.000 C 
ENDROOT
BRANCH   1   2
ATOM      2  C   UNL     1      -9.887  -2.610  -7.686  1.00  0.00     0.000 C 
BRANCH   2   3
ATOM      3  C   UNL     1     -10.411  -1.665  -8.788  1.00  0.00     0.000 C 
BRANCH   3   4
ATOM      4  C   UNL     1     -11.063  -2.372  -9.992  1.00  0.00     0.000 C 
BRANCH   4   5
ATOM      5  C   UNL     1     -12.090  -3.461  -9.628  1.00  0.00     0.000 C 
BRANCH   5   6
ATOM      6  C   UNL     1     -13.403  -3.373 -10.434  1.00  0.00     0.000 C 
BRANCH   6   7
ATOM      7  C   UNL     1     -14.610  -2.996  -9.561  1.00  0.00     0.000 C 
BRANCH   7   8
ATOM      8  C   UNL     1     -15.107  -1.579  -9.889  1.00  0.00     0.000 C 
BRANCH   8   9
ATOM      9  C   UNL     1     -14.187  -0.841 -10.876  1.00  0.00     0.000 C 
BRANCH   9  10
ATOM     10  C   UNL     1     -14.229   0.686 -10.697  1.00  0.00     0.000 C 
BRANCH  10  11
ATOM     11  C   UNL     1     -14.031   1.107  -9.225  1.00  0.00     0.000 C 
BRANCH  11  12
ATOM     12  C   UNL     1     -13.761   2.614  -9.041  1.00  0.00     0.006 C 
BRANCH  12  13
ATOM     13  C   UNL     1     -12.329   3.046  -9.387  1.00  0.00     0.053 C 
BRANCH  13  14
ATOM     14  C   UNL     1     -11.749   3.980  -8.365  1.00  0.00     0.041 C 
ATOM     15  O   UNL     1     -12.501   4.740  -7.698  1.00  0.00    -0.550 OA
ATOM     16  O   UNL     1     -10.380   3.990  -8.127  1.00  0.00    -0.550 OA
ENDBRANCH  13  14
ENDBRANCH  12  13
ENDBRANCH  11  12
ENDBRANCH  10  11
ENDBRANCH   9  10
ENDBRANCH   8   9
ENDBRANCH   7   8
ENDBRANCH   6   7
ENDBRANCH   5   6
ENDBRANCH   4   5
ENDBRANCH   3   4
ENDBRANCH   2   3
ENDBRANCH   1   2
BRANCH   1  17
ATOM     17  C   UNL     1      -8.451  -4.623  -8.481  1.00  0.00     0.000 C 
BRANCH  17  18
ATOM     18  C   UNL     1      -9.659  -5.456  -8.023  1.00  0.00     0.000 C 
BRANCH  18  19
ATOM     19  C   UNL     1     -10.040  -6.562  -9.020  1.00  0.00     0.000 C 
BRANCH  19  20
ATOM     20  C   UNL     1     -11.532  -6.554  -9.417  1.00  0.00     0.000 C 
BRANCH  20  21
ATOM     21  C   UNL     1     -12.064  -7.965  -9.716  1.00  0.00     0.000 C 
BRANCH  21  22
ATOM     22  C   UNL     1     -13.591  -7.952  -9.888  1.00  0.00    -0.000 C 
BRANCH  22  23
ATOM     23  C   UNL     1     -14.240  -6.643  -9.402  1.00  0.00    -0.000 C 
BRANCH  23  24
ATOM     24  C   UNL     1     -15.115  -6.778  -8.138  1.00  0.00    -0.000 C 
BRANCH  24  25
ATOM     25  C   UNL     1     -14.642  -5.951  -6.926  1.00  0.00    -0.000 C 
BRANCH  25  26
ATOM     26  C   UNL     1     -14.425  -6.758  -5.629  1.00  0.00    -0.000 C 
BRANCH  26  27
ATOM     27  C   UNL     1     -13.606  -8.049  -5.802  1.00  0.00    -0.000 C 
BRANCH  27  28
ATOM     28  C   UNL     1     -12.109  -7.777  -6.031  1.00  0.00    -0.000 C 
BRANCH  28  29
ATOM     29  C   UNL     1     -11.465  -7.011  -4.865  1.00  0.00    -0.003 C 
ATOM     30  C   UNL     1     -11.247  -5.532  -5.183  1.00  0.00     0.004 C 
ENDBRANCH  28  29
ENDBRANCH  27  28
ENDBRANCH  26  27
ENDBRANCH  25  26
ENDBRANCH  24  25
ENDBRANCH  23  24
ENDBRANCH  22  23
ENDBRANCH  21  22
ENDBRANCH  20  21
ENDBRANCH  19  20
ENDBRANCH  18  19
ENDBRANCH  17  18
ENDBRANCH   1  17
TORSDOF 26
ENDMDL
MODEL 2
REMARK VINA RESULT:    -3.928      2.869      8.058
REMARK INTER + INTRA:         -13.510
REMARK INTER:                 -11.665
REMARK INTRA:                  -1.845
REMARK UNBOUND:                -3.612
REMARK SMILES CCCCCCCCCCCCCCCCCCCCCCCCCCCC(=O)[O-]
REMARK SMILES IDX 15 1 16 2 17 3 18 4 19 5 20 6 21 7 22 8 23 9 24 10 25 11
REMARK SMILES IDX 26 12 27 13 28 14 29 15 30 16 14 17 13 18 12 19 11 20 10 21
REMARK SMILES IDX 9 22 8 23 7 24 6 25 5 26 4 27 3 28 2 29 1 30
REMARK H PARENT
REMARK Flexibility Score: inf
ROOT
ATOM      1  C   UNL     1     -10.337  -3.382  -7.175  1.00  0.00     0.000 C 
ENDROOT
BRANCH   1   2
ATOM      2  C   UNL     1      -9.777  -4.766  -6.788  1.00  0.00     0.000 C 
BRANCH   2   3
ATOM      3  C   UNL     1     -10.592  -5.527  -5.722  1.00  0.00     0.000 C 
BRANCH   3   4
ATOM      4  C   UNL     1     -10.846  -7.013  -6.039  1.00  0.00     0.000 C 
BRANCH   4   5
ATOM      5  C   UNL     1     -11.517  -7.814  -4.906  1.00  0.00     0.000 C 
BRANCH   5   6
ATOM      6  C   UNL     1     -13.059  -7.762  -4.936  1.00  0.00     0.000 C 
BRANCH   6   7
ATOM      7  C   UNL     1     -13.624  -7.769  -6.365  1.00  0.00     0.000 C 
BRANCH   7   8
ATOM      8  C   UNL     1     -14.339  -6.446  -6.681  1.00  0.00     0.000 C 
BRANCH   8   9
ATOM      9  C   UNL     1     -15.124  -6.497  -8.002  1.00  0.00     0.000 C 
BRANCH   9  10
ATOM     10  C   UNL     1     -14.863  -7.788  -8.798  1.00  0.00     0.000 C 
BRANCH  10  11
ATOM     11  C   UNL     1     -14.679  -7.515 -10.307  1.00  0.00     0.000 C 
BRANCH  11  12
ATOM     12  C   UNL     1     -13.253  -7.795 -10.819  1.00  0.00     0.006 C 
BRANCH  12  13
ATOM     13  C   UNL     1     -12.207  -7.976  -9.709  1.00  0.00     0.053 C 
BRANCH  13  14
ATOM     14  C   UNL     1     -11.369  -6.749  -9.506  1.00  0.00     0.041 C 
ATOM     15  O   UNL     1     -11.874  -5.602  -9.638  1.00  0.00    -0.550 OA
ATOM     16  O   UNL     1     -10.033  -6.870  -9.140  1.00  0.00    -0.550 OA
ENDBRANCH  13  14
ENDBRANCH  12  13
ENDBRANCH  11  12
ENDBRANCH  10  11
ENDBRANCH   9  10
ENDBRANCH   8   9
ENDBRANCH   7   8
ENDBRANCH   6   7
ENDBRANCH   5   6
ENDBRANCH   4   5
ENDBRANCH   3   4
ENDBRANCH   2   3
ENDBRANCH   1   2
BRANCH   1  17
ATOM     17  C   UNL     1      -9.427  -2.547  -8.092  1.00  0.00     0.000 C 
BRANCH  17  18
ATOM     18  C   UNL     1      -9.999  -2.388  -9.510  1.00  0.00     0.000 C 
BRANCH  18  19
ATOM     19  C   UNL     1     -10.336  -0.930  -9.863  1.00  0.00     0.000 C 
BRANCH  19  20
ATOM     20  C   UNL     1     -11.664  -0.767 -10.631  1.00  0.00     0.000 C 
BRANCH  20  21
ATOM     21  C   UNL     1     -12.735  -1.765 -10.164  1.00  0.00     0.000 C 
BRANCH  21  22
ATOM     22  C   UNL     1     -14.144  -1.268 -10.523  1.00  0.00    -0.000 C 
BRANCH  22  23
ATOM     23  C   UNL     1     -15.013  -0.979  -9.285  1.00  0.00    -0.000 C 
BRANCH  23  24
ATOM     24  C   UNL     1     -15.125   0.512  -8.901  1.00  0.00    -0.000 C 
BRANCH  24  25
ATOM     25  C   UNL     1     -14.537   1.498  -9.931  1.00  0.00    -0.000 C 
BRANCH  25  26
ATOM     26  C   UNL     1     -13.477   2.469  -9.373  1.00  0.00    -0.000 C 
BRANCH  26  27
ATOM     27  C   UNL     1     -13.971   3.381  -8.236  1.00  0.00    -0.000 C 
BRANCH  27  28
ATOM     28  C   UNL     1     -13.092   4.630  -8.052  1.00  0.00    -0.000 C 
BRANCH  28  29
ATOM     29  C   UNL     1     -11.654   4.281  -7.638  1.00  0.00    -0.003 C 
ATOM     30  C   UNL     1     -10.924   3.448  -8.691  1.00  0.00     0.004 C 
ENDBRANCH  28  29
ENDBRANCH  27  28
ENDBRANCH  26  27
ENDBRANCH  25  26
ENDBRANCH  24  25
ENDBRANCH  23  24
ENDBRANCH  22  23
ENDBRANCH  21  22
ENDBRANCH  20  21
ENDBRANCH  19  20
ENDBRANCH  18  19
ENDBRANCH  17  18
ENDBRANCH   1  17
TORSDOF 26
ENDMDL
MODEL 3
REMARK VINA RESULT:    -3.721      1.064      3.325
REMARK INTER + INTRA:         -12.988
REMARK INTER:                 -10.667
REMARK INTRA:                  -2.321
REMARK UNBOUND:                -3.612
REMARK SMILES CCCCCCCCCCCCCCCCCCCCCCCCCCCC(=O)[O-]
REMARK SMILES IDX 15 1 16 2 17 3 18 4 19 5 20 6 21 7 22 8 23 9 24 10 25 11
REMARK SMILES IDX 26 12 27 13 28 14 29 15 30 16 14 17 13 18 12 19 11 20 10 21
REMARK SMILES IDX 9 22 8 23 7 24 6 25 5 26 4 27 3 28 2 29 1 30
REMARK H PARENT
REMARK Flexibility Score: inf
ROOT
ATOM      1  C   UNL     1     -11.043  -6.535  -9.248  1.00  0.00     0.000 C 
ENDROOT
BRANCH   1   2
ATOM      2  C   UNL     1     -11.458  -5.380 -10.180  1.00  0.00     0.000 C 
BRANCH   2   3
ATOM      3  C   UNL     1     -12.275  -4.257  -9.508  1.00  0.00     0.000 C 
BRANCH   3   4
ATOM      4  C   UNL     1     -11.627  -2.861  -9.564  1.00  0.00     0.000 C 
BRANCH   4   5
ATOM      5  C   UNL     1     -12.495  -1.767 -10.214  1.00  0.00     0.000 C 
BRANCH   5   6
ATOM      6  C   UNL     1     -13.882  -2.264 -10.675  1.00  0.00     0.000 C 
BRANCH   6   7
ATOM      7  C   UNL     1     -14.961  -1.175 -10.588  1.00  0.00     0.000 C 
BRANCH   7   8
ATOM      8  C   UNL     1     -15.124  -0.673  -9.145  1.00  0.00     0.000 C 
BRANCH   8   9
ATOM      9  C   UNL     1     -14.783   0.818  -8.993  1.00  0.00     0.000 C 
BRANCH   9  10
ATOM     10  C   UNL     1     -13.882   1.339 -10.126  1.00  0.00     0.000 C 
BRANCH  10  11
ATOM     11  C   UNL     1     -12.564   1.942  -9.593  1.00  0.00     0.000 C 
BRANCH  11  12
ATOM     12  C   UNL     1     -12.482   3.475  -9.730  1.00  0.00     0.006 C 
BRANCH  12  13
ATOM     13  C   UNL     1     -12.913   4.246  -8.474  1.00  0.00     0.053 C 
BRANCH  13  14
ATOM     14  C   UNL     1     -11.864   4.225  -7.401  1.00  0.00     0.041 C 
ATOM     15  O   UNL     1     -10.671   3.931  -7.682  1.00  0.00    -0.550 OA
ATOM     16  O   UNL     1     -12.197   4.559  -6.094  1.00  0.00    -0.550 OA
ENDBRANCH  13  14
ENDBRANCH  12  13
ENDBRANCH  11  12
ENDBRANCH  10  11
ENDBRANCH   9  10
ENDBRANCH   8   9
ENDBRANCH   7   8
ENDBRANCH   6   7
ENDBRANCH   5   6
ENDBRANCH   4   5
ENDBRANCH   3   4
ENDBRANCH   2   3
ENDBRANCH   1   2
BRANCH   1  17
ATOM     17  C   UNL     1     -11.857  -7.830  -9.416  1.00  0.00     0.000 C 
BRANCH  17  18
ATOM     18  C   UNL     1     -12.852  -7.757 -10.586  1.00  0.00     0.000 C 
BRANCH  18  19
ATOM     19  C   UNL     1     -14.314  -7.937 -10.144  1.00  0.00     0.000 C 
BRANCH  19  20
ATOM     20  C   UNL     1     -14.717  -7.043  -8.953  1.00  0.00     0.000 C 
BRANCH  20  21
ATOM     21  C   UNL     1     -14.872  -7.841  -7.648  1.00  0.00     0.000 C 
BRANCH  21  22
ATOM     22  C   UNL     1     -14.395  -7.021  -6.440  1.00  0.00    -0.000 C 
BRANCH  22  23
ATOM     23  C   UNL     1     -14.195  -7.875  -5.175  1.00  0.00    -0.000 C 
BRANCH  23  24
ATOM     24  C   UNL     1     -12.729  -8.034  -4.720  1.00  0.00    -0.000 C 
BRANCH  24  25
ATOM     25  C   UNL     1     -11.672  -7.661  -5.779  1.00  0.00    -0.000 C 
BRANCH  25  26
ATOM     26  C   UNL     1     -11.520  -6.150  -6.045  1.00  0.00    -0.000 C 
BRANCH  26  27
ATOM     27  C   UNL     1     -10.077  -5.622  -5.967  1.00  0.00    -0.000 C 
BRANCH  27  28
ATOM     28  C   UNL     1      -9.915  -4.235  -6.613  1.00  0.00    -0.000 C 
BRANCH  28  29
ATOM     29  C   UNL     1      -9.017  -4.268  -7.859  1.00  0.00    -0.003 C 
ATOM     30  C   UNL     1      -7.941  -3.182  -7.838  1.00  0.00     0.004 C 
ENDBRANCH  28  29
ENDBRANCH  27  28
ENDBRANCH  26  27
ENDBRANCH  25  26
ENDBRANCH  24  25
ENDBRANCH  23  24
ENDBRANCH  22  23
ENDBRANCH  21  22
ENDBRANCH  20  21
ENDBRANCH  19  20
ENDBRANCH  18  19
ENDBRANCH  17  18
ENDBRANCH   1  17
TORSDOF 26
ENDMDL
MODEL 4
REMARK VINA RESULT:    -3.466      2.774      7.877
REMARK INTER + INTRA:         -12.346
REMARK INTER:                 -10.478
REMARK INTRA:                  -1.868
REMARK UNBOUND:                -3.612
REMARK SMILES CCCCCCCCCCCCCCCCCCCCCCCCCCCC(=O)[O-]
REMARK SMILES IDX 15 1 16 2 17 3 18 4 19 5 20 6 21 7 22 8 23 9 24 10 25 11
REMARK SMILES IDX 26 12 27 13 28 14 29 15 30 16 14 17 13 18 12 19 11 20 10 21
REMARK SMILES IDX 9 22 8 23 7 24 6 25 5 26 4 27 3 28 2 29 1 30
REMARK H PARENT
REMARK Flexibility Score: inf
ROOT
ATOM      1  C   UNL     1     -10.960  -5.637  -8.788  1.00  0.00     0.000 C 
ENDROOT
BRANCH   1   2
ATOM      2  C   UNL     1     -10.540  -7.097  -9.049  1.00  0.00     0.000 C 
BRANCH   2   3
ATOM      3  C   UNL     1     -11.693  -8.052  -9.424  1.00  0.00     0.000 C 
BRANCH   3   4
ATOM      4  C   UNL     1     -12.699  -7.485 -10.444  1.00  0.00     0.000 C 
BRANCH   4   5
ATOM      5  C   UNL     1     -14.108  -8.106 -10.380  1.00  0.00     0.000 C 
BRANCH   5   6
ATOM      6  C   UNL     1     -15.018  -7.474  -9.306  1.00  0.00     0.000 C 
BRANCH   6   7
ATOM      7  C   UNL     1     -14.526  -6.092  -8.851  1.00  0.00     0.000 C 
BRANCH   7   8
ATOM      8  C   UNL     1     -14.603  -5.954  -7.323  1.00  0.00     0.000 C 
BRANCH   8   9
ATOM      9  C   UNL     1     -15.121  -7.229  -6.637  1.00  0.00     0.000 C 
BRANCH   9  10
ATOM     10  C   UNL     1     -14.028  -7.958  -5.837  1.00  0.00     0.000 C 
BRANCH  10  11
ATOM     11  C   UNL     1     -12.624  -7.367  -6.093  1.00  0.00     0.000 C 
BRANCH  11  12
ATOM     12  C   UNL     1     -11.491  -8.125  -5.373  1.00  0.00     0.006 C 
BRANCH  12  13
ATOM     13  C   UNL     1     -10.158  -7.365  -5.319  1.00  0.00     0.053 C 
BRANCH  13  14
ATOM     14  C   UNL     1     -10.334  -5.886  -5.499  1.00  0.00     0.041 C 
ATOM     15  O   UNL     1      -9.432  -5.199  -6.051  1.00  0.00    -0.550 OA
ATOM     16  O   UNL     1     -11.507  -5.268  -5.085  1.00  0.00    -0.550 OA
ENDBRANCH  13  14
ENDBRANCH  12  13
ENDBRANCH  11  12
ENDBRANCH  10  11
ENDBRANCH   9  10
ENDBRANCH   8   9
ENDBRANCH   7   8
ENDBRANCH   6   7
ENDBRANCH   5   6
ENDBRANCH   4   5
ENDBRANCH   3   4
ENDBRANCH   2   3
ENDBRANCH   1   2
BRANCH   1  17
ATOM     17  C   UNL     1     -10.510  -4.630  -9.861  1.00  0.00     0.000 C 
BRANCH  17  18
ATOM     18  C   UNL     1      -9.340  -3.748  -9.394  1.00  0.00     0.000 C 
BRANCH  18  19
ATOM     19  C   UNL     1      -9.794  -2.372  -8.881  1.00  0.00     0.000 C 
BRANCH  19  20
ATOM     20  C   UNL     1     -10.436  -1.484  -9.967  1.00  0.00     0.000 C 
BRANCH  20  21
ATOM     21  C   UNL     1     -11.930  -1.233  -9.709  1.00  0.00     0.000 C 
BRANCH  21  22
ATOM     22  C   UNL     1     -12.801  -2.177 -10.551  1.00  0.00    -0.000 C 
BRANCH  22  23
ATOM     23  C   UNL     1     -14.235  -1.653 -10.751  1.00  0.00    -0.000 C 
BRANCH  23  24
ATOM     24  C   UNL     1     -14.674  -0.558  -9.756  1.00  0.00    -0.000 C 
BRANCH  24  25
ATOM     25  C   UNL     1     -14.334   0.885 -10.182  1.00  0.00    -0.000 C 
BRANCH  25  26
ATOM     26  C   UNL     1     -14.547   1.955  -9.091  1.00  0.00    -0.000 C 
BRANCH  26  27
ATOM     27  C   UNL     1     -13.740   3.249  -9.290  1.00  0.00    -0.000 C 
BRANCH  27  28
ATOM     28  C   UNL     1     -12.221   3.006  -9.315  1.00  0.00    -0.000 C 
BRANCH  28  29
ATOM     29  C   UNL     1     -11.477   3.815  -8.242  1.00  0.00    -0.003 C 
ATOM     30  C   UNL     1     -12.426   4.510  -7.266  1.00  0.00     0.004 C 
ENDBRANCH  28  29
ENDBRANCH  27  28
ENDBRANCH  26  27
ENDBRANCH  25  26
ENDBRANCH  24  25
ENDBRANCH  23  24
ENDBRANCH  22  23
ENDBRANCH  21  22
ENDBRANCH  20  21
ENDBRANCH  19  20
ENDBRANCH  18  19
ENDBRANCH  17  18
ENDBRANCH   1  17
TORSDOF 26
ENDMDL
MODEL 5
REMARK VINA RESULT:    -3.150     16.739     20.084
REMARK INTER + INTRA:         -11.550
REMARK INTER:                  -8.523
REMARK INTRA:                  -3.027
REMARK UNBOUND:                -3.612
REMARK SMILES CCCCCCCCCCCCCCCCCCCCCCCCCCCC(=O)[O-]
REMARK SMILES IDX 15 1 16 2 17 3 18 4 19 5 20 6 21 7 22 8 23 9 24 10 25 11
REMARK SMILES IDX 26 12 27 13 28 14 29 15 30 16 14 17 13 18 12 19 11 20 10 21
REMARK SMILES IDX 9 22 8 23 7 24 6 25 5 26 4 27 3 28 2 29 1 30
REMARK H PARENT
REMARK Flexibility Score: inf
ROOT
ATOM      1  C   UNL     1      -9.140   5.500   5.615  1.00  0.00     0.000 C 
ENDROOT
BRANCH   1   2
ATOM      2  C   UNL     1      -9.535   6.916   5.149  1.00  0.00     0.000 C 
BRANCH   2   3
ATOM      3  C   UNL     1      -8.517   8.024   5.487  1.00  0.00     0.000 C 
BRANCH   3   4
ATOM      4  C   UNL     1      -8.429   9.162   4.452  1.00  0.00     0.000 C 
BRANCH   4   5
ATOM      5  C   UNL     1      -7.787  10.463   4.969  1.00  0.00     0.000 C 
BRANCH   5   6
ATOM      6  C   UNL     1      -8.547  11.107   6.147  1.00  0.00     0.000 C 
BRANCH   6   7
ATOM      7  C   UNL     1      -7.608  11.773   7.165  1.00  0.00     0.000 C 
BRANCH   7   8
ATOM      8  C   UNL     1      -6.615  10.755   7.748  1.00  0.00     0.000 C 
BRANCH   8   9
ATOM      9  C   UNL     1      -5.153  11.207   7.612  1.00  0.00     0.000 C 
BRANCH   9  10
ATOM     10  C   UNL     1      -4.408  10.476   6.481  1.00  0.00     0.000 C 
BRANCH  10  11
ATOM     11  C   UNL     1      -3.969  11.438   5.355  1.00  0.00     0.000 C 
BRANCH  11  12
ATOM     12  C   UNL     1      -2.613  12.123   5.618  1.00  0.00     0.006 C 
BRANCH  12  13
ATOM     13  C   UNL     1      -1.634  12.062   4.436  1.00  0.00     0.053 C 
BRANCH  13  14
ATOM     14  C   UNL     1      -0.402  11.267   4.753  1.00  0.00     0.041 C 
ATOM     15  O   UNL     1       0.724  11.829   4.806  1.00  0.00    -0.550 OA
ATOM     16  O   UNL     1      -0.501   9.906   5.020  1.00  0.00    -0.550 OA
ENDBRANCH  13  14
ENDBRANCH  12  13
ENDBRANCH  11  12
ENDBRANCH  10  11
ENDBRANCH   9  10
ENDBRANCH   8   9
ENDBRANCH   7   8
ENDBRANCH   6   7
ENDBRANCH   5   6
ENDBRANCH   4   5
ENDBRANCH   3   4
ENDBRANCH   2   3
ENDBRANCH   1   2
BRANCH   1  17
ATOM     17  C   UNL     1      -9.014   5.329   7.139  1.00  0.00     0.000 C 
BRANCH  17  18
ATOM     18  C   UNL     1      -9.760   6.422   7.922  1.00  0.00     0.000 C 
BRANCH  18  19
ATOM     19  C   UNL     1     -11.266   6.141   8.060  1.00  0.00     0.000 C 
BRANCH  19  20
ATOM     20  C   UNL     1     -11.667   4.702   7.675  1.00  0.00     0.000 C 
BRANCH  20  21
ATOM     21  C   UNL     1     -12.880   4.666   6.732  1.00  0.00     0.000 C 
BRANCH  21  22
ATOM     22  C   UNL     1     -13.054   6.008   6.005  1.00  0.00    -0.000 C 
BRANCH  22  23
ATOM     23  C   UNL     1     -13.148   5.855   4.475  1.00  0.00    -0.000 C 
BRANCH  23  24
ATOM     24  C   UNL     1     -13.983   6.940   3.762  1.00  0.00    -0.000 C 
BRANCH  24  25
ATOM     25  C   UNL     1     -14.924   7.748   4.679  1.00  0.00    -0.000 C 
BRANCH  25  26
ATOM     26  C   UNL     1     -14.627   9.260   4.748  1.00  0.00    -0.000 C 
BRANCH  26  27
ATOM     27  C   UNL     1     -13.166   9.646   4.457  1.00  0.00    -0.000 C 
BRANCH  27  28
ATOM     28  C   UNL     1     -12.240   9.420   5.664  1.00  0.00    -0.000 C 
BRANCH  28  29
ATOM     29  C   UNL     1     -12.041  10.695   6.499  1.00  0.00    -0.003 C 
ATOM     30  C   UNL     1     -12.914  10.719   7.753  1.00  0.00     0.004 C 
ENDBRANCH  28  29
ENDBRANCH  27  28
ENDBRANCH  26  27
ENDBRANCH  25  26
ENDBRANCH  24  25
ENDBRANCH  23  24
ENDBRANCH  22  23
ENDBRANCH  21  22
ENDBRANCH  20  21
ENDBRANCH  19  20
ENDBRANCH  18  19
ENDBRANCH  17  18
ENDBRANCH   1  17
TORSDOF 26
ENDMDL
MODEL 6
REMARK VINA RESULT:    -3.134     15.966     20.008
REMARK INTER + INTRA:         -11.509
REMARK INTER:                  -9.447
REMARK INTRA:                  -2.062
REMARK UNBOUND:                -3.612
REMARK SMILES CCCCCCCCCCCCCCCCCCCCCCCCCCCC(=O)[O-]
REMARK SMILES IDX 15 1 16 2 17 3 18 4 19 5 20 6 21 7 22 8 23 9 24 10 25 11
REMARK SMILES IDX 26 12 27 13 28 14 29 15 30 16 14 17 13 18 12 19 11 20 10 21
REMARK SMILES IDX 9 22 8 23 7 24 6 25 5 26 4 27 3 28 2 29 1 30
REMARK H PARENT
REMARK Flexibility Score: inf
ROOT
ATOM      1  C   UNL     1      -9.833   6.497   7.692  1.00  0.00     0.000 C 
ENDROOT
BRANCH   1   2
ATOM      2  C   UNL     1     -10.096   4.985   7.841  1.00  0.00     0.000 C 
BRANCH   2   3
ATOM      3  C   UNL     1     -11.563   4.601   8.125  1.00  0.00     0.000 C 
BRANCH   3   4
ATOM      4  C   UNL     1     -12.423   4.356   6.870  1.00  0.00     0.000 C 
BRANCH   4   5
ATOM      5  C   UNL     1     -11.663   4.451   5.533  1.00  0.00     0.000 C 
BRANCH   5   6
ATOM      6  C   UNL     1     -12.461   5.149   4.411  1.00  0.00     0.000 C 
BRANCH   6   7
ATOM      7  C   UNL     1     -13.511   6.130   4.954  1.00  0.00     0.000 C 
BRANCH   7   8
ATOM      8  C   UNL     1     -14.205   6.885   3.810  1.00  0.00     0.000 C 
BRANCH   8   9
ATOM      9  C   UNL     1     -14.749   8.254   4.247  1.00  0.00     0.000 C 
BRANCH   9  10
ATOM     10  C   UNL     1     -13.703   9.097   4.996  1.00  0.00     0.000 C 
BRANCH  10  11
ATOM     11  C   UNL     1     -13.696  10.569   4.529  1.00  0.00     0.000 C 
BRANCH  11  12
ATOM     12  C   UNL     1     -12.293  11.206   4.505  1.00  0.00     0.006 C 
BRANCH  12  13
ATOM     13  C   UNL     1     -12.034  12.122   3.300  1.00  0.00     0.053 C 
BRANCH  13  14
ATOM     14  C   UNL     1     -12.750  11.660   2.066  1.00  0.00     0.041 C 
ATOM     15  O   UNL     1     -12.115  11.105   1.130  1.00  0.00    -0.550 OA
ATOM     16  O   UNL     1     -14.127  11.817   1.959  1.00  0.00    -0.550 OA
ENDBRANCH  13  14
ENDBRANCH  12  13
ENDBRANCH  11  12
ENDBRANCH  10  11
ENDBRANCH   9  10
ENDBRANCH   8   9
ENDBRANCH   7   8
ENDBRANCH   6   7
ENDBRANCH   5   6
ENDBRANCH   4   5
ENDBRANCH   3   4
ENDBRANCH   2   3
ENDBRANCH   1   2
BRANCH   1  17
ATOM     17  C   UNL     1     -11.071   7.339   7.336  1.00  0.00     0.000 C 
BRANCH  17  18
ATOM     18  C   UNL     1     -10.832   8.267   6.133  1.00  0.00     0.000 C 
BRANCH  18  19
ATOM     19  C   UNL     1      -9.837   9.399   6.437  1.00  0.00     0.000 C 
BRANCH  19  20
ATOM     20  C   UNL     1      -8.574   9.371   5.551  1.00  0.00     0.000 C 
BRANCH  20  21
ATOM     21  C   UNL     1      -8.289  10.732   4.895  1.00  0.00     0.000 C 
BRANCH  21  22
ATOM     22  C   UNL     1      -8.624  11.886   5.852  1.00  0.00    -0.000 C 
BRANCH  22  23
ATOM     23  C   UNL     1      -7.847  11.812   7.179  1.00  0.00    -0.000 C 
BRANCH  23  24
ATOM     24  C   UNL     1      -6.339  12.124   7.070  1.00  0.00    -0.000 C 
BRANCH  24  25
ATOM     25  C   UNL     1      -5.404  10.934   7.367  1.00  0.00    -0.000 C 
BRANCH  25  26
ATOM     26  C   UNL     1      -4.574  10.441   6.164  1.00  0.00    -0.000 C 
BRANCH  26  27
ATOM     27  C   UNL     1      -4.012  11.557   5.266  1.00  0.00    -0.000 C 
BRANCH  27  28
ATOM     28  C   UNL     1      -2.584  11.973   5.657  1.00  0.00    -0.000 C 
BRANCH  28  29
ATOM     29  C   UNL     1      -1.593  11.842   4.490  1.00  0.00    -0.003 C 
ATOM     30  C   UNL     1      -0.317  11.096   4.882  1.00  0.00     0.004 C 
ENDBRANCH  28  29
ENDBRANCH  27  28
ENDBRANCH  26  27
ENDBRANCH  25  26
ENDBRANCH  24  25
ENDBRANCH  23  24
ENDBRANCH  22  23
ENDBRANCH  21  22
ENDBRANCH  20  21
ENDBRANCH  19  20
ENDBRANCH  18  19
ENDBRANCH  17  18
ENDBRANCH   1  17
TORSDOF 26
ENDMDL
MODEL 7
REMARK VINA RESULT:    -2.885     16.575     20.546
REMARK INTER + INTRA:         -10.883
REMARK INTER:                 -10.017
REMARK INTRA:                  -0.866
REMARK UNBOUND:                -3.612
REMARK SMILES CCCCCCCCCCCCCCCCCCCCCCCCCCCC(=O)[O-]
REMARK SMILES IDX 15 1 16 2 17 3 18 4 19 5 20 6 21 7 22 8 23 9 24 10 25 11
REMARK SMILES IDX 26 12 27 13 28 14 29 15 30 16 14 17 13 18 12 19 11 20 10 21
REMARK SMILES IDX 9 22 8 23 7 24 6 25 5 26 4 27 3 28 2 29 1 30
REMARK H PARENT
REMARK Flexibility Score: inf
ROOT
ATOM      1  C   UNL     1      -9.161   6.340   5.492  1.00  0.00     0.000 C 
ENDROOT
BRANCH   1   2
ATOM      2  C   UNL     1      -9.053   5.827   6.943  1.00  0.00     0.000 C 
BRANCH   2   3
ATOM      3  C   UNL     1     -10.178   6.298   7.888  1.00  0.00     0.000 C 
BRANCH   3   4
ATOM      4  C   UNL     1     -11.058   5.171   8.461  1.00  0.00     0.000 C 
BRANCH   4   5
ATOM      5  C   UNL     1     -11.037   3.857   7.656  1.00  0.00     0.000 C 
BRANCH   5   6
ATOM      6  C   UNL     1     -12.084   3.804   6.523  1.00  0.00     0.000 C 
BRANCH   6   7
ATOM      7  C   UNL     1     -12.211   5.137   5.771  1.00  0.00     0.000 C 
BRANCH   7   8
ATOM      8  C   UNL     1     -13.653   5.366   5.292  1.00  0.00     0.000 C 
BRANCH   8   9
ATOM      9  C   UNL     1     -13.743   6.384   4.144  1.00  0.00     0.000 C 
BRANCH   9  10
ATOM     10  C   UNL     1     -15.101   7.105   4.095  1.00  0.00     0.000 C 
BRANCH  10  11
ATOM     11  C   UNL     1     -15.002   8.570   4.575  1.00  0.00     0.000 C 
BRANCH  11  12
ATOM     12  C   UNL     1     -13.629   9.218   4.308  1.00  0.00     0.006 C 
BRANCH  12  13
ATOM     13  C   UNL     1     -12.941   9.781   5.561  1.00  0.00     0.053 C 
BRANCH  13  14
ATOM     14  C   UNL     1     -12.278  11.102   5.305  1.00  0.00     0.041 C 
ATOM     15  O   UNL     1     -12.099  11.919   6.248  1.00  0.00    -0.550 OA
ATOM     16  O   UNL     1     -11.829  11.421   4.029  1.00  0.00    -0.550 OA
ENDBRANCH  13  14
ENDBRANCH  12  13
ENDBRANCH  11  12
ENDBRANCH  10  11
ENDBRANCH   9  10
ENDBRANCH   8   9
ENDBRANCH   7   8
ENDBRANCH   6   7
ENDBRANCH   5   6
ENDBRANCH   4   5
ENDBRANCH   3   4
ENDBRANCH   2   3
ENDBRANCH   1   2
BRANCH   1  17
ATOM     17  C   UNL     1      -9.538   7.826   5.355  1.00  0.00     0.000 C 
BRANCH  17  18
ATOM     18  C   UNL     1      -8.342   8.708   4.964  1.00  0.00     0.000 C 
BRANCH  18  19
ATOM     19  C   UNL     1      -8.620  10.210   5.139  1.00  0.00     0.000 C 
BRANCH  19  20
ATOM     20  C   UNL     1      -7.436  10.996   5.739  1.00  0.00     0.000 C 
BRANCH  20  21
ATOM     21  C   UNL     1      -7.897  12.113   6.689  1.00  0.00     0.000 C 
BRANCH  21  22
ATOM     22  C   UNL     1      -7.590  11.753   8.151  1.00  0.00    -0.000 C 
BRANCH  22  23
ATOM     23  C   UNL     1      -6.145  12.088   8.562  1.00  0.00    -0.000 C 
BRANCH  23  24
ATOM     24  C   UNL     1      -5.126  12.113   7.403  1.00  0.00    -0.000 C 
BRANCH  24  25
ATOM     25  C   UNL     1      -4.716  10.728   6.864  1.00  0.00    -0.000 C 
BRANCH  25  26
ATOM     26  C   UNL     1      -3.473  10.725   5.952  1.00  0.00    -0.000 C 
BRANCH  26  27
ATOM     27  C   UNL     1      -2.823  12.104   5.741  1.00  0.00    -0.000 C 
BRANCH  27  28
ATOM     28  C   UNL     1      -1.844  12.125   4.555  1.00  0.00    -0.000 C 
BRANCH  28  29
ATOM     29  C   UNL     1      -0.651  11.177   4.759  1.00  0.00    -0.003 C 
ATOM     30  C   UNL     1       0.666  11.925   4.968  1.00  0.00     0.004 C 
ENDBRANCH  28  29
ENDBRANCH  27  28
ENDBRANCH  26  27
ENDBRANCH  25  26
ENDBRANCH  24  25
ENDBRANCH  23  24
ENDBRANCH  22  23
ENDBRANCH  21  22
ENDBRANCH  20  21
ENDBRANCH  19  20
ENDBRANCH  18  19
ENDBRANCH  17  18
ENDBRANCH   1  17
TORSDOF 26
ENDMDL
MODEL 8
REMARK VINA RESULT:    -2.867     16.114     19.876
REMARK INTER + INTRA:         -10.837
REMARK INTER:                  -8.484
REMARK INTRA:                  -2.353
REMARK UNBOUND:                -3.612
REMARK SMILES CCCCCCCCCCCCCCCCCCCCCCCCCCCC(=O)[O-]
REMARK SMILES IDX 15 1 16 2 17 3 18 4 19 5 20 6 21 7 22 8 23 9 24 10 25 11
REMARK SMILES IDX 26 12 27 13 28 14 29 15 30 16 14 17 13 18 12 19 11 20 10 21
REMARK SMILES IDX 9 22 8 23 7 24 6 25 5 26 4 27 3 28 2 29 1 30
REMARK H PARENT
REMARK Flexibility Score: inf
ROOT
ATOM      1  C   UNL     1      -9.949   4.623   7.818  1.00  0.00     0.000 C 
ENDROOT
BRANCH   1   2
ATOM      2  C   UNL     1     -10.572   5.455   8.957  1.00  0.00     0.000 C 
BRANCH   2   3
ATOM      3  C   UNL     1     -11.595   6.518   8.506  1.00  0.00     0.000 C 
BRANCH   3   4
ATOM      4  C   UNL     1     -11.010   7.660   7.653  1.00  0.00     0.000 C 
BRANCH   4   5
ATOM      5  C   UNL     1     -12.032   8.401   6.770  1.00  0.00     0.000 C 
BRANCH   5   6
ATOM      6  C   UNL     1     -12.069   9.926   7.005  1.00  0.00     0.000 C 
BRANCH   6   7
ATOM      7  C   UNL     1     -10.927  10.664   6.290  1.00  0.00     0.000 C 
BRANCH   7   8
ATOM      8  C   UNL     1     -11.332  11.054   4.861  1.00  0.00     0.000 C 
BRANCH   8   9
ATOM      9  C   UNL     1     -12.622  11.889   4.817  1.00  0.00     0.000 C 
BRANCH   9  10
ATOM     10  C   UNL     1     -13.712  11.253   3.936  1.00  0.00     0.000 C 
BRANCH  10  11
ATOM     11  C   UNL     1     -14.881  10.688   4.771  1.00  0.00     0.000 C 
BRANCH  11  12
ATOM     12  C   UNL     1     -15.054   9.161   4.644  1.00  0.00     0.006 C 
BRANCH  12  13
ATOM     13  C   UNL     1     -13.881   8.448   3.956  1.00  0.00     0.053 C 
BRANCH  13  14
ATOM     14  C   UNL     1     -14.060   6.959   3.916  1.00  0.00     0.041 C 
ATOM     15  O   UNL     1     -14.481   6.340   4.930  1.00  0.00    -0.550 OA
ATOM     16  O   UNL     1     -13.790   6.255   2.749  1.00  0.00    -0.550 OA
ENDBRANCH  13  14
ENDBRANCH  12  13
ENDBRANCH  11  12
ENDBRANCH  10  11
ENDBRANCH   9  10
ENDBRANCH   8   9
ENDBRANCH   7   8
ENDBRANCH   6   7
ENDBRANCH   5   6
ENDBRANCH   4   5
ENDBRANCH   3   4
ENDBRANCH   2   3
ENDBRANCH   1   2
BRANCH   1  17
ATOM     17  C   UNL     1     -10.963   3.919   6.899  1.00  0.00     0.000 C 
BRANCH  17  18
ATOM     18  C   UNL     1     -11.489   4.837   5.784  1.00  0.00     0.000 C 
BRANCH  18  19
ATOM     19  C   UNL     1     -10.475   5.045   4.647  1.00  0.00     0.000 C 
BRANCH  19  20
ATOM     20  C   UNL     1      -9.134   5.650   5.113  1.00  0.00     0.000 C 
BRANCH  20  21
ATOM     21  C   UNL     1      -9.122   7.184   5.022  1.00  0.00     0.000 C 
BRANCH  21  22
ATOM     22  C   UNL     1      -8.355   7.800   6.202  1.00  0.00    -0.000 C 
BRANCH  22  23
ATOM     23  C   UNL     1      -7.649   9.119   5.837  1.00  0.00    -0.000 C 
BRANCH  23  24
ATOM     24  C   UNL     1      -7.285  10.018   7.037  1.00  0.00    -0.000 C 
BRANCH  24  25
ATOM     25  C   UNL     1      -6.841  11.449   6.670  1.00  0.00    -0.000 C 
BRANCH  25  26
ATOM     26  C   UNL     1      -5.346  11.748   6.904  1.00  0.00    -0.000 C 
BRANCH  26  27
ATOM     27  C   UNL     1      -4.391  11.106   5.883  1.00  0.00    -0.000 C 
BRANCH  27  28
ATOM     28  C   UNL     1      -3.095  11.912   5.690  1.00  0.00    -0.000 C 
BRANCH  28  29
ATOM     29  C   UNL     1      -1.909  11.030   5.274  1.00  0.00    -0.003 C 
ATOM     30  C   UNL     1      -0.678  11.846   4.878  1.00  0.00     0.004 C 
ENDBRANCH  28  29
ENDBRANCH  27  28
ENDBRANCH  26  27
ENDBRANCH  25  26
ENDBRANCH  24  25
ENDBRANCH  23  24
ENDBRANCH  22  23
ENDBRANCH  21  22
ENDBRANCH  20  21
ENDBRANCH  19  20
ENDBRANCH  18  19
ENDBRANCH  17  18
ENDBRANCH   1  17
TORSDOF 26
ENDMDL
MODEL 9
REMARK VINA RESULT:    -2.734     15.974     19.780
REMARK INTER + INTRA:         -10.500
REMARK INTER:                  -8.230
REMARK INTRA:                  -2.270
REMARK UNBOUND:                -3.612
REMARK SMILES CCCCCCCCCCCCCCCCCCCCCCCCCCCC(=O)[O-]
REMARK SMILES IDX 15 1 16 2 17 3 18 4 19 5 20 6 21 7 22 8 23 9 24 10 25 11
REMARK SMILES IDX 26 12 27 13 28 14 29 15 30 16 14 17 13 18 12 19 11 20 10 21
REMARK SMILES IDX 9 22 8 23 7 24 6 25 5 26 4 27 3 28 2 29 1 30
REMARK H PARENT
REMARK Flexibility Score: inf
ROOT
ATOM      1  C   UNL     1      -9.492   5.320   7.826  1.00  0.00     0.000 C 
ENDROOT
BRANCH   1   2
ATOM      2  C   UNL     1     -10.124   6.556   8.498  1.00  0.00     0.000 C 
BRANCH   2   3
ATOM      3  C   UNL     1     -11.224   7.258   7.674  1.00  0.00     0.000 C 
BRANCH   3   4
ATOM      4  C   UNL     1     -10.707   8.148   6.528  1.00  0.00     0.000 C 
BRANCH   4   5
ATOM      5  C   UNL     1      -9.986   7.393   5.394  1.00  0.00     0.000 C 
BRANCH   5   6
ATOM      6  C   UNL     1      -8.518   7.826   5.194  1.00  0.00     0.000 C 
BRANCH   6   7
ATOM      7  C   UNL     1      -8.045   8.827   6.260  1.00  0.00     0.000 C 
BRANCH   7   8
ATOM      8  C   UNL     1      -8.785  10.167   6.126  1.00  0.00     0.000 C 
BRANCH   8   9
ATOM      9  C   UNL     1      -8.164  11.276   6.989  1.00  0.00     0.000 C 
BRANCH   9  10
ATOM     10  C   UNL     1      -6.954  11.946   6.315  1.00  0.00     0.000 C 
BRANCH  10  11
ATOM     11  C   UNL     1      -5.618  11.528   6.966  1.00  0.00     0.000 C 
BRANCH  11  12
ATOM     12  C   UNL     1      -4.886  10.400   6.211  1.00  0.00     0.006 C 
BRANCH  12  13
ATOM     13  C   UNL     1      -3.355  10.526   6.216  1.00  0.00     0.053 C 
BRANCH  13  14
ATOM     14  C   UNL     1      -2.866  11.597   5.287  1.00  0.00     0.041 C 
ATOM     15  O   UNL     1      -3.615  12.045   4.379  1.00  0.00    -0.550 OA
ATOM     16  O   UNL     1      -1.589  12.124   5.443  1.00  0.00    -0.550 OA
ENDBRANCH  13  14
ENDBRANCH  12  13
ENDBRANCH  11  12
ENDBRANCH  10  11
ENDBRANCH   9  10
ENDBRANCH   8   9
ENDBRANCH   7   8
ENDBRANCH   6   7
ENDBRANCH   5   6
ENDBRANCH   4   5
ENDBRANCH   3   4
ENDBRANCH   2   3
ENDBRANCH   1   2
BRANCH   1  17
ATOM     17  C   UNL     1     -10.278   4.010   8.006  1.00  0.00     0.000 C 
BRANCH  17  18
ATOM     18  C   UNL     1     -11.022   3.584   6.730  1.00  0.00     0.000 C 
BRANCH  18  19
ATOM     19  C   UNL     1     -12.531   3.870   6.790  1.00  0.00     0.000 C 
BRANCH  19  20
ATOM     20  C   UNL     1     -12.949   5.161   6.054  1.00  0.00     0.000 C 
BRANCH  20  21
ATOM     21  C   UNL     1     -12.386   5.228   4.625  1.00  0.00     0.000 C 
BRANCH  21  22
ATOM     22  C   UNL     1     -13.507   5.463   3.602  1.00  0.00    -0.000 C 
BRANCH  22  23
ATOM     23  C   UNL     1     -14.383   6.684   3.939  1.00  0.00    -0.000 C 
BRANCH  23  24
ATOM     24  C   UNL     1     -13.654   8.043   3.886  1.00  0.00    -0.000 C 
BRANCH  24  25
ATOM     25  C   UNL     1     -14.099   9.064   4.953  1.00  0.00    -0.000 C 
BRANCH  25  26
ATOM     26  C   UNL     1     -13.552  10.493   4.757  1.00  0.00    -0.000 C 
BRANCH  26  27
ATOM     27  C   UNL     1     -14.334  11.592   5.497  1.00  0.00    -0.000 C 
BRANCH  27  28
ATOM     28  C   UNL     1     -14.280  11.433   7.026  1.00  0.00    -0.000 C 
BRANCH  28  29
ATOM     29  C   UNL     1     -12.924  10.901   7.514  1.00  0.00    -0.003 C 
ATOM     30  C   UNL     1     -11.821  11.957   7.454  1.00  0.00     0.004 C 
ENDBRANCH  28  29
ENDBRANCH  27  28
ENDBRANCH  26  27
ENDBRANCH  25  26
ENDBRANCH  24  25
ENDBRANCH  23  24
ENDBRANCH  22  23
ENDBRANCH  21  22
ENDBRANCH  20  21
ENDBRANCH  19  20
ENDBRANCH  18  19
ENDBRANCH  17  18
ENDBRANCH   1  17
TORSDOF 26
ENDMDL
