MODEL 1
REMARK VINA RESULT:    -4.233      0.000      0.000
REMARK INTER + INTRA:         -13.566
REMARK INTER:                  -9.677
REMARK INTRA:                  -3.889
REMARK UNBOUND:                -3.889
REMARK SMILES CCCCCCCCCCCCCCCCCCCCCCCC(=O)[O-]
REMARK SMILES IDX 13 1 14 2 15 3 16 4 17 5 18 6 19 7 20 8 21 9 22 10 23 11
REMARK SMILES IDX 24 12 25 13 26 14 12 15 11 16 10 17 9 18 8 19 7 20 6 21 5 22
REMARK SMILES IDX 4 23 3 24 2 25 1 26
REMARK H PARENT
REMARK Flexibility Score: inf
ROOT
ATOM      1  C   UNL     1      48.991  -8.182 -55.083  1.00  0.00     0.000 C 
ENDROOT
BRANCH   1   2
ATOM      2  C   UNL     1      47.526  -8.249 -55.541  1.00  0.00     0.000 C 
BRANCH   2   3
ATOM      3  C   UNL     1      47.350  -7.896 -57.025  1.00  0.00     0.000 C 
BRANCH   3   4
ATOM      4  C   UNL     1      48.686  -7.990 -57.772  1.00  0.00     0.000 C 
BRANCH   4   5
ATOM      5  C   UNL     1      48.512  -8.698 -59.124  1.00  0.00     0.000 C 
BRANCH   5   6
ATOM      6  C   UNL     1      47.395  -9.754 -59.107  1.00  0.00     0.000 C 
BRANCH   6   7
ATOM      7  C   UNL     1      47.896 -11.143 -58.675  1.00  0.00     0.000 C 
BRANCH   7   8
ATOM      8  C   UNL     1      47.261 -11.624 -57.356  1.00  0.00     0.000 C 
BRANCH   8   9
ATOM      9  C   UNL     1      48.259 -11.912 -56.220  1.00  0.00     0.000 C 
BRANCH   9  10
ATOM     10  C   UNL     1      48.733 -13.376 -56.195  1.00  0.00     0.006 C 
BRANCH  10  11
ATOM     11  C   UNL     1      47.726 -14.301 -55.501  1.00  0.00     0.053 C 
BRANCH  11  12
ATOM     12  C   UNL     1      47.235 -15.381 -56.416  1.00  0.00     0.041 C 
ATOM     13  O   UNL     1      47.622 -16.569 -56.259  1.00  0.00    -0.550 OA
ATOM     14  O   UNL     1      46.362 -15.072 -57.453  1.00  0.00    -0.550 OA
ENDBRANCH  11  12
ENDBRANCH  10  11
ENDBRANCH   9  10
ENDBRANCH   8   9
ENDBRANCH   7   8
ENDBRANCH   6   7
ENDBRANCH   5   6
ENDBRANCH   4   5
ENDBRANCH   3   4
ENDBRANCH   2   3
ENDBRANCH   1   2
BRANCH   1  15
ATOM     15  C   UNL     1      49.210  -7.148 -53.964  1.00  0.00     0.000 C 
BRANCH  15  16
ATOM     16  C   UNL     1      50.026  -5.930 -54.424  1.00  0.00     0.000 C 
BRANCH  16  17
ATOM     17  C   UNL     1      51.418  -6.252 -55.004  1.00  0.00     0.000 C 
BRANCH  17  18
ATOM     18  C   UNL     1      51.592  -5.844 -56.483  1.00  0.00    -0.000 C 
BRANCH  18  19
ATOM     19  C   UNL     1      50.815  -4.564 -56.831  1.00  0.00    -0.000 C 
BRANCH  19  20
ATOM     20  C   UNL     1      49.963  -4.760 -58.093  1.00  0.00    -0.000 C 
BRANCH  20  21
ATOM     21  C   UNL     1      48.510  -4.296 -57.904  1.00  0.00    -0.000 C 
BRANCH  21  22
ATOM     22  C   UNL     1      48.365  -3.234 -56.800  1.00  0.00    -0.000 C 
BRANCH  22  23
ATOM     23  C   UNL     1      47.006  -3.330 -56.082  1.00  0.00    -0.000 C 
BRANCH  23  24
ATOM     24  C   UNL     1      46.819  -4.658 -55.311  1.00  0.00    -0.000 C 
BRANCH  24  25
ATOM     25  C   UNL     1      46.108  -4.485 -53.959  1.00  0.00    -0.003 C 
ATOM     26  C   UNL     1      45.797  -5.815 -53.276  1.00  0.00     0.004 C 
ENDBRANCH  24  25
ENDBRANCH  23  24
ENDBRANCH  22  23
ENDBRANCH  21  22
ENDBRANCH  20  21
ENDBRANCH  19  20
ENDBRANCH  18  19
ENDBRANCH  17  18
ENDBRANCH  16  17
ENDBRANCH  15  16
ENDBRANCH   1  15
TORSDOF 22
ENDMDL
MODEL 2
REMARK VINA RESULT:    -4.087      2.945      7.628
REMARK INTER + INTRA:         -13.233
REMARK INTER:                  -9.577
REMARK INTRA:                  -3.656
REMARK UNBOUND:                -3.889
REMARK SMILES CCCCCCCCCCCCCCCCCCCCCCCC(=O)[O-]
REMARK SMILES IDX 13 1 14 2 15 3 16 4 17 5 18 6 19 7 20 8 21 9 22 10 23 11
REMARK SMILES IDX 24 12 25 13 26 14 12 15 11 16 10 17 9 18 8 19 7 20 6 21 5 22
REMARK SMILES IDX 4 23 3 24 2 25 1 26
REMARK H PARENT
REMARK Flexibility Score: inf
ROOT
ATOM      1  C   UNL     1      49.916  -7.559 -54.280  1.00  0.00     0.000 C 
ENDROOT
BRANCH   1   2
ATOM      2  C   UNL     1      50.506  -6.178 -54.602  1.00  0.00     0.000 C 
BRANCH   2   3
ATOM      3  C   UNL     1      51.777  -6.261 -55.459  1.00  0.00     0.000 C 
BRANCH   3   4
ATOM      4  C   UNL     1      51.631  -5.428 -56.738  1.00  0.00     0.000 C 
BRANCH   4   5
ATOM      5  C   UNL     1      51.177  -6.303 -57.917  1.00  0.00     0.000 C 
BRANCH   5   6
ATOM      6  C   UNL     1      49.648  -6.343 -58.078  1.00  0.00     0.000 C 
BRANCH   6   7
ATOM      7  C   UNL     1      49.009  -4.944 -58.035  1.00  0.00     0.000 C 
BRANCH   7   8
ATOM      8  C   UNL     1      47.867  -4.840 -57.007  1.00  0.00     0.000 C 
BRANCH   8   9
ATOM      9  C   UNL     1      48.125  -3.867 -55.841  1.00  0.00     0.000 C 
BRANCH   9  10
ATOM     10  C   UNL     1      47.127  -4.042 -54.683  1.00  0.00     0.006 C 
BRANCH  10  11
ATOM     11  C   UNL     1      45.936  -4.929 -55.072  1.00  0.00     0.053 C 
BRANCH  11  12
ATOM     12  C   UNL     1      45.441  -5.739 -53.913  1.00  0.00     0.041 C 
ATOM     13  O   UNL     1      46.060  -5.722 -52.817  1.00  0.00    -0.550 OA
ATOM     14  O   UNL     1      44.304  -6.528 -54.050  1.00  0.00    -0.550 OA
ENDBRANCH  11  12
ENDBRANCH  10  11
ENDBRANCH   9  10
ENDBRANCH   8   9
ENDBRANCH   7   8
ENDBRANCH   6   7
ENDBRANCH   5   6
ENDBRANCH   4   5
ENDBRANCH   3   4
ENDBRANCH   2   3
ENDBRANCH   1   2
BRANCH   1  15
ATOM     15  C   UNL     1      48.407  -7.637 -54.576  1.00  0.00     0.000 C 
BRANCH  15  16
ATOM     16  C   UNL     1      48.068  -8.620 -55.709  1.00  0.00     0.000 C 
BRANCH  16  17
ATOM     17  C   UNL     1      46.767  -8.314 -56.478  1.00  0.00     0.000 C 
BRANCH  17  18
ATOM     18  C   UNL     1      46.758  -8.836 -57.930  1.00  0.00    -0.000 C 
BRANCH  18  19
ATOM     19  C   UNL     1      47.994  -9.690 -58.251  1.00  0.00    -0.000 C 
BRANCH  19  20
ATOM     20  C   UNL     1      47.603 -11.149 -58.528  1.00  0.00    -0.000 C 
BRANCH  20  21
ATOM     21  C   UNL     1      47.164 -11.896 -57.259  1.00  0.00    -0.000 C 
BRANCH  21  22
ATOM     22  C   UNL     1      48.329 -12.147 -56.285  1.00  0.00    -0.000 C 
BRANCH  22  23
ATOM     23  C   UNL     1      48.626 -13.648 -56.115  1.00  0.00    -0.000 C 
BRANCH  23  24
ATOM     24  C   UNL     1      47.472 -14.424 -55.439  1.00  0.00    -0.000 C 
BRANCH  24  25
ATOM     25  C   UNL     1      46.889 -15.542 -56.319  1.00  0.00    -0.003 C 
ATOM     26  C   UNL     1      47.841 -16.724 -56.488  1.00  0.00     0.004 C 
ENDBRANCH  24  25
ENDBRANCH  23  24
ENDBRANCH  22  23
ENDBRANCH  21  22
ENDBRANCH  20  21
ENDBRANCH  19  20
ENDBRANCH  18  19
ENDBRANCH  17  18
ENDBRANCH  16  17
ENDBRANCH  15  16
ENDBRANCH   1  15
TORSDOF 22
ENDMDL
MODEL 3
REMARK VINA RESULT:    -4.077      1.600      3.470
REMARK INTER + INTRA:         -13.210
REMARK INTER:                  -9.664
REMARK INTRA:                  -3.545
REMARK UNBOUND:                -3.889
REMARK SMILES CCCCCCCCCCCCCCCCCCCCCCCC(=O)[O-]
REMARK SMILES IDX 13 1 14 2 15 3 16 4 17 5 18 6 19 7 20 8 21 9 22 10 23 11
REMARK SMILES IDX 24 12 25 13 26 14 12 15 11 16 10 17 9 18 8 19 7 20 6 21 5 22
REMARK SMILES IDX 4 23 3 24 2 25 1 26
REMARK H PARENT
REMARK Flexibility Score: inf
ROOT
ATOM      1  C   UNL     1      48.534  -7.311 -53.866  1.00  0.00     0.000 C 
ENDROOT
BRANCH   1   2
ATOM      2  C   UNL     1      47.367  -7.760 -54.760  1.00  0.00     0.000 C 
BRANCH   2   3
ATOM      3  C   UNL     1      47.815  -8.691 -55.897  1.00  0.00     0.000 C 
BRANCH   3   4
ATOM      4  C   UNL     1      46.664  -8.954 -56.875  1.00  0.00     0.000 C 
BRANCH   4   5
ATOM      5  C   UNL     1      46.872 -10.276 -57.628  1.00  0.00     0.000 C 
BRANCH   5   6
ATOM      6  C   UNL     1      47.851 -11.223 -56.914  1.00  0.00     0.000 C 
BRANCH   6   7
ATOM      7  C   UNL     1      47.367 -12.683 -56.907  1.00  0.00     0.000 C 
BRANCH   7   8
ATOM      8  C   UNL     1      48.273 -13.610 -56.074  1.00  0.00     0.000 C 
BRANCH   8   9
ATOM      9  C   UNL     1      47.596 -14.892 -55.556  1.00  0.00     0.000 C 
BRANCH   9  10
ATOM     10  C   UNL     1      48.239 -16.175 -56.110  1.00  0.00     0.006 C 
BRANCH  10  11
ATOM     11  C   UNL     1      47.572 -16.646 -57.409  1.00  0.00     0.053 C 
BRANCH  11  12
ATOM     12  C   UNL     1      46.201 -17.200 -57.164  1.00  0.00     0.041 C 
ATOM     13  O   UNL     1      45.251 -16.901 -57.934  1.00  0.00    -0.550 OA
ATOM     14  O   UNL     1      45.971 -18.033 -56.076  1.00  0.00    -0.550 OA
ENDBRANCH  11  12
ENDBRANCH  10  11
ENDBRANCH   9  10
ENDBRANCH   8   9
ENDBRANCH   7   8
ENDBRANCH   6   7
ENDBRANCH   5   6
ENDBRANCH   4   5
ENDBRANCH   3   4
ENDBRANCH   2   3
ENDBRANCH   1   2
BRANCH   1  15
ATOM     15  C   UNL     1      49.905  -7.691 -54.454  1.00  0.00     0.000 C 
BRANCH  15  16
ATOM     16  C   UNL     1      50.721  -6.470 -54.910  1.00  0.00     0.000 C 
BRANCH  16  17
ATOM     17  C   UNL     1      49.992  -5.116 -54.805  1.00  0.00     0.000 C 
BRANCH  17  18
ATOM     18  C   UNL     1      50.436  -4.079 -55.860  1.00  0.00    -0.000 C 
BRANCH  18  19
ATOM     19  C   UNL     1      49.308  -3.727 -56.842  1.00  0.00    -0.000 C 
BRANCH  19  20
ATOM     20  C   UNL     1      48.069  -4.602 -56.601  1.00  0.00    -0.000 C 
BRANCH  20  21
ATOM     21  C   UNL     1      47.681  -5.432 -57.834  1.00  0.00    -0.000 C 
BRANCH  21  22
ATOM     22  C   UNL     1      48.847  -5.610 -58.821  1.00  0.00    -0.000 C 
BRANCH  22  23
ATOM     23  C   UNL     1      49.422  -7.038 -58.785  1.00  0.00    -0.000 C 
BRANCH  23  24
ATOM     24  C   UNL     1      50.954  -7.071 -58.579  1.00  0.00    -0.000 C 
BRANCH  24  25
ATOM     25  C   UNL     1      51.643  -5.734 -58.905  1.00  0.00    -0.003 C 
ATOM     26  C   UNL     1      52.967  -5.552 -58.164  1.00  0.00     0.004 C 
ENDBRANCH  24  25
ENDBRANCH  23  24
ENDBRANCH  22  23
ENDBRANCH  21  22
ENDBRANCH  20  21
ENDBRANCH  19  20
ENDBRANCH  18  19
ENDBRANCH  17  18
ENDBRANCH  16  17
ENDBRANCH  15  16
ENDBRANCH   1  15
TORSDOF 22
ENDMDL
MODEL 4
REMARK VINA RESULT:    -4.073      1.191      2.391
REMARK INTER + INTRA:         -13.199
REMARK INTER:                  -9.419
REMARK INTRA:                  -3.781
REMARK UNBOUND:                -3.889
REMARK SMILES CCCCCCCCCCCCCCCCCCCCCCCC(=O)[O-]
REMARK SMILES IDX 13 1 14 2 15 3 16 4 17 5 18 6 19 7 20 8 21 9 22 10 23 11
REMARK SMILES IDX 24 12 25 13 26 14 12 15 11 16 10 17 9 18 8 19 7 20 6 21 5 22
REMARK SMILES IDX 4 23 3 24 2 25 1 26
REMARK H PARENT
REMARK Flexibility Score: inf
ROOT
ATOM      1  C   UNL     1      50.192  -7.376 -54.754  1.00  0.00     0.000 C 
ENDROOT
BRANCH   1   2
ATOM      2  C   UNL     1      49.110  -7.037 -53.717  1.00  0.00     0.000 C 
BRANCH   2   3
ATOM      3  C   UNL     1      47.688  -7.291 -54.238  1.00  0.00     0.000 C 
BRANCH   3   4
ATOM      4  C   UNL     1      47.711  -8.211 -55.464  1.00  0.00     0.000 C 
BRANCH   4   5
ATOM      5  C   UNL     1      46.552  -7.884 -56.419  1.00  0.00     0.000 C 
BRANCH   5   6
ATOM      6  C   UNL     1      46.578  -8.733 -57.702  1.00  0.00     0.000 C 
BRANCH   6   7
ATOM      7  C   UNL     1      47.869  -9.556 -57.844  1.00  0.00     0.000 C 
BRANCH   7   8
ATOM      8  C   UNL     1      47.613 -10.988 -58.352  1.00  0.00     0.000 C 
BRANCH   8   9
ATOM      9  C   UNL     1      47.280 -12.019 -57.258  1.00  0.00     0.000 C 
BRANCH   9  10
ATOM     10  C   UNL     1      48.371 -12.117 -56.177  1.00  0.00     0.006 C 
BRANCH  10  11
ATOM     11  C   UNL     1      49.032 -13.501 -56.144  1.00  0.00     0.053 C 
BRANCH  11  12
ATOM     12  C   UNL     1      48.054 -14.581 -55.794  1.00  0.00     0.041 C 
ATOM     13  O   UNL     1      48.013 -15.642 -56.471  1.00  0.00    -0.550 OA
ATOM     14  O   UNL     1      47.177 -14.408 -54.730  1.00  0.00    -0.550 OA
ENDBRANCH  11  12
ENDBRANCH  10  11
ENDBRANCH   9  10
ENDBRANCH   8   9
ENDBRANCH   7   8
ENDBRANCH   6   7
ENDBRANCH   5   6
ENDBRANCH   4   5
ENDBRANCH   3   4
ENDBRANCH   2   3
ENDBRANCH   1   2
BRANCH   1  15
ATOM     15  C   UNL     1      51.227  -6.247 -54.914  1.00  0.00     0.000 C 
BRANCH  15  16
ATOM     16  C   UNL     1      51.309  -5.709 -56.351  1.00  0.00     0.000 C 
BRANCH  16  17
ATOM     17  C   UNL     1      50.281  -6.301 -57.335  1.00  0.00     0.000 C 
BRANCH  17  18
ATOM     18  C   UNL     1      49.055  -5.395 -57.584  1.00  0.00    -0.000 C 
BRANCH  18  19
ATOM     19  C   UNL     1      49.261  -3.973 -57.041  1.00  0.00    -0.000 C 
BRANCH  19  20
ATOM     20  C   UNL     1      47.952  -3.399 -56.479  1.00  0.00    -0.000 C 
BRANCH  20  21
ATOM     21  C   UNL     1      47.782  -3.672 -54.977  1.00  0.00    -0.000 C 
BRANCH  21  22
ATOM     22  C   UNL     1      46.305  -3.777 -54.556  1.00  0.00    -0.000 C 
BRANCH  22  23
ATOM     23  C   UNL     1      46.153  -4.104 -53.060  1.00  0.00    -0.000 C 
BRANCH  23  24
ATOM     24  C   UNL     1      44.981  -5.069 -52.765  1.00  0.00    -0.000 C 
BRANCH  24  25
ATOM     25  C   UNL     1      44.467  -5.805 -54.014  1.00  0.00    -0.003 C 
ATOM     26  C   UNL     1      43.999  -7.228 -53.715  1.00  0.00     0.004 C 
ENDBRANCH  24  25
ENDBRANCH  23  24
ENDBRANCH  22  23
ENDBRANCH  21  22
ENDBRANCH  20  21
ENDBRANCH  19  20
ENDBRANCH  18  19
ENDBRANCH  17  18
ENDBRANCH  16  17
ENDBRANCH  15  16
ENDBRANCH   1  15
TORSDOF 22
ENDMDL
MODEL 5
REMARK VINA RESULT:    -4.050      2.849      8.018
REMARK INTER + INTRA:         -13.147
REMARK INTER:                  -9.800
REMARK INTRA:                  -3.348
REMARK UNBOUND:                -3.889
REMARK SMILES CCCCCCCCCCCCCCCCCCCCCCCC(=O)[O-]
REMARK SMILES IDX 13 1 14 2 15 3 16 4 17 5 18 6 19 7 20 8 21 9 22 10 23 11
REMARK SMILES IDX 24 12 25 13 26 14 12 15 11 16 10 17 9 18 8 19 7 20 6 21 5 22
REMARK SMILES IDX 4 23 3 24 2 25 1 26
REMARK H PARENT
REMARK Flexibility Score: inf
ROOT
ATOM      1  C   UNL     1      47.465  -8.062 -55.417  1.00  0.00     0.000 C 
ENDROOT
BRANCH   1   2
ATOM      2  C   UNL     1      48.926  -8.356 -55.042  1.00  0.00     0.000 C 
BRANCH   2   3
ATOM      3  C   UNL     1      49.495  -7.348 -54.033  1.00  0.00     0.000 C 
BRANCH   3   4
ATOM      4  C   UNL     1      50.711  -6.618 -54.613  1.00  0.00     0.000 C 
BRANCH   4   5
ATOM      5  C   UNL     1      50.477  -5.100 -54.650  1.00  0.00     0.000 C 
BRANCH   5   6
ATOM      6  C   UNL     1      49.905  -4.615 -55.992  1.00  0.00     0.000 C 
BRANCH   6   7
ATOM      7  C   UNL     1      48.486  -4.036 -55.858  1.00  0.00     0.000 C 
BRANCH   7   8
ATOM      8  C   UNL     1      48.171  -3.547 -54.432  1.00  0.00     0.000 C 
BRANCH   8   9
ATOM      9  C   UNL     1      46.889  -4.130 -53.810  1.00  0.00     0.000 C 
BRANCH   9  10
ATOM     10  C   UNL     1      46.028  -4.902 -54.826  1.00  0.00     0.006 C 
BRANCH  10  11
ATOM     11  C   UNL     1      44.599  -5.132 -54.319  1.00  0.00     0.053 C 
BRANCH  11  12
ATOM     12  C   UNL     1      44.525  -6.274 -53.352  1.00  0.00     0.041 C 
ATOM     13  O   UNL     1      44.230  -7.429 -53.758  1.00  0.00    -0.550 OA
ATOM     14  O   UNL     1      44.765  -6.059 -52.000  1.00  0.00    -0.550 OA
ENDBRANCH  11  12
ENDBRANCH  10  11
ENDBRANCH   9  10
ENDBRANCH   8   9
ENDBRANCH   7   8
ENDBRANCH   6   7
ENDBRANCH   5   6
ENDBRANCH   4   5
ENDBRANCH   3   4
ENDBRANCH   2   3
ENDBRANCH   1   2
BRANCH   1  15
ATOM     15  C   UNL     1      47.323  -7.526 -56.853  1.00  0.00     0.000 C 
BRANCH  15  16
ATOM     16  C   UNL     1      48.591  -7.732 -57.698  1.00  0.00     0.000 C 
BRANCH  16  17
ATOM     17  C   UNL     1      48.379  -8.473 -59.033  1.00  0.00     0.000 C 
BRANCH  17  18
ATOM     18  C   UNL     1      47.319  -9.594 -58.967  1.00  0.00    -0.000 C 
BRANCH  18  19
ATOM     19  C   UNL     1      47.928 -10.951 -58.582  1.00  0.00    -0.000 C 
BRANCH  19  20
ATOM     20  C   UNL     1      47.322 -11.478 -57.273  1.00  0.00    -0.000 C 
BRANCH  20  21
ATOM     21  C   UNL     1      48.373 -11.670 -56.169  1.00  0.00    -0.000 C 
BRANCH  21  22
ATOM     22  C   UNL     1      48.960 -13.093 -56.149  1.00  0.00    -0.000 C 
BRANCH  22  23
ATOM     23  C   UNL     1      47.898 -14.151 -55.799  1.00  0.00    -0.000 C 
BRANCH  23  24
ATOM     24  C   UNL     1      48.353 -15.595 -56.115  1.00  0.00    -0.000 C 
BRANCH  24  25
ATOM     25  C   UNL     1      47.209 -16.505 -56.593  1.00  0.00    -0.003 C 
ATOM     26  C   UNL     1      46.104 -15.739 -57.318  1.00  0.00     0.004 C 
ENDBRANCH  24  25
ENDBRANCH  23  24
ENDBRANCH  22  23
ENDBRANCH  21  22
ENDBRANCH  20  21
ENDBRANCH  19  20
ENDBRANCH  18  19
ENDBRANCH  17  18
ENDBRANCH  16  17
ENDBRANCH  15  16
ENDBRANCH   1  15
TORSDOF 22
ENDMDL
MODEL 6
REMARK VINA RESULT:    -4.040      3.522      7.119
REMARK INTER + INTRA:         -13.126
REMARK INTER:                  -9.277
REMARK INTRA:                  -3.849
REMARK UNBOUND:                -3.889
REMARK SMILES CCCCCCCCCCCCCCCCCCCCCCCC(=O)[O-]
REMARK SMILES IDX 13 1 14 2 15 3 16 4 17 5 18 6 19 7 20 8 21 9 22 10 23 11
REMARK SMILES IDX 24 12 25 13 26 14 12 15 11 16 10 17 9 18 8 19 7 20 6 21 5 22
REMARK SMILES IDX 4 23 3 24 2 25 1 26
REMARK H PARENT
REMARK Flexibility Score: inf
ROOT
ATOM      1  C   UNL     1      52.086  -6.108 -56.483  1.00  0.00     0.000 C 
ENDROOT
BRANCH   1   2
ATOM      2  C   UNL     1      51.498  -4.875 -57.186  1.00  0.00     0.000 C 
BRANCH   2   3
ATOM      3  C   UNL     1      50.720  -5.234 -58.461  1.00  0.00     0.000 C 
BRANCH   3   4
ATOM      4  C   UNL     1      49.320  -4.610 -58.442  1.00  0.00     0.000 C 
BRANCH   4   5
ATOM      5  C   UNL     1      49.267  -3.404 -57.492  1.00  0.00     0.000 C 
BRANCH   5   6
ATOM      6  C   UNL     1      48.210  -3.560 -56.386  1.00  0.00     0.000 C 
BRANCH   6   7
ATOM      7  C   UNL     1      46.913  -4.214 -56.892  1.00  0.00     0.000 C 
BRANCH   7   8
ATOM      8  C   UNL     1      46.066  -4.819 -55.756  1.00  0.00     0.000 C 
BRANCH   8   9
ATOM      9  C   UNL     1      46.771  -4.904 -54.390  1.00  0.00     0.000 C 
BRANCH   9  10
ATOM     10  C   UNL     1      46.315  -6.113 -53.555  1.00  0.00     0.006 C 
BRANCH  10  11
ATOM     11  C   UNL     1      45.013  -5.834 -52.792  1.00  0.00     0.053 C 
BRANCH  11  12
ATOM     12  C   UNL     1      45.258  -5.065 -51.530  1.00  0.00     0.041 C 
ATOM     13  O   UNL     1      45.606  -5.665 -50.480  1.00  0.00    -0.550 OA
ATOM     14  O   UNL     1      45.086  -3.685 -51.511  1.00  0.00    -0.550 OA
ENDBRANCH  11  12
ENDBRANCH  10  11
ENDBRANCH   9  10
ENDBRANCH   8   9
ENDBRANCH   7   8
ENDBRANCH   6   7
ENDBRANCH   5   6
ENDBRANCH   4   5
ENDBRANCH   3   4
ENDBRANCH   2   3
ENDBRANCH   1   2
BRANCH   1  15
ATOM     15  C   UNL     1      51.721  -6.162 -54.989  1.00  0.00     0.000 C 
BRANCH  15  16
ATOM     16  C   UNL     1      50.211  -6.320 -54.746  1.00  0.00     0.000 C 
BRANCH  16  17
ATOM     17  C   UNL     1      49.752  -7.743 -54.368  1.00  0.00     0.000 C 
BRANCH  17  18
ATOM     18  C   UNL     1      48.694  -8.336 -55.323  1.00  0.00    -0.000 C 
BRANCH  18  19
ATOM     19  C   UNL     1      48.526  -7.499 -56.600  1.00  0.00    -0.000 C 
BRANCH  19  20
ATOM     20  C   UNL     1      47.569  -8.181 -57.589  1.00  0.00    -0.000 C 
BRANCH  20  21
ATOM     21  C   UNL     1      48.285  -8.697 -58.846  1.00  0.00    -0.000 C 
BRANCH  21  22
ATOM     22  C   UNL     1      48.006 -10.185 -59.119  1.00  0.00    -0.000 C 
BRANCH  22  23
ATOM     23  C   UNL     1      46.915 -10.749 -58.192  1.00  0.00    -0.000 C 
BRANCH  23  24
ATOM     24  C   UNL     1      47.298 -12.106 -57.557  1.00  0.00    -0.000 C 
BRANCH  24  25
ATOM     25  C   UNL     1      48.229 -11.969 -56.340  1.00  0.00    -0.003 C 
ATOM     26  C   UNL     1      48.979 -13.261 -56.018  1.00  0.00     0.004 C 
ENDBRANCH  24  25
ENDBRANCH  23  24
ENDBRANCH  22  23
ENDBRANCH  21  22
ENDBRANCH  20  21
ENDBRANCH  19  20
ENDBRANCH  18  19
ENDBRANCH  17  18
ENDBRANCH  16  17
ENDBRANCH  15  16
ENDBRANCH   1  15
TORSDOF 22
ENDMDL
MODEL 7
REMARK VINA RESULT:    -4.025      1.203      2.018
REMARK INTER + INTRA:         -13.091
REMARK INTER:                 -10.163
REMARK INTRA:                  -2.929
REMARK UNBOUND:                -3.889
REMARK SMILES CCCCCCCCCCCCCCCCCCCCCCCC(=O)[O-]
REMARK SMILES IDX 13 1 14 2 15 3 16 4 17 5 18 6 19 7 20 8 21 9 22 10 23 11
REMARK SMILES IDX 24 12 25 13 26 14 12 15 11 16 10 17 9 18 8 19 7 20 6 21 5 22
REMARK SMILES IDX 4 23 3 24 2 25 1 26
REMARK H PARENT
REMARK Flexibility Score: inf
ROOT
ATOM      1  C   UNL     1      47.611  -8.101 -55.223  1.00  0.00     0.000 C 
ENDROOT
BRANCH   1   2
ATOM      2  C   UNL     1      47.455  -7.262 -56.500  1.00  0.00     0.000 C 
BRANCH   2   3
ATOM      3  C   UNL     1      48.306  -7.789 -57.665  1.00  0.00     0.000 C 
BRANCH   3   4
ATOM      4  C   UNL     1      47.445  -8.021 -58.912  1.00  0.00     0.000 C 
BRANCH   4   5
ATOM      5  C   UNL     1      46.951  -9.474 -58.978  1.00  0.00     0.000 C 
BRANCH   5   6
ATOM      6  C   UNL     1      47.952 -10.474 -58.377  1.00  0.00     0.000 C 
BRANCH   6   7
ATOM      7  C   UNL     1      47.321 -11.370 -57.298  1.00  0.00     0.000 C 
BRANCH   7   8
ATOM      8  C   UNL     1      48.315 -11.757 -56.186  1.00  0.00     0.000 C 
BRANCH   8   9
ATOM      9  C   UNL     1      48.780 -13.225 -56.208  1.00  0.00     0.000 C 
BRANCH   9  10
ATOM     10  C   UNL     1      47.764 -14.185 -55.565  1.00  0.00     0.006 C 
BRANCH  10  11
ATOM     11  C   UNL     1      48.003 -15.644 -55.976  1.00  0.00     0.053 C 
BRANCH  11  12
ATOM     12  C   UNL     1      46.883 -16.179 -56.814  1.00  0.00     0.041 C 
ATOM     13  O   UNL     1      45.693 -16.093 -56.411  1.00  0.00    -0.550 OA
ATOM     14  O   UNL     1      47.155 -16.789 -58.033  1.00  0.00    -0.550 OA
ENDBRANCH  11  12
ENDBRANCH  10  11
ENDBRANCH   9  10
ENDBRANCH   8   9
ENDBRANCH   7   8
ENDBRANCH   6   7
ENDBRANCH   5   6
ENDBRANCH   4   5
ENDBRANCH   3   4
ENDBRANCH   2   3
ENDBRANCH   1   2
BRANCH   1  15
ATOM     15  C   UNL     1      48.447  -7.383 -54.147  1.00  0.00     0.000 C 
BRANCH  15  16
ATOM     16  C   UNL     1      49.945  -7.719 -54.229  1.00  0.00     0.000 C 
BRANCH  16  17
ATOM     17  C   UNL     1      50.832  -6.618 -54.845  1.00  0.00     0.000 C 
BRANCH  17  18
ATOM     18  C   UNL     1      50.297  -5.186 -54.630  1.00  0.00    -0.000 C 
BRANCH  18  19
ATOM     19  C   UNL     1      49.890  -4.511 -55.949  1.00  0.00    -0.000 C 
BRANCH  19  20
ATOM     20  C   UNL     1      48.615  -3.675 -55.773  1.00  0.00    -0.000 C 
BRANCH  20  21
ATOM     21  C   UNL     1      48.135  -3.625 -54.315  1.00  0.00    -0.000 C 
BRANCH  21  22
ATOM     22  C   UNL     1      46.603  -3.551 -54.195  1.00  0.00    -0.000 C 
BRANCH  22  23
ATOM     23  C   UNL     1      46.152  -3.166 -52.775  1.00  0.00    -0.000 C 
BRANCH  23  24
ATOM     24  C   UNL     1      45.263  -4.241 -52.107  1.00  0.00    -0.000 C 
BRANCH  24  25
ATOM     25  C   UNL     1      45.609  -5.675 -52.541  1.00  0.00    -0.003 C 
ATOM     26  C   UNL     1      44.459  -6.369 -53.270  1.00  0.00     0.004 C 
ENDBRANCH  24  25
ENDBRANCH  23  24
ENDBRANCH  22  23
ENDBRANCH  21  22
ENDBRANCH  20  21
ENDBRANCH  19  20
ENDBRANCH  18  19
ENDBRANCH  17  18
ENDBRANCH  16  17
ENDBRANCH  15  16
ENDBRANCH   1  15
TORSDOF 22
ENDMDL
MODEL 8
REMARK VINA RESULT:    -3.967      1.146      2.011
REMARK INTER + INTRA:         -12.958
REMARK INTER:                  -9.354
REMARK INTRA:                  -3.603
REMARK UNBOUND:                -3.889
REMARK SMILES CCCCCCCCCCCCCCCCCCCCCCCC(=O)[O-]
REMARK SMILES IDX 13 1 14 2 15 3 16 4 17 5 18 6 19 7 20 8 21 9 22 10 23 11
REMARK SMILES IDX 24 12 25 13 26 14 12 15 11 16 10 17 9 18 8 19 7 20 6 21 5 22
REMARK SMILES IDX 4 23 3 24 2 25 1 26
REMARK H PARENT
REMARK Flexibility Score: inf
ROOT
ATOM      1  C   UNL     1      47.832  -8.534 -55.603  1.00  0.00     0.000 C 
ENDROOT
BRANCH   1   2
ATOM      2  C   UNL     1      48.027  -8.473 -57.126  1.00  0.00     0.000 C 
BRANCH   2   3
ATOM      3  C   UNL     1      46.698  -8.409 -57.893  1.00  0.00     0.000 C 
BRANCH   3   4
ATOM      4  C   UNL     1      45.757  -9.535 -57.451  1.00  0.00     0.000 C 
BRANCH   4   5
ATOM      5  C   UNL     1      45.524 -10.538 -58.592  1.00  0.00     0.000 C 
BRANCH   5   6
ATOM      6  C   UNL     1      46.599 -11.635 -58.652  1.00  0.00     0.000 C 
BRANCH   6   7
ATOM      7  C   UNL     1      46.823 -12.323 -57.294  1.00  0.00     0.000 C 
BRANCH   7   8
ATOM      8  C   UNL     1      48.264 -12.164 -56.773  1.00  0.00     0.000 C 
BRANCH   8   9
ATOM      9  C   UNL     1      48.707 -13.221 -55.746  1.00  0.00     0.000 C 
BRANCH   9  10
ATOM     10  C   UNL     1      47.696 -14.371 -55.595  1.00  0.00     0.006 C 
BRANCH  10  11
ATOM     11  C   UNL     1      48.201 -15.675 -56.226  1.00  0.00     0.053 C 
BRANCH  11  12
ATOM     12  C   UNL     1      47.090 -16.461 -56.852  1.00  0.00     0.041 C 
ATOM     13  O   UNL     1      47.348 -17.475 -57.552  1.00  0.00    -0.550 OA
ATOM     14  O   UNL     1      45.770 -16.064 -56.674  1.00  0.00    -0.550 OA
ENDBRANCH  11  12
ENDBRANCH  10  11
ENDBRANCH   9  10
ENDBRANCH   8   9
ENDBRANCH   7   8
ENDBRANCH   6   7
ENDBRANCH   5   6
ENDBRANCH   4   5
ENDBRANCH   3   4
ENDBRANCH   2   3
ENDBRANCH   1   2
BRANCH   1  15
ATOM     15  C   UNL     1      49.148  -8.321 -54.834  1.00  0.00     0.000 C 
BRANCH  15  16
ATOM     16  C   UNL     1      49.158  -7.023 -54.010  1.00  0.00     0.000 C 
BRANCH  16  17
ATOM     17  C   UNL     1      50.056  -5.899 -54.564  1.00  0.00     0.000 C 
BRANCH  17  18
ATOM     18  C   UNL     1      51.481  -6.360 -54.939  1.00  0.00    -0.000 C 
BRANCH  18  19
ATOM     19  C   UNL     1      51.923  -5.831 -56.312  1.00  0.00    -0.000 C 
BRANCH  19  20
ATOM     20  C   UNL     1      50.922  -6.226 -57.407  1.00  0.00    -0.000 C 
BRANCH  20  21
ATOM     21  C   UNL     1      50.273  -5.009 -58.083  1.00  0.00    -0.000 C 
BRANCH  21  22
ATOM     22  C   UNL     1      49.123  -5.398 -59.028  1.00  0.00    -0.000 C 
BRANCH  22  23
ATOM     23  C   UNL     1      47.756  -4.926 -58.500  1.00  0.00    -0.000 C 
BRANCH  23  24
ATOM     24  C   UNL     1      47.716  -4.782 -56.961  1.00  0.00    -0.000 C 
BRANCH  24  25
ATOM     25  C   UNL     1      46.331  -5.071 -56.356  1.00  0.00    -0.003 C 
ATOM     26  C   UNL     1      46.275  -4.814 -54.852  1.00  0.00     0.004 C 
ENDBRANCH  24  25
ENDBRANCH  23  24
ENDBRANCH  22  23
ENDBRANCH  21  22
ENDBRANCH  20  21
ENDBRANCH  19  20
ENDBRANCH  18  19
ENDBRANCH  17  18
ENDBRANCH  16  17
ENDBRANCH  15  16
ENDBRANCH   1  15
TORSDOF 22
ENDMDL
MODEL 9
REMARK VINA RESULT:    -3.878      2.979      6.859
REMARK INTER + INTRA:         -12.756
REMARK INTER:                  -8.609
REMARK INTRA:                  -4.147
REMARK UNBOUND:                -3.889
REMARK SMILES CCCCCCCCCCCCCCCCCCCCCCCC(=O)[O-]
REMARK SMILES IDX 13 1 14 2 15 3 16 4 17 5 18 6 19 7 20 8 21 9 22 10 23 11
REMARK SMILES IDX 24 12 25 13 26 14 12 15 11 16 10 17 9 18 8 19 7 20 6 21 5 22
REMARK SMILES IDX 4 23 3 24 2 25 1 26
REMARK H PARENT
REMARK Flexibility Score: inf
ROOT
ATOM      1  C   UNL     1      50.553  -6.620 -54.907  1.00  0.00     0.000 C 
ENDROOT
BRANCH   1   2
ATOM      2  C   UNL     1      49.543  -7.155 -53.879  1.00  0.00     0.000 C 
BRANCH   2   3
ATOM      3  C   UNL     1      48.295  -7.765 -54.534  1.00  0.00     0.000 C 
BRANCH   3   4
ATOM      4  C   UNL     1      47.048  -6.931 -54.217  1.00  0.00     0.000 C 
BRANCH   4   5
ATOM      5  C   UNL     1      46.475  -6.291 -55.490  1.00  0.00     0.000 C 
BRANCH   5   6
ATOM      6  C   UNL     1      46.331  -4.764 -55.379  1.00  0.00     0.000 C 
BRANCH   6   7
ATOM      7  C   UNL     1      47.210  -4.163 -54.269  1.00  0.00     0.000 C 
BRANCH   7   8
ATOM      8  C   UNL     1      46.415  -3.283 -53.286  1.00  0.00     0.000 C 
BRANCH   8   9
ATOM      9  C   UNL     1      45.745  -4.042 -52.126  1.00  0.00     0.000 C 
BRANCH   9  10
ATOM     10  C   UNL     1      44.232  -4.233 -52.330  1.00  0.00     0.006 C 
BRANCH  10  11
ATOM     11  C   UNL     1      43.771  -5.649 -51.960  1.00  0.00     0.053 C 
BRANCH  11  12
ATOM     12  C   UNL     1      43.538  -6.497 -53.173  1.00  0.00     0.041 C 
ATOM     13  O   UNL     1      43.759  -7.736 -53.132  1.00  0.00    -0.550 OA
ATOM     14  O   UNL     1      43.092  -5.915 -54.353  1.00  0.00    -0.550 OA
ENDBRANCH  11  12
ENDBRANCH  10  11
ENDBRANCH   9  10
ENDBRANCH   8   9
ENDBRANCH   7   8
ENDBRANCH   6   7
ENDBRANCH   5   6
ENDBRANCH   4   5
ENDBRANCH   3   4
ENDBRANCH   2   3
ENDBRANCH   1   2
BRANCH   1  15
ATOM     15  C   UNL     1      50.624  -5.083 -54.915  1.00  0.00     0.000 C 
BRANCH  15  16
ATOM     16  C   UNL     1      50.408  -4.480 -56.312  1.00  0.00     0.000 C 
BRANCH  16  17
ATOM     17  C   UNL     1      50.075  -5.496 -57.423  1.00  0.00     0.000 C 
BRANCH  17  18
ATOM     18  C   UNL     1      48.767  -5.189 -58.185  1.00  0.00    -0.000 C 
BRANCH  18  19
ATOM     19  C   UNL     1      48.139  -6.450 -58.798  1.00  0.00    -0.000 C 
BRANCH  19  20
ATOM     20  C   UNL     1      48.699  -7.722 -58.144  1.00  0.00    -0.000 C 
BRANCH  20  21
ATOM     21  C   UNL     1      48.311  -8.999 -58.905  1.00  0.00    -0.000 C 
BRANCH  21  22
ATOM     22  C   UNL     1      46.902  -9.500 -58.544  1.00  0.00    -0.000 C 
BRANCH  22  23
ATOM     23  C   UNL     1      46.782  -9.865 -57.053  1.00  0.00    -0.000 C 
BRANCH  23  24
ATOM     24  C   UNL     1      47.931 -10.772 -56.556  1.00  0.00    -0.000 C 
BRANCH  24  25
ATOM     25  C   UNL     1      47.732 -12.257 -56.907  1.00  0.00    -0.003 C 
ATOM     26  C   UNL     1      48.665 -13.181 -56.127  1.00  0.00     0.004 C 
ENDBRANCH  24  25
ENDBRANCH  23  24
ENDBRANCH  22  23
ENDBRANCH  21  22
ENDBRANCH  20  21
ENDBRANCH  19  20
ENDBRANCH  18  19
ENDBRANCH  17  18
ENDBRANCH  16  17
ENDBRANCH  15  16
ENDBRANCH   1  15
TORSDOF 22
ENDMDL
