MODEL 1
REMARK VINA RESULT:    28.440      0.000      0.000
REMARK INTER + INTRA:          70.531
REMARK INTER:                  71.668
REMARK INTRA:                  -1.137
REMARK UNBOUND:                -1.137
REMARK SMILES CCCCCCCCCCCCCCCCCCCCCCCCCCCC(=O)[O-]
REMARK SMILES IDX 15 1 16 2 17 3 18 4 19 5 20 6 21 7 22 8 23 9 24 10 25 11
REMARK SMILES IDX 26 12 27 13 28 14 29 15 30 16 14 17 13 18 12 19 11 20 10 21
REMARK SMILES IDX 9 22 8 23 7 24 6 25 5 26 4 27 3 28 2 29 1 30
REMARK H PARENT
REMARK Flexibility Score: inf
ROOT
ATOM      1  C   UNL     1      -8.776  -3.516 -21.476  1.00  0.00     0.000 C 
ENDROOT
BRANCH   1   2
ATOM      2  C   UNL     1      -8.751  -2.930 -20.056  1.00  0.00     0.000 C 
BRANCH   2   3
ATOM      3  C   UNL     1      -8.551  -1.408 -20.036  1.00  0.00     0.000 C 
BRANCH   3   4
ATOM      4  C   UNL     1      -9.499  -0.719 -21.028  1.00  0.00     0.000 C 
BRANCH   4   5
ATOM      5  C   UNL     1      -9.009   0.688 -21.430  1.00  0.00     0.000 C 
BRANCH   5   6
ATOM      6  C   UNL     1      -9.534   1.146 -22.804  1.00  0.00     0.000 C 
BRANCH   6   7
ATOM      7  C   UNL     1      -8.519   2.006 -23.578  1.00  0.00     0.000 C 
BRANCH   7   8
ATOM      8  C   UNL     1      -8.738   1.943 -25.106  1.00  0.00     0.000 C 
BRANCH   8   9
ATOM      9  C   UNL     1      -9.946   2.766 -25.595  1.00  0.00     0.000 C 
BRANCH   9  10
ATOM     10  C   UNL     1     -10.489   2.360 -26.976  1.00  0.00     0.000 C 
BRANCH  10  11
ATOM     11  C   UNL     1     -11.206   1.001 -26.952  1.00  0.00     0.000 C 
BRANCH  11  12
ATOM     12  C   UNL     1     -10.258  -0.129 -27.368  1.00  0.00     0.006 C 
BRANCH  12  13
ATOM     13  C   UNL     1     -11.041  -1.314 -27.946  1.00  0.00     0.053 C 
BRANCH  13  14
ATOM     14  C   UNL     1     -10.134  -2.303 -28.612  1.00  0.00     0.041 C 
ATOM     15  O   UNL     1     -10.019  -2.313 -29.866  1.00  0.00    -0.550 OA
ATOM     16  O   UNL     1      -9.350  -3.156 -27.842  1.00  0.00    -0.550 OA
ENDBRANCH  13  14
ENDBRANCH  12  13
ENDBRANCH  11  12
ENDBRANCH  10  11
ENDBRANCH   9  10
ENDBRANCH   8   9
ENDBRANCH   7   8
ENDBRANCH   6   7
ENDBRANCH   5   6
ENDBRANCH   4   5
ENDBRANCH   3   4
ENDBRANCH   2   3
ENDBRANCH   1   2
BRANCH   1  17
ATOM     17  C   UNL     1      -9.939  -4.505 -21.687  1.00  0.00     0.000 C 
BRANCH  17  18
ATOM     18  C   UNL     1      -9.805  -5.771 -20.827  1.00  0.00     0.000 C 
BRANCH  18  19
ATOM     19  C   UNL     1      -9.431  -6.999 -21.671  1.00  0.00     0.000 C 
BRANCH  19  20
ATOM     20  C   UNL     1      -9.227  -8.239 -20.793  1.00  0.00     0.000 C 
BRANCH  20  21
ATOM     21  C   UNL     1      -7.741  -8.604 -20.709  1.00  0.00     0.000 C 
BRANCH  21  22
ATOM     22  C   UNL     1      -7.492  -9.666 -19.630  1.00  0.00    -0.000 C 
BRANCH  22  23
ATOM     23  C   UNL     1      -6.035 -10.156 -19.611  1.00  0.00    -0.000 C 
BRANCH  23  24
ATOM     24  C   UNL     1      -5.732 -11.164 -20.734  1.00  0.00    -0.000 C 
BRANCH  24  25
ATOM     25  C   UNL     1      -4.235 -11.537 -20.796  1.00  0.00    -0.000 C 
BRANCH  25  26
ATOM     26  C   UNL     1      -3.897 -12.574 -21.885  1.00  0.00    -0.000 C 
BRANCH  26  27
ATOM     27  C   UNL     1      -2.613 -12.278 -22.679  1.00  0.00    -0.000 C 
BRANCH  27  28
ATOM     28  C   UNL     1      -2.569 -10.839 -23.220  1.00  0.00    -0.000 C 
BRANCH  28  29
ATOM     29  C   UNL     1      -1.698  -9.914 -22.354  1.00  0.00    -0.003 C 
ATOM     30  C   UNL     1      -1.975  -8.433 -22.611  1.00  0.00     0.004 C 
ENDBRANCH  28  29
ENDBRANCH  27  28
ENDBRANCH  26  27
ENDBRANCH  25  26
ENDBRANCH  24  25
ENDBRANCH  23  24
ENDBRANCH  22  23
ENDBRANCH  21  22
ENDBRANCH  20  21
ENDBRANCH  19  20
ENDBRANCH  18  19
ENDBRANCH  17  18
ENDBRANCH   1  17
TORSDOF 26
ENDMDL
MODEL 2
REMARK VINA RESULT:    28.542      5.167     11.100
REMARK INTER + INTRA:          70.786
REMARK INTER:                  71.365
REMARK INTRA:                  -0.579
REMARK UNBOUND:                -1.137
REMARK SMILES CCCCCCCCCCCCCCCCCCCCCCCCCCCC(=O)[O-]
REMARK SMILES IDX 15 1 16 2 17 3 18 4 19 5 20 6 21 7 22 8 23 9 24 10 25 11
REMARK SMILES IDX 26 12 27 13 28 14 29 15 30 16 14 17 13 18 12 19 11 20 10 21
REMARK SMILES IDX 9 22 8 23 7 24 6 25 5 26 4 27 3 28 2 29 1 30
REMARK H PARENT
REMARK Flexibility Score: inf
ROOT
ATOM      1  C   UNL     1      -9.691  -1.722 -20.747  1.00  0.00     0.000 C 
ENDROOT
BRANCH   1   2
ATOM      2  C   UNL     1      -9.374  -3.145 -20.261  1.00  0.00     0.000 C 
BRANCH   2   3
ATOM      3  C   UNL     1      -8.977  -4.095 -21.400  1.00  0.00     0.000 C 
BRANCH   3   4
ATOM      4  C   UNL     1     -10.124  -5.062 -21.731  1.00  0.00     0.000 C 
BRANCH   4   5
ATOM      5  C   UNL     1      -9.689  -6.541 -21.651  1.00  0.00     0.000 C 
BRANCH   5   6
ATOM      6  C   UNL     1     -10.728  -7.444 -20.961  1.00  0.00     0.000 C 
BRANCH   6   7
ATOM      7  C   UNL     1     -11.891  -7.837 -21.888  1.00  0.00     0.000 C 
BRANCH   7   8
ATOM      8  C   UNL     1     -12.843  -8.864 -21.236  1.00  0.00     0.000 C 
BRANCH   8   9
ATOM      9  C   UNL     1     -14.284  -8.809 -21.783  1.00  0.00     0.000 C 
BRANCH   9  10
ATOM     10  C   UNL     1     -14.666  -7.484 -22.467  1.00  0.00     0.000 C 
BRANCH  10  11
ATOM     11  C   UNL     1     -16.092  -7.504 -23.038  1.00  0.00     0.000 C 
BRANCH  11  12
ATOM     12  C   UNL     1     -16.589  -6.083 -23.327  1.00  0.00     0.006 C 
BRANCH  12  13
ATOM     13  C   UNL     1     -17.881  -5.789 -22.556  1.00  0.00     0.053 C 
BRANCH  13  14
ATOM     14  C   UNL     1     -17.605  -5.454 -21.122  1.00  0.00     0.041 C 
ATOM     15  O   UNL     1     -16.899  -6.221 -20.416  1.00  0.00    -0.550 OA
ATOM     16  O   UNL     1     -18.055  -4.249 -20.590  1.00  0.00    -0.550 OA
ENDBRANCH  13  14
ENDBRANCH  12  13
ENDBRANCH  11  12
ENDBRANCH  10  11
ENDBRANCH   9  10
ENDBRANCH   8   9
ENDBRANCH   7   8
ENDBRANCH   6   7
ENDBRANCH   5   6
ENDBRANCH   4   5
ENDBRANCH   3   4
ENDBRANCH   2   3
ENDBRANCH   1   2
BRANCH   1  17
ATOM     17  C   UNL     1      -8.783  -0.660 -20.095  1.00  0.00     0.000 C 
BRANCH  17  18
ATOM     18  C   UNL     1      -8.792   0.676 -20.856  1.00  0.00     0.000 C 
BRANCH  18  19
ATOM     19  C   UNL     1      -9.607   0.588 -22.156  1.00  0.00     0.000 C 
BRANCH  19  20
ATOM     20  C   UNL     1      -9.216   1.699 -23.136  1.00  0.00     0.000 C 
BRANCH  20  21
ATOM     21  C   UNL     1     -10.359   2.709 -23.294  1.00  0.00     0.000 C 
BRANCH  21  22
ATOM     22  C   UNL     1      -9.993   3.806 -24.302  1.00  0.00    -0.000 C 
BRANCH  22  23
ATOM     23  C   UNL     1      -8.876   3.372 -25.266  1.00  0.00    -0.000 C 
BRANCH  23  24
ATOM     24  C   UNL     1      -9.255   2.130 -26.092  1.00  0.00    -0.000 C 
BRANCH  24  25
ATOM     25  C   UNL     1     -10.633   2.281 -26.774  1.00  0.00    -0.000 C 
BRANCH  25  26
ATOM     26  C   UNL     1     -11.085   1.026 -27.545  1.00  0.00    -0.000 C 
BRANCH  26  27
ATOM     27  C   UNL     1     -10.226  -0.226 -27.296  1.00  0.00    -0.000 C 
BRANCH  27  28
ATOM     28  C   UNL     1     -10.928  -1.524 -27.729  1.00  0.00    -0.000 C 
BRANCH  28  29
ATOM     29  C   UNL     1      -9.963  -2.518 -28.396  1.00  0.00    -0.003 C 
ATOM     30  C   UNL     1     -10.243  -2.701 -29.887  1.00  0.00     0.004 C 
ENDBRANCH  28  29
ENDBRANCH  27  28
ENDBRANCH  26  27
ENDBRANCH  25  26
ENDBRANCH  24  25
ENDBRANCH  23  24
ENDBRANCH  22  23
ENDBRANCH  21  22
ENDBRANCH  20  21
ENDBRANCH  19  20
ENDBRANCH  18  19
ENDBRANCH  17  18
ENDBRANCH   1  17
TORSDOF 26
ENDMDL
MODEL 3
REMARK VINA RESULT:    28.874      3.166     11.805
REMARK INTER + INTRA:          71.625
REMARK INTER:                  72.861
REMARK INTRA:                  -1.236
REMARK UNBOUND:                -1.137
REMARK SMILES CCCCCCCCCCCCCCCCCCCCCCCCCCCC(=O)[O-]
REMARK SMILES IDX 15 1 16 2 17 3 18 4 19 5 20 6 21 7 22 8 23 9 24 10 25 11
REMARK SMILES IDX 26 12 27 13 28 14 29 15 30 16 14 17 13 18 12 19 11 20 10 21
REMARK SMILES IDX 9 22 8 23 7 24 6 25 5 26 4 27 3 28 2 29 1 30
REMARK H PARENT
REMARK Flexibility Score: inf
ROOT
ATOM      1  C   UNL     1      -8.916  -1.496 -21.191  1.00  0.00     0.000 C 
ENDROOT
BRANCH   1   2
ATOM      2  C   UNL     1      -9.877  -2.667 -20.935  1.00  0.00     0.000 C 
BRANCH   2   3
ATOM      3  C   UNL     1      -9.164  -4.026 -20.870  1.00  0.00     0.000 C 
BRANCH   3   4
ATOM      4  C   UNL     1      -9.941  -5.089 -21.662  1.00  0.00     0.000 C 
BRANCH   4   5
ATOM      5  C   UNL     1      -9.999  -6.445 -20.927  1.00  0.00     0.000 C 
BRANCH   5   6
ATOM      6  C   UNL     1      -9.080  -7.514 -21.548  1.00  0.00     0.000 C 
BRANCH   6   7
ATOM      7  C   UNL     1      -7.931  -7.932 -20.613  1.00  0.00     0.000 C 
BRANCH   7   8
ATOM      8  C   UNL     1      -7.661  -9.452 -20.655  1.00  0.00     0.000 C 
BRANCH   8   9
ATOM      9  C   UNL     1      -6.563  -9.915 -19.677  1.00  0.00     0.000 C 
BRANCH   9  10
ATOM     10  C   UNL     1      -5.863 -11.229 -20.066  1.00  0.00     0.000 C 
BRANCH  10  11
ATOM     11  C   UNL     1      -4.349 -11.058 -20.257  1.00  0.00     0.000 C 
BRANCH  11  12
ATOM     12  C   UNL     1      -3.812 -12.038 -21.305  1.00  0.00     0.006 C 
BRANCH  12  13
ATOM     13  C   UNL     1      -2.404 -11.635 -21.760  1.00  0.00     0.053 C 
BRANCH  13  14
ATOM     14  C   UNL     1      -2.425 -10.976 -23.105  1.00  0.00     0.041 C 
ATOM     15  O   UNL     1      -2.756 -11.633 -24.127  1.00  0.00    -0.550 OA
ATOM     16  O   UNL     1      -2.164  -9.614 -23.217  1.00  0.00    -0.550 OA
ENDBRANCH  13  14
ENDBRANCH  12  13
ENDBRANCH  11  12
ENDBRANCH  10  11
ENDBRANCH   9  10
ENDBRANCH   8   9
ENDBRANCH   7   8
ENDBRANCH   6   7
ENDBRANCH   5   6
ENDBRANCH   4   5
ENDBRANCH   3   4
ENDBRANCH   2   3
ENDBRANCH   1   2
BRANCH   1  17
ATOM     17  C   UNL     1      -9.203  -0.286 -20.279  1.00  0.00     0.000 C 
BRANCH  17  18
ATOM     18  C   UNL     1      -9.205   1.047 -21.045  1.00  0.00     0.000 C 
BRANCH  18  19
ATOM     19  C   UNL     1      -9.190   0.832 -22.566  1.00  0.00     0.000 C 
BRANCH  19  20
ATOM     20  C   UNL     1      -9.324   2.160 -23.318  1.00  0.00     0.000 C 
BRANCH  20  21
ATOM     21  C   UNL     1      -8.318   2.233 -24.473  1.00  0.00     0.000 C 
BRANCH  21  22
ATOM     22  C   UNL     1      -8.833   3.137 -25.601  1.00  0.00    -0.000 C 
BRANCH  22  23
ATOM     23  C   UNL     1     -10.368   3.164 -25.680  1.00  0.00    -0.000 C 
BRANCH  23  24
ATOM     24  C   UNL     1     -10.962   1.823 -26.146  1.00  0.00    -0.000 C 
BRANCH  24  25
ATOM     25  C   UNL     1     -10.513   1.451 -27.577  1.00  0.00    -0.000 C 
BRANCH  25  26
ATOM     26  C   UNL     1     -10.121  -0.030 -27.740  1.00  0.00    -0.000 C 
BRANCH  26  27
ATOM     27  C   UNL     1     -11.290  -1.022 -27.607  1.00  0.00    -0.000 C 
BRANCH  27  28
ATOM     28  C   UNL     1     -10.926  -2.436 -28.090  1.00  0.00    -0.000 C 
BRANCH  28  29
ATOM     29  C   UNL     1      -9.571  -2.478 -28.814  1.00  0.00    -0.003 C 
ATOM     30  C   UNL     1      -8.628  -3.535 -28.240  1.00  0.00     0.004 C 
ENDBRANCH  28  29
ENDBRANCH  27  28
ENDBRANCH  26  27
ENDBRANCH  25  26
ENDBRANCH  24  25
ENDBRANCH  23  24
ENDBRANCH  22  23
ENDBRANCH  21  22
ENDBRANCH  20  21
ENDBRANCH  19  20
ENDBRANCH  18  19
ENDBRANCH  17  18
ENDBRANCH   1  17
TORSDOF 26
ENDMDL
MODEL 4
REMARK VINA RESULT:    29.314      4.094      6.926
REMARK INTER + INTRA:          72.732
REMARK INTER:                  74.012
REMARK INTRA:                  -1.280
REMARK UNBOUND:                -1.137
REMARK SMILES CCCCCCCCCCCCCCCCCCCCCCCCCCCC(=O)[O-]
REMARK SMILES IDX 15 1 16 2 17 3 18 4 19 5 20 6 21 7 22 8 23 9 24 10 25 11
REMARK SMILES IDX 26 12 27 13 28 14 29 15 30 16 14 17 13 18 12 19 11 20 10 21
REMARK SMILES IDX 9 22 8 23 7 24 6 25 5 26 4 27 3 28 2 29 1 30
REMARK H PARENT
REMARK Flexibility Score: inf
ROOT
ATOM      1  C   UNL     1      -9.181  -1.883 -21.388  1.00  0.00     0.000 C 
ENDROOT
BRANCH   1   2
ATOM      2  C   UNL     1      -9.432  -0.876 -20.254  1.00  0.00     0.000 C 
BRANCH   2   3
ATOM      3  C   UNL     1      -8.849   0.514 -20.545  1.00  0.00     0.000 C 
BRANCH   3   4
ATOM      4  C   UNL     1      -9.488   1.123 -21.803  1.00  0.00     0.000 C 
BRANCH   4   5
ATOM      5  C   UNL     1      -8.601   0.952 -23.054  1.00  0.00     0.000 C 
BRANCH   5   6
ATOM      6  C   UNL     1      -8.549   2.212 -23.939  1.00  0.00     0.000 C 
BRANCH   6   7
ATOM      7  C   UNL     1      -9.719   3.176 -23.678  1.00  0.00     0.000 C 
BRANCH   7   8
ATOM      8  C   UNL     1     -10.368   3.682 -24.985  1.00  0.00     0.000 C 
BRANCH   8   9
ATOM      9  C   UNL     1      -9.690   3.148 -26.263  1.00  0.00     0.000 C 
BRANCH   9  10
ATOM     10  C   UNL     1     -10.565   2.214 -27.117  1.00  0.00     0.000 C 
BRANCH  10  11
ATOM     11  C   UNL     1     -10.269   0.729 -26.860  1.00  0.00     0.000 C 
BRANCH  11  12
ATOM     12  C   UNL     1     -10.705  -0.133 -28.051  1.00  0.00     0.006 C 
BRANCH  12  13
ATOM     13  C   UNL     1     -10.859  -1.601 -27.636  1.00  0.00     0.053 C 
BRANCH  13  14
ATOM     14  C   UNL     1     -10.076  -2.513 -28.529  1.00  0.00     0.041 C 
ATOM     15  O   UNL     1     -10.196  -2.432 -29.780  1.00  0.00    -0.550 OA
ATOM     16  O   UNL     1      -9.147  -3.394 -27.982  1.00  0.00    -0.550 OA
ENDBRANCH  13  14
ENDBRANCH  12  13
ENDBRANCH  11  12
ENDBRANCH  10  11
ENDBRANCH   9  10
ENDBRANCH   8   9
ENDBRANCH   7   8
ENDBRANCH   6   7
ENDBRANCH   5   6
ENDBRANCH   4   5
ENDBRANCH   3   4
ENDBRANCH   2   3
ENDBRANCH   1   2
BRANCH   1  17
ATOM     17  C   UNL     1      -8.863  -3.297 -20.862  1.00  0.00     0.000 C 
BRANCH  17  18
ATOM     18  C   UNL     1     -10.042  -4.270 -21.027  1.00  0.00     0.000 C 
BRANCH  18  19
ATOM     19  C   UNL     1      -9.683  -5.454 -21.937  1.00  0.00     0.000 C 
BRANCH  19  20
ATOM     20  C   UNL     1      -9.631  -6.768 -21.149  1.00  0.00     0.000 C 
BRANCH  20  21
ATOM     21  C   UNL     1     -10.415  -7.866 -21.876  1.00  0.00     0.000 C 
BRANCH  21  22
ATOM     22  C   UNL     1     -11.843  -7.984 -21.328  1.00  0.00    -0.000 C 
BRANCH  22  23
ATOM     23  C   UNL     1     -12.754  -8.829 -22.234  1.00  0.00    -0.000 C 
BRANCH  23  24
ATOM     24  C   UNL     1     -14.234  -8.756 -21.820  1.00  0.00    -0.000 C 
BRANCH  24  25
ATOM     25  C   UNL     1     -14.774  -7.309 -21.833  1.00  0.00    -0.000 C 
BRANCH  25  26
ATOM     26  C   UNL     1     -16.298  -7.215 -22.043  1.00  0.00    -0.000 C 
BRANCH  26  27
ATOM     27  C   UNL     1     -16.822  -5.797 -22.325  1.00  0.00    -0.000 C 
BRANCH  27  28
ATOM     28  C   UNL     1     -17.023  -5.526 -23.825  1.00  0.00    -0.000 C 
BRANCH  28  29
ATOM     29  C   UNL     1     -16.050  -6.331 -24.702  1.00  0.00    -0.003 C 
ATOM     30  C   UNL     1     -15.783  -5.665 -26.052  1.00  0.00     0.004 C 
ENDBRANCH  28  29
ENDBRANCH  27  28
ENDBRANCH  26  27
ENDBRANCH  25  26
ENDBRANCH  24  25
ENDBRANCH  23  24
ENDBRANCH  22  23
ENDBRANCH  21  22
ENDBRANCH  20  21
ENDBRANCH  19  20
ENDBRANCH  18  19
ENDBRANCH  17  18
ENDBRANCH   1  17
TORSDOF 26
ENDMDL
MODEL 5
REMARK VINA RESULT:    29.444      4.650     10.398
REMARK INTER + INTRA:          73.060
REMARK INTER:                  74.308
REMARK INTRA:                  -1.248
REMARK UNBOUND:                -1.137
REMARK SMILES CCCCCCCCCCCCCCCCCCCCCCCCCCCC(=O)[O-]
REMARK SMILES IDX 15 1 16 2 17 3 18 4 19 5 20 6 21 7 22 8 23 9 24 10 25 11
REMARK SMILES IDX 26 12 27 13 28 14 29 15 30 16 14 17 13 18 12 19 11 20 10 21
REMARK SMILES IDX 9 22 8 23 7 24 6 25 5 26 4 27 3 28 2 29 1 30
REMARK H PARENT
REMARK Flexibility Score: inf
ROOT
ATOM      1  C   UNL     1      -9.329  -3.861 -20.749  1.00  0.00     0.000 C 
ENDROOT
BRANCH   1   2
ATOM      2  C   UNL     1      -9.652  -4.953 -21.780  1.00  0.00     0.000 C 
BRANCH   2   3
ATOM      3  C   UNL     1      -9.577  -6.372 -21.197  1.00  0.00     0.000 C 
BRANCH   3   4
ATOM      4  C   UNL     1     -10.335  -7.369 -22.086  1.00  0.00     0.000 C 
BRANCH   4   5
ATOM      5  C   UNL     1     -11.543  -8.003 -21.363  1.00  0.00     0.000 C 
BRANCH   5   6
ATOM      6  C   UNL     1     -12.540  -8.679 -22.322  1.00  0.00     0.000 C 
BRANCH   6   7
ATOM      7  C   UNL     1     -13.719  -9.344 -21.590  1.00  0.00     0.000 C 
BRANCH   7   8
ATOM      8  C   UNL     1     -14.606  -8.320 -20.850  1.00  0.00     0.000 C 
BRANCH   8   9
ATOM      9  C   UNL     1     -15.328  -7.331 -21.787  1.00  0.00     0.000 C 
BRANCH   9  10
ATOM     10  C   UNL     1     -16.035  -6.164 -21.076  1.00  0.00     0.000 C 
BRANCH  10  11
ATOM     11  C   UNL     1     -17.414  -5.855 -21.676  1.00  0.00     0.000 C 
BRANCH  11  12
ATOM     12  C   UNL     1     -17.519  -6.379 -23.113  1.00  0.00     0.006 C 
BRANCH  12  13
ATOM     13  C   UNL     1     -16.938  -5.366 -24.108  1.00  0.00     0.053 C 
BRANCH  13  14
ATOM     14  C   UNL     1     -16.564  -6.018 -25.404  1.00  0.00     0.041 C 
ATOM     15  O   UNL     1     -17.455  -6.495 -26.154  1.00  0.00    -0.550 OA
ATOM     16  O   UNL     1     -15.237  -6.020 -25.823  1.00  0.00    -0.550 OA
ENDBRANCH  13  14
ENDBRANCH  12  13
ENDBRANCH  11  12
ENDBRANCH  10  11
ENDBRANCH   9  10
ENDBRANCH   8   9
ENDBRANCH   7   8
ENDBRANCH   6   7
ENDBRANCH   5   6
ENDBRANCH   4   5
ENDBRANCH   3   4
ENDBRANCH   2   3
ENDBRANCH   1   2
BRANCH   1  17
ATOM     17  C   UNL     1      -8.003  -3.135 -21.054  1.00  0.00     0.000 C 
BRANCH  17  18
ATOM     18  C   UNL     1      -6.777  -3.885 -20.509  1.00  0.00     0.000 C 
BRANCH  18  19
ATOM     19  C   UNL     1      -5.868  -2.967 -19.677  1.00  0.00     0.000 C 
BRANCH  19  20
ATOM     20  C   UNL     1      -6.686  -2.088 -18.724  1.00  0.00     0.000 C 
BRANCH  20  21
ATOM     21  C   UNL     1      -6.205  -0.633 -18.783  1.00  0.00     0.000 C 
BRANCH  21  22
ATOM     22  C   UNL     1      -7.092   0.206 -19.712  1.00  0.00    -0.000 C 
BRANCH  22  23
ATOM     23  C   UNL     1      -8.541  -0.305 -19.763  1.00  0.00    -0.000 C 
BRANCH  23  24
ATOM     24  C   UNL     1      -9.179  -0.145 -21.154  1.00  0.00    -0.000 C 
BRANCH  24  25
ATOM     25  C   UNL     1      -9.263   1.334 -21.591  1.00  0.00    -0.000 C 
BRANCH  25  26
ATOM     26  C   UNL     1      -9.168   1.538 -23.116  1.00  0.00    -0.000 C 
BRANCH  26  27
ATOM     27  C   UNL     1     -10.125   2.600 -23.683  1.00  0.00    -0.000 C 
BRANCH  27  28
ATOM     28  C   UNL     1      -9.524   3.367 -24.873  1.00  0.00    -0.000 C 
BRANCH  28  29
ATOM     29  C   UNL     1      -9.303   2.466 -26.099  1.00  0.00    -0.003 C 
ATOM     30  C   UNL     1     -10.610   2.091 -26.798  1.00  0.00     0.004 C 
ENDBRANCH  28  29
ENDBRANCH  27  28
ENDBRANCH  26  27
ENDBRANCH  25  26
ENDBRANCH  24  25
ENDBRANCH  23  24
ENDBRANCH  22  23
ENDBRANCH  21  22
ENDBRANCH  20  21
ENDBRANCH  19  20
ENDBRANCH  18  19
ENDBRANCH  17  18
ENDBRANCH   1  17
TORSDOF 26
ENDMDL
MODEL 6
REMARK VINA RESULT:    29.608      2.260      3.924
REMARK INTER + INTRA:          73.474
REMARK INTER:                  75.051
REMARK INTRA:                  -1.578
REMARK UNBOUND:                -1.137
REMARK SMILES CCCCCCCCCCCCCCCCCCCCCCCCCCCC(=O)[O-]
REMARK SMILES IDX 15 1 16 2 17 3 18 4 19 5 20 6 21 7 22 8 23 9 24 10 25 11
REMARK SMILES IDX 26 12 27 13 28 14 29 15 30 16 14 17 13 18 12 19 11 20 10 21
REMARK SMILES IDX 9 22 8 23 7 24 6 25 5 26 4 27 3 28 2 29 1 30
REMARK H PARENT
REMARK Flexibility Score: inf
ROOT
ATOM      1  C   UNL     1      -9.598  -5.210 -22.126  1.00  0.00     0.000 C 
ENDROOT
BRANCH   1   2
ATOM      2  C   UNL     1      -9.898  -4.403 -20.853  1.00  0.00     0.000 C 
BRANCH   2   3
ATOM      3  C   UNL     1      -8.889  -3.272 -20.606  1.00  0.00     0.000 C 
BRANCH   3   4
ATOM      4  C   UNL     1      -7.472  -3.705 -21.013  1.00  0.00     0.000 C 
BRANCH   4   5
ATOM      5  C   UNL     1      -6.401  -3.236 -20.005  1.00  0.00     0.000 C 
BRANCH   5   6
ATOM      6  C   UNL     1      -6.947  -2.256 -18.950  1.00  0.00     0.000 C 
BRANCH   6   7
ATOM      7  C   UNL     1      -6.254  -0.882 -18.992  1.00  0.00     0.000 C 
BRANCH   7   8
ATOM      8  C   UNL     1      -7.165   0.220 -19.576  1.00  0.00     0.000 C 
BRANCH   8   9
ATOM      9  C   UNL     1      -8.503  -0.310 -20.130  1.00  0.00     0.000 C 
BRANCH   9  10
ATOM     10  C   UNL     1      -9.283   0.690 -21.001  1.00  0.00     0.000 C 
BRANCH  10  11
ATOM     11  C   UNL     1      -8.964   0.545 -22.497  1.00  0.00     0.000 C 
BRANCH  11  12
ATOM     12  C   UNL     1      -9.332   1.819 -23.264  1.00  0.00     0.006 C 
BRANCH  12  13
ATOM     13  C   UNL     1      -8.769   1.780 -24.691  1.00  0.00     0.053 C 
BRANCH  13  14
ATOM     14  C   UNL     1      -9.581   2.620 -25.628  1.00  0.00     0.041 C 
ATOM     15  O   UNL     1     -10.304   2.075 -26.503  1.00  0.00    -0.550 OA
ATOM     16  O   UNL     1      -9.606   4.004 -25.479  1.00  0.00    -0.550 OA
ENDBRANCH  13  14
ENDBRANCH  12  13
ENDBRANCH  11  12
ENDBRANCH  10  11
ENDBRANCH   9  10
ENDBRANCH   8   9
ENDBRANCH   7   8
ENDBRANCH   6   7
ENDBRANCH   5   6
ENDBRANCH   4   5
ENDBRANCH   3   4
ENDBRANCH   2   3
ENDBRANCH   1   2
BRANCH   1  17
ATOM     17  C   UNL     1      -9.936  -6.706 -21.970  1.00  0.00     0.000 C 
BRANCH  17  18
ATOM     18  C   UNL     1      -9.403  -7.300 -20.657  1.00  0.00     0.000 C 
BRANCH  18  19
ATOM     19  C   UNL     1      -8.829  -8.711 -20.859  1.00  0.00     0.000 C 
BRANCH  19  20
ATOM     20  C   UNL     1      -7.354  -8.778 -20.446  1.00  0.00     0.000 C 
BRANCH  20  21
ATOM     21  C   UNL     1      -7.176  -9.676 -19.217  1.00  0.00     0.000 C 
BRANCH  21  22
ATOM     22  C   UNL     1      -5.965 -10.604 -19.380  1.00  0.00    -0.000 C 
BRANCH  22  23
ATOM     23  C   UNL     1      -5.463 -10.668 -20.831  1.00  0.00    -0.000 C 
BRANCH  23  24
ATOM     24  C   UNL     1      -5.087 -12.095 -21.267  1.00  0.00    -0.000 C 
BRANCH  24  25
ATOM     25  C   UNL     1      -3.592 -12.404 -21.025  1.00  0.00    -0.000 C 
BRANCH  25  26
ATOM     26  C   UNL     1      -2.735 -12.364 -22.305  1.00  0.00    -0.000 C 
BRANCH  26  27
ATOM     27  C   UNL     1      -1.753 -11.182 -22.384  1.00  0.00    -0.000 C 
BRANCH  27  28
ATOM     28  C   UNL     1      -2.374  -9.938 -23.042  1.00  0.00    -0.000 C 
BRANCH  28  29
ATOM     29  C   UNL     1      -1.684  -8.637 -22.602  1.00  0.00    -0.003 C 
ATOM     30  C   UNL     1      -2.433  -7.387 -23.065  1.00  0.00     0.004 C 
ENDBRANCH  28  29
ENDBRANCH  27  28
ENDBRANCH  26  27
ENDBRANCH  25  26
ENDBRANCH  24  25
ENDBRANCH  23  24
ENDBRANCH  22  23
ENDBRANCH  21  22
ENDBRANCH  20  21
ENDBRANCH  19  20
ENDBRANCH  18  19
ENDBRANCH  17  18
ENDBRANCH   1  17
TORSDOF 26
ENDMDL
MODEL 7
REMARK VINA RESULT:    29.622      4.473      8.191
REMARK INTER + INTRA:          73.508
REMARK INTER:                  72.513
REMARK INTRA:                   0.995
REMARK UNBOUND:                -1.137
REMARK SMILES CCCCCCCCCCCCCCCCCCCCCCCCCCCC(=O)[O-]
REMARK SMILES IDX 15 1 16 2 17 3 18 4 19 5 20 6 21 7 22 8 23 9 24 10 25 11
REMARK SMILES IDX 26 12 27 13 28 14 29 15 30 16 14 17 13 18 12 19 11 20 10 21
REMARK SMILES IDX 9 22 8 23 7 24 6 25 5 26 4 27 3 28 2 29 1 30
REMARK H PARENT
REMARK Flexibility Score: inf
ROOT
ATOM      1  C   UNL     1      -9.479  -3.660 -21.709  1.00  0.00     0.000 C 
ENDROOT
BRANCH   1   2
ATOM      2  C   UNL     1      -8.223  -3.729 -20.825  1.00  0.00     0.000 C 
BRANCH   2   3
ATOM      3  C   UNL     1      -8.236  -2.705 -19.681  1.00  0.00     0.000 C 
BRANCH   3   4
ATOM      4  C   UNL     1      -6.894  -2.703 -18.934  1.00  0.00     0.000 C 
BRANCH   4   5
ATOM      5  C   UNL     1      -6.125  -1.375 -19.108  1.00  0.00     0.000 C 
BRANCH   5   6
ATOM      6  C   UNL     1      -7.029  -0.200 -19.527  1.00  0.00     0.000 C 
BRANCH   6   7
ATOM      7  C   UNL     1      -8.433  -0.651 -19.968  1.00  0.00     0.000 C 
BRANCH   7   8
ATOM      8  C   UNL     1      -9.218   0.475 -20.675  1.00  0.00     0.000 C 
BRANCH   8   9
ATOM      9  C   UNL     1      -9.058   0.475 -22.209  1.00  0.00     0.000 C 
BRANCH   9  10
ATOM     10  C   UNL     1      -9.533   1.762 -22.908  1.00  0.00     0.000 C 
BRANCH  10  11
ATOM     11  C   UNL     1      -8.796   2.021 -24.230  1.00  0.00     0.000 C 
BRANCH  11  12
ATOM     12  C   UNL     1      -9.258   3.336 -24.869  1.00  0.00     0.006 C 
BRANCH  12  13
ATOM     13  C   UNL     1      -9.551   3.145 -26.362  1.00  0.00     0.053 C 
BRANCH  13  14
ATOM     14  C   UNL     1     -10.507   2.016 -26.596  1.00  0.00     0.041 C 
ATOM     15  O   UNL     1     -11.743   2.184 -26.419  1.00  0.00    -0.550 OA
ATOM     16  O   UNL     1     -10.042   0.802 -27.094  1.00  0.00    -0.550 OA
ENDBRANCH  13  14
ENDBRANCH  12  13
ENDBRANCH  11  12
ENDBRANCH  10  11
ENDBRANCH   9  10
ENDBRANCH   8   9
ENDBRANCH   7   8
ENDBRANCH   6   7
ENDBRANCH   5   6
ENDBRANCH   4   5
ENDBRANCH   3   4
ENDBRANCH   2   3
ENDBRANCH   1   2
BRANCH   1  17
ATOM     17  C   UNL     1      -9.939  -5.050 -22.190  1.00  0.00     0.000 C 
BRANCH  17  18
ATOM     18  C   UNL     1     -10.015  -6.077 -21.049  1.00  0.00     0.000 C 
BRANCH  18  19
ATOM     19  C   UNL     1     -10.309  -7.492 -21.572  1.00  0.00     0.000 C 
BRANCH  19  20
ATOM     20  C   UNL     1     -11.622  -8.037 -21.000  1.00  0.00     0.000 C 
BRANCH  20  21
ATOM     21  C   UNL     1     -12.535  -8.541 -22.123  1.00  0.00     0.000 C 
BRANCH  21  22
ATOM     22  C   UNL     1     -13.985  -8.677 -21.641  1.00  0.00    -0.000 C 
BRANCH  22  23
ATOM     23  C   UNL     1     -14.862  -7.489 -22.069  1.00  0.00    -0.000 C 
BRANCH  23  24
ATOM     24  C   UNL     1     -15.082  -7.431 -23.591  1.00  0.00    -0.000 C 
BRANCH  24  25
ATOM     25  C   UNL     1     -16.414  -6.744 -23.962  1.00  0.00    -0.000 C 
BRANCH  25  26
ATOM     26  C   UNL     1     -17.316  -6.441 -22.750  1.00  0.00    -0.000 C 
BRANCH  26  27
ATOM     27  C   UNL     1     -17.509  -4.944 -22.451  1.00  0.00    -0.000 C 
BRANCH  27  28
ATOM     28  C   UNL     1     -17.756  -4.663 -20.959  1.00  0.00    -0.000 C 
BRANCH  28  29
ATOM     29  C   UNL     1     -16.999  -5.642 -20.046  1.00  0.00    -0.003 C 
ATOM     30  C   UNL     1     -17.260  -5.384 -18.562  1.00  0.00     0.004 C 
ENDBRANCH  28  29
ENDBRANCH  27  28
ENDBRANCH  26  27
ENDBRANCH  25  26
ENDBRANCH  24  25
ENDBRANCH  23  24
ENDBRANCH  22  23
ENDBRANCH  21  22
ENDBRANCH  20  21
ENDBRANCH  19  20
ENDBRANCH  18  19
ENDBRANCH  17  18
ENDBRANCH   1  17
TORSDOF 26
ENDMDL
MODEL 8
REMARK VINA RESULT:    29.778      2.479      4.079
REMARK INTER + INTRA:          73.901
REMARK INTER:                  72.850
REMARK INTRA:                   1.051
REMARK UNBOUND:                -1.137
REMARK SMILES CCCCCCCCCCCCCCCCCCCCCCCCCCCC(=O)[O-]
REMARK SMILES IDX 15 1 16 2 17 3 18 4 19 5 20 6 21 7 22 8 23 9 24 10 25 11
REMARK SMILES IDX 26 12 27 13 28 14 29 15 30 16 14 17 13 18 12 19 11 20 10 21
REMARK SMILES IDX 9 22 8 23 7 24 6 25 5 26 4 27 3 28 2 29 1 30
REMARK H PARENT
REMARK Flexibility Score: inf
ROOT
ATOM      1  C   UNL     1      -6.270  -4.127 -16.426  1.00  0.00     0.000 C 
ENDROOT
BRANCH   1   2
ATOM      2  C   UNL     1      -6.839  -3.872 -17.830  1.00  0.00     0.000 C 
BRANCH   2   3
ATOM      3  C   UNL     1      -5.909  -3.027 -18.712  1.00  0.00     0.000 C 
BRANCH   3   4
ATOM      4  C   UNL     1      -6.718  -2.157 -19.686  1.00  0.00     0.000 C 
BRANCH   4   5
ATOM      5  C   UNL     1      -7.826  -2.955 -20.406  1.00  0.00     0.000 C 
BRANCH   5   6
ATOM      6  C   UNL     1      -9.012  -2.081 -20.854  1.00  0.00     0.000 C 
BRANCH   6   7
ATOM      7  C   UNL     1      -9.265  -0.887 -19.917  1.00  0.00     0.000 C 
BRANCH   7   8
ATOM      8  C   UNL     1      -9.179   0.468 -20.652  1.00  0.00     0.000 C 
BRANCH   8   9
ATOM      9  C   UNL     1      -9.144   0.340 -22.188  1.00  0.00     0.000 C 
BRANCH   9  10
ATOM     10  C   UNL     1      -9.192   1.677 -22.949  1.00  0.00     0.000 C 
BRANCH  10  11
ATOM     11  C   UNL     1      -8.846   1.522 -24.438  1.00  0.00     0.000 C 
BRANCH  11  12
ATOM     12  C   UNL     1      -8.751   2.888 -25.126  1.00  0.00     0.006 C 
BRANCH  12  13
ATOM     13  C   UNL     1     -10.039   3.202 -25.897  1.00  0.00     0.053 C 
BRANCH  13  14
ATOM     14  C   UNL     1     -10.420   2.081 -26.815  1.00  0.00     0.041 C 
ATOM     15  O   UNL     1     -11.234   2.280 -27.755  1.00  0.00    -0.550 OA
ATOM     16  O   UNL     1      -9.810   0.837 -26.685  1.00  0.00    -0.550 OA
ENDBRANCH  13  14
ENDBRANCH  12  13
ENDBRANCH  11  12
ENDBRANCH  10  11
ENDBRANCH   9  10
ENDBRANCH   8   9
ENDBRANCH   7   8
ENDBRANCH   6   7
ENDBRANCH   5   6
ENDBRANCH   4   5
ENDBRANCH   3   4
ENDBRANCH   2   3
ENDBRANCH   1   2
BRANCH   1  17
ATOM     17  C   UNL     1      -6.725  -5.479 -15.841  1.00  0.00     0.000 C 
BRANCH  17  18
ATOM     18  C   UNL     1      -5.703  -6.602 -16.081  1.00  0.00     0.000 C 
BRANCH  18  19
ATOM     19  C   UNL     1      -6.386  -7.965 -16.274  1.00  0.00     0.000 C 
BRANCH  19  20
ATOM     20  C   UNL     1      -5.695  -8.785 -17.369  1.00  0.00     0.000 C 
BRANCH  20  21
ATOM     21  C   UNL     1      -6.687  -9.746 -18.033  1.00  0.00     0.000 C 
BRANCH  21  22
ATOM     22  C   UNL     1      -6.694  -9.570 -19.557  1.00  0.00    -0.000 C 
BRANCH  22  23
ATOM     23  C   UNL     1      -6.284 -10.851 -20.301  1.00  0.00    -0.000 C 
BRANCH  23  24
ATOM     24  C   UNL     1      -4.820 -11.247 -20.040  1.00  0.00    -0.000 C 
BRANCH  24  25
ATOM     25  C   UNL     1      -4.159 -11.889 -21.280  1.00  0.00    -0.000 C 
BRANCH  25  26
ATOM     26  C   UNL     1      -2.649 -11.604 -21.397  1.00  0.00    -0.000 C 
BRANCH  26  27
ATOM     27  C   UNL     1      -2.294 -10.356 -22.225  1.00  0.00    -0.000 C 
BRANCH  27  28
ATOM     28  C   UNL     1      -2.031 -10.681 -23.705  1.00  0.00    -0.000 C 
BRANCH  28  29
ATOM     29  C   UNL     1      -3.025 -11.712 -24.264  1.00  0.00    -0.003 C 
ATOM     30  C   UNL     1      -2.771 -13.123 -23.734  1.00  0.00     0.004 C 
ENDBRANCH  28  29
ENDBRANCH  27  28
ENDBRANCH  26  27
ENDBRANCH  25  26
ENDBRANCH  24  25
ENDBRANCH  23  24
ENDBRANCH  22  23
ENDBRANCH  21  22
ENDBRANCH  20  21
ENDBRANCH  19  20
ENDBRANCH  18  19
ENDBRANCH  17  18
ENDBRANCH   1  17
TORSDOF 26
ENDMDL
MODEL 9
REMARK VINA RESULT:    29.844      4.555     10.674
REMARK INTER + INTRA:          74.068
REMARK INTER:                  74.838
REMARK INTRA:                  -0.770
REMARK UNBOUND:                -1.137
REMARK SMILES CCCCCCCCCCCCCCCCCCCCCCCCCCCC(=O)[O-]
REMARK SMILES IDX 15 1 16 2 17 3 18 4 19 5 20 6 21 7 22 8 23 9 24 10 25 11
REMARK SMILES IDX 26 12 27 13 28 14 29 15 30 16 14 17 13 18 12 19 11 20 10 21
REMARK SMILES IDX 9 22 8 23 7 24 6 25 5 26 4 27 3 28 2 29 1 30
REMARK H PARENT
REMARK Flexibility Score: inf
ROOT
ATOM      1  C   UNL     1      -8.957  -3.379 -21.448  1.00  0.00     0.000 C 
ENDROOT
BRANCH   1   2
ATOM      2  C   UNL     1     -10.017  -4.424 -21.067  1.00  0.00     0.000 C 
BRANCH   2   3
ATOM      3  C   UNL     1     -10.060  -5.617 -22.032  1.00  0.00     0.000 C 
BRANCH   3   4
ATOM      4  C   UNL     1      -9.739  -6.927 -21.296  1.00  0.00     0.000 C 
BRANCH   4   5
ATOM      5  C   UNL     1     -11.011  -7.662 -20.821  1.00  0.00     0.000 C 
BRANCH   5   6
ATOM      6  C   UNL     1     -12.058  -7.848 -21.936  1.00  0.00     0.000 C 
BRANCH   6   7
ATOM      7  C   UNL     1     -13.099  -8.932 -21.605  1.00  0.00     0.000 C 
BRANCH   7   8
ATOM      8  C   UNL     1     -14.545  -8.461 -21.871  1.00  0.00     0.000 C 
BRANCH   8   9
ATOM      9  C   UNL     1     -14.802  -6.993 -21.475  1.00  0.00     0.000 C 
BRANCH   9  10
ATOM     10  C   UNL     1     -16.197  -6.716 -20.887  1.00  0.00     0.000 C 
BRANCH  10  11
ATOM     11  C   UNL     1     -16.987  -5.682 -21.703  1.00  0.00     0.000 C 
BRANCH  11  12
ATOM     12  C   UNL     1     -17.929  -6.369 -22.699  1.00  0.00     0.006 C 
BRANCH  12  13
ATOM     13  C   UNL     1     -17.148  -6.922 -23.897  1.00  0.00     0.053 C 
BRANCH  13  14
ATOM     14  C   UNL     1     -16.531  -5.824 -24.708  1.00  0.00     0.041 C 
ATOM     15  O   UNL     1     -15.825  -6.098 -25.714  1.00  0.00    -0.550 OA
ATOM     16  O   UNL     1     -16.806  -4.494 -24.402  1.00  0.00    -0.550 OA
ENDBRANCH  13  14
ENDBRANCH  12  13
ENDBRANCH  11  12
ENDBRANCH  10  11
ENDBRANCH   9  10
ENDBRANCH   8   9
ENDBRANCH   7   8
ENDBRANCH   6   7
ENDBRANCH   5   6
ENDBRANCH   4   5
ENDBRANCH   3   4
ENDBRANCH   2   3
ENDBRANCH   1   2
BRANCH   1  17
ATOM     17  C   UNL     1      -8.746  -2.323 -20.345  1.00  0.00     0.000 C 
BRANCH  17  18
ATOM     18  C   UNL     1      -9.757  -1.168 -20.428  1.00  0.00     0.000 C 
BRANCH  18  19
ATOM     19  C   UNL     1      -9.089   0.149 -20.849  1.00  0.00     0.000 C 
BRANCH  19  20
ATOM     20  C   UNL     1      -8.972   0.253 -22.374  1.00  0.00     0.000 C 
BRANCH  20  21
ATOM     21  C   UNL     1      -9.610   1.552 -22.879  1.00  0.00     0.000 C 
BRANCH  21  22
ATOM     22  C   UNL     1      -8.653   2.317 -23.802  1.00  0.00    -0.000 C 
BRANCH  22  23
ATOM     23  C   UNL     1      -8.849   1.955 -25.284  1.00  0.00    -0.000 C 
BRANCH  23  24
ATOM     24  C   UNL     1      -9.842   2.890 -25.997  1.00  0.00    -0.000 C 
BRANCH  24  25
ATOM     25  C   UNL     1     -11.110   2.144 -26.467  1.00  0.00    -0.000 C 
BRANCH  25  26
ATOM     26  C   UNL     1     -10.892   1.275 -27.722  1.00  0.00    -0.000 C 
BRANCH  26  27
ATOM     27  C   UNL     1     -10.023   0.026 -27.495  1.00  0.00    -0.000 C 
BRANCH  27  28
ATOM     28  C   UNL     1     -10.775  -1.282 -27.796  1.00  0.00    -0.000 C 
BRANCH  28  29
ATOM     29  C   UNL     1     -10.005  -2.189 -28.770  1.00  0.00    -0.003 C 
ATOM     30  C   UNL     1      -9.490  -3.465 -28.105  1.00  0.00     0.004 C 
ENDBRANCH  28  29
ENDBRANCH  27  28
ENDBRANCH  26  27
ENDBRANCH  25  26
ENDBRANCH  24  25
ENDBRANCH  23  24
ENDBRANCH  22  23
ENDBRANCH  21  22
ENDBRANCH  20  21
ENDBRANCH  19  20
ENDBRANCH  18  19
ENDBRANCH  17  18
ENDBRANCH   1  17
TORSDOF 26
ENDMDL
