MODEL 1
REMARK VINA RESULT:    -4.412      0.000      0.000
REMARK INTER + INTRA:         -15.820
REMARK INTER:                 -11.118
REMARK INTRA:                  -4.702
REMARK UNBOUND:                -4.702
REMARK SMILES CCCCCCCCCCCCCCCCCCCCCCCCCCCC(=O)[O-]
REMARK SMILES IDX 15 1 16 2 17 3 18 4 19 5 20 6 21 7 22 8 23 9 24 10 25 11
REMARK SMILES IDX 26 12 27 13 28 14 29 15 30 16 14 17 13 18 12 19 11 20 10 21
REMARK SMILES IDX 9 22 8 23 7 24 6 25 5 26 4 27 3 28 2 29 1 30
REMARK H PARENT
REMARK Flexibility Score: inf
ROOT
ATOM      1  C   UNL     1      47.883  -4.462  73.049  1.00  0.00     0.000 C 
ENDROOT
BRANCH   1   2
ATOM      2  C   UNL     1      49.180  -4.645  73.857  1.00  0.00     0.000 C 
BRANCH   2   3
ATOM      3  C   UNL     1      49.251  -3.725  75.086  1.00  0.00     0.000 C 
BRANCH   3   4
ATOM      4  C   UNL     1      47.864  -3.325  75.621  1.00  0.00     0.000 C 
BRANCH   4   5
ATOM      5  C   UNL     1      47.746  -1.873  76.131  1.00  0.00     0.000 C 
BRANCH   5   6
ATOM      6  C   UNL     1      48.778  -0.886  75.548  1.00  0.00     0.000 C 
BRANCH   6   7
ATOM      7  C   UNL     1      48.191   0.213  74.646  1.00  0.00     0.000 C 
BRANCH   7   8
ATOM      8  C   UNL     1      48.920   0.323  73.296  1.00  0.00     0.000 C 
BRANCH   8   9
ATOM      9  C   UNL     1      48.758  -0.937  72.429  1.00  0.00     0.000 C 
BRANCH   9  10
ATOM     10  C   UNL     1      49.994  -1.211  71.553  1.00  0.00     0.000 C 
BRANCH  10  11
ATOM     11  C   UNL     1      51.308  -1.223  72.353  1.00  0.00     0.000 C 
BRANCH  11  12
ATOM     12  C   UNL     1      51.869  -2.620  72.683  1.00  0.00     0.006 C 
BRANCH  12  13
ATOM     13  C   UNL     1      53.394  -2.649  72.907  1.00  0.00     0.053 C 
BRANCH  13  14
ATOM     14  C   UNL     1      53.863  -3.960  73.466  1.00  0.00     0.041 C 
ATOM     15  O   UNL     1      53.027  -4.838  73.806  1.00  0.00    -0.550 OA
ATOM     16  O   UNL     1      55.219  -4.228  73.586  1.00  0.00    -0.550 OA
ENDBRANCH  13  14
ENDBRANCH  12  13
ENDBRANCH  11  12
ENDBRANCH  10  11
ENDBRANCH   9  10
ENDBRANCH   8   9
ENDBRANCH   7   8
ENDBRANCH   6   7
ENDBRANCH   5   6
ENDBRANCH   4   5
ENDBRANCH   3   4
ENDBRANCH   2   3
ENDBRANCH   1   2
BRANCH   1  17
ATOM     17  C   UNL     1      47.405  -5.745  72.337  1.00  0.00     0.000 C 
BRANCH  17  18
ATOM     18  C   UNL     1      46.444  -6.574  73.210  1.00  0.00     0.000 C 
BRANCH  18  19
ATOM     19  C   UNL     1      45.575  -5.691  74.121  1.00  0.00     0.000 C 
BRANCH  19  20
ATOM     20  C   UNL     1      45.374  -6.314  75.511  1.00  0.00     0.000 C 
BRANCH  20  21
ATOM     21  C   UNL     1      46.249  -7.559  75.738  1.00  0.00     0.000 C 
BRANCH  21  22
ATOM     22  C   UNL     1      46.839  -7.693  77.157  1.00  0.00    -0.000 C 
BRANCH  22  23
ATOM     23  C   UNL     1      47.687  -6.497  77.629  1.00  0.00    -0.000 C 
BRANCH  23  24
ATOM     24  C   UNL     1      49.179  -6.652  77.300  1.00  0.00    -0.000 C 
BRANCH  24  25
ATOM     25  C   UNL     1      50.045  -6.428  78.548  1.00  0.00    -0.000 C 
BRANCH  25  26
ATOM     26  C   UNL     1      50.577  -4.989  78.661  1.00  0.00    -0.000 C 
BRANCH  26  27
ATOM     27  C   UNL     1      49.496  -3.948  79.020  1.00  0.00    -0.000 C 
BRANCH  27  28
ATOM     28  C   UNL     1      50.077  -2.732  79.756  1.00  0.00    -0.000 C 
BRANCH  28  29
ATOM     29  C   UNL     1      50.394  -1.595  78.779  1.00  0.00    -0.003 C 
ATOM     30  C   UNL     1      51.898  -1.340  78.699  1.00  0.00     0.004 C 
ENDBRANCH  28  29
ENDBRANCH  27  28
ENDBRANCH  26  27
ENDBRANCH  25  26
ENDBRANCH  24  25
ENDBRANCH  23  24
ENDBRANCH  22  23
ENDBRANCH  21  22
ENDBRANCH  20  21
ENDBRANCH  19  20
ENDBRANCH  18  19
ENDBRANCH  17  18
ENDBRANCH   1  17
TORSDOF 26
ENDMDL
MODEL 2
REMARK VINA RESULT:    -4.366      1.395      4.413
REMARK INTER + INTRA:         -15.705
REMARK INTER:                 -10.534
REMARK INTRA:                  -5.171
REMARK UNBOUND:                -4.702
REMARK SMILES CCCCCCCCCCCCCCCCCCCCCCCCCCCC(=O)[O-]
REMARK SMILES IDX 15 1 16 2 17 3 18 4 19 5 20 6 21 7 22 8 23 9 24 10 25 11
REMARK SMILES IDX 26 12 27 13 28 14 29 15 30 16 14 17 13 18 12 19 11 20 10 21
REMARK SMILES IDX 9 22 8 23 7 24 6 25 5 26 4 27 3 28 2 29 1 30
REMARK H PARENT
REMARK Flexibility Score: inf
ROOT
ATOM      1  C   UNL     1      49.039  -5.231  78.963  1.00  0.00     0.000 C 
ENDROOT
BRANCH   1   2
ATOM      2  C   UNL     1      50.173  -4.600  78.137  1.00  0.00     0.000 C 
BRANCH   2   3
ATOM      3  C   UNL     1      50.343  -5.258  76.758  1.00  0.00     0.000 C 
BRANCH   3   4
ATOM      4  C   UNL     1      50.251  -4.253  75.595  1.00  0.00     0.000 C 
BRANCH   4   5
ATOM      5  C   UNL     1      49.877  -2.811  75.995  1.00  0.00     0.000 C 
BRANCH   5   6
ATOM      6  C   UNL     1      48.405  -2.422  75.746  1.00  0.00     0.000 C 
BRANCH   6   7
ATOM      7  C   UNL     1      48.175  -0.946  75.377  1.00  0.00     0.000 C 
BRANCH   7   8
ATOM      8  C   UNL     1      49.204  -0.423  74.360  1.00  0.00     0.000 C 
BRANCH   8   9
ATOM      9  C   UNL     1      48.663  -0.410  72.921  1.00  0.00     0.000 C 
BRANCH   9  10
ATOM     10  C   UNL     1      49.375  -1.432  72.015  1.00  0.00     0.000 C 
BRANCH  10  11
ATOM     11  C   UNL     1      50.906  -1.408  72.169  1.00  0.00     0.000 C 
BRANCH  11  12
ATOM     12  C   UNL     1      51.554  -2.753  72.550  1.00  0.00     0.006 C 
BRANCH  12  13
ATOM     13  C   UNL     1      52.969  -2.623  73.147  1.00  0.00     0.053 C 
BRANCH  13  14
ATOM     14  C   UNL     1      53.613  -3.957  73.382  1.00  0.00     0.041 C 
ATOM     15  O   UNL     1      52.903  -4.971  73.608  1.00  0.00    -0.550 OA
ATOM     16  O   UNL     1      54.993  -4.092  73.323  1.00  0.00    -0.550 OA
ENDBRANCH  13  14
ENDBRANCH  12  13
ENDBRANCH  11  12
ENDBRANCH  10  11
ENDBRANCH   9  10
ENDBRANCH   8   9
ENDBRANCH   7   8
ENDBRANCH   6   7
ENDBRANCH   5   6
ENDBRANCH   4   5
ENDBRANCH   3   4
ENDBRANCH   2   3
ENDBRANCH   1   2
BRANCH   1  17
ATOM     17  C   UNL     1      48.058  -6.083  78.131  1.00  0.00     0.000 C 
BRANCH  17  18
ATOM     18  C   UNL     1      47.981  -7.538  78.627  1.00  0.00     0.000 C 
BRANCH  18  19
ATOM     19  C   UNL     1      47.136  -8.427  77.698  1.00  0.00     0.000 C 
BRANCH  19  20
ATOM     20  C   UNL     1      47.892  -8.808  76.416  1.00  0.00     0.000 C 
BRANCH  20  21
ATOM     21  C   UNL     1      46.954  -9.260  75.283  1.00  0.00     0.000 C 
BRANCH  21  22
ATOM     22  C   UNL     1      45.487  -8.803  75.427  1.00  0.00    -0.000 C 
BRANCH  22  23
ATOM     23  C   UNL     1      45.121  -7.527  74.646  1.00  0.00    -0.000 C 
BRANCH  23  24
ATOM     24  C   UNL     1      44.829  -6.328  75.559  1.00  0.00    -0.000 C 
BRANCH  24  25
ATOM     25  C   UNL     1      45.781  -5.162  75.259  1.00  0.00    -0.000 C 
BRANCH  25  26
ATOM     26  C   UNL     1      47.085  -5.608  74.576  1.00  0.00    -0.000 C 
BRANCH  26  27
ATOM     27  C   UNL     1      47.398  -4.851  73.268  1.00  0.00    -0.000 C 
BRANCH  27  28
ATOM     28  C   UNL     1      48.365  -5.626  72.362  1.00  0.00    -0.000 C 
BRANCH  28  29
ATOM     29  C   UNL     1      48.274  -7.135  72.619  1.00  0.00    -0.003 C 
ATOM     30  C   UNL     1      47.404  -7.821  71.569  1.00  0.00     0.004 C 
ENDBRANCH  28  29
ENDBRANCH  27  28
ENDBRANCH  26  27
ENDBRANCH  25  26
ENDBRANCH  24  25
ENDBRANCH  23  24
ENDBRANCH  22  23
ENDBRANCH  21  22
ENDBRANCH  20  21
ENDBRANCH  19  20
ENDBRANCH  18  19
ENDBRANCH  17  18
ENDBRANCH   1  17
TORSDOF 26
ENDMDL
MODEL 3
REMARK VINA RESULT:    -4.353      2.116      6.564
REMARK INTER + INTRA:         -15.671
REMARK INTER:                 -10.981
REMARK INTRA:                  -4.690
REMARK UNBOUND:                -4.702
REMARK SMILES CCCCCCCCCCCCCCCCCCCCCCCCCCCC(=O)[O-]
REMARK SMILES IDX 15 1 16 2 17 3 18 4 19 5 20 6 21 7 22 8 23 9 24 10 25 11
REMARK SMILES IDX 26 12 27 13 28 14 29 15 30 16 14 17 13 18 12 19 11 20 10 21
REMARK SMILES IDX 9 22 8 23 7 24 6 25 5 26 4 27 3 28 2 29 1 30
REMARK H PARENT
REMARK Flexibility Score: inf
ROOT
ATOM      1  C   UNL     1      47.895  -4.783  72.700  1.00  0.00     0.000 C 
ENDROOT
BRANCH   1   2
ATOM      2  C   UNL     1      47.121  -5.974  72.108  1.00  0.00     0.000 C 
BRANCH   2   3
ATOM      3  C   UNL     1      47.015  -7.159  73.081  1.00  0.00     0.000 C 
BRANCH   3   4
ATOM      4  C   UNL     1      45.720  -7.143  73.914  1.00  0.00     0.000 C 
BRANCH   4   5
ATOM      5  C   UNL     1      45.795  -7.881  75.267  1.00  0.00     0.000 C 
BRANCH   5   6
ATOM      6  C   UNL     1      46.544  -7.129  76.385  1.00  0.00     0.000 C 
BRANCH   6   7
ATOM      7  C   UNL     1      47.993  -7.589  76.622  1.00  0.00     0.000 C 
BRANCH   7   8
ATOM      8  C   UNL     1      48.338  -7.712  78.116  1.00  0.00     0.000 C 
BRANCH   8   9
ATOM      9  C   UNL     1      47.801  -6.537  78.949  1.00  0.00     0.000 C 
BRANCH   9  10
ATOM     10  C   UNL     1      48.727  -5.308  78.898  1.00  0.00     0.000 C 
BRANCH  10  11
ATOM     11  C   UNL     1      50.200  -5.675  78.650  1.00  0.00     0.000 C 
BRANCH  11  12
ATOM     12  C   UNL     1      51.115  -4.502  78.244  1.00  0.00     0.006 C 
BRANCH  12  13
ATOM     13  C   UNL     1      51.959  -3.933  79.401  1.00  0.00     0.053 C 
BRANCH  13  14
ATOM     14  C   UNL     1      51.502  -2.567  79.821  1.00  0.00     0.041 C 
ATOM     15  O   UNL     1      52.288  -1.586  79.743  1.00  0.00    -0.550 OA
ATOM     16  O   UNL     1      50.204  -2.366  80.269  1.00  0.00    -0.550 OA
ENDBRANCH  13  14
ENDBRANCH  12  13
ENDBRANCH  11  12
ENDBRANCH  10  11
ENDBRANCH   9  10
ENDBRANCH   8   9
ENDBRANCH   7   8
ENDBRANCH   6   7
ENDBRANCH   5   6
ENDBRANCH   4   5
ENDBRANCH   3   4
ENDBRANCH   2   3
ENDBRANCH   1   2
BRANCH   1  17
ATOM     17  C   UNL     1      48.898  -5.176  73.805  1.00  0.00     0.000 C 
BRANCH  17  18
ATOM     18  C   UNL     1      48.732  -4.323  75.075  1.00  0.00     0.000 C 
BRANCH  18  19
ATOM     19  C   UNL     1      47.284  -3.842  75.270  1.00  0.00     0.000 C 
BRANCH  19  20
ATOM     20  C   UNL     1      47.113  -3.026  76.561  1.00  0.00     0.000 C 
BRANCH  20  21
ATOM     21  C   UNL     1      48.336  -2.147  76.877  1.00  0.00     0.000 C 
BRANCH  21  22
ATOM     22  C   UNL     1      48.066  -0.628  76.881  1.00  0.00    -0.000 C 
BRANCH  22  23
ATOM     23  C   UNL     1      48.284   0.079  75.529  1.00  0.00    -0.000 C 
BRANCH  23  24
ATOM     24  C   UNL     1      49.258  -0.672  74.610  1.00  0.00    -0.000 C 
BRANCH  24  25
ATOM     25  C   UNL     1      48.983  -0.349  73.135  1.00  0.00    -0.000 C 
BRANCH  25  26
ATOM     26  C   UNL     1      49.409  -1.479  72.181  1.00  0.00    -0.000 C 
BRANCH  26  27
ATOM     27  C   UNL     1      50.805  -2.061  72.484  1.00  0.00    -0.000 C 
BRANCH  27  28
ATOM     28  C   UNL     1      51.936  -1.089  72.115  1.00  0.00    -0.000 C 
BRANCH  28  29
ATOM     29  C   UNL     1      53.310  -1.713  72.385  1.00  0.00    -0.003 C 
ATOM     30  C   UNL     1      53.197  -3.219  72.605  1.00  0.00     0.004 C 
ENDBRANCH  28  29
ENDBRANCH  27  28
ENDBRANCH  26  27
ENDBRANCH  25  26
ENDBRANCH  24  25
ENDBRANCH  23  24
ENDBRANCH  22  23
ENDBRANCH  21  22
ENDBRANCH  20  21
ENDBRANCH  19  20
ENDBRANCH  18  19
ENDBRANCH  17  18
ENDBRANCH   1  17
TORSDOF 26
ENDMDL
MODEL 4
REMARK VINA RESULT:    -4.335      2.304      6.690
REMARK INTER + INTRA:         -15.626
REMARK INTER:                 -10.867
REMARK INTRA:                  -4.760
REMARK UNBOUND:                -4.702
REMARK SMILES CCCCCCCCCCCCCCCCCCCCCCCCCCCC(=O)[O-]
REMARK SMILES IDX 15 1 16 2 17 3 18 4 19 5 20 6 21 7 22 8 23 9 24 10 25 11
REMARK SMILES IDX 26 12 27 13 28 14 29 15 30 16 14 17 13 18 12 19 11 20 10 21
REMARK SMILES IDX 9 22 8 23 7 24 6 25 5 26 4 27 3 28 2 29 1 30
REMARK H PARENT
REMARK Flexibility Score: inf
ROOT
ATOM      1  C   UNL     1      46.276  -6.054  73.416  1.00  0.00     0.000 C 
ENDROOT
BRANCH   1   2
ATOM      2  C   UNL     1      46.062  -7.520  73.832  1.00  0.00     0.000 C 
BRANCH   2   3
ATOM      3  C   UNL     1      46.669  -7.845  75.205  1.00  0.00     0.000 C 
BRANCH   3   4
ATOM      4  C   UNL     1      46.602  -6.664  76.190  1.00  0.00     0.000 C 
BRANCH   4   5
ATOM      5  C   UNL     1      47.407  -6.844  77.494  1.00  0.00     0.000 C 
BRANCH   5   6
ATOM      6  C   UNL     1      48.390  -8.032  77.500  1.00  0.00     0.000 C 
BRANCH   6   7
ATOM      7  C   UNL     1      49.722  -7.771  78.225  1.00  0.00     0.000 C 
BRANCH   7   8
ATOM      8  C   UNL     1      49.868  -6.312  78.689  1.00  0.00     0.000 C 
BRANCH   8   9
ATOM      9  C   UNL     1      51.215  -5.692  78.283  1.00  0.00     0.000 C 
BRANCH   9  10
ATOM     10  C   UNL     1      51.494  -4.362  79.008  1.00  0.00     0.000 C 
BRANCH  10  11
ATOM     11  C   UNL     1      50.652  -3.194  78.465  1.00  0.00     0.000 C 
BRANCH  11  12
ATOM     12  C   UNL     1      49.392  -2.849  79.283  1.00  0.00     0.006 C 
BRANCH  12  13
ATOM     13  C   UNL     1      48.070  -3.065  78.522  1.00  0.00     0.053 C 
BRANCH  13  14
ATOM     14  C   UNL     1      47.553  -1.798  77.906  1.00  0.00     0.041 C 
ATOM     15  O   UNL     1      48.342  -1.014  77.316  1.00  0.00    -0.550 OA
ATOM     16  O   UNL     1      46.200  -1.494  77.953  1.00  0.00    -0.550 OA
ENDBRANCH  13  14
ENDBRANCH  12  13
ENDBRANCH  11  12
ENDBRANCH  10  11
ENDBRANCH   9  10
ENDBRANCH   8   9
ENDBRANCH   7   8
ENDBRANCH   6   7
ENDBRANCH   5   6
ENDBRANCH   4   5
ENDBRANCH   3   4
ENDBRANCH   2   3
ENDBRANCH   1   2
BRANCH   1  17
ATOM     17  C   UNL     1      47.497  -5.837  72.498  1.00  0.00     0.000 C 
BRANCH  17  18
ATOM     18  C   UNL     1      48.213  -4.504  72.783  1.00  0.00     0.000 C 
BRANCH  18  19
ATOM     19  C   UNL     1      47.921  -3.976  74.199  1.00  0.00     0.000 C 
BRANCH  19  20
ATOM     20  C   UNL     1      49.118  -4.161  75.144  1.00  0.00     0.000 C 
BRANCH  20  21
ATOM     21  C   UNL     1      50.171  -3.049  74.997  1.00  0.00     0.000 C 
BRANCH  21  22
ATOM     22  C   UNL     1      51.607  -3.540  74.721  1.00  0.00    -0.000 C 
BRANCH  22  23
ATOM     23  C   UNL     1      51.883  -3.972  73.268  1.00  0.00    -0.000 C 
BRANCH  23  24
ATOM     24  C   UNL     1      53.188  -3.390  72.707  1.00  0.00    -0.000 C 
BRANCH  24  25
ATOM     25  C   UNL     1      53.304  -1.892  73.024  1.00  0.00    -0.000 C 
BRANCH  25  26
ATOM     26  C   UNL     1      52.601  -0.999  71.987  1.00  0.00    -0.000 C 
BRANCH  26  27
ATOM     27  C   UNL     1      51.202  -0.517  72.422  1.00  0.00    -0.000 C 
BRANCH  27  28
ATOM     28  C   UNL     1      50.075  -1.253  71.681  1.00  0.00    -0.000 C 
BRANCH  28  29
ATOM     29  C   UNL     1      48.701  -0.860  72.238  1.00  0.00    -0.003 C 
ATOM     30  C   UNL     1      48.839   0.071  73.440  1.00  0.00     0.004 C 
ENDBRANCH  28  29
ENDBRANCH  27  28
ENDBRANCH  26  27
ENDBRANCH  25  26
ENDBRANCH  24  25
ENDBRANCH  23  24
ENDBRANCH  22  23
ENDBRANCH  21  22
ENDBRANCH  20  21
ENDBRANCH  19  20
ENDBRANCH  18  19
ENDBRANCH  17  18
ENDBRANCH   1  17
TORSDOF 26
ENDMDL
MODEL 5
REMARK VINA RESULT:    -4.325      2.286      6.649
REMARK INTER + INTRA:         -15.600
REMARK INTER:                 -11.238
REMARK INTRA:                  -4.361
REMARK UNBOUND:                -4.702
REMARK SMILES CCCCCCCCCCCCCCCCCCCCCCCCCCCC(=O)[O-]
REMARK SMILES IDX 15 1 16 2 17 3 18 4 19 5 20 6 21 7 22 8 23 9 24 10 25 11
REMARK SMILES IDX 26 12 27 13 28 14 29 15 30 16 14 17 13 18 12 19 11 20 10 21
REMARK SMILES IDX 9 22 8 23 7 24 6 25 5 26 4 27 3 28 2 29 1 30
REMARK H PARENT
REMARK Flexibility Score: inf
ROOT
ATOM      1  C   UNL     1      46.383  -6.148  73.899  1.00  0.00     0.000 C 
ENDROOT
BRANCH   1   2
ATOM      2  C   UNL     1      46.202  -7.573  74.450  1.00  0.00     0.000 C 
BRANCH   2   3
ATOM      3  C   UNL     1      46.870  -7.773  75.819  1.00  0.00     0.000 C 
BRANCH   3   4
ATOM      4  C   UNL     1      46.863  -6.501  76.686  1.00  0.00     0.000 C 
BRANCH   4   5
ATOM      5  C   UNL     1      47.688  -6.583  77.987  1.00  0.00     0.000 C 
BRANCH   5   6
ATOM      6  C   UNL     1      47.852  -8.000  78.573  1.00  0.00     0.000 C 
BRANCH   6   7
ATOM      7  C   UNL     1      49.283  -8.563  78.526  1.00  0.00     0.000 C 
BRANCH   7   8
ATOM      8  C   UNL     1      50.220  -7.726  77.639  1.00  0.00     0.000 C 
BRANCH   8   9
ATOM      9  C   UNL     1      51.631  -7.585  78.233  1.00  0.00     0.000 C 
BRANCH   9  10
ATOM     10  C   UNL     1      52.131  -6.129  78.225  1.00  0.00     0.000 C 
BRANCH  10  11
ATOM     11  C   UNL     1      51.003  -5.107  77.994  1.00  0.00     0.000 C 
BRANCH  11  12
ATOM     12  C   UNL     1      50.830  -4.052  79.103  1.00  0.00     0.006 C 
BRANCH  12  13
ATOM     13  C   UNL     1      51.671  -2.777  78.896  1.00  0.00     0.053 C 
BRANCH  13  14
ATOM     14  C   UNL     1      52.471  -2.419  80.114  1.00  0.00     0.041 C 
ATOM     15  O   UNL     1      53.215  -3.277  80.657  1.00  0.00    -0.550 OA
ATOM     16  O   UNL     1      52.422  -1.133  80.634  1.00  0.00    -0.550 OA
ENDBRANCH  13  14
ENDBRANCH  12  13
ENDBRANCH  11  12
ENDBRANCH  10  11
ENDBRANCH   9  10
ENDBRANCH   8   9
ENDBRANCH   7   8
ENDBRANCH   6   7
ENDBRANCH   5   6
ENDBRANCH   4   5
ENDBRANCH   3   4
ENDBRANCH   2   3
ENDBRANCH   1   2
BRANCH   1  17
ATOM     17  C   UNL     1      47.704  -5.939  73.129  1.00  0.00     0.000 C 
BRANCH  17  18
ATOM     18  C   UNL     1      48.153  -4.466  73.127  1.00  0.00     0.000 C 
BRANCH  18  19
ATOM     19  C   UNL     1      47.856  -3.765  74.464  1.00  0.00     0.000 C 
BRANCH  19  20
ATOM     20  C   UNL     1      49.067  -3.785  75.410  1.00  0.00     0.000 C 
BRANCH  20  21
ATOM     21  C   UNL     1      50.270  -3.003  74.855  1.00  0.00     0.000 C 
BRANCH  21  22
ATOM     22  C   UNL     1      51.550  -3.837  74.641  1.00  0.00    -0.000 C 
BRANCH  22  23
ATOM     23  C   UNL     1      51.873  -4.173  73.172  1.00  0.00    -0.000 C 
BRANCH  23  24
ATOM     24  C   UNL     1      53.114  -3.437  72.648  1.00  0.00    -0.000 C 
BRANCH  24  25
ATOM     25  C   UNL     1      53.121  -1.972  73.108  1.00  0.00    -0.000 C 
BRANCH  25  26
ATOM     26  C   UNL     1      52.652  -0.995  72.018  1.00  0.00    -0.000 C 
BRANCH  26  27
ATOM     27  C   UNL     1      51.243  -0.415  72.261  1.00  0.00    -0.000 C 
BRANCH  27  28
ATOM     28  C   UNL     1      50.140  -1.277  71.629  1.00  0.00    -0.000 C 
BRANCH  28  29
ATOM     29  C   UNL     1      48.757  -0.877  72.155  1.00  0.00    -0.003 C 
ATOM     30  C   UNL     1      48.874   0.090  73.331  1.00  0.00     0.004 C 
ENDBRANCH  28  29
ENDBRANCH  27  28
ENDBRANCH  26  27
ENDBRANCH  25  26
ENDBRANCH  24  25
ENDBRANCH  23  24
ENDBRANCH  22  23
ENDBRANCH  21  22
ENDBRANCH  20  21
ENDBRANCH  19  20
ENDBRANCH  18  19
ENDBRANCH  17  18
ENDBRANCH   1  17
TORSDOF 26
ENDMDL
MODEL 6
REMARK VINA RESULT:    -4.310      3.950      7.999
REMARK INTER + INTRA:         -15.563
REMARK INTER:                  -9.976
REMARK INTRA:                  -5.587
REMARK UNBOUND:                -4.702
REMARK SMILES CCCCCCCCCCCCCCCCCCCCCCCCCCCC(=O)[O-]
REMARK SMILES IDX 15 1 16 2 17 3 18 4 19 5 20 6 21 7 22 8 23 9 24 10 25 11
REMARK SMILES IDX 26 12 27 13 28 14 29 15 30 16 14 17 13 18 12 19 11 20 10 21
REMARK SMILES IDX 9 22 8 23 7 24 6 25 5 26 4 27 3 28 2 29 1 30
REMARK H PARENT
REMARK Flexibility Score: inf
ROOT
ATOM      1  C   UNL     1      49.273  -0.314  77.231  1.00  0.00     0.000 C 
ENDROOT
BRANCH   1   2
ATOM      2  C   UNL     1      49.099   0.485  78.535  1.00  0.00     0.000 C 
BRANCH   2   3
ATOM      3  C   UNL     1      50.107   0.080  79.621  1.00  0.00     0.000 C 
BRANCH   3   4
ATOM      4  C   UNL     1      51.091  -1.009  79.156  1.00  0.00     0.000 C 
BRANCH   4   5
ATOM      5  C   UNL     1      51.458  -2.065  80.220  1.00  0.00     0.000 C 
BRANCH   5   6
ATOM      6  C   UNL     1      51.899  -3.434  79.662  1.00  0.00     0.000 C 
BRANCH   6   7
ATOM      7  C   UNL     1      51.116  -3.918  78.430  1.00  0.00     0.000 C 
BRANCH   7   8
ATOM      8  C   UNL     1      49.827  -4.668  78.805  1.00  0.00     0.000 C 
BRANCH   8   9
ATOM      9  C   UNL     1      48.572  -3.788  78.690  1.00  0.00     0.000 C 
BRANCH   9  10
ATOM     10  C   UNL     1      48.025  -3.360  80.064  1.00  0.00     0.000 C 
BRANCH  10  11
ATOM     11  C   UNL     1      47.063  -2.161  79.982  1.00  0.00     0.000 C 
BRANCH  11  12
ATOM     12  C   UNL     1      46.990  -1.282  81.245  1.00  0.00     0.006 C 
BRANCH  12  13
ATOM     13  C   UNL     1      47.840  -1.801  82.422  1.00  0.00     0.053 C 
BRANCH  13  14
ATOM     14  C   UNL     1      47.418  -1.208  83.734  1.00  0.00     0.041 C 
ATOM     15  O   UNL     1      46.434  -0.425  83.787  1.00  0.00    -0.550 OA
ATOM     16  O   UNL     1      48.088  -1.541  84.903  1.00  0.00    -0.550 OA
ENDBRANCH  13  14
ENDBRANCH  12  13
ENDBRANCH  11  12
ENDBRANCH  10  11
ENDBRANCH   9  10
ENDBRANCH   8   9
ENDBRANCH   7   8
ENDBRANCH   6   7
ENDBRANCH   5   6
ENDBRANCH   4   5
ENDBRANCH   3   4
ENDBRANCH   2   3
ENDBRANCH   1   2
BRANCH   1  17
ATOM     17  C   UNL     1      47.941  -0.739  76.577  1.00  0.00     0.000 C 
BRANCH  17  18
ATOM     18  C   UNL     1      47.739  -0.096  75.193  1.00  0.00     0.000 C 
BRANCH  18  19
ATOM     19  C   UNL     1      48.994  -0.203  74.310  1.00  0.00     0.000 C 
BRANCH  19  20
ATOM     20  C   UNL     1      48.646  -0.436  72.832  1.00  0.00     0.000 C 
BRANCH  20  21
ATOM     21  C   UNL     1      49.833  -0.980  72.018  1.00  0.00     0.000 C 
BRANCH  21  22
ATOM     22  C   UNL     1      51.158  -0.212  72.201  1.00  0.00    -0.000 C 
BRANCH  22  23
ATOM     23  C   UNL     1      52.429  -1.083  72.169  1.00  0.00    -0.000 C 
BRANCH  23  24
ATOM     24  C   UNL     1      52.167  -2.540  72.572  1.00  0.00    -0.000 C 
BRANCH  24  25
ATOM     25  C   UNL     1      52.533  -2.779  74.044  1.00  0.00    -0.000 C 
BRANCH  25  26
ATOM     26  C   UNL     1      51.305  -2.839  74.969  1.00  0.00    -0.000 C 
BRANCH  26  27
ATOM     27  C   UNL     1      50.445  -4.106  74.785  1.00  0.00    -0.000 C 
BRANCH  27  28
ATOM     28  C   UNL     1      48.943  -3.819  74.932  1.00  0.00    -0.000 C 
BRANCH  28  29
ATOM     29  C   UNL     1      48.213  -4.007  73.597  1.00  0.00    -0.003 C 
ATOM     30  C   UNL     1      49.114  -4.680  72.566  1.00  0.00     0.004 C 
ENDBRANCH  28  29
ENDBRANCH  27  28
ENDBRANCH  26  27
ENDBRANCH  25  26
ENDBRANCH  24  25
ENDBRANCH  23  24
ENDBRANCH  22  23
ENDBRANCH  21  22
ENDBRANCH  20  21
ENDBRANCH  19  20
ENDBRANCH  18  19
ENDBRANCH  17  18
ENDBRANCH   1  17
TORSDOF 26
ENDMDL
MODEL 7
REMARK VINA RESULT:    -4.288      1.617      6.425
REMARK INTER + INTRA:         -15.508
REMARK INTER:                 -10.418
REMARK INTRA:                  -5.089
REMARK UNBOUND:                -4.702
REMARK SMILES CCCCCCCCCCCCCCCCCCCCCCCCCCCC(=O)[O-]
REMARK SMILES IDX 15 1 16 2 17 3 18 4 19 5 20 6 21 7 22 8 23 9 24 10 25 11
REMARK SMILES IDX 26 12 27 13 28 14 29 15 30 16 14 17 13 18 12 19 11 20 10 21
REMARK SMILES IDX 9 22 8 23 7 24 6 25 5 26 4 27 3 28 2 29 1 30
REMARK H PARENT
REMARK Flexibility Score: inf
ROOT
ATOM      1  C   UNL     1      49.727  -4.316  74.614  1.00  0.00     0.000 C 
ENDROOT
BRANCH   1   2
ATOM      2  C   UNL     1      48.338  -3.974  74.046  1.00  0.00     0.000 C 
BRANCH   2   3
ATOM      3  C   UNL     1      48.111  -4.550  72.640  1.00  0.00     0.000 C 
BRANCH   3   4
ATOM      4  C   UNL     1      47.154  -5.757  72.629  1.00  0.00     0.000 C 
BRANCH   4   5
ATOM      5  C   UNL     1      47.832  -7.139  72.736  1.00  0.00     0.000 C 
BRANCH   5   6
ATOM      6  C   UNL     1      47.427  -7.976  73.967  1.00  0.00     0.000 C 
BRANCH   6   7
ATOM      7  C   UNL     1      48.016  -7.495  75.304  1.00  0.00     0.000 C 
BRANCH   7   8
ATOM      8  C   UNL     1      46.964  -6.834  76.211  1.00  0.00     0.000 C 
BRANCH   8   9
ATOM      9  C   UNL     1      47.578  -5.826  77.196  1.00  0.00     0.000 C 
BRANCH   9  10
ATOM     10  C   UNL     1      48.012  -6.485  78.518  1.00  0.00     0.000 C 
BRANCH  10  11
ATOM     11  C   UNL     1      49.538  -6.648  78.636  1.00  0.00     0.000 C 
BRANCH  11  12
ATOM     12  C   UNL     1      50.371  -5.440  78.168  1.00  0.00     0.006 C 
BRANCH  12  13
ATOM     13  C   UNL     1      51.850  -5.491  78.598  1.00  0.00     0.053 C 
BRANCH  13  14
ATOM     14  C   UNL     1      52.654  -6.445  77.764  1.00  0.00     0.041 C 
ATOM     15  O   UNL     1      52.668  -6.332  76.511  1.00  0.00    -0.550 OA
ATOM     16  O   UNL     1      53.410  -7.440  78.368  1.00  0.00    -0.550 OA
ENDBRANCH  13  14
ENDBRANCH  12  13
ENDBRANCH  11  12
ENDBRANCH  10  11
ENDBRANCH   9  10
ENDBRANCH   8   9
ENDBRANCH   7   8
ENDBRANCH   6   7
ENDBRANCH   5   6
ENDBRANCH   4   5
ENDBRANCH   3   4
ENDBRANCH   2   3
ENDBRANCH   1   2
BRANCH   1  17
ATOM     17  C   UNL     1      50.748  -4.757  73.544  1.00  0.00     0.000 C 
BRANCH  17  18
ATOM     18  C   UNL     1      52.137  -4.133  73.769  1.00  0.00     0.000 C 
BRANCH  18  19
ATOM     19  C   UNL     1      52.063  -2.614  74.002  1.00  0.00     0.000 C 
BRANCH  19  20
ATOM     20  C   UNL     1      52.525  -1.816  72.772  1.00  0.00     0.000 C 
BRANCH  20  21
ATOM     21  C   UNL     1      51.461  -0.825  72.271  1.00  0.00     0.000 C 
BRANCH  21  22
ATOM     22  C   UNL     1      50.151  -1.469  71.772  1.00  0.00    -0.000 C 
BRANCH  22  23
ATOM     23  C   UNL     1      48.859  -0.806  72.287  1.00  0.00    -0.000 C 
BRANCH  23  24
ATOM     24  C   UNL     1      49.122   0.295  73.324  1.00  0.00    -0.000 C 
BRANCH  24  25
ATOM     25  C   UNL     1      47.885   0.533  74.201  1.00  0.00    -0.000 C 
BRANCH  25  26
ATOM     26  C   UNL     1      48.168   0.360  75.703  1.00  0.00    -0.000 C 
BRANCH  26  27
ATOM     27  C   UNL     1      48.957  -0.920  76.048  1.00  0.00    -0.000 C 
BRANCH  27  28
ATOM     28  C   UNL     1      48.222  -1.802  77.069  1.00  0.00    -0.000 C 
BRANCH  28  29
ATOM     29  C   UNL     1      48.998  -1.884  78.388  1.00  0.00    -0.003 C 
ATOM     30  C   UNL     1      48.315  -2.831  79.371  1.00  0.00     0.004 C 
ENDBRANCH  28  29
ENDBRANCH  27  28
ENDBRANCH  26  27
ENDBRANCH  25  26
ENDBRANCH  24  25
ENDBRANCH  23  24
ENDBRANCH  22  23
ENDBRANCH  21  22
ENDBRANCH  20  21
ENDBRANCH  19  20
ENDBRANCH  18  19
ENDBRANCH  17  18
ENDBRANCH   1  17
TORSDOF 26
ENDMDL
MODEL 8
REMARK VINA RESULT:    -4.283      1.960      5.285
REMARK INTER + INTRA:         -15.496
REMARK INTER:                 -10.344
REMARK INTRA:                  -5.152
REMARK UNBOUND:                -4.702
REMARK SMILES CCCCCCCCCCCCCCCCCCCCCCCCCCCC(=O)[O-]
REMARK SMILES IDX 15 1 16 2 17 3 18 4 19 5 20 6 21 7 22 8 23 9 24 10 25 11
REMARK SMILES IDX 26 12 27 13 28 14 29 15 30 16 14 17 13 18 12 19 11 20 10 21
REMARK SMILES IDX 9 22 8 23 7 24 6 25 5 26 4 27 3 28 2 29 1 30
REMARK H PARENT
REMARK Flexibility Score: inf
ROOT
ATOM      1  C   UNL     1      44.427  -6.670  75.452  1.00  0.00     0.000 C 
ENDROOT
BRANCH   1   2
ATOM      2  C   UNL     1      45.480  -7.778  75.626  1.00  0.00     0.000 C 
BRANCH   2   3
ATOM      3  C   UNL     1      45.358  -8.888  74.571  1.00  0.00     0.000 C 
BRANCH   3   4
ATOM      4  C   UNL     1      46.452  -9.965  74.698  1.00  0.00     0.000 C 
BRANCH   4   5
ATOM      5  C   UNL     1      47.641  -9.816  73.725  1.00  0.00     0.000 C 
BRANCH   5   6
ATOM      6  C   UNL     1      47.263  -9.735  72.233  1.00  0.00     0.000 C 
BRANCH   6   7
ATOM      7  C   UNL     1      47.685  -8.437  71.523  1.00  0.00     0.000 C 
BRANCH   7   8
ATOM      8  C   UNL     1      47.840  -7.254  72.494  1.00  0.00     0.000 C 
BRANCH   8   9
ATOM      9  C   UNL     1      47.120  -5.986  72.006  1.00  0.00     0.000 C 
BRANCH   9  10
ATOM     10  C   UNL     1      47.853  -4.697  72.420  1.00  0.00     0.000 C 
BRANCH  10  11
ATOM     11  C   UNL     1      49.361  -4.908  72.644  1.00  0.00     0.000 C 
BRANCH  11  12
ATOM     12  C   UNL     1      50.271  -3.776  72.129  1.00  0.00     0.006 C 
BRANCH  12  13
ATOM     13  C   UNL     1      51.728  -3.865  72.625  1.00  0.00     0.053 C 
BRANCH  13  14
ATOM     14  C   UNL     1      52.339  -2.513  72.845  1.00  0.00     0.041 C 
ATOM     15  O   UNL     1      53.385  -2.396  73.535  1.00  0.00    -0.550 OA
ATOM     16  O   UNL     1      51.776  -1.384  72.266  1.00  0.00    -0.550 OA
ENDBRANCH  13  14
ENDBRANCH  12  13
ENDBRANCH  11  12
ENDBRANCH  10  11
ENDBRANCH   9  10
ENDBRANCH   8   9
ENDBRANCH   7   8
ENDBRANCH   6   7
ENDBRANCH   5   6
ENDBRANCH   4   5
ENDBRANCH   3   4
ENDBRANCH   2   3
ENDBRANCH   1   2
BRANCH   1  17
ATOM     17  C   UNL     1      45.014  -5.313  75.011  1.00  0.00     0.000 C 
BRANCH  17  18
ATOM     18  C   UNL     1      46.432  -5.082  75.564  1.00  0.00     0.000 C 
BRANCH  18  19
ATOM     19  C   UNL     1      46.638  -3.640  76.059  1.00  0.00     0.000 C 
BRANCH  19  20
ATOM     20  C   UNL     1      47.794  -2.938  75.331  1.00  0.00     0.000 C 
BRANCH  20  21
ATOM     21  C   UNL     1      49.030  -2.741  76.226  1.00  0.00     0.000 C 
BRANCH  21  22
ATOM     22  C   UNL     1      49.819  -4.028  76.544  1.00  0.00    -0.000 C 
BRANCH  22  23
ATOM     23  C   UNL     1      50.468  -4.069  77.941  1.00  0.00    -0.000 C 
BRANCH  23  24
ATOM     24  C   UNL     1      49.963  -5.233  78.803  1.00  0.00    -0.000 C 
BRANCH  24  25
ATOM     25  C   UNL     1      48.436  -5.180  78.961  1.00  0.00    -0.000 C 
BRANCH  25  26
ATOM     26  C   UNL     1      47.750  -6.518  78.638  1.00  0.00    -0.000 C 
BRANCH  26  27
ATOM     27  C   UNL     1      48.729  -7.693  78.444  1.00  0.00    -0.000 C 
BRANCH  27  28
ATOM     28  C   UNL     1      48.703  -8.245  77.011  1.00  0.00    -0.000 C 
BRANCH  28  29
ATOM     29  C   UNL     1      50.116  -8.312  76.419  1.00  0.00    -0.003 C 
ATOM     30  C   UNL     1      50.262  -7.362  75.233  1.00  0.00     0.004 C 
ENDBRANCH  28  29
ENDBRANCH  27  28
ENDBRANCH  26  27
ENDBRANCH  25  26
ENDBRANCH  24  25
ENDBRANCH  23  24
ENDBRANCH  22  23
ENDBRANCH  21  22
ENDBRANCH  20  21
ENDBRANCH  19  20
ENDBRANCH  18  19
ENDBRANCH  17  18
ENDBRANCH   1  17
TORSDOF 26
ENDMDL
MODEL 9
REMARK VINA RESULT:    -4.224      2.577      6.487
REMARK INTER + INTRA:         -15.348
REMARK INTER:                 -10.078
REMARK INTRA:                  -5.269
REMARK UNBOUND:                -4.702
REMARK SMILES CCCCCCCCCCCCCCCCCCCCCCCCCCCC(=O)[O-]
REMARK SMILES IDX 15 1 16 2 17 3 18 4 19 5 20 6 21 7 22 8 23 9 24 10 25 11
REMARK SMILES IDX 26 12 27 13 28 14 29 15 30 16 14 17 13 18 12 19 11 20 10 21
REMARK SMILES IDX 9 22 8 23 7 24 6 25 5 26 4 27 3 28 2 29 1 30
REMARK H PARENT
REMARK Flexibility Score: inf
ROOT
ATOM      1  C   UNL     1      52.031  -5.618  74.462  1.00  0.00     0.000 C 
ENDROOT
BRANCH   1   2
ATOM      2  C   UNL     1      51.311  -5.931  75.785  1.00  0.00     0.000 C 
BRANCH   2   3
ATOM      3  C   UNL     1      52.283  -6.252  76.931  1.00  0.00     0.000 C 
BRANCH   3   4
ATOM      4  C   UNL     1      51.928  -5.530  78.244  1.00  0.00     0.000 C 
BRANCH   4   5
ATOM      5  C   UNL     1      50.433  -5.547  78.624  1.00  0.00     0.000 C 
BRANCH   5   6
ATOM      6  C   UNL     1      49.775  -6.942  78.640  1.00  0.00     0.000 C 
BRANCH   6   7
ATOM      7  C   UNL     1      48.343  -6.993  78.078  1.00  0.00     0.000 C 
BRANCH   7   8
ATOM      8  C   UNL     1      47.861  -5.628  77.559  1.00  0.00     0.000 C 
BRANCH   8   9
ATOM      9  C   UNL     1      46.970  -5.747  76.312  1.00  0.00     0.000 C 
BRANCH   9  10
ATOM     10  C   UNL     1      47.786  -5.949  75.022  1.00  0.00     0.000 C 
BRANCH  10  11
ATOM     11  C   UNL     1      47.379  -4.983  73.896  1.00  0.00     0.000 C 
BRANCH  11  12
ATOM     12  C   UNL     1      47.521  -5.536  72.465  1.00  0.00     0.006 C 
BRANCH  12  13
ATOM     13  C   UNL     1      48.128  -6.951  72.395  1.00  0.00     0.053 C 
BRANCH  13  14
ATOM     14  C   UNL     1      47.131  -7.977  71.938  1.00  0.00     0.041 C 
ATOM     15  O   UNL     1      47.125  -8.362  70.740  1.00  0.00    -0.550 OA
ATOM     16  O   UNL     1      46.230  -8.531  72.837  1.00  0.00    -0.550 OA
ENDBRANCH  13  14
ENDBRANCH  12  13
ENDBRANCH  11  12
ENDBRANCH  10  11
ENDBRANCH   9  10
ENDBRANCH   8   9
ENDBRANCH   7   8
ENDBRANCH   6   7
ENDBRANCH   5   6
ENDBRANCH   4   5
ENDBRANCH   3   4
ENDBRANCH   2   3
ENDBRANCH   1   2
BRANCH   1  17
ATOM     17  C   UNL     1      51.138  -4.923  73.413  1.00  0.00     0.000 C 
BRANCH  17  18
ATOM     18  C   UNL     1      51.890  -3.825  72.640  1.00  0.00     0.000 C 
BRANCH  18  19
ATOM     19  C   UNL     1      52.797  -2.984  73.555  1.00  0.00     0.000 C 
BRANCH  19  20
ATOM     20  C   UNL     1      53.155  -1.627  72.928  1.00  0.00     0.000 C 
BRANCH  20  21
ATOM     21  C   UNL     1      52.130  -1.168  71.877  1.00  0.00     0.000 C 
BRANCH  21  22
ATOM     22  C   UNL     1      50.943  -0.354  72.433  1.00  0.00    -0.000 C 
BRANCH  22  23
ATOM     23  C   UNL     1      49.549  -0.907  72.081  1.00  0.00    -0.000 C 
BRANCH  23  24
ATOM     24  C   UNL     1      48.940  -1.757  73.206  1.00  0.00    -0.000 C 
BRANCH  24  25
ATOM     25  C   UNL     1      48.779  -0.934  74.492  1.00  0.00    -0.000 C 
BRANCH  25  26
ATOM     26  C   UNL     1      48.533  -1.803  75.737  1.00  0.00    -0.000 C 
BRANCH  26  27
ATOM     27  C   UNL     1      49.609  -2.885  75.968  1.00  0.00    -0.000 C 
BRANCH  27  28
ATOM     28  C   UNL     1      50.890  -2.312  76.592  1.00  0.00    -0.000 C 
BRANCH  28  29
ATOM     29  C   UNL     1      50.603  -1.682  77.960  1.00  0.00    -0.003 C 
ATOM     30  C   UNL     1      51.897  -1.275  78.660  1.00  0.00     0.004 C 
ENDBRANCH  28  29
ENDBRANCH  27  28
ENDBRANCH  26  27
ENDBRANCH  25  26
ENDBRANCH  24  25
ENDBRANCH  23  24
ENDBRANCH  22  23
ENDBRANCH  21  22
ENDBRANCH  20  21
ENDBRANCH  19  20
ENDBRANCH  18  19
ENDBRANCH  17  18
ENDBRANCH   1  17
TORSDOF 26
ENDMDL
