MODEL 1
REMARK VINA RESULT:    -4.270      0.000      0.000
REMARK INTER + INTRA:         -15.801
REMARK INTER:                 -10.760
REMARK INTRA:                  -5.041
REMARK UNBOUND:                -5.041
REMARK SMILES CCCCCCCCCCCCCCCCCCCCCCCCCCCC(=O)[O-]
REMARK SMILES IDX 15 1 16 2 17 3 18 4 19 5 20 6 21 7 22 8 23 9 24 10 25 11
REMARK SMILES IDX 26 12 27 13 28 14 29 15 30 16 14 17 13 18 12 19 11 20 10 21
REMARK SMILES IDX 9 22 8 23 7 24 6 25 5 26 4 27 3 28 2 29 1 30
REMARK H PARENT
REMARK Flexibility Score: inf
ROOT
ATOM      1  C   UNL     1       5.241  -5.597 -21.419  1.00  0.00     0.000 C 
ENDROOT
BRANCH   1   2
ATOM      2  C   UNL     1       5.104  -7.126 -21.456  1.00  0.00     0.000 C 
BRANCH   2   3
ATOM      3  C   UNL     1       5.741  -7.708 -22.725  1.00  0.00     0.000 C 
BRANCH   3   4
ATOM      4  C   UNL     1       6.298  -9.128 -22.518  1.00  0.00     0.000 C 
BRANCH   4   5
ATOM      5  C   UNL     1       7.099  -9.662 -23.724  1.00  0.00     0.000 C 
BRANCH   5   6
ATOM      6  C   UNL     1       6.776 -11.136 -24.030  1.00  0.00     0.000 C 
BRANCH   6   7
ATOM      7  C   UNL     1       5.345 -11.523 -23.625  1.00  0.00     0.000 C 
BRANCH   7   8
ATOM      8  C   UNL     1       5.309 -12.710 -22.652  1.00  0.00     0.000 C 
BRANCH   8   9
ATOM      9  C   UNL     1       4.132 -12.582 -21.673  1.00  0.00     0.000 C 
BRANCH   9  10
ATOM     10  C   UNL     1       3.351 -11.269 -21.863  1.00  0.00     0.000 C 
BRANCH  10  11
ATOM     11  C   UNL     1       3.253 -10.454 -20.561  1.00  0.00     0.000 C 
BRANCH  11  12
ATOM     12  C   UNL     1       1.799 -10.206 -20.119  1.00  0.00     0.006 C 
BRANCH  12  13
ATOM     13  C   UNL     1       0.813 -11.309 -20.536  1.00  0.00     0.053 C 
BRANCH  13  14
ATOM     14  C   UNL     1      -0.611 -10.865 -20.411  1.00  0.00     0.041 C 
ATOM     15  O   UNL     1      -1.547 -11.619 -20.790  1.00  0.00    -0.550 OA
ATOM     16  O   UNL     1      -0.909  -9.631 -19.848  1.00  0.00    -0.550 OA
ENDBRANCH  13  14
ENDBRANCH  12  13
ENDBRANCH  11  12
ENDBRANCH  10  11
ENDBRANCH   9  10
ENDBRANCH   8   9
ENDBRANCH   7   8
ENDBRANCH   6   7
ENDBRANCH   5   6
ENDBRANCH   4   5
ENDBRANCH   3   4
ENDBRANCH   2   3
ENDBRANCH   1   2
BRANCH   1  17
ATOM     17  C   UNL     1       4.761  -4.991 -20.090  1.00  0.00     0.000 C 
BRANCH  17  18
ATOM     18  C   UNL     1       4.294  -6.058 -19.088  1.00  0.00     0.000 C 
BRANCH  18  19
ATOM     19  C   UNL     1       3.178  -5.516 -18.183  1.00  0.00     0.000 C 
BRANCH  19  20
ATOM     20  C   UNL     1       2.957  -4.000 -18.343  1.00  0.00     0.000 C 
BRANCH  20  21
ATOM     21  C   UNL     1       1.506  -3.577 -18.637  1.00  0.00     0.000 C 
BRANCH  21  22
ATOM     22  C   UNL     1       1.303  -3.094 -20.082  1.00  0.00    -0.000 C 
BRANCH  22  23
ATOM     23  C   UNL     1       1.232  -4.249 -21.098  1.00  0.00    -0.000 C 
BRANCH  23  24
ATOM     24  C   UNL     1       0.464  -5.495 -20.620  1.00  0.00    -0.000 C 
BRANCH  24  25
ATOM     25  C   UNL     1       1.097  -6.810 -21.104  1.00  0.00    -0.000 C 
BRANCH  25  26
ATOM     26  C   UNL     1       1.623  -6.726 -22.549  1.00  0.00    -0.000 C 
BRANCH  26  27
ATOM     27  C   UNL     1       2.048  -8.071 -23.168  1.00  0.00    -0.000 C 
BRANCH  27  28
ATOM     28  C   UNL     1       0.853  -8.960 -23.551  1.00  0.00    -0.000 C 
BRANCH  28  29
ATOM     29  C   UNL     1       1.122  -9.787 -24.818  1.00  0.00    -0.003 C 
ATOM     30  C   UNL     1       0.996 -11.292 -24.583  1.00  0.00     0.004 C 
ENDBRANCH  28  29
ENDBRANCH  27  28
ENDBRANCH  26  27
ENDBRANCH  25  26
ENDBRANCH  24  25
ENDBRANCH  23  24
ENDBRANCH  22  23
ENDBRANCH  21  22
ENDBRANCH  20  21
ENDBRANCH  19  20
ENDBRANCH  18  19
ENDBRANCH  17  18
ENDBRANCH   1  17
TORSDOF 26
ENDMDL
MODEL 2
REMARK VINA RESULT:    -4.064      1.981      3.858
REMARK INTER + INTRA:         -15.283
REMARK INTER:                 -10.020
REMARK INTRA:                  -5.263
REMARK UNBOUND:                -5.041
REMARK SMILES CCCCCCCCCCCCCCCCCCCCCCCCCCCC(=O)[O-]
REMARK SMILES IDX 15 1 16 2 17 3 18 4 19 5 20 6 21 7 22 8 23 9 24 10 25 11
REMARK SMILES IDX 26 12 27 13 28 14 29 15 30 16 14 17 13 18 12 19 11 20 10 21
REMARK SMILES IDX 9 22 8 23 7 24 6 25 5 26 4 27 3 28 2 29 1 30
REMARK H PARENT
REMARK Flexibility Score: inf
ROOT
ATOM      1  C   UNL     1       0.569  -6.858 -20.649  1.00  0.00     0.000 C 
ENDROOT
BRANCH   1   2
ATOM      2  C   UNL     1       0.922  -8.256 -21.177  1.00  0.00     0.000 C 
BRANCH   2   3
ATOM      3  C   UNL     1       2.359  -8.299 -21.713  1.00  0.00     0.000 C 
BRANCH   3   4
ATOM      4  C   UNL     1       3.294  -9.167 -20.852  1.00  0.00     0.000 C 
BRANCH   4   5
ATOM      5  C   UNL     1       4.753  -8.667 -20.822  1.00  0.00     0.000 C 
BRANCH   5   6
ATOM      6  C   UNL     1       5.035  -7.627 -21.921  1.00  0.00     0.000 C 
BRANCH   6   7
ATOM      7  C   UNL     1       6.241  -8.004 -22.796  1.00  0.00     0.000 C 
BRANCH   7   8
ATOM      8  C   UNL     1       6.659  -9.471 -22.624  1.00  0.00     0.000 C 
BRANCH   8   9
ATOM      9  C   UNL     1       6.946 -10.123 -23.985  1.00  0.00     0.000 C 
BRANCH   9  10
ATOM     10  C   UNL     1       6.527 -11.603 -24.028  1.00  0.00     0.000 C 
BRANCH  10  11
ATOM     11  C   UNL     1       5.259 -11.876 -23.200  1.00  0.00     0.000 C 
BRANCH  11  12
ATOM     12  C   UNL     1       3.963 -11.637 -23.995  1.00  0.00     0.006 C 
BRANCH  12  13
ATOM     13  C   UNL     1       2.674 -11.846 -23.185  1.00  0.00     0.053 C 
BRANCH  13  14
ATOM     14  C   UNL     1       1.456 -11.419 -23.945  1.00  0.00     0.041 C 
ATOM     15  O   UNL     1       1.411 -10.282 -24.484  1.00  0.00    -0.550 OA
ATOM     16  O   UNL     1       0.382 -12.289 -24.084  1.00  0.00    -0.550 OA
ENDBRANCH  13  14
ENDBRANCH  12  13
ENDBRANCH  11  12
ENDBRANCH  10  11
ENDBRANCH   9  10
ENDBRANCH   8   9
ENDBRANCH   7   8
ENDBRANCH   6   7
ENDBRANCH   5   6
ENDBRANCH   4   5
ENDBRANCH   3   4
ENDBRANCH   2   3
ENDBRANCH   1   2
BRANCH   1  17
ATOM     17  C   UNL     1       1.792  -5.930 -20.568  1.00  0.00     0.000 C 
BRANCH  17  18
ATOM     18  C   UNL     1       1.859  -5.153 -19.244  1.00  0.00     0.000 C 
BRANCH  18  19
ATOM     19  C   UNL     1       2.993  -5.677 -18.351  1.00  0.00     0.000 C 
BRANCH  19  20
ATOM     20  C   UNL     1       4.390  -5.455 -18.961  1.00  0.00     0.000 C 
BRANCH  20  21
ATOM     21  C   UNL     1       5.143  -4.217 -18.439  1.00  0.00     0.000 C 
BRANCH  21  22
ATOM     22  C   UNL     1       4.923  -2.970 -19.310  1.00  0.00    -0.000 C 
BRANCH  22  23
ATOM     23  C   UNL     1       4.649  -3.308 -20.787  1.00  0.00    -0.000 C 
BRANCH  23  24
ATOM     24  C   UNL     1       3.409  -2.626 -21.395  1.00  0.00    -0.000 C 
BRANCH  24  25
ATOM     25  C   UNL     1       3.127  -3.076 -22.839  1.00  0.00    -0.000 C 
BRANCH  25  26
ATOM     26  C   UNL     1       4.051  -4.217 -23.302  1.00  0.00    -0.000 C 
BRANCH  26  27
ATOM     27  C   UNL     1       3.340  -5.382 -24.017  1.00  0.00    -0.000 C 
BRANCH  27  28
ATOM     28  C   UNL     1       1.814  -5.203 -24.087  1.00  0.00    -0.000 C 
BRANCH  28  29
ATOM     29  C   UNL     1       1.158  -6.161 -25.092  1.00  0.00    -0.003 C 
ATOM     30  C   UNL     1       0.023  -6.980 -24.478  1.00  0.00     0.004 C 
ENDBRANCH  28  29
ENDBRANCH  27  28
ENDBRANCH  26  27
ENDBRANCH  25  26
ENDBRANCH  24  25
ENDBRANCH  23  24
ENDBRANCH  22  23
ENDBRANCH  21  22
ENDBRANCH  20  21
ENDBRANCH  19  20
ENDBRANCH  18  19
ENDBRANCH  17  18
ENDBRANCH   1  17
TORSDOF 26
ENDMDL
MODEL 3
REMARK VINA RESULT:    -4.048      1.763      3.400
REMARK INTER + INTRA:         -15.242
REMARK INTER:                 -10.105
REMARK INTRA:                  -5.138
REMARK UNBOUND:                -5.041
REMARK SMILES CCCCCCCCCCCCCCCCCCCCCCCCCCCC(=O)[O-]
REMARK SMILES IDX 15 1 16 2 17 3 18 4 19 5 20 6 21 7 22 8 23 9 24 10 25 11
REMARK SMILES IDX 26 12 27 13 28 14 29 15 30 16 14 17 13 18 12 19 11 20 10 21
REMARK SMILES IDX 9 22 8 23 7 24 6 25 5 26 4 27 3 28 2 29 1 30
REMARK H PARENT
REMARK Flexibility Score: inf
ROOT
ATOM      1  C   UNL     1       4.370  -2.273 -21.395  1.00  0.00     0.000 C 
ENDROOT
BRANCH   1   2
ATOM      2  C   UNL     1       4.025  -3.627 -22.032  1.00  0.00     0.000 C 
BRANCH   2   3
ATOM      3  C   UNL     1       5.109  -4.062 -23.027  1.00  0.00     0.000 C 
BRANCH   3   4
ATOM      4  C   UNL     1       5.062  -5.568 -23.342  1.00  0.00     0.000 C 
BRANCH   4   5
ATOM      5  C   UNL     1       5.662  -6.454 -22.230  1.00  0.00     0.000 C 
BRANCH   5   6
ATOM      6  C   UNL     1       4.961  -7.821 -22.133  1.00  0.00     0.000 C 
BRANCH   6   7
ATOM      7  C   UNL     1       5.955  -8.986 -21.999  1.00  0.00     0.000 C 
BRANCH   7   8
ATOM      8  C   UNL     1       6.658  -9.317 -23.322  1.00  0.00     0.000 C 
BRANCH   8   9
ATOM      9  C   UNL     1       6.414 -10.782 -23.721  1.00  0.00     0.000 C 
BRANCH   9  10
ATOM     10  C   UNL     1       5.242 -11.413 -22.949  1.00  0.00     0.000 C 
BRANCH  10  11
ATOM     11  C   UNL     1       4.014 -11.654 -23.845  1.00  0.00     0.000 C 
BRANCH  11  12
ATOM     12  C   UNL     1       2.711 -11.107 -23.233  1.00  0.00     0.006 C 
BRANCH  12  13
ATOM     13  C   UNL     1       2.815 -10.739 -21.744  1.00  0.00     0.053 C 
BRANCH  13  14
ATOM     14  C   UNL     1       1.560 -11.066 -20.996  1.00  0.00     0.041 C 
ATOM     15  O   UNL     1       0.557 -11.520 -21.606  1.00  0.00    -0.550 OA
ATOM     16  O   UNL     1       1.508 -10.897 -19.618  1.00  0.00    -0.550 OA
ENDBRANCH  13  14
ENDBRANCH  12  13
ENDBRANCH  11  12
ENDBRANCH  10  11
ENDBRANCH   9  10
ENDBRANCH   8   9
ENDBRANCH   7   8
ENDBRANCH   6   7
ENDBRANCH   5   6
ENDBRANCH   4   5
ENDBRANCH   3   4
ENDBRANCH   2   3
ENDBRANCH   1   2
BRANCH   1  17
ATOM     17  C   UNL     1       4.243  -2.289 -19.864  1.00  0.00     0.000 C 
BRANCH  17  18
ATOM     18  C   UNL     1       5.423  -2.997 -19.179  1.00  0.00     0.000 C 
BRANCH  18  19
ATOM     19  C   UNL     1       4.931  -4.086 -18.215  1.00  0.00     0.000 C 
BRANCH  19  20
ATOM     20  C   UNL     1       4.674  -5.436 -18.912  1.00  0.00     0.000 C 
BRANCH  20  21
ATOM     21  C   UNL     1       3.278  -6.040 -18.674  1.00  0.00     0.000 C 
BRANCH  21  22
ATOM     22  C   UNL     1       2.137  -5.101 -19.098  1.00  0.00    -0.000 C 
BRANCH  22  23
ATOM     23  C   UNL     1       1.382  -5.597 -20.345  1.00  0.00    -0.000 C 
BRANCH  23  24
ATOM     24  C   UNL     1       1.637  -7.068 -20.723  1.00  0.00    -0.000 C 
BRANCH  24  25
ATOM     25  C   UNL     1       0.751  -7.550 -21.884  1.00  0.00    -0.000 C 
BRANCH  25  26
ATOM     26  C   UNL     1       1.491  -7.567 -23.234  1.00  0.00    -0.000 C 
BRANCH  26  27
ATOM     27  C   UNL     1       0.928  -6.605 -24.298  1.00  0.00    -0.000 C 
BRANCH  27  28
ATOM     28  C   UNL     1       1.588  -5.216 -24.262  1.00  0.00    -0.000 C 
BRANCH  28  29
ATOM     29  C   UNL     1       0.558  -4.078 -24.329  1.00  0.00    -0.003 C 
ATOM     30  C   UNL     1       0.453  -3.296 -23.019  1.00  0.00     0.004 C 
ENDBRANCH  28  29
ENDBRANCH  27  28
ENDBRANCH  26  27
ENDBRANCH  25  26
ENDBRANCH  24  25
ENDBRANCH  23  24
ENDBRANCH  22  23
ENDBRANCH  21  22
ENDBRANCH  20  21
ENDBRANCH  19  20
ENDBRANCH  18  19
ENDBRANCH  17  18
ENDBRANCH   1  17
TORSDOF 26
ENDMDL
MODEL 4
REMARK VINA RESULT:    -4.040      2.554      6.587
REMARK INTER + INTRA:         -15.222
REMARK INTER:                  -9.877
REMARK INTRA:                  -5.345
REMARK UNBOUND:                -5.041
REMARK SMILES CCCCCCCCCCCCCCCCCCCCCCCCCCCC(=O)[O-]
REMARK SMILES IDX 15 1 16 2 17 3 18 4 19 5 20 6 21 7 22 8 23 9 24 10 25 11
REMARK SMILES IDX 26 12 27 13 28 14 29 15 30 16 14 17 13 18 12 19 11 20 10 21
REMARK SMILES IDX 9 22 8 23 7 24 6 25 5 26 4 27 3 28 2 29 1 30
REMARK H PARENT
REMARK Flexibility Score: inf
ROOT
ATOM      1  C   UNL     1       6.037  -9.016 -22.338  1.00  0.00     0.000 C 
ENDROOT
BRANCH   1   2
ATOM      2  C   UNL     1       5.889  -7.508 -22.590  1.00  0.00     0.000 C 
BRANCH   2   3
ATOM      3  C   UNL     1       4.868  -6.885 -21.629  1.00  0.00     0.000 C 
BRANCH   3   4
ATOM      4  C   UNL     1       5.222  -5.439 -21.235  1.00  0.00     0.000 C 
BRANCH   4   5
ATOM      5  C   UNL     1       4.902  -5.099 -19.765  1.00  0.00     0.000 C 
BRANCH   5   6
ATOM      6  C   UNL     1       4.025  -6.174 -19.097  1.00  0.00     0.000 C 
BRANCH   6   7
ATOM      7  C   UNL     1       2.806  -5.576 -18.375  1.00  0.00     0.000 C 
BRANCH   7   8
ATOM      8  C   UNL     1       2.829  -4.042 -18.351  1.00  0.00     0.000 C 
BRANCH   8   9
ATOM      9  C   UNL     1       1.509  -3.465 -18.888  1.00  0.00     0.000 C 
BRANCH   9  10
ATOM     10  C   UNL     1       0.790  -4.434 -19.842  1.00  0.00     0.000 C 
BRANCH  10  11
ATOM     11  C   UNL     1       0.705  -3.885 -21.278  1.00  0.00     0.000 C 
BRANCH  11  12
ATOM     12  C   UNL     1       2.081  -3.790 -21.963  1.00  0.00     0.006 C 
BRANCH  12  13
ATOM     13  C   UNL     1       2.069  -4.138 -23.460  1.00  0.00     0.053 C 
BRANCH  13  14
ATOM     14  C   UNL     1       3.422  -3.989 -24.083  1.00  0.00     0.041 C 
ATOM     15  O   UNL     1       4.021  -4.995 -24.547  1.00  0.00    -0.550 OA
ATOM     16  O   UNL     1       4.010  -2.734 -24.177  1.00  0.00    -0.550 OA
ENDBRANCH  13  14
ENDBRANCH  12  13
ENDBRANCH  11  12
ENDBRANCH  10  11
ENDBRANCH   9  10
ENDBRANCH   8   9
ENDBRANCH   7   8
ENDBRANCH   6   7
ENDBRANCH   5   6
ENDBRANCH   4   5
ENDBRANCH   3   4
ENDBRANCH   2   3
ENDBRANCH   1   2
BRANCH   1  17
ATOM     17  C   UNL     1       6.888  -9.715 -23.410  1.00  0.00     0.000 C 
BRANCH  17  18
ATOM     18  C   UNL     1       6.272 -11.041 -23.883  1.00  0.00     0.000 C 
BRANCH  18  19
ATOM     19  C   UNL     1       5.212 -11.544 -22.893  1.00  0.00     0.000 C 
BRANCH  19  20
ATOM     20  C   UNL     1       3.773 -11.375 -23.416  1.00  0.00     0.000 C 
BRANCH  20  21
ATOM     21  C   UNL     1       2.675 -11.410 -22.336  1.00  0.00     0.000 C 
BRANCH  21  22
ATOM     22  C   UNL     1       3.031 -10.581 -21.092  1.00  0.00    -0.000 C 
BRANCH  22  23
ATOM     23  C   UNL     1       1.860 -10.453 -20.100  1.00  0.00    -0.000 C 
BRANCH  23  24
ATOM     24  C   UNL     1       0.751  -9.471 -20.520  1.00  0.00    -0.000 C 
BRANCH  24  25
ATOM     25  C   UNL     1       1.280  -8.052 -20.790  1.00  0.00    -0.000 C 
BRANCH  25  26
ATOM     26  C   UNL     1       0.869  -7.513 -22.173  1.00  0.00    -0.000 C 
BRANCH  26  27
ATOM     27  C   UNL     1       1.859  -7.821 -23.313  1.00  0.00    -0.000 C 
BRANCH  27  28
ATOM     28  C   UNL     1       1.192  -8.500 -24.521  1.00  0.00    -0.000 C 
BRANCH  28  29
ATOM     29  C   UNL     1       0.099  -9.496 -24.102  1.00  0.00    -0.003 C 
ATOM     30  C   UNL     1       0.102 -10.769 -24.948  1.00  0.00     0.004 C 
ENDBRANCH  28  29
ENDBRANCH  27  28
ENDBRANCH  26  27
ENDBRANCH  25  26
ENDBRANCH  24  25
ENDBRANCH  23  24
ENDBRANCH  22  23
ENDBRANCH  21  22
ENDBRANCH  20  21
ENDBRANCH  19  20
ENDBRANCH  18  19
ENDBRANCH  17  18
ENDBRANCH   1  17
TORSDOF 26
ENDMDL
MODEL 5
REMARK VINA RESULT:    -4.026      2.156      4.132
REMARK INTER + INTRA:         -15.186
REMARK INTER:                 -10.189
REMARK INTRA:                  -4.997
REMARK UNBOUND:                -5.041
REMARK SMILES CCCCCCCCCCCCCCCCCCCCCCCCCCCC(=O)[O-]
REMARK SMILES IDX 15 1 16 2 17 3 18 4 19 5 20 6 21 7 22 8 23 9 24 10 25 11
REMARK SMILES IDX 26 12 27 13 28 14 29 15 30 16 14 17 13 18 12 19 11 20 10 21
REMARK SMILES IDX 9 22 8 23 7 24 6 25 5 26 4 27 3 28 2 29 1 30
REMARK H PARENT
REMARK Flexibility Score: inf
ROOT
ATOM      1  C   UNL     1       5.659  -8.406 -22.145  1.00  0.00     0.000 C 
ENDROOT
BRANCH   1   2
ATOM      2  C   UNL     1       6.755  -9.134 -22.938  1.00  0.00     0.000 C 
BRANCH   2   3
ATOM      3  C   UNL     1       6.216 -10.424 -23.570  1.00  0.00     0.000 C 
BRANCH   3   4
ATOM      4  C   UNL     1       5.137 -11.106 -22.710  1.00  0.00     0.000 C 
BRANCH   4   5
ATOM      5  C   UNL     1       3.719 -11.024 -23.312  1.00  0.00     0.000 C 
BRANCH   5   6
ATOM      6  C   UNL     1       2.700 -10.431 -22.322  1.00  0.00     0.000 C 
BRANCH   6   7
ATOM      7  C   UNL     1       3.056 -10.732 -20.856  1.00  0.00     0.000 C 
BRANCH   7   8
ATOM      8  C   UNL     1       1.878 -10.493 -19.903  1.00  0.00     0.000 C 
BRANCH   8   9
ATOM      9  C   UNL     1       0.569 -10.302 -20.686  1.00  0.00     0.000 C 
BRANCH   9  10
ATOM     10  C   UNL     1      -0.377 -11.508 -20.550  1.00  0.00     0.000 C 
BRANCH  10  11
ATOM     11  C   UNL     1      -0.648 -12.194 -21.900  1.00  0.00     0.000 C 
BRANCH  11  12
ATOM     12  C   UNL     1       0.420 -13.242 -22.263  1.00  0.00     0.006 C 
BRANCH  12  13
ATOM     13  C   UNL     1       0.756 -14.223 -21.129  1.00  0.00     0.053 C 
BRANCH  13  14
ATOM     14  C   UNL     1       2.094 -14.867 -21.320  1.00  0.00     0.041 C 
ATOM     15  O   UNL     1       2.303 -16.036 -20.901  1.00  0.00    -0.550 OA
ATOM     16  O   UNL     1       3.104 -14.186 -21.989  1.00  0.00    -0.550 OA
ENDBRANCH  13  14
ENDBRANCH  12  13
ENDBRANCH  11  12
ENDBRANCH  10  11
ENDBRANCH   9  10
ENDBRANCH   8   9
ENDBRANCH   7   8
ENDBRANCH   6   7
ENDBRANCH   5   6
ENDBRANCH   4   5
ENDBRANCH   3   4
ENDBRANCH   2   3
ENDBRANCH   1   2
BRANCH   1  17
ATOM     17  C   UNL     1       5.912  -6.894 -22.035  1.00  0.00     0.000 C 
BRANCH  17  18
ATOM     18  C   UNL     1       5.051  -6.077 -23.011  1.00  0.00     0.000 C 
BRANCH  18  19
ATOM     19  C   UNL     1       5.127  -4.577 -22.694  1.00  0.00     0.000 C 
BRANCH  19  20
ATOM     20  C   UNL     1       3.807  -4.013 -22.134  1.00  0.00     0.000 C 
BRANCH  20  21
ATOM     21  C   UNL     1       3.943  -2.711 -21.322  1.00  0.00     0.000 C 
BRANCH  21  22
ATOM     22  C   UNL     1       3.706  -2.914 -19.817  1.00  0.00    -0.000 C 
BRANCH  22  23
ATOM     23  C   UNL     1       4.971  -3.369 -19.065  1.00  0.00    -0.000 C 
BRANCH  23  24
ATOM     24  C   UNL     1       4.832  -4.695 -18.296  1.00  0.00    -0.000 C 
BRANCH  24  25
ATOM     25  C   UNL     1       3.490  -5.401 -18.556  1.00  0.00    -0.000 C 
BRANCH  25  26
ATOM     26  C   UNL     1       3.661  -6.807 -19.161  1.00  0.00    -0.000 C 
BRANCH  26  27
ATOM     27  C   UNL     1       2.723  -7.127 -20.341  1.00  0.00    -0.000 C 
BRANCH  27  28
ATOM     28  C   UNL     1       1.392  -6.358 -20.276  1.00  0.00    -0.000 C 
BRANCH  28  29
ATOM     29  C   UNL     1       0.773  -6.144 -21.666  1.00  0.00    -0.003 C 
ATOM     30  C   UNL     1       1.398  -7.036 -22.738  1.00  0.00     0.004 C 
ENDBRANCH  28  29
ENDBRANCH  27  28
ENDBRANCH  26  27
ENDBRANCH  25  26
ENDBRANCH  24  25
ENDBRANCH  23  24
ENDBRANCH  22  23
ENDBRANCH  21  22
ENDBRANCH  20  21
ENDBRANCH  19  20
ENDBRANCH  18  19
ENDBRANCH  17  18
ENDBRANCH   1  17
TORSDOF 26
ENDMDL
MODEL 6
REMARK VINA RESULT:    -4.023      2.339      4.257
REMARK INTER + INTRA:         -15.178
REMARK INTER:                 -11.208
REMARK INTRA:                  -3.970
REMARK UNBOUND:                -5.041
REMARK SMILES CCCCCCCCCCCCCCCCCCCCCCCCCCCC(=O)[O-]
REMARK SMILES IDX 15 1 16 2 17 3 18 4 19 5 20 6 21 7 22 8 23 9 24 10 25 11
REMARK SMILES IDX 26 12 27 13 28 14 29 15 30 16 14 17 13 18 12 19 11 20 10 21
REMARK SMILES IDX 9 22 8 23 7 24 6 25 5 26 4 27 3 28 2 29 1 30
REMARK H PARENT
REMARK Flexibility Score: inf
ROOT
ATOM      1  C   UNL     1       4.173  -2.733 -19.611  1.00  0.00     0.000 C 
ENDROOT
BRANCH   1   2
ATOM      2  C   UNL     1       4.398  -2.566 -21.121  1.00  0.00     0.000 C 
BRANCH   2   3
ATOM      3  C   UNL     1       3.648  -3.645 -21.914  1.00  0.00     0.000 C 
BRANCH   3   4
ATOM      4  C   UNL     1       4.355  -4.022 -23.228  1.00  0.00     0.000 C 
BRANCH   4   5
ATOM      5  C   UNL     1       4.743  -5.513 -23.319  1.00  0.00     0.000 C 
BRANCH   5   6
ATOM      6  C   UNL     1       5.310  -6.048 -21.992  1.00  0.00     0.000 C 
BRANCH   6   7
ATOM      7  C   UNL     1       5.925  -7.450 -22.135  1.00  0.00     0.000 C 
BRANCH   7   8
ATOM      8  C   UNL     1       5.100  -8.531 -21.422  1.00  0.00     0.000 C 
BRANCH   8   9
ATOM      9  C   UNL     1       4.723  -9.661 -22.392  1.00  0.00     0.000 C 
BRANCH   9  10
ATOM     10  C   UNL     1       5.943 -10.217 -23.148  1.00  0.00     0.000 C 
BRANCH  10  11
ATOM     11  C   UNL     1       5.726 -11.665 -23.623  1.00  0.00     0.000 C 
BRANCH  11  12
ATOM     12  C   UNL     1       4.640 -12.402 -22.818  1.00  0.00     0.006 C 
BRANCH  12  13
ATOM     13  C   UNL     1       5.161 -13.582 -21.983  1.00  0.00     0.053 C 
BRANCH  13  14
ATOM     14  C   UNL     1       4.156 -14.688 -21.884  1.00  0.00     0.041 C 
ATOM     15  O   UNL     1       4.494 -15.877 -22.124  1.00  0.00    -0.550 OA
ATOM     16  O   UNL     1       2.851 -14.409 -21.497  1.00  0.00    -0.550 OA
ENDBRANCH  13  14
ENDBRANCH  12  13
ENDBRANCH  11  12
ENDBRANCH  10  11
ENDBRANCH   9  10
ENDBRANCH   8   9
ENDBRANCH   7   8
ENDBRANCH   6   7
ENDBRANCH   5   6
ENDBRANCH   4   5
ENDBRANCH   3   4
ENDBRANCH   2   3
ENDBRANCH   1   2
BRANCH   1  17
ATOM     17  C   UNL     1       5.299  -3.525 -18.928  1.00  0.00     0.000 C 
BRANCH  17  18
ATOM     18  C   UNL     1       4.811  -4.859 -18.340  1.00  0.00     0.000 C 
BRANCH  18  19
ATOM     19  C   UNL     1       3.296  -5.023 -18.521  1.00  0.00     0.000 C 
BRANCH  19  20
ATOM     20  C   UNL     1       2.909  -6.370 -19.160  1.00  0.00     0.000 C 
BRANCH  20  21
ATOM     21  C   UNL     1       1.773  -6.301 -20.198  1.00  0.00     0.000 C 
BRANCH  21  22
ATOM     22  C   UNL     1       1.643  -7.587 -21.031  1.00  0.00    -0.000 C 
BRANCH  22  23
ATOM     23  C   UNL     1       1.683  -7.327 -22.548  1.00  0.00    -0.000 C 
BRANCH  23  24
ATOM     24  C   UNL     1       0.731  -8.199 -23.387  1.00  0.00    -0.000 C 
BRANCH  24  25
ATOM     25  C   UNL     1       1.127  -9.685 -23.389  1.00  0.00    -0.000 C 
BRANCH  25  26
ATOM     26  C   UNL     1       1.367 -10.239 -24.805  1.00  0.00    -0.000 C 
BRANCH  26  27
ATOM     27  C   UNL     1       0.661  -9.466 -25.936  1.00  0.00    -0.000 C 
BRANCH  27  28
ATOM     28  C   UNL     1      -0.474 -10.269 -26.594  1.00  0.00    -0.000 C 
BRANCH  28  29
ATOM     29  C   UNL     1      -0.776 -11.577 -25.846  1.00  0.00    -0.003 C 
ATOM     30  C   UNL     1      -2.246 -11.987 -25.938  1.00  0.00     0.004 C 
ENDBRANCH  28  29
ENDBRANCH  27  28
ENDBRANCH  26  27
ENDBRANCH  25  26
ENDBRANCH  24  25
ENDBRANCH  23  24
ENDBRANCH  22  23
ENDBRANCH  21  22
ENDBRANCH  20  21
ENDBRANCH  19  20
ENDBRANCH  18  19
ENDBRANCH  17  18
ENDBRANCH   1  17
TORSDOF 26
ENDMDL
MODEL 7
REMARK VINA RESULT:    -4.000      2.165      4.737
REMARK INTER + INTRA:         -15.121
REMARK INTER:                  -9.919
REMARK INTRA:                  -5.201
REMARK UNBOUND:                -5.041
REMARK SMILES CCCCCCCCCCCCCCCCCCCCCCCCCCCC(=O)[O-]
REMARK SMILES IDX 15 1 16 2 17 3 18 4 19 5 20 6 21 7 22 8 23 9 24 10 25 11
REMARK SMILES IDX 26 12 27 13 28 14 29 15 30 16 14 17 13 18 12 19 11 20 10 21
REMARK SMILES IDX 9 22 8 23 7 24 6 25 5 26 4 27 3 28 2 29 1 30
REMARK H PARENT
REMARK Flexibility Score: inf
ROOT
ATOM      1  C   UNL     1       4.031  -8.743 -20.634  1.00  0.00     0.000 C 
ENDROOT
BRANCH   1   2
ATOM      2  C   UNL     1       4.309  -8.682 -22.144  1.00  0.00     0.000 C 
BRANCH   2   3
ATOM      3  C   UNL     1       5.707  -8.118 -22.428  1.00  0.00     0.000 C 
BRANCH   3   4
ATOM      4  C   UNL     1       6.787  -9.211 -22.517  1.00  0.00     0.000 C 
BRANCH   4   5
ATOM      5  C   UNL     1       7.027  -9.730 -23.950  1.00  0.00     0.000 C 
BRANCH   5   6
ATOM      6  C   UNL     1       6.751 -11.239 -24.076  1.00  0.00     0.000 C 
BRANCH   6   7
ATOM      7  C   UNL     1       5.287 -11.599 -23.773  1.00  0.00     0.000 C 
BRANCH   7   8
ATOM      8  C   UNL     1       5.146 -12.508 -22.544  1.00  0.00     0.000 C 
BRANCH   8   9
ATOM      9  C   UNL     1       3.713 -12.462 -21.990  1.00  0.00     0.000 C 
BRANCH   9  10
ATOM     10  C   UNL     1       2.688 -12.019 -23.048  1.00  0.00     0.000 C 
BRANCH  10  11
ATOM     11  C   UNL     1       1.625 -11.068 -22.470  1.00  0.00     0.000 C 
BRANCH  11  12
ATOM     12  C   UNL     1       0.784 -10.378 -23.560  1.00  0.00     0.006 C 
BRANCH  12  13
ATOM     13  C   UNL     1       1.583  -9.953 -24.802  1.00  0.00     0.053 C 
BRANCH  13  14
ATOM     14  C   UNL     1       0.741  -9.191 -25.778  1.00  0.00     0.041 C 
ATOM     15  O   UNL     1       1.035  -8.004 -26.080  1.00  0.00    -0.550 OA
ATOM     16  O   UNL     1      -0.353  -9.802 -26.379  1.00  0.00    -0.550 OA
ENDBRANCH  13  14
ENDBRANCH  12  13
ENDBRANCH  11  12
ENDBRANCH  10  11
ENDBRANCH   9  10
ENDBRANCH   8   9
ENDBRANCH   7   8
ENDBRANCH   6   7
ENDBRANCH   5   6
ENDBRANCH   4   5
ENDBRANCH   3   4
ENDBRANCH   2   3
ENDBRANCH   1   2
BRANCH   1  17
ATOM     17  C   UNL     1       3.077  -7.634 -20.163  1.00  0.00     0.000 C 
BRANCH  17  18
ATOM     18  C   UNL     1       1.625  -7.875 -20.606  1.00  0.00     0.000 C 
BRANCH  18  19
ATOM     19  C   UNL     1       1.059  -6.648 -21.335  1.00  0.00     0.000 C 
BRANCH  19  20
ATOM     20  C   UNL     1       1.349  -6.661 -22.848  1.00  0.00     0.000 C 
BRANCH  20  21
ATOM     21  C   UNL     1       1.942  -5.356 -23.412  1.00  0.00     0.000 C 
BRANCH  21  22
ATOM     22  C   UNL     1       3.290  -5.567 -24.119  1.00  0.00    -0.000 C 
BRANCH  22  23
ATOM     23  C   UNL     1       4.427  -4.726 -23.509  1.00  0.00    -0.000 C 
BRANCH  23  24
ATOM     24  C   UNL     1       4.445  -4.668 -21.971  1.00  0.00    -0.000 C 
BRANCH  24  25
ATOM     25  C   UNL     1       4.284  -3.240 -21.424  1.00  0.00    -0.000 C 
BRANCH  25  26
ATOM     26  C   UNL     1       2.954  -3.033 -20.675  1.00  0.00    -0.000 C 
BRANCH  26  27
ATOM     27  C   UNL     1       3.065  -3.027 -19.138  1.00  0.00    -0.000 C 
BRANCH  27  28
ATOM     28  C   UNL     1       3.030  -4.439 -18.529  1.00  0.00    -0.000 C 
BRANCH  28  29
ATOM     29  C   UNL     1       4.421  -4.919 -18.085  1.00  0.00    -0.003 C 
ATOM     30  C   UNL     1       5.436  -3.781 -17.982  1.00  0.00     0.004 C 
ENDBRANCH  28  29
ENDBRANCH  27  28
ENDBRANCH  26  27
ENDBRANCH  25  26
ENDBRANCH  24  25
ENDBRANCH  23  24
ENDBRANCH  22  23
ENDBRANCH  21  22
ENDBRANCH  20  21
ENDBRANCH  19  20
ENDBRANCH  18  19
ENDBRANCH  17  18
ENDBRANCH   1  17
TORSDOF 26
ENDMDL
MODEL 8
REMARK VINA RESULT:    -3.997      1.303      2.138
REMARK INTER + INTRA:         -15.112
REMARK INTER:                  -9.976
REMARK INTRA:                  -5.136
REMARK UNBOUND:                -5.041
REMARK SMILES CCCCCCCCCCCCCCCCCCCCCCCCCCCC(=O)[O-]
REMARK SMILES IDX 15 1 16 2 17 3 18 4 19 5 20 6 21 7 22 8 23 9 24 10 25 11
REMARK SMILES IDX 26 12 27 13 28 14 29 15 30 16 14 17 13 18 12 19 11 20 10 21
REMARK SMILES IDX 9 22 8 23 7 24 6 25 5 26 4 27 3 28 2 29 1 30
REMARK H PARENT
REMARK Flexibility Score: inf
ROOT
ATOM      1  C   UNL     1       5.416  -5.624 -21.325  1.00  0.00     0.000 C 
ENDROOT
BRANCH   1   2
ATOM      2  C   UNL     1       5.166  -7.129 -21.506  1.00  0.00     0.000 C 
BRANCH   2   3
ATOM      3  C   UNL     1       5.862  -7.657 -22.767  1.00  0.00     0.000 C 
BRANCH   3   4
ATOM      4  C   UNL     1       6.565  -9.008 -22.541  1.00  0.00     0.000 C 
BRANCH   4   5
ATOM      5  C   UNL     1       6.973  -9.721 -23.847  1.00  0.00     0.000 C 
BRANCH   5   6
ATOM      6  C   UNL     1       6.704 -11.236 -23.792  1.00  0.00     0.000 C 
BRANCH   6   7
ATOM      7  C   UNL     1       5.204 -11.570 -23.803  1.00  0.00     0.000 C 
BRANCH   7   8
ATOM      8  C   UNL     1       4.700 -12.062 -22.439  1.00  0.00     0.000 C 
BRANCH   8   9
ATOM      9  C   UNL     1       3.415 -11.325 -22.030  1.00  0.00     0.000 C 
BRANCH   9  10
ATOM     10  C   UNL     1       3.600 -10.482 -20.757  1.00  0.00     0.000 C 
BRANCH  10  11
ATOM     11  C   UNL     1       2.504  -9.414 -20.598  1.00  0.00     0.000 C 
BRANCH  11  12
ATOM     12  C   UNL     1       1.189  -9.799 -21.301  1.00  0.00     0.006 C 
BRANCH  12  13
ATOM     13  C   UNL     1      -0.064  -9.659 -20.422  1.00  0.00     0.053 C 
BRANCH  13  14
ATOM     14  C   UNL     1      -0.347 -10.906 -19.644  1.00  0.00     0.041 C 
ATOM     15  O   UNL     1      -1.209 -10.900 -18.725  1.00  0.00    -0.550 OA
ATOM     16  O   UNL     1       0.319 -12.085 -19.954  1.00  0.00    -0.550 OA
ENDBRANCH  13  14
ENDBRANCH  12  13
ENDBRANCH  11  12
ENDBRANCH  10  11
ENDBRANCH   9  10
ENDBRANCH   8   9
ENDBRANCH   7   8
ENDBRANCH   6   7
ENDBRANCH   5   6
ENDBRANCH   4   5
ENDBRANCH   3   4
ENDBRANCH   2   3
ENDBRANCH   1   2
BRANCH   1  17
ATOM     17  C   UNL     1       4.846  -5.084 -20.004  1.00  0.00     0.000 C 
BRANCH  17  18
ATOM     18  C   UNL     1       4.228  -6.187 -19.130  1.00  0.00     0.000 C 
BRANCH  18  19
ATOM     19  C   UNL     1       3.024  -5.657 -18.339  1.00  0.00     0.000 C 
BRANCH  19  20
ATOM     20  C   UNL     1       2.957  -4.118 -18.305  1.00  0.00     0.000 C 
BRANCH  20  21
ATOM     21  C   UNL     1       1.538  -3.526 -18.225  1.00  0.00     0.000 C 
BRANCH  21  22
ATOM     22  C   UNL     1       1.138  -2.752 -19.492  1.00  0.00    -0.000 C 
BRANCH  22  23
ATOM     23  C   UNL     1       1.049  -3.648 -20.741  1.00  0.00    -0.000 C 
BRANCH  23  24
ATOM     24  C   UNL     1      -0.127  -4.641 -20.750  1.00  0.00    -0.000 C 
BRANCH  24  25
ATOM     25  C   UNL     1       0.207  -5.957 -21.475  1.00  0.00    -0.000 C 
BRANCH  25  26
ATOM     26  C   UNL     1       1.698  -6.077 -21.841  1.00  0.00    -0.000 C 
BRANCH  26  27
ATOM     27  C   UNL     1       1.984  -6.737 -23.203  1.00  0.00    -0.000 C 
BRANCH  27  28
ATOM     28  C   UNL     1       2.161  -5.717 -24.340  1.00  0.00    -0.000 C 
BRANCH  28  29
ATOM     29  C   UNL     1       2.894  -4.448 -23.878  1.00  0.00    -0.003 C 
ATOM     30  C   UNL     1       4.294  -4.319 -24.480  1.00  0.00     0.004 C 
ENDBRANCH  28  29
ENDBRANCH  27  28
ENDBRANCH  26  27
ENDBRANCH  25  26
ENDBRANCH  24  25
ENDBRANCH  23  24
ENDBRANCH  22  23
ENDBRANCH  21  22
ENDBRANCH  20  21
ENDBRANCH  19  20
ENDBRANCH  18  19
ENDBRANCH  17  18
ENDBRANCH   1  17
TORSDOF 26
ENDMDL
MODEL 9
REMARK VINA RESULT:    -3.948      1.570      2.698
REMARK INTER + INTRA:         -14.990
REMARK INTER:                 -10.106
REMARK INTRA:                  -4.884
REMARK UNBOUND:                -5.041
REMARK SMILES CCCCCCCCCCCCCCCCCCCCCCCCCCCC(=O)[O-]
REMARK SMILES IDX 15 1 16 2 17 3 18 4 19 5 20 6 21 7 22 8 23 9 24 10 25 11
REMARK SMILES IDX 26 12 27 13 28 14 29 15 30 16 14 17 13 18 12 19 11 20 10 21
REMARK SMILES IDX 9 22 8 23 7 24 6 25 5 26 4 27 3 28 2 29 1 30
REMARK H PARENT
REMARK Flexibility Score: inf
ROOT
ATOM      1  C   UNL     1       4.331  -8.242 -21.006  1.00  0.00     0.000 C 
ENDROOT
BRANCH   1   2
ATOM      2  C   UNL     1       5.063  -7.215 -21.883  1.00  0.00     0.000 C 
BRANCH   2   3
ATOM      3  C   UNL     1       6.238  -7.861 -22.629  1.00  0.00     0.000 C 
BRANCH   3   4
ATOM      4  C   UNL     1       6.237  -9.397 -22.531  1.00  0.00     0.000 C 
BRANCH   4   5
ATOM      5  C   UNL     1       6.900 -10.096 -23.736  1.00  0.00     0.000 C 
BRANCH   5   6
ATOM      6  C   UNL     1       6.263 -11.465 -24.038  1.00  0.00     0.000 C 
BRANCH   6   7
ATOM      7  C   UNL     1       5.051 -11.763 -23.139  1.00  0.00     0.000 C 
BRANCH   7   8
ATOM      8  C   UNL     1       3.716 -11.620 -23.884  1.00  0.00     0.000 C 
BRANCH   8   9
ATOM      9  C   UNL     1       2.576 -11.293 -22.906  1.00  0.00     0.000 C 
BRANCH   9  10
ATOM     10  C   UNL     1       2.937 -11.631 -21.449  1.00  0.00     0.000 C 
BRANCH  10  11
ATOM     11  C   UNL     1       2.068 -10.862 -20.438  1.00  0.00     0.000 C 
BRANCH  11  12
ATOM     12  C   UNL     1       0.592 -10.768 -20.868  1.00  0.00     0.006 C 
BRANCH  12  13
ATOM     13  C   UNL     1      -0.045  -9.388 -20.649  1.00  0.00     0.053 C 
BRANCH  13  14
ATOM     14  C   UNL     1      -1.331  -9.237 -21.401  1.00  0.00     0.041 C 
ATOM     15  O   UNL     1      -1.321  -9.075 -22.650  1.00  0.00    -0.550 OA
ATOM     16  O   UNL     1      -2.544  -9.304 -20.727  1.00  0.00    -0.550 OA
ENDBRANCH  13  14
ENDBRANCH  12  13
ENDBRANCH  11  12
ENDBRANCH  10  11
ENDBRANCH   9  10
ENDBRANCH   8   9
ENDBRANCH   7   8
ENDBRANCH   6   7
ENDBRANCH   5   6
ENDBRANCH   4   5
ENDBRANCH   3   4
ENDBRANCH   2   3
ENDBRANCH   1   2
BRANCH   1  17
ATOM     17  C   UNL     1       3.428  -7.584 -19.951  1.00  0.00     0.000 C 
BRANCH  17  18
ATOM     18  C   UNL     1       4.068  -6.338 -19.319  1.00  0.00     0.000 C 
BRANCH  18  19
ATOM     19  C   UNL     1       3.042  -5.548 -18.493  1.00  0.00     0.000 C 
BRANCH  19  20
ATOM     20  C   UNL     1       3.555  -4.159 -18.067  1.00  0.00     0.000 C 
BRANCH  20  21
ATOM     21  C   UNL     1       5.076  -3.956 -18.191  1.00  0.00     0.000 C 
BRANCH  21  22
ATOM     22  C   UNL     1       5.453  -2.823 -19.159  1.00  0.00    -0.000 C 
BRANCH  22  23
ATOM     23  C   UNL     1       4.236  -2.229 -19.892  1.00  0.00    -0.000 C 
BRANCH  23  24
ATOM     24  C   UNL     1       4.282  -2.333 -21.427  1.00  0.00    -0.000 C 
BRANCH  24  25
ATOM     25  C   UNL     1       4.291  -3.787 -21.928  1.00  0.00    -0.000 C 
BRANCH  25  26
ATOM     26  C   UNL     1       3.023  -4.154 -22.722  1.00  0.00    -0.000 C 
BRANCH  26  27
ATOM     27  C   UNL     1       1.729  -4.223 -21.890  1.00  0.00    -0.000 C 
BRANCH  27  28
ATOM     28  C   UNL     1       1.198  -5.657 -21.722  1.00  0.00    -0.000 C 
BRANCH  28  29
ATOM     29  C   UNL     1       0.830  -6.305 -23.065  1.00  0.00    -0.003 C 
ATOM     30  C   UNL     1       1.743  -7.477 -23.428  1.00  0.00     0.004 C 
ENDBRANCH  28  29
ENDBRANCH  27  28
ENDBRANCH  26  27
ENDBRANCH  25  26
ENDBRANCH  24  25
ENDBRANCH  23  24
ENDBRANCH  22  23
ENDBRANCH  21  22
ENDBRANCH  20  21
ENDBRANCH  19  20
ENDBRANCH  18  19
ENDBRANCH  17  18
ENDBRANCH   1  17
TORSDOF 26
ENDMDL
