MODEL 1
REMARK VINA RESULT:    -5.865      0.000      0.000
REMARK INTER + INTRA:         -18.584
REMARK INTER:                 -14.780
REMARK INTRA:                  -3.804
REMARK UNBOUND:                -3.804
REMARK SMILES CCCCCCCCCCCCCCCCCCCCCCCCCCCC(=O)[O-]
REMARK SMILES IDX 15 1 16 2 17 3 18 4 19 5 20 6 21 7 22 8 23 9 24 10 25 11
REMARK SMILES IDX 26 12 27 13 28 14 29 15 30 16 14 17 13 18 12 19 11 20 10 21
REMARK SMILES IDX 9 22 8 23 7 24 6 25 5 26 4 27 3 28 2 29 1 30
REMARK H PARENT
REMARK Flexibility Score: inf
ROOT
ATOM      1  C   UNL     1      -7.300 -31.176 -48.890  1.00  0.00     0.000 C 
ENDROOT
BRANCH   1   2
ATOM      2  C   UNL     1      -7.528 -29.674 -48.618  1.00  0.00     0.000 C 
BRANCH   2   3
ATOM      3  C   UNL     1      -6.240 -28.835 -48.660  1.00  0.00     0.000 C 
BRANCH   3   4
ATOM      4  C   UNL     1      -6.439 -27.462 -49.324  1.00  0.00     0.000 C 
BRANCH   4   5
ATOM      5  C   UNL     1      -6.225 -27.507 -50.845  1.00  0.00     0.000 C 
BRANCH   5   6
ATOM      6  C   UNL     1      -5.158 -28.534 -51.265  1.00  0.00     0.000 C 
BRANCH   6   7
ATOM      7  C   UNL     1      -4.481 -28.161 -52.594  1.00  0.00     0.000 C 
BRANCH   7   8
ATOM      8  C   UNL     1      -5.276 -28.639 -53.821  1.00  0.00     0.000 C 
BRANCH   8   9
ATOM      9  C   UNL     1      -5.781 -27.471 -54.686  1.00  0.00     0.000 C 
BRANCH   9  10
ATOM     10  C   UNL     1      -4.780 -26.304 -54.746  1.00  0.00     0.000 C 
BRANCH  10  11
ATOM     11  C   UNL     1      -5.387 -24.984 -54.220  1.00  0.00     0.000 C 
BRANCH  11  12
ATOM     12  C   UNL     1      -5.517 -23.893 -55.300  1.00  0.00     0.006 C 
BRANCH  12  13
ATOM     13  C   UNL     1      -6.160 -24.377 -56.610  1.00  0.00     0.053 C 
BRANCH  13  14
ATOM     14  C   UNL     1      -7.087 -23.352 -57.193  1.00  0.00     0.041 C 
ATOM     15  O   UNL     1      -8.259 -23.672 -57.527  1.00  0.00    -0.550 OA
ATOM     16  O   UNL     1      -6.652 -22.048 -57.383  1.00  0.00    -0.550 OA
ENDBRANCH  13  14
ENDBRANCH  12  13
ENDBRANCH  11  12
ENDBRANCH  10  11
ENDBRANCH   9  10
ENDBRANCH   8   9
ENDBRANCH   7   8
ENDBRANCH   6   7
ENDBRANCH   5   6
ENDBRANCH   4   5
ENDBRANCH   3   4
ENDBRANCH   2   3
ENDBRANCH   1   2
BRANCH   1  17
ATOM     17  C   UNL     1      -7.120 -31.470 -50.388  1.00  0.00     0.000 C 
BRANCH  17  18
ATOM     18  C   UNL     1      -5.739 -32.062 -50.727  1.00  0.00     0.000 C 
BRANCH  18  19
ATOM     19  C   UNL     1      -5.372 -32.062 -52.224  1.00  0.00     0.000 C 
BRANCH  19  20
ATOM     20  C   UNL     1      -3.856 -31.982 -52.470  1.00  0.00     0.000 C 
BRANCH  20  21
ATOM     21  C   UNL     1      -3.035 -32.509 -51.284  1.00  0.00     0.000 C 
BRANCH  21  22
ATOM     22  C   UNL     1      -2.149 -33.712 -51.656  1.00  0.00    -0.000 C 
BRANCH  22  23
ATOM     23  C   UNL     1      -1.598 -33.601 -53.094  1.00  0.00    -0.000 C 
BRANCH  23  24
ATOM     24  C   UNL     1      -0.106 -33.226 -53.159  1.00  0.00    -0.000 C 
BRANCH  24  25
ATOM     25  C   UNL     1       0.125 -31.722 -53.385  1.00  0.00    -0.000 C 
BRANCH  25  26
ATOM     26  C   UNL     1       0.703 -31.009 -52.148  1.00  0.00    -0.000 C 
BRANCH  26  27
ATOM     27  C   UNL     1      -0.313 -30.181 -51.340  1.00  0.00    -0.000 C 
BRANCH  27  28
ATOM     28  C   UNL     1      -1.157 -29.243 -52.220  1.00  0.00    -0.000 C 
BRANCH  28  29
ATOM     29  C   UNL     1      -0.561 -27.831 -52.320  1.00  0.00    -0.003 C 
ATOM     30  C   UNL     1      -1.188 -27.006 -53.444  1.00  0.00     0.004 C 
ENDBRANCH  28  29
ENDBRANCH  27  28
ENDBRANCH  26  27
ENDBRANCH  25  26
ENDBRANCH  24  25
ENDBRANCH  23  24
ENDBRANCH  22  23
ENDBRANCH  21  22
ENDBRANCH  20  21
ENDBRANCH  19  20
ENDBRANCH  18  19
ENDBRANCH  17  18
ENDBRANCH   1  17
TORSDOF 26
ENDMDL
MODEL 2
REMARK VINA RESULT:    -5.763      3.259      7.613
REMARK INTER + INTRA:         -18.328
REMARK INTER:                 -14.359
REMARK INTRA:                  -3.968
REMARK UNBOUND:                -3.804
REMARK SMILES CCCCCCCCCCCCCCCCCCCCCCCCCCCC(=O)[O-]
REMARK SMILES IDX 15 1 16 2 17 3 18 4 19 5 20 6 21 7 22 8 23 9 24 10 25 11
REMARK SMILES IDX 26 12 27 13 28 14 29 15 30 16 14 17 13 18 12 19 11 20 10 21
REMARK SMILES IDX 9 22 8 23 7 24 6 25 5 26 4 27 3 28 2 29 1 30
REMARK H PARENT
REMARK Flexibility Score: inf
ROOT
ATOM      1  C   UNL     1      -5.367 -31.391 -53.481  1.00  0.00     0.000 C 
ENDROOT
BRANCH   1   2
ATOM      2  C   UNL     1      -5.504 -31.337 -51.944  1.00  0.00     0.000 C 
BRANCH   2   3
ATOM      3  C   UNL     1      -4.960 -32.585 -51.230  1.00  0.00     0.000 C 
BRANCH   3   4
ATOM      4  C   UNL     1      -3.461 -32.483 -50.900  1.00  0.00     0.000 C 
BRANCH   4   5
ATOM      5  C   UNL     1      -2.724 -33.818 -51.083  1.00  0.00     0.000 C 
BRANCH   5   6
ATOM      6  C   UNL     1      -1.735 -33.794 -52.262  1.00  0.00     0.000 C 
BRANCH   6   7
ATOM      7  C   UNL     1      -1.805 -32.478 -53.055  1.00  0.00     0.000 C 
BRANCH   7   8
ATOM      8  C   UNL     1      -0.427 -32.012 -53.556  1.00  0.00     0.000 C 
BRANCH   8   9
ATOM      9  C   UNL     1      -0.103 -30.570 -53.126  1.00  0.00     0.000 C 
BRANCH   9  10
ATOM     10  C   UNL     1      -0.592 -30.254 -51.702  1.00  0.00     0.000 C 
BRANCH  10  11
ATOM     11  C   UNL     1      -0.456 -28.755 -51.355  1.00  0.00     0.000 C 
BRANCH  11  12
ATOM     12  C   UNL     1      -0.349 -27.844 -52.593  1.00  0.00     0.006 C 
BRANCH  12  13
ATOM     13  C   UNL     1      -0.467 -26.343 -52.282  1.00  0.00     0.053 C 
BRANCH  13  14
ATOM     14  C   UNL     1       0.711 -25.569 -52.797  1.00  0.00     0.041 C 
ATOM     15  O   UNL     1       1.076 -24.509 -52.221  1.00  0.00    -0.550 OA
ATOM     16  O   UNL     1       1.396 -26.010 -53.921  1.00  0.00    -0.550 OA
ENDBRANCH  13  14
ENDBRANCH  12  13
ENDBRANCH  11  12
ENDBRANCH  10  11
ENDBRANCH   9  10
ENDBRANCH   8   9
ENDBRANCH   7   8
ENDBRANCH   6   7
ENDBRANCH   5   6
ENDBRANCH   4   5
ENDBRANCH   3   4
ENDBRANCH   2   3
ENDBRANCH   1   2
BRANCH   1  17
ATOM     17  C   UNL     1      -5.039 -30.013 -54.079  1.00  0.00     0.000 C 
BRANCH  17  18
ATOM     18  C   UNL     1      -3.751 -29.395 -53.504  1.00  0.00     0.000 C 
BRANCH  18  19
ATOM     19  C   UNL     1      -3.955 -28.131 -52.645  1.00  0.00     0.000 C 
BRANCH  19  20
ATOM     20  C   UNL     1      -5.234 -27.358 -53.009  1.00  0.00     0.000 C 
BRANCH  20  21
ATOM     21  C   UNL     1      -6.209 -27.237 -51.827  1.00  0.00     0.000 C 
BRANCH  21  22
ATOM     22  C   UNL     1      -5.749 -28.026 -50.587  1.00  0.00    -0.000 C 
BRANCH  22  23
ATOM     23  C   UNL     1      -6.644 -27.748 -49.361  1.00  0.00    -0.000 C 
BRANCH  23  24
ATOM     24  C   UNL     1      -6.410 -28.719 -48.189  1.00  0.00    -0.000 C 
BRANCH  24  25
ATOM     25  C   UNL     1      -6.393 -30.194 -48.625  1.00  0.00    -0.000 C 
BRANCH  25  26
ATOM     26  C   UNL     1      -7.750 -30.678 -49.169  1.00  0.00    -0.000 C 
BRANCH  26  27
ATOM     27  C   UNL     1      -8.782 -31.064 -48.093  1.00  0.00    -0.000 C 
BRANCH  27  28
ATOM     28  C   UNL     1      -9.762 -29.924 -47.766  1.00  0.00    -0.000 C 
BRANCH  28  29
ATOM     29  C   UNL     1     -10.809 -30.328 -46.716  1.00  0.00    -0.003 C 
ATOM     30  C   UNL     1     -10.260 -31.319 -45.690  1.00  0.00     0.004 C 
ENDBRANCH  28  29
ENDBRANCH  27  28
ENDBRANCH  26  27
ENDBRANCH  25  26
ENDBRANCH  24  25
ENDBRANCH  23  24
ENDBRANCH  22  23
ENDBRANCH  21  22
ENDBRANCH  20  21
ENDBRANCH  19  20
ENDBRANCH  18  19
ENDBRANCH  17  18
ENDBRANCH   1  17
TORSDOF 26
ENDMDL
MODEL 3
REMARK VINA RESULT:    -5.747      2.885      6.566
REMARK INTER + INTRA:         -18.286
REMARK INTER:                 -14.424
REMARK INTRA:                  -3.862
REMARK UNBOUND:                -3.804
REMARK SMILES CCCCCCCCCCCCCCCCCCCCCCCCCCCC(=O)[O-]
REMARK SMILES IDX 15 1 16 2 17 3 18 4 19 5 20 6 21 7 22 8 23 9 24 10 25 11
REMARK SMILES IDX 26 12 27 13 28 14 29 15 30 16 14 17 13 18 12 19 11 20 10 21
REMARK SMILES IDX 9 22 8 23 7 24 6 25 5 26 4 27 3 28 2 29 1 30
REMARK H PARENT
REMARK Flexibility Score: inf
ROOT
ATOM      1  C   UNL     1      -4.348 -32.452 -52.110  1.00  0.00     0.000 C 
ENDROOT
BRANCH   1   2
ATOM      2  C   UNL     1      -3.581 -32.933 -50.860  1.00  0.00     0.000 C 
BRANCH   2   3
ATOM      3  C   UNL     1      -2.391 -33.852 -51.180  1.00  0.00     0.000 C 
BRANCH   3   4
ATOM      4  C   UNL     1      -1.896 -33.711 -52.629  1.00  0.00     0.000 C 
BRANCH   4   5
ATOM      5  C   UNL     1      -0.534 -33.007 -52.722  1.00  0.00     0.000 C 
BRANCH   5   6
ATOM      6  C   UNL     1      -0.608 -31.668 -53.478  1.00  0.00     0.000 C 
BRANCH   6   7
ATOM      7  C   UNL     1      -1.354 -30.587 -52.680  1.00  0.00     0.000 C 
BRANCH   7   8
ATOM      8  C   UNL     1      -0.528 -30.042 -51.501  1.00  0.00     0.000 C 
BRANCH   8   9
ATOM      9  C   UNL     1      -0.585 -28.508 -51.404  1.00  0.00     0.000 C 
BRANCH   9  10
ATOM     10  C   UNL     1      -0.165 -27.817 -52.713  1.00  0.00     0.000 C 
BRANCH  10  11
ATOM     11  C   UNL     1      -1.254 -26.859 -53.245  1.00  0.00     0.000 C 
BRANCH  11  12
ATOM     12  C   UNL     1      -0.955 -25.373 -52.970  1.00  0.00     0.006 C 
BRANCH  12  13
ATOM     13  C   UNL     1      -0.094 -25.125 -51.721  1.00  0.00     0.053 C 
BRANCH  13  14
ATOM     14  C   UNL     1       1.144 -24.340 -52.040  1.00  0.00     0.041 C 
ATOM     15  O   UNL     1       1.790 -24.572 -53.097  1.00  0.00    -0.550 OA
ATOM     16  O   UNL     1       1.596 -23.364 -51.162  1.00  0.00    -0.550 OA
ENDBRANCH  13  14
ENDBRANCH  12  13
ENDBRANCH  11  12
ENDBRANCH  10  11
ENDBRANCH   9  10
ENDBRANCH   8   9
ENDBRANCH   7   8
ENDBRANCH   6   7
ENDBRANCH   5   6
ENDBRANCH   4   5
ENDBRANCH   3   4
ENDBRANCH   2   3
ENDBRANCH   1   2
BRANCH   1  17
ATOM     17  C   UNL     1      -5.722 -31.862 -51.752  1.00  0.00     0.000 C 
BRANCH  17  18
ATOM     18  C   UNL     1      -5.861 -31.517 -50.257  1.00  0.00     0.000 C 
BRANCH  18  19
ATOM     19  C   UNL     1      -7.305 -31.298 -49.765  1.00  0.00     0.000 C 
BRANCH  19  20
ATOM     20  C   UNL     1      -7.473 -29.999 -48.958  1.00  0.00     0.000 C 
BRANCH  20  21
ATOM     21  C   UNL     1      -6.186 -29.160 -48.912  1.00  0.00     0.000 C 
BRANCH  21  22
ATOM     22  C   UNL     1      -6.381 -27.733 -49.458  1.00  0.00    -0.000 C 
BRANCH  22  23
ATOM     23  C   UNL     1      -6.092 -27.650 -50.972  1.00  0.00    -0.000 C 
BRANCH  23  24
ATOM     24  C   UNL     1      -4.758 -28.299 -51.386  1.00  0.00    -0.000 C 
BRANCH  24  25
ATOM     25  C   UNL     1      -4.642 -28.515 -52.904  1.00  0.00    -0.000 C 
BRANCH  25  26
ATOM     26  C   UNL     1      -5.776 -27.840 -53.697  1.00  0.00    -0.000 C 
BRANCH  26  27
ATOM     27  C   UNL     1      -5.373 -27.307 -55.085  1.00  0.00    -0.000 C 
BRANCH  27  28
ATOM     28  C   UNL     1      -5.464 -25.775 -55.188  1.00  0.00    -0.000 C 
BRANCH  28  29
ATOM     29  C   UNL     1      -5.278 -25.079 -53.831  1.00  0.00    -0.003 C 
ATOM     30  C   UNL     1      -5.248 -23.556 -53.951  1.00  0.00     0.004 C 
ENDBRANCH  28  29
ENDBRANCH  27  28
ENDBRANCH  26  27
ENDBRANCH  25  26
ENDBRANCH  24  25
ENDBRANCH  23  24
ENDBRANCH  22  23
ENDBRANCH  21  22
ENDBRANCH  20  21
ENDBRANCH  19  20
ENDBRANCH  18  19
ENDBRANCH  17  18
ENDBRANCH   1  17
TORSDOF 26
ENDMDL
MODEL 4
REMARK VINA RESULT:    -5.564      3.578      7.257
REMARK INTER + INTRA:         -17.825
REMARK INTER:                 -14.452
REMARK INTRA:                  -3.373
REMARK UNBOUND:                -3.804
REMARK SMILES CCCCCCCCCCCCCCCCCCCCCCCCCCCC(=O)[O-]
REMARK SMILES IDX 15 1 16 2 17 3 18 4 19 5 20 6 21 7 22 8 23 9 24 10 25 11
REMARK SMILES IDX 26 12 27 13 28 14 29 15 30 16 14 17 13 18 12 19 11 20 10 21
REMARK SMILES IDX 9 22 8 23 7 24 6 25 5 26 4 27 3 28 2 29 1 30
REMARK H PARENT
REMARK Flexibility Score: inf
ROOT
ATOM      1  C   UNL     1      -2.402 -33.778 -51.546  1.00  0.00     0.000 C 
ENDROOT
BRANCH   1   2
ATOM      2  C   UNL     1      -1.982 -33.132 -52.883  1.00  0.00     0.000 C 
BRANCH   2   3
ATOM      3  C   UNL     1      -0.463 -33.131 -53.120  1.00  0.00     0.000 C 
BRANCH   3   4
ATOM      4  C   UNL     1       0.152 -31.722 -53.072  1.00  0.00     0.000 C 
BRANCH   4   5
ATOM      5  C   UNL     1       0.156 -31.128 -51.655  1.00  0.00     0.000 C 
BRANCH   5   6
ATOM      6  C   UNL     1      -0.766 -29.902 -51.522  1.00  0.00     0.000 C 
BRANCH   6   7
ATOM      7  C   UNL     1      -0.749 -29.020 -52.780  1.00  0.00     0.000 C 
BRANCH   7   8
ATOM      8  C   UNL     1      -0.979 -27.532 -52.467  1.00  0.00     0.000 C 
BRANCH   8   9
ATOM      9  C   UNL     1       0.065 -26.621 -53.136  1.00  0.00     0.000 C 
BRANCH   9  10
ATOM     10  C   UNL     1      -0.323 -25.133 -53.075  1.00  0.00     0.000 C 
BRANCH  10  11
ATOM     11  C   UNL     1       0.003 -24.499 -51.704  1.00  0.00     0.000 C 
BRANCH  11  12
ATOM     12  C   UNL     1       1.235 -23.575 -51.732  1.00  0.00     0.006 C 
BRANCH  12  13
ATOM     13  C   UNL     1       1.761 -23.267 -53.143  1.00  0.00     0.053 C 
BRANCH  13  14
ATOM     14  C   UNL     1       3.139 -23.818 -53.362  1.00  0.00     0.041 C 
ATOM     15  O   UNL     1       4.125 -23.040 -53.471  1.00  0.00    -0.550 OA
ATOM     16  O   UNL     1       3.333 -25.189 -53.461  1.00  0.00    -0.550 OA
ENDBRANCH  13  14
ENDBRANCH  12  13
ENDBRANCH  11  12
ENDBRANCH  10  11
ENDBRANCH   9  10
ENDBRANCH   8   9
ENDBRANCH   7   8
ENDBRANCH   6   7
ENDBRANCH   5   6
ENDBRANCH   4   5
ENDBRANCH   3   4
ENDBRANCH   2   3
ENDBRANCH   1   2
BRANCH   1  17
ATOM     17  C   UNL     1      -3.541 -33.001 -50.864  1.00  0.00     0.000 C 
BRANCH  17  18
ATOM     18  C   UNL     1      -3.954 -31.732 -51.634  1.00  0.00     0.000 C 
BRANCH  18  19
ATOM     19  C   UNL     1      -5.300 -31.825 -52.380  1.00  0.00     0.000 C 
BRANCH  19  20
ATOM     20  C   UNL     1      -5.167 -31.563 -53.890  1.00  0.00     0.000 C 
BRANCH  20  21
ATOM     21  C   UNL     1      -5.601 -30.142 -54.284  1.00  0.00     0.000 C 
BRANCH  21  22
ATOM     22  C   UNL     1      -4.692 -29.052 -53.687  1.00  0.00    -0.000 C 
BRANCH  22  23
ATOM     23  C   UNL     1      -5.417 -27.693 -53.576  1.00  0.00    -0.000 C 
BRANCH  23  24
ATOM     24  C   UNL     1      -5.881 -27.351 -52.148  1.00  0.00    -0.000 C 
BRANCH  24  25
ATOM     25  C   UNL     1      -5.181 -28.196 -51.071  1.00  0.00    -0.000 C 
BRANCH  25  26
ATOM     26  C   UNL     1      -6.076 -28.478 -49.850  1.00  0.00    -0.000 C 
BRANCH  26  27
ATOM     27  C   UNL     1      -7.085 -29.627 -50.034  1.00  0.00    -0.000 C 
BRANCH  27  28
ATOM     28  C   UNL     1      -6.772 -30.847 -49.150  1.00  0.00    -0.000 C 
BRANCH  28  29
ATOM     29  C   UNL     1      -8.032 -31.461 -48.521  1.00  0.00    -0.003 C 
ATOM     30  C   UNL     1      -9.068 -30.406 -48.134  1.00  0.00     0.004 C 
ENDBRANCH  28  29
ENDBRANCH  27  28
ENDBRANCH  26  27
ENDBRANCH  25  26
ENDBRANCH  24  25
ENDBRANCH  23  24
ENDBRANCH  22  23
ENDBRANCH  21  22
ENDBRANCH  20  21
ENDBRANCH  19  20
ENDBRANCH  18  19
ENDBRANCH  17  18
ENDBRANCH   1  17
TORSDOF 26
ENDMDL
MODEL 5
REMARK VINA RESULT:    -5.486      2.853      7.239
REMARK INTER + INTRA:         -17.629
REMARK INTER:                 -14.037
REMARK INTRA:                  -3.592
REMARK UNBOUND:                -3.804
REMARK SMILES CCCCCCCCCCCCCCCCCCCCCCCCCCCC(=O)[O-]
REMARK SMILES IDX 15 1 16 2 17 3 18 4 19 5 20 6 21 7 22 8 23 9 24 10 25 11
REMARK SMILES IDX 26 12 27 13 28 14 29 15 30 16 14 17 13 18 12 19 11 20 10 21
REMARK SMILES IDX 9 22 8 23 7 24 6 25 5 26 4 27 3 28 2 29 1 30
REMARK H PARENT
REMARK Flexibility Score: inf
ROOT
ATOM      1  C   UNL     1      -1.636 -28.832 -52.799  1.00  0.00     0.000 C 
ENDROOT
BRANCH   1   2
ATOM      2  C   UNL     1      -0.614 -29.072 -51.667  1.00  0.00     0.000 C 
BRANCH   2   3
ATOM      3  C   UNL     1      -0.531 -30.537 -51.209  1.00  0.00     0.000 C 
BRANCH   3   4
ATOM      4  C   UNL     1      -0.265 -31.514 -52.367  1.00  0.00     0.000 C 
BRANCH   4   5
ATOM      5  C   UNL     1      -1.281 -32.666 -52.412  1.00  0.00     0.000 C 
BRANCH   5   6
ATOM      6  C   UNL     1      -1.877 -32.987 -51.030  1.00  0.00     0.000 C 
BRANCH   6   7
ATOM      7  C   UNL     1      -3.391 -33.249 -51.094  1.00  0.00     0.000 C 
BRANCH   7   8
ATOM      8  C   UNL     1      -4.089 -32.431 -52.194  1.00  0.00     0.000 C 
BRANCH   8   9
ATOM      9  C   UNL     1      -5.510 -31.998 -51.792  1.00  0.00     0.000 C 
BRANCH   9  10
ATOM     10  C   UNL     1      -5.580 -31.470 -50.348  1.00  0.00     0.000 C 
BRANCH  10  11
ATOM     11  C   UNL     1      -7.035 -31.268 -49.868  1.00  0.00     0.000 C 
BRANCH  11  12
ATOM     12  C   UNL     1      -7.288 -29.888 -49.233  1.00  0.00     0.006 C 
BRANCH  12  13
ATOM     13  C   UNL     1      -6.348 -28.781 -49.737  1.00  0.00     0.053 C 
BRANCH  13  14
ATOM     14  C   UNL     1      -6.616 -27.467 -49.064  1.00  0.00     0.041 C 
ATOM     15  O   UNL     1      -6.764 -27.411 -47.814  1.00  0.00    -0.550 OA
ATOM     16  O   UNL     1      -6.720 -26.306 -49.819  1.00  0.00    -0.550 OA
ENDBRANCH  13  14
ENDBRANCH  12  13
ENDBRANCH  11  12
ENDBRANCH  10  11
ENDBRANCH   9  10
ENDBRANCH   8   9
ENDBRANCH   7   8
ENDBRANCH   6   7
ENDBRANCH   5   6
ENDBRANCH   4   5
ENDBRANCH   3   4
ENDBRANCH   2   3
ENDBRANCH   1   2
BRANCH   1  17
ATOM     17  C   UNL     1      -3.076 -29.128 -52.347  1.00  0.00     0.000 C 
BRANCH  17  18
ATOM     18  C   UNL     1      -4.132 -28.736 -53.397  1.00  0.00     0.000 C 
BRANCH  18  19
ATOM     19  C   UNL     1      -5.337 -27.943 -52.853  1.00  0.00     0.000 C 
BRANCH  19  20
ATOM     20  C   UNL     1      -6.008 -27.063 -53.921  1.00  0.00     0.000 C 
BRANCH  20  21
ATOM     21  C   UNL     1      -4.994 -26.421 -54.881  1.00  0.00     0.000 C 
BRANCH  21  22
ATOM     22  C   UNL     1      -5.446 -25.041 -55.395  1.00  0.00    -0.000 C 
BRANCH  22  23
ATOM     23  C   UNL     1      -5.335 -23.955 -54.304  1.00  0.00    -0.000 C 
BRANCH  23  24
ATOM     24  C   UNL     1      -3.919 -23.370 -54.151  1.00  0.00    -0.000 C 
BRANCH  24  25
ATOM     25  C   UNL     1      -3.009 -23.679 -55.352  1.00  0.00    -0.000 C 
BRANCH  25  26
ATOM     26  C   UNL     1      -1.617 -24.192 -54.937  1.00  0.00    -0.000 C 
BRANCH  26  27
ATOM     27  C   UNL     1      -1.625 -25.332 -53.903  1.00  0.00    -0.000 C 
BRANCH  27  28
ATOM     28  C   UNL     1      -0.215 -25.711 -53.418  1.00  0.00    -0.000 C 
BRANCH  28  29
ATOM     29  C   UNL     1       0.002 -25.399 -51.929  1.00  0.00    -0.003 C 
ATOM     30  C   UNL     1       0.247 -23.913 -51.670  1.00  0.00     0.004 C 
ENDBRANCH  28  29
ENDBRANCH  27  28
ENDBRANCH  26  27
ENDBRANCH  25  26
ENDBRANCH  24  25
ENDBRANCH  23  24
ENDBRANCH  22  23
ENDBRANCH  21  22
ENDBRANCH  20  21
ENDBRANCH  19  20
ENDBRANCH  18  19
ENDBRANCH  17  18
ENDBRANCH   1  17
TORSDOF 26
ENDMDL
MODEL 6
REMARK VINA RESULT:    -5.479      3.006      6.537
REMARK INTER + INTRA:         -17.611
REMARK INTER:                 -13.816
REMARK INTRA:                  -3.795
REMARK UNBOUND:                -3.804
REMARK SMILES CCCCCCCCCCCCCCCCCCCCCCCCCCCC(=O)[O-]
REMARK SMILES IDX 15 1 16 2 17 3 18 4 19 5 20 6 21 7 22 8 23 9 24 10 25 11
REMARK SMILES IDX 26 12 27 13 28 14 29 15 30 16 14 17 13 18 12 19 11 20 10 21
REMARK SMILES IDX 9 22 8 23 7 24 6 25 5 26 4 27 3 28 2 29 1 30
REMARK H PARENT
REMARK Flexibility Score: inf
ROOT
ATOM      1  C   UNL     1      -6.294 -31.876 -50.775  1.00  0.00     0.000 C 
ENDROOT
BRANCH   1   2
ATOM      2  C   UNL     1      -4.838 -32.236 -51.138  1.00  0.00     0.000 C 
BRANCH   2   3
ATOM      3  C   UNL     1      -4.551 -32.206 -52.649  1.00  0.00     0.000 C 
BRANCH   3   4
ATOM      4  C   UNL     1      -3.148 -31.673 -52.983  1.00  0.00     0.000 C 
BRANCH   4   5
ATOM      5  C   UNL     1      -2.114 -32.798 -53.151  1.00  0.00     0.000 C 
BRANCH   5   6
ATOM      6  C   UNL     1      -0.909 -32.643 -52.206  1.00  0.00     0.000 C 
BRANCH   6   7
ATOM      7  C   UNL     1      -1.112 -31.515 -51.182  1.00  0.00     0.000 C 
BRANCH   7   8
ATOM      8  C   UNL     1      -0.074 -30.388 -51.324  1.00  0.00     0.000 C 
BRANCH   8   9
ATOM      9  C   UNL     1      -0.726 -29.019 -51.584  1.00  0.00     0.000 C 
BRANCH   9  10
ATOM     10  C   UNL     1      -0.656 -28.603 -53.064  1.00  0.00     0.000 C 
BRANCH  10  11
ATOM     11  C   UNL     1      -0.993 -27.110 -53.270  1.00  0.00     0.000 C 
BRANCH  11  12
ATOM     12  C   UNL     1      -0.130 -26.160 -52.417  1.00  0.00     0.006 C 
BRANCH  12  13
ATOM     13  C   UNL     1       0.127 -24.790 -53.064  1.00  0.00     0.053 C 
BRANCH  13  14
ATOM     14  C   UNL     1       1.352 -24.127 -52.506  1.00  0.00     0.041 C 
ATOM     15  O   UNL     1       2.387 -24.004 -53.214  1.00  0.00    -0.550 OA
ATOM     16  O   UNL     1       1.356 -23.658 -51.200  1.00  0.00    -0.550 OA
ENDBRANCH  13  14
ENDBRANCH  12  13
ENDBRANCH  11  12
ENDBRANCH  10  11
ENDBRANCH   9  10
ENDBRANCH   8   9
ENDBRANCH   7   8
ENDBRANCH   6   7
ENDBRANCH   5   6
ENDBRANCH   4   5
ENDBRANCH   3   4
ENDBRANCH   2   3
ENDBRANCH   1   2
BRANCH   1  17
ATOM     17  C   UNL     1      -6.398 -31.237 -49.380  1.00  0.00     0.000 C 
BRANCH  17  18
ATOM     18  C   UNL     1      -7.196 -29.920 -49.376  1.00  0.00     0.000 C 
BRANCH  18  19
ATOM     19  C   UNL     1      -6.345 -28.636 -49.316  1.00  0.00     0.000 C 
BRANCH  19  20
ATOM     20  C   UNL     1      -6.107 -28.009 -50.700  1.00  0.00     0.000 C 
BRANCH  20  21
ATOM     21  C   UNL     1      -4.872 -28.588 -51.408  1.00  0.00     0.000 C 
BRANCH  21  22
ATOM     22  C   UNL     1      -4.489 -27.806 -52.678  1.00  0.00    -0.000 C 
BRANCH  22  23
ATOM     23  C   UNL     1      -4.733 -28.631 -53.960  1.00  0.00    -0.000 C 
BRANCH  23  24
ATOM     24  C   UNL     1      -6.095 -28.357 -54.624  1.00  0.00    -0.000 C 
BRANCH  24  25
ATOM     25  C   UNL     1      -6.469 -26.866 -54.633  1.00  0.00    -0.000 C 
BRANCH  25  26
ATOM     26  C   UNL     1      -5.583 -26.027 -55.574  1.00  0.00    -0.000 C 
BRANCH  26  27
ATOM     27  C   UNL     1      -5.624 -24.508 -55.326  1.00  0.00    -0.000 C 
BRANCH  27  28
ATOM     28  C   UNL     1      -4.842 -24.085 -54.071  1.00  0.00    -0.000 C 
BRANCH  28  29
ATOM     29  C   UNL     1      -3.322 -24.082 -54.295  1.00  0.00    -0.003 C 
ATOM     30  C   UNL     1      -2.877 -23.014 -55.294  1.00  0.00     0.004 C 
ENDBRANCH  28  29
ENDBRANCH  27  28
ENDBRANCH  26  27
ENDBRANCH  25  26
ENDBRANCH  24  25
ENDBRANCH  23  24
ENDBRANCH  22  23
ENDBRANCH  21  22
ENDBRANCH  20  21
ENDBRANCH  19  20
ENDBRANCH  18  19
ENDBRANCH  17  18
ENDBRANCH   1  17
TORSDOF 26
ENDMDL
MODEL 7
REMARK VINA RESULT:    -5.458      3.036      6.846
REMARK INTER + INTRA:         -17.558
REMARK INTER:                 -14.271
REMARK INTRA:                  -3.287
REMARK UNBOUND:                -3.804
REMARK SMILES CCCCCCCCCCCCCCCCCCCCCCCCCCCC(=O)[O-]
REMARK SMILES IDX 15 1 16 2 17 3 18 4 19 5 20 6 21 7 22 8 23 9 24 10 25 11
REMARK SMILES IDX 26 12 27 13 28 14 29 15 30 16 14 17 13 18 12 19 11 20 10 21
REMARK SMILES IDX 9 22 8 23 7 24 6 25 5 26 4 27 3 28 2 29 1 30
REMARK H PARENT
REMARK Flexibility Score: inf
ROOT
ATOM      1  C   UNL     1      -6.337 -29.004 -48.411  1.00  0.00     0.000 C 
ENDROOT
BRANCH   1   2
ATOM      2  C   UNL     1      -7.669 -29.752 -48.630  1.00  0.00     0.000 C 
BRANCH   2   3
ATOM      3  C   UNL     1      -7.498 -31.258 -48.885  1.00  0.00     0.000 C 
BRANCH   3   4
ATOM      4  C   UNL     1      -7.168 -31.586 -50.351  1.00  0.00     0.000 C 
BRANCH   4   5
ATOM      5  C   UNL     1      -5.693 -31.963 -50.554  1.00  0.00     0.000 C 
BRANCH   5   6
ATOM      6  C   UNL     1      -5.311 -32.091 -52.040  1.00  0.00     0.000 C 
BRANCH   6   7
ATOM      7  C   UNL     1      -3.809 -31.868 -52.278  1.00  0.00     0.000 C 
BRANCH   7   8
ATOM      8  C   UNL     1      -2.931 -32.543 -51.210  1.00  0.00     0.000 C 
BRANCH   8   9
ATOM      9  C   UNL     1      -2.012 -33.626 -51.803  1.00  0.00     0.000 C 
BRANCH   9  10
ATOM     10  C   UNL     1      -1.437 -33.226 -53.174  1.00  0.00     0.000 C 
BRANCH  10  11
ATOM     11  C   UNL     1       0.090 -33.002 -53.125  1.00  0.00     0.000 C 
BRANCH  11  12
ATOM     12  C   UNL     1       0.510 -31.810 -52.244  1.00  0.00     0.006 C 
BRANCH  12  13
ATOM     13  C   UNL     1       0.310 -30.437 -52.906  1.00  0.00     0.053 C 
BRANCH  13  14
ATOM     14  C   UNL     1      -0.636 -29.571 -52.129  1.00  0.00     0.041 C 
ATOM     15  O   UNL     1      -1.714 -29.178 -52.651  1.00  0.00    -0.550 OA
ATOM     16  O   UNL     1      -0.322 -29.184 -50.833  1.00  0.00    -0.550 OA
ENDBRANCH  13  14
ENDBRANCH  12  13
ENDBRANCH  11  12
ENDBRANCH  10  11
ENDBRANCH   9  10
ENDBRANCH   8   9
ENDBRANCH   7   8
ENDBRANCH   6   7
ENDBRANCH   5   6
ENDBRANCH   4   5
ENDBRANCH   3   4
ENDBRANCH   2   3
ENDBRANCH   1   2
BRANCH   1  17
ATOM     17  C   UNL     1      -6.353 -27.601 -49.042  1.00  0.00     0.000 C 
BRANCH  17  18
ATOM     18  C   UNL     1      -6.370 -27.631 -50.582  1.00  0.00     0.000 C 
BRANCH  18  19
ATOM     19  C   UNL     1      -5.228 -28.432 -51.237  1.00  0.00     0.000 C 
BRANCH  19  20
ATOM     20  C   UNL     1      -5.001 -28.056 -52.711  1.00  0.00     0.000 C 
BRANCH  20  21
ATOM     21  C   UNL     1      -6.123 -27.172 -53.277  1.00  0.00     0.000 C 
BRANCH  21  22
ATOM     22  C   UNL     1      -6.135 -27.130 -54.816  1.00  0.00    -0.000 C 
BRANCH  22  23
ATOM     23  C   UNL     1      -5.169 -26.061 -55.372  1.00  0.00    -0.000 C 
BRANCH  23  24
ATOM     24  C   UNL     1      -5.090 -24.787 -54.510  1.00  0.00    -0.000 C 
BRANCH  24  25
ATOM     25  C   UNL     1      -3.666 -24.214 -54.414  1.00  0.00    -0.000 C 
BRANCH  25  26
ATOM     26  C   UNL     1      -2.576 -25.303 -54.431  1.00  0.00    -0.000 C 
BRANCH  26  27
ATOM     27  C   UNL     1      -1.190 -24.843 -53.943  1.00  0.00    -0.000 C 
BRANCH  27  28
ATOM     28  C   UNL     1      -0.525 -25.852 -52.991  1.00  0.00    -0.000 C 
BRANCH  28  29
ATOM     29  C   UNL     1      -0.008 -25.197 -51.701  1.00  0.00    -0.003 C 
ATOM     30  C   UNL     1       1.216 -24.313 -51.941  1.00  0.00     0.004 C 
ENDBRANCH  28  29
ENDBRANCH  27  28
ENDBRANCH  26  27
ENDBRANCH  25  26
ENDBRANCH  24  25
ENDBRANCH  23  24
ENDBRANCH  22  23
ENDBRANCH  21  22
ENDBRANCH  20  21
ENDBRANCH  19  20
ENDBRANCH  18  19
ENDBRANCH  17  18
ENDBRANCH   1  17
TORSDOF 26
ENDMDL
MODEL 8
REMARK VINA RESULT:    -5.436      4.259      7.449
REMARK INTER + INTRA:         -17.502
REMARK INTER:                 -13.889
REMARK INTRA:                  -3.613
REMARK UNBOUND:                -3.804
REMARK SMILES CCCCCCCCCCCCCCCCCCCCCCCCCCCC(=O)[O-]
REMARK SMILES IDX 15 1 16 2 17 3 18 4 19 5 20 6 21 7 22 8 23 9 24 10 25 11
REMARK SMILES IDX 26 12 27 13 28 14 29 15 30 16 14 17 13 18 12 19 11 20 10 21
REMARK SMILES IDX 9 22 8 23 7 24 6 25 5 26 4 27 3 28 2 29 1 30
REMARK H PARENT
REMARK Flexibility Score: inf
ROOT
ATOM      1  C   UNL     1      -4.150 -27.857 -53.620  1.00  0.00     0.000 C 
ENDROOT
BRANCH   1   2
ATOM      2  C   UNL     1      -5.440 -27.677 -52.791  1.00  0.00     0.000 C 
BRANCH   2   3
ATOM      3  C   UNL     1      -5.344 -28.245 -51.365  1.00  0.00     0.000 C 
BRANCH   3   4
ATOM      4  C   UNL     1      -6.377 -27.632 -50.405  1.00  0.00     0.000 C 
BRANCH   4   5
ATOM      5  C   UNL     1      -6.375 -28.310 -49.026  1.00  0.00     0.000 C 
BRANCH   5   6
ATOM      6  C   UNL     1      -7.212 -29.601 -48.997  1.00  0.00     0.000 C 
BRANCH   6   7
ATOM      7  C   UNL     1      -6.340 -30.864 -49.093  1.00  0.00     0.000 C 
BRANCH   7   8
ATOM      8  C   UNL     1      -6.514 -31.607 -50.429  1.00  0.00     0.000 C 
BRANCH   8   9
ATOM      9  C   UNL     1      -5.172 -32.066 -51.025  1.00  0.00     0.000 C 
BRANCH   9  10
ATOM     10  C   UNL     1      -5.266 -32.357 -52.533  1.00  0.00     0.000 C 
BRANCH  10  11
ATOM     11  C   UNL     1      -4.043 -31.820 -53.310  1.00  0.00     0.000 C 
BRANCH  11  12
ATOM     12  C   UNL     1      -2.749 -32.616 -53.047  1.00  0.00     0.006 C 
BRANCH  12  13
ATOM     13  C   UNL     1      -1.498 -31.741 -52.866  1.00  0.00     0.053 C 
BRANCH  13  14
ATOM     14  C   UNL     1      -0.902 -31.892 -51.498  1.00  0.00     0.041 C 
ATOM     15  O   UNL     1       0.195 -31.337 -51.217  1.00  0.00    -0.550 OA
ATOM     16  O   UNL     1      -1.547 -32.657 -50.536  1.00  0.00    -0.550 OA
ENDBRANCH  13  14
ENDBRANCH  12  13
ENDBRANCH  11  12
ENDBRANCH  10  11
ENDBRANCH   9  10
ENDBRANCH   8   9
ENDBRANCH   7   8
ENDBRANCH   6   7
ENDBRANCH   5   6
ENDBRANCH   4   5
ENDBRANCH   3   4
ENDBRANCH   2   3
ENDBRANCH   1   2
BRANCH   1  17
ATOM     17  C   UNL     1      -3.033 -28.533 -52.808  1.00  0.00     0.000 C 
BRANCH  17  18
ATOM     18  C   UNL     1      -1.730 -27.711 -52.770  1.00  0.00     0.000 C 
BRANCH  18  19
ATOM     19  C   UNL     1      -1.570 -26.680 -53.904  1.00  0.00     0.000 C 
BRANCH  19  20
ATOM     20  C   UNL     1      -0.964 -25.350 -53.424  1.00  0.00     0.000 C 
BRANCH  20  21
ATOM     21  C   UNL     1      -0.016 -25.529 -52.228  1.00  0.00     0.000 C 
BRANCH  21  22
ATOM     22  C   UNL     1       0.847 -24.282 -51.956  1.00  0.00    -0.000 C 
BRANCH  22  23
ATOM     23  C   UNL     1       1.361 -23.640 -53.262  1.00  0.00    -0.000 C 
BRANCH  23  24
ATOM     24  C   UNL     1       2.895 -23.648 -53.396  1.00  0.00    -0.000 C 
BRANCH  24  25
ATOM     25  C   UNL     1       3.507 -25.045 -53.205  1.00  0.00    -0.000 C 
BRANCH  25  26
ATOM     26  C   UNL     1       4.125 -25.615 -54.496  1.00  0.00    -0.000 C 
BRANCH  26  27
ATOM     27  C   UNL     1       3.621 -27.013 -54.898  1.00  0.00    -0.000 C 
BRANCH  27  28
ATOM     28  C   UNL     1       2.105 -27.183 -54.700  1.00  0.00    -0.000 C 
BRANCH  28  29
ATOM     29  C   UNL     1       1.576 -28.499 -55.290  1.00  0.00    -0.003 C 
ATOM     30  C   UNL     1       1.092 -29.473 -54.216  1.00  0.00     0.004 C 
ENDBRANCH  28  29
ENDBRANCH  27  28
ENDBRANCH  26  27
ENDBRANCH  25  26
ENDBRANCH  24  25
ENDBRANCH  23  24
ENDBRANCH  22  23
ENDBRANCH  21  22
ENDBRANCH  20  21
ENDBRANCH  19  20
ENDBRANCH  18  19
ENDBRANCH  17  18
ENDBRANCH   1  17
TORSDOF 26
ENDMDL
MODEL 9
REMARK VINA RESULT:    -5.412      3.763      7.620
REMARK INTER + INTRA:         -17.443
REMARK INTER:                 -13.553
REMARK INTRA:                  -3.890
REMARK UNBOUND:                -3.804
REMARK SMILES CCCCCCCCCCCCCCCCCCCCCCCCCCCC(=O)[O-]
REMARK SMILES IDX 15 1 16 2 17 3 18 4 19 5 20 6 21 7 22 8 23 9 24 10 25 11
REMARK SMILES IDX 26 12 27 13 28 14 29 15 30 16 14 17 13 18 12 19 11 20 10 21
REMARK SMILES IDX 9 22 8 23 7 24 6 25 5 26 4 27 3 28 2 29 1 30
REMARK H PARENT
REMARK Flexibility Score: inf
ROOT
ATOM      1  C   UNL     1      -5.616 -24.643 -54.847  1.00  0.00     0.000 C 
ENDROOT
BRANCH   1   2
ATOM      2  C   UNL     1      -4.365 -23.782 -54.569  1.00  0.00     0.000 C 
BRANCH   2   3
ATOM      3  C   UNL     1      -3.039 -24.517 -54.824  1.00  0.00     0.000 C 
BRANCH   3   4
ATOM      4  C   UNL     1      -1.805 -23.627 -54.598  1.00  0.00     0.000 C 
BRANCH   4   5
ATOM      5  C   UNL     1      -1.988 -22.653 -53.423  1.00  0.00     0.000 C 
BRANCH   5   6
ATOM      6  C   UNL     1      -1.076 -22.986 -52.228  1.00  0.00     0.000 C 
BRANCH   6   7
ATOM      7  C   UNL     1       0.406 -23.061 -52.628  1.00  0.00     0.000 C 
BRANCH   7   8
ATOM      8  C   UNL     1       1.039 -24.427 -52.311  1.00  0.00     0.000 C 
BRANCH   8   9
ATOM      9  C   UNL     1       0.004 -25.456 -51.824  1.00  0.00     0.000 C 
BRANCH   9  10
ATOM     10  C   UNL     1      -0.110 -26.668 -52.765  1.00  0.00     0.000 C 
BRANCH  10  11
ATOM     11  C   UNL     1      -1.545 -27.238 -52.814  1.00  0.00     0.000 C 
BRANCH  11  12
ATOM     12  C   UNL     1      -1.597 -28.778 -52.795  1.00  0.00     0.006 C 
BRANCH  12  13
ATOM     13  C   UNL     1      -0.870 -29.418 -51.601  1.00  0.00     0.053 C 
BRANCH  13  14
ATOM     14  C   UNL     1       0.115 -30.462 -52.037  1.00  0.00     0.041 C 
ATOM     15  O   UNL     1       0.425 -31.407 -51.263  1.00  0.00    -0.550 OA
ATOM     16  O   UNL     1       0.704 -30.383 -53.292  1.00  0.00    -0.550 OA
ENDBRANCH  13  14
ENDBRANCH  12  13
ENDBRANCH  11  12
ENDBRANCH  10  11
ENDBRANCH   9  10
ENDBRANCH   8   9
ENDBRANCH   7   8
ENDBRANCH   6   7
ENDBRANCH   5   6
ENDBRANCH   4   5
ENDBRANCH   3   4
ENDBRANCH   2   3
ENDBRANCH   1   2
BRANCH   1  17
ATOM     17  C   UNL     1      -5.249 -26.040 -55.372  1.00  0.00     0.000 C 
BRANCH  17  18
ATOM     18  C   UNL     1      -6.244 -27.132 -54.935  1.00  0.00     0.000 C 
BRANCH  18  19
ATOM     19  C   UNL     1      -5.612 -28.365 -54.261  1.00  0.00     0.000 C 
BRANCH  19  20
ATOM     20  C   UNL     1      -5.199 -28.106 -52.802  1.00  0.00     0.000 C 
BRANCH  20  21
ATOM     21  C   UNL     1      -6.118 -27.096 -52.097  1.00  0.00     0.000 C 
BRANCH  21  22
ATOM     22  C   UNL     1      -6.398 -27.465 -50.628  1.00  0.00    -0.000 C 
BRANCH  22  23
ATOM     23  C   UNL     1      -5.657 -28.751 -50.205  1.00  0.00    -0.000 C 
BRANCH  23  24
ATOM     24  C   UNL     1      -6.497 -29.688 -49.317  1.00  0.00    -0.000 C 
BRANCH  24  25
ATOM     25  C   UNL     1      -6.807 -31.035 -49.990  1.00  0.00    -0.000 C 
BRANCH  25  26
ATOM     26  C   UNL     1      -6.010 -31.257 -51.290  1.00  0.00    -0.000 C 
BRANCH  26  27
ATOM     27  C   UNL     1      -4.909 -32.330 -51.204  1.00  0.00    -0.000 C 
BRANCH  27  28
ATOM     28  C   UNL     1      -3.640 -31.952 -51.986  1.00  0.00    -0.000 C 
BRANCH  28  29
ATOM     29  C   UNL     1      -2.583 -33.067 -51.975  1.00  0.00    -0.003 C 
ATOM     30  C   UNL     1      -2.579 -33.858 -50.667  1.00  0.00     0.004 C 
ENDBRANCH  28  29
ENDBRANCH  27  28
ENDBRANCH  26  27
ENDBRANCH  25  26
ENDBRANCH  24  25
ENDBRANCH  23  24
ENDBRANCH  22  23
ENDBRANCH  21  22
ENDBRANCH  20  21
ENDBRANCH  19  20
ENDBRANCH  18  19
ENDBRANCH  17  18
ENDBRANCH   1  17
TORSDOF 26
ENDMDL
