MODEL 1
REMARK VINA RESULT:    -3.766      0.000      0.000
REMARK INTER + INTRA:         -15.898
REMARK INTER:                  -9.931
REMARK INTRA:                  -5.967
REMARK UNBOUND:                -5.967
REMARK SMILES CCCCCCCCCCCCCCCCCCCCCCCCCCCCCC(=O)[O-]
REMARK SMILES IDX 16 1 17 2 18 3 19 4 20 5 21 6 22 7 23 8 24 9 25 10 26 11
REMARK SMILES IDX 27 12 28 13 29 14 30 15 31 16 32 17 15 18 14 19 13 20 12 21
REMARK SMILES IDX 11 22 10 23 9 24 8 25 7 26 6 27 5 28 4 29 3 30 2 31 1 32
REMARK H PARENT
REMARK Flexibility Score: inf
ROOT
ATOM      1  C   UNL     1      -9.549 -10.607  18.346  1.00  0.00     0.000 C 
ENDROOT
BRANCH   1   2
ATOM      2  C   UNL     1      -9.589  -9.329  19.200  1.00  0.00     0.000 C 
BRANCH   2   3
ATOM      3  C   UNL     1      -8.680  -9.410  20.435  1.00  0.00     0.000 C 
BRANCH   3   4
ATOM      4  C   UNL     1      -7.642 -10.532  20.281  1.00  0.00     0.000 C 
BRANCH   4   5
ATOM      5  C   UNL     1      -6.216  -9.987  20.059  1.00  0.00     0.000 C 
BRANCH   5   6
ATOM      6  C   UNL     1      -6.009  -9.309  18.690  1.00  0.00     0.000 C 
BRANCH   6   7
ATOM      7  C   UNL     1      -5.216 -10.164  17.679  1.00  0.00     0.000 C 
BRANCH   7   8
ATOM      8  C   UNL     1      -5.532 -11.671  17.752  1.00  0.00     0.000 C 
BRANCH   8   9
ATOM      9  C   UNL     1      -5.869 -12.337  16.401  1.00  0.00     0.000 C 
BRANCH   9  10
ATOM     10  C   UNL     1      -7.150 -13.191  16.376  1.00  0.00     0.000 C 
BRANCH  10  11
ATOM     11  C   UNL     1      -7.427 -13.900  17.711  1.00  0.00     0.000 C 
BRANCH  11  12
ATOM     12  C   UNL     1      -8.925 -13.963  18.054  1.00  0.00     0.000 C 
BRANCH  12  13
ATOM     13  C   UNL     1      -9.783 -14.636  16.960  1.00  0.00     0.006 C 
BRANCH  13  14
ATOM     14  C   UNL     1     -11.128 -13.925  16.763  1.00  0.00     0.053 C 
BRANCH  14  15
ATOM     15  C   UNL     1     -11.292 -13.499  15.338  1.00  0.00     0.041 C 
ATOM     16  O   UNL     1     -12.440 -13.424  14.827  1.00  0.00    -0.550 OA
ATOM     17  O   UNL     1     -10.179 -13.141  14.587  1.00  0.00    -0.550 OA
ENDBRANCH  14  15
ENDBRANCH  13  14
ENDBRANCH  12  13
ENDBRANCH  11  12
ENDBRANCH  10  11
ENDBRANCH   9  10
ENDBRANCH   8   9
ENDBRANCH   7   8
ENDBRANCH   6   7
ENDBRANCH   5   6
ENDBRANCH   4   5
ENDBRANCH   3   4
ENDBRANCH   2   3
ENDBRANCH   1   2
BRANCH   1  18
ATOM     18  C   UNL     1      -9.745 -10.323  16.847  1.00  0.00     0.000 C 
BRANCH  18  19
ATOM     19  C   UNL     1      -8.864  -9.171  16.333  1.00  0.00     0.000 C 
BRANCH  19  20
ATOM     20  C   UNL     1      -7.893  -9.542  15.192  1.00  0.00     0.000 C 
BRANCH  20  21
ATOM     21  C   UNL     1      -6.863  -8.456  14.830  1.00  0.00     0.000 C 
BRANCH  21  22
ATOM     22  C   UNL     1      -7.467  -7.081  14.480  1.00  0.00     0.000 C 
BRANCH  22  23
ATOM     23  C   UNL     1      -6.906  -5.895  15.290  1.00  0.00     0.000 C 
BRANCH  23  24
ATOM     24  C   UNL     1      -6.000  -6.289  16.470  1.00  0.00    -0.000 C 
BRANCH  24  25
ATOM     25  C   UNL     1      -6.497  -5.726  17.814  1.00  0.00    -0.000 C 
BRANCH  25  26
ATOM     26  C   UNL     1      -7.944  -6.137  18.133  1.00  0.00    -0.000 C 
BRANCH  26  27
ATOM     27  C   UNL     1      -8.297  -5.936  19.617  1.00  0.00    -0.000 C 
BRANCH  27  28
ATOM     28  C   UNL     1      -7.100  -6.176  20.555  1.00  0.00    -0.000 C 
BRANCH  28  29
ATOM     29  C   UNL     1      -7.373  -5.907  22.048  1.00  0.00    -0.000 C 
BRANCH  29  30
ATOM     30  C   UNL     1      -8.828  -6.183  22.453  1.00  0.00    -0.000 C 
BRANCH  30  31
ATOM     31  C   UNL     1      -8.905  -7.284  23.516  1.00  0.00    -0.003 C 
ATOM     32  C   UNL     1     -10.242  -8.018  23.453  1.00  0.00     0.004 C 
ENDBRANCH  30  31
ENDBRANCH  29  30
ENDBRANCH  28  29
ENDBRANCH  27  28
ENDBRANCH  26  27
ENDBRANCH  25  26
ENDBRANCH  24  25
ENDBRANCH  23  24
ENDBRANCH  22  23
ENDBRANCH  21  22
ENDBRANCH  20  21
ENDBRANCH  19  20
ENDBRANCH  18  19
ENDBRANCH   1  18
TORSDOF 28
ENDMDL
MODEL 2
REMARK VINA RESULT:    -3.665      1.712      3.404
REMARK INTER + INTRA:         -15.631
REMARK INTER:                  -9.978
REMARK INTRA:                  -5.653
REMARK UNBOUND:                -5.967
REMARK SMILES CCCCCCCCCCCCCCCCCCCCCCCCCCCCCC(=O)[O-]
REMARK SMILES IDX 16 1 17 2 18 3 19 4 20 5 21 6 22 7 23 8 24 9 25 10 26 11
REMARK SMILES IDX 27 12 28 13 29 14 30 15 31 16 32 17 15 18 14 19 13 20 12 21
REMARK SMILES IDX 11 22 10 23 9 24 8 25 7 26 6 27 5 28 4 29 3 30 2 31 1 32
REMARK H PARENT
REMARK Flexibility Score: inf
ROOT
ATOM      1  C   UNL     1      -9.434  -8.545  18.103  1.00  0.00     0.000 C 
ENDROOT
BRANCH   1   2
ATOM      2  C   UNL     1      -9.063  -9.121  16.727  1.00  0.00     0.000 C 
BRANCH   2   3
ATOM      3  C   UNL     1      -8.170  -8.178  15.908  1.00  0.00     0.000 C 
BRANCH   3   4
ATOM      4  C   UNL     1      -7.139  -8.970  15.089  1.00  0.00     0.000 C 
BRANCH   4   5
ATOM      5  C   UNL     1      -5.843  -9.242  15.880  1.00  0.00     0.000 C 
BRANCH   5   6
ATOM      6  C   UNL     1      -5.711 -10.690  16.390  1.00  0.00     0.000 C 
BRANCH   6   7
ATOM      7  C   UNL     1      -6.364 -11.742  15.468  1.00  0.00     0.000 C 
BRANCH   7   8
ATOM      8  C   UNL     1      -7.570 -12.465  16.102  1.00  0.00     0.000 C 
BRANCH   8   9
ATOM      9  C   UNL     1      -7.876 -13.863  15.521  1.00  0.00     0.000 C 
BRANCH   9  10
ATOM     10  C   UNL     1      -8.527 -13.880  14.126  1.00  0.00     0.000 C 
BRANCH  10  11
ATOM     11  C   UNL     1      -9.828 -13.066  14.058  1.00  0.00     0.000 C 
BRANCH  11  12
ATOM     12  C   UNL     1     -11.079 -13.914  14.344  1.00  0.00     0.000 C 
BRANCH  12  13
ATOM     13  C   UNL     1     -11.929 -13.386  15.520  1.00  0.00     0.006 C 
BRANCH  13  14
ATOM     14  C   UNL     1     -11.263 -12.199  16.227  1.00  0.00     0.053 C 
BRANCH  14  15
ATOM     15  C   UNL     1     -11.184 -12.442  17.701  1.00  0.00     0.041 C 
ATOM     16  O   UNL     1     -12.055 -11.960  18.471  1.00  0.00    -0.550 OA
ATOM     17  O   UNL     1     -10.172 -13.242  18.219  1.00  0.00    -0.550 OA
ENDBRANCH  14  15
ENDBRANCH  13  14
ENDBRANCH  12  13
ENDBRANCH  11  12
ENDBRANCH  10  11
ENDBRANCH   9  10
ENDBRANCH   8   9
ENDBRANCH   7   8
ENDBRANCH   6   7
ENDBRANCH   5   6
ENDBRANCH   4   5
ENDBRANCH   3   4
ENDBRANCH   2   3
ENDBRANCH   1   2
BRANCH   1  18
ATOM     18  C   UNL     1      -9.391  -9.603  19.219  1.00  0.00     0.000 C 
BRANCH  18  19
ATOM     19  C   UNL     1      -8.114 -10.460  19.186  1.00  0.00     0.000 C 
BRANCH  19  20
ATOM     20  C   UNL     1      -7.297 -10.478  20.495  1.00  0.00     0.000 C 
BRANCH  20  21
ATOM     21  C   UNL     1      -5.770 -10.565  20.313  1.00  0.00     0.000 C 
BRANCH  21  22
ATOM     22  C   UNL     1      -5.140  -9.381  19.552  1.00  0.00     0.000 C 
BRANCH  22  23
ATOM     23  C   UNL     1      -5.661  -7.989  19.962  1.00  0.00     0.000 C 
BRANCH  23  24
ATOM     24  C   UNL     1      -6.087  -7.087  18.790  1.00  0.00    -0.000 C 
BRANCH  24  25
ATOM     25  C   UNL     1      -6.505  -5.678  19.248  1.00  0.00    -0.000 C 
BRANCH  25  26
ATOM     26  C   UNL     1      -8.016  -5.429  19.105  1.00  0.00    -0.000 C 
BRANCH  26  27
ATOM     27  C   UNL     1      -8.781  -5.705  20.411  1.00  0.00    -0.000 C 
BRANCH  27  28
ATOM     28  C   UNL     1      -7.900  -5.558  21.664  1.00  0.00    -0.000 C 
BRANCH  28  29
ATOM     29  C   UNL     1      -7.909  -6.767  22.618  1.00  0.00    -0.000 C 
BRANCH  29  30
ATOM     30  C   UNL     1      -9.081  -7.726  22.363  1.00  0.00    -0.000 C 
BRANCH  30  31
ATOM     31  C   UNL     1     -10.012  -7.795  23.579  1.00  0.00    -0.003 C 
ATOM     32  C   UNL     1     -10.542  -6.412  23.946  1.00  0.00     0.004 C 
ENDBRANCH  30  31
ENDBRANCH  29  30
ENDBRANCH  28  29
ENDBRANCH  27  28
ENDBRANCH  26  27
ENDBRANCH  25  26
ENDBRANCH  24  25
ENDBRANCH  23  24
ENDBRANCH  22  23
ENDBRANCH  21  22
ENDBRANCH  20  21
ENDBRANCH  19  20
ENDBRANCH  18  19
ENDBRANCH   1  18
TORSDOF 28
ENDMDL
MODEL 3
REMARK VINA RESULT:    -3.646      4.651      9.921
REMARK INTER + INTRA:         -15.580
REMARK INTER:                 -11.534
REMARK INTRA:                  -4.046
REMARK UNBOUND:                -5.967
REMARK SMILES CCCCCCCCCCCCCCCCCCCCCCCCCCCCCC(=O)[O-]
REMARK SMILES IDX 16 1 17 2 18 3 19 4 20 5 21 6 22 7 23 8 24 9 25 10 26 11
REMARK SMILES IDX 27 12 28 13 29 14 30 15 31 16 32 17 15 18 14 19 13 20 12 21
REMARK SMILES IDX 11 22 10 23 9 24 8 25 7 26 6 27 5 28 4 29 3 30 2 31 1 32
REMARK H PARENT
REMARK Flexibility Score: inf
ROOT
ATOM      1  C   UNL     1     -11.282 -12.843  17.394  1.00  0.00     0.000 C 
ENDROOT
BRANCH   1   2
ATOM      2  C   UNL     1      -9.913 -12.822  18.095  1.00  0.00     0.000 C 
BRANCH   2   3
ATOM      3  C   UNL     1      -9.039 -14.030  17.730  1.00  0.00     0.000 C 
BRANCH   3   4
ATOM      4  C   UNL     1      -7.671 -13.577  17.197  1.00  0.00     0.000 C 
BRANCH   4   5
ATOM      5  C   UNL     1      -7.700 -12.134  16.653  1.00  0.00     0.000 C 
BRANCH   5   6
ATOM      6  C   UNL     1      -6.459 -11.299  17.023  1.00  0.00     0.000 C 
BRANCH   6   7
ATOM      7  C   UNL     1      -5.928 -11.561  18.449  1.00  0.00     0.000 C 
BRANCH   7   8
ATOM      8  C   UNL     1      -6.279 -10.450  19.459  1.00  0.00     0.000 C 
BRANCH   8   9
ATOM      9  C   UNL     1      -7.654 -10.600  20.147  1.00  0.00     0.000 C 
BRANCH   9  10
ATOM     10  C   UNL     1      -8.509  -9.322  20.218  1.00  0.00     0.000 C 
BRANCH  10  11
ATOM     11  C   UNL     1      -9.708  -9.346  19.257  1.00  0.00     0.000 C 
BRANCH  11  12
ATOM     12  C   UNL     1      -9.326  -8.966  17.816  1.00  0.00     0.000 C 
BRANCH  12  13
ATOM     13  C   UNL     1      -8.606  -7.604  17.706  1.00  0.00     0.006 C 
BRANCH  13  14
ATOM     14  C   UNL     1      -7.243  -7.727  17.012  1.00  0.00     0.053 C 
BRANCH  14  15
ATOM     15  C   UNL     1      -7.391  -7.572  15.532  1.00  0.00     0.041 C 
ATOM     16  O   UNL     1      -7.696  -8.563  14.818  1.00  0.00    -0.550 OA
ATOM     17  O   UNL     1      -7.237  -6.321  14.945  1.00  0.00    -0.550 OA
ENDBRANCH  14  15
ENDBRANCH  13  14
ENDBRANCH  12  13
ENDBRANCH  11  12
ENDBRANCH  10  11
ENDBRANCH   9  10
ENDBRANCH   8   9
ENDBRANCH   7   8
ENDBRANCH   6   7
ENDBRANCH   5   6
ENDBRANCH   4   5
ENDBRANCH   3   4
ENDBRANCH   2   3
ENDBRANCH   1   2
BRANCH   1  18
ATOM     18  C   UNL     1     -11.520 -14.139  16.600  1.00  0.00     0.000 C 
BRANCH  18  19
ATOM     19  C   UNL     1     -12.295 -13.909  15.291  1.00  0.00     0.000 C 
BRANCH  19  20
ATOM     20  C   UNL     1     -11.433 -13.878  14.012  1.00  0.00     0.000 C 
BRANCH  20  21
ATOM     21  C   UNL     1     -10.055 -13.207  14.167  1.00  0.00     0.000 C 
BRANCH  21  22
ATOM     22  C   UNL     1      -8.946 -13.791  13.268  1.00  0.00     0.000 C 
BRANCH  22  23
ATOM     23  C   UNL     1      -9.285 -13.845  11.765  1.00  0.00     0.000 C 
BRANCH  23  24
ATOM     24  C   UNL     1      -8.424 -14.819  10.942  1.00  0.00    -0.000 C 
BRANCH  24  25
ATOM     25  C   UNL     1      -9.267 -15.738  10.039  1.00  0.00    -0.000 C 
BRANCH  25  26
ATOM     26  C   UNL     1      -8.434 -16.852   9.381  1.00  0.00    -0.000 C 
BRANCH  26  27
ATOM     27  C   UNL     1      -9.161 -18.208   9.386  1.00  0.00    -0.000 C 
BRANCH  27  28
ATOM     28  C   UNL     1      -9.570 -18.673   7.977  1.00  0.00    -0.000 C 
BRANCH  28  29
ATOM     29  C   UNL     1     -10.796 -17.955   7.379  1.00  0.00    -0.000 C 
BRANCH  29  30
ATOM     30  C   UNL     1     -12.002 -17.933   8.329  1.00  0.00    -0.000 C 
BRANCH  30  31
ATOM     31  C   UNL     1     -12.611 -16.529   8.414  1.00  0.00    -0.003 C 
ATOM     32  C   UNL     1     -13.271 -16.134   7.096  1.00  0.00     0.004 C 
ENDBRANCH  30  31
ENDBRANCH  29  30
ENDBRANCH  28  29
ENDBRANCH  27  28
ENDBRANCH  26  27
ENDBRANCH  25  26
ENDBRANCH  24  25
ENDBRANCH  23  24
ENDBRANCH  22  23
ENDBRANCH  21  22
ENDBRANCH  20  21
ENDBRANCH  19  20
ENDBRANCH  18  19
ENDBRANCH   1  18
TORSDOF 28
ENDMDL
MODEL 4
REMARK VINA RESULT:    -3.627      2.327      6.195
REMARK INTER + INTRA:         -15.531
REMARK INTER:                 -10.101
REMARK INTRA:                  -5.430
REMARK UNBOUND:                -5.967
REMARK SMILES CCCCCCCCCCCCCCCCCCCCCCCCCCCCCC(=O)[O-]
REMARK SMILES IDX 16 1 17 2 18 3 19 4 20 5 21 6 22 7 23 8 24 9 25 10 26 11
REMARK SMILES IDX 27 12 28 13 29 14 30 15 31 16 32 17 15 18 14 19 13 20 12 21
REMARK SMILES IDX 11 22 10 23 9 24 8 25 7 26 6 27 5 28 4 29 3 30 2 31 1 32
REMARK H PARENT
REMARK Flexibility Score: inf
ROOT
ATOM      1  C   UNL     1     -11.168 -14.760  16.174  1.00  0.00     0.000 C 
ENDROOT
BRANCH   1   2
ATOM      2  C   UNL     1     -10.604 -13.890  17.309  1.00  0.00     0.000 C 
BRANCH   2   3
ATOM      3  C   UNL     1     -11.476 -12.662  17.607  1.00  0.00     0.000 C 
BRANCH   3   4
ATOM      4  C   UNL     1     -10.618 -11.394  17.730  1.00  0.00     0.000 C 
BRANCH   4   5
ATOM      5  C   UNL     1     -10.054 -10.931  16.371  1.00  0.00     0.000 C 
BRANCH   5   6
ATOM      6  C   UNL     1      -9.016  -9.797  16.476  1.00  0.00     0.000 C 
BRANCH   6   7
ATOM      7  C   UNL     1      -7.929  -9.838  15.380  1.00  0.00     0.000 C 
BRANCH   7   8
ATOM      8  C   UNL     1      -6.595  -9.189  15.800  1.00  0.00     0.000 C 
BRANCH   8   9
ATOM      9  C   UNL     1      -6.603  -8.509  17.186  1.00  0.00     0.000 C 
BRANCH   9  10
ATOM     10  C   UNL     1      -5.325  -7.738  17.561  1.00  0.00     0.000 C 
BRANCH  10  11
ATOM     11  C   UNL     1      -5.605  -6.302  18.033  1.00  0.00     0.000 C 
BRANCH  11  12
ATOM     12  C   UNL     1      -5.829  -5.323  16.868  1.00  0.00     0.000 C 
BRANCH  12  13
ATOM     13  C   UNL     1      -5.185  -5.782  15.542  1.00  0.00     0.006 C 
BRANCH  13  14
ATOM     14  C   UNL     1      -5.938  -5.245  14.318  1.00  0.00     0.053 C 
BRANCH  14  15
ATOM     15  C   UNL     1      -6.446  -6.372  13.477  1.00  0.00     0.041 C 
ATOM     16  O   UNL     1      -5.649  -7.054  12.782  1.00  0.00    -0.550 OA
ATOM     17  O   UNL     1      -7.797  -6.700  13.497  1.00  0.00    -0.550 OA
ENDBRANCH  14  15
ENDBRANCH  13  14
ENDBRANCH  12  13
ENDBRANCH  11  12
ENDBRANCH  10  11
ENDBRANCH   9  10
ENDBRANCH   8   9
ENDBRANCH   7   8
ENDBRANCH   6   7
ENDBRANCH   5   6
ENDBRANCH   4   5
ENDBRANCH   3   4
ENDBRANCH   2   3
ENDBRANCH   1   2
BRANCH   1  18
ATOM     18  C   UNL     1     -11.931 -13.938  15.121  1.00  0.00     0.000 C 
BRANCH  18  19
ATOM     19  C   UNL     1     -11.171 -13.815  13.788  1.00  0.00     0.000 C 
BRANCH  19  20
ATOM     20  C   UNL     1      -9.781 -13.151  13.881  1.00  0.00     0.000 C 
BRANCH  20  21
ATOM     21  C   UNL     1      -8.618 -13.986  13.312  1.00  0.00     0.000 C 
BRANCH  21  22
ATOM     22  C   UNL     1      -7.336 -13.977  14.168  1.00  0.00     0.000 C 
BRANCH  22  23
ATOM     23  C   UNL     1      -7.562 -13.784  15.681  1.00  0.00     0.000 C 
BRANCH  23  24
ATOM     24  C   UNL     1      -6.484 -12.949  16.395  1.00  0.00    -0.000 C 
BRANCH  24  25
ATOM     25  C   UNL     1      -6.889 -12.556  17.827  1.00  0.00    -0.000 C 
BRANCH  25  26
ATOM     26  C   UNL     1      -5.721 -11.967  18.635  1.00  0.00    -0.000 C 
BRANCH  26  27
ATOM     27  C   UNL     1      -6.185 -10.908  19.650  1.00  0.00    -0.000 C 
BRANCH  27  28
ATOM     28  C   UNL     1      -7.706 -10.930  19.885  1.00  0.00    -0.000 C 
BRANCH  28  29
ATOM     29  C   UNL     1      -8.348  -9.556  20.155  1.00  0.00    -0.000 C 
BRANCH  29  30
ATOM     30  C   UNL     1      -7.539  -8.696  21.137  1.00  0.00    -0.000 C 
BRANCH  30  31
ATOM     31  C   UNL     1      -7.795  -7.203  20.903  1.00  0.00    -0.003 C 
ATOM     32  C   UNL     1      -8.515  -6.576  22.093  1.00  0.00     0.004 C 
ENDBRANCH  30  31
ENDBRANCH  29  30
ENDBRANCH  28  29
ENDBRANCH  27  28
ENDBRANCH  26  27
ENDBRANCH  25  26
ENDBRANCH  24  25
ENDBRANCH  23  24
ENDBRANCH  22  23
ENDBRANCH  21  22
ENDBRANCH  20  21
ENDBRANCH  19  20
ENDBRANCH  18  19
ENDBRANCH   1  18
TORSDOF 28
ENDMDL
MODEL 5
REMARK VINA RESULT:    -3.602     12.562     16.296
REMARK INTER + INTRA:         -15.464
REMARK INTER:                  -9.773
REMARK INTRA:                  -5.691
REMARK UNBOUND:                -5.967
REMARK SMILES CCCCCCCCCCCCCCCCCCCCCCCCCCCCCC(=O)[O-]
REMARK SMILES IDX 16 1 17 2 18 3 19 4 20 5 21 6 22 7 23 8 24 9 25 10 26 11
REMARK SMILES IDX 27 12 28 13 29 14 30 15 31 16 32 17 15 18 14 19 13 20 12 21
REMARK SMILES IDX 11 22 10 23 9 24 8 25 7 26 6 27 5 28 4 29 3 30 2 31 1 32
REMARK H PARENT
REMARK Flexibility Score: inf
ROOT
ATOM      1  C   UNL     1     -16.329 -19.392  16.568  1.00  0.00     0.000 C 
ENDROOT
BRANCH   1   2
ATOM      2  C   UNL     1     -15.765 -19.273  15.142  1.00  0.00     0.000 C 
BRANCH   2   3
ATOM      3  C   UNL     1     -16.724 -19.819  14.075  1.00  0.00     0.000 C 
BRANCH   3   4
ATOM      4  C   UNL     1     -15.948 -20.412  12.890  1.00  0.00     0.000 C 
BRANCH   4   5
ATOM      5  C   UNL     1     -16.809 -21.374  12.044  1.00  0.00     0.000 C 
BRANCH   5   6
ATOM      6  C   UNL     1     -18.293 -21.417  12.460  1.00  0.00     0.000 C 
BRANCH   6   7
ATOM      7  C   UNL     1     -18.795 -22.823  12.851  1.00  0.00     0.000 C 
BRANCH   7   8
ATOM      8  C   UNL     1     -18.882 -23.054  14.373  1.00  0.00     0.000 C 
BRANCH   8   9
ATOM      9  C   UNL     1     -17.615 -23.655  15.019  1.00  0.00     0.000 C 
BRANCH   9  10
ATOM     10  C   UNL     1     -16.665 -24.400  14.065  1.00  0.00     0.000 C 
BRANCH  10  11
ATOM     11  C   UNL     1     -15.193 -23.999  14.245  1.00  0.00     0.000 C 
BRANCH  11  12
ATOM     12  C   UNL     1     -14.975 -23.042  15.429  1.00  0.00     0.000 C 
BRANCH  12  13
ATOM     13  C   UNL     1     -13.488 -22.810  15.773  1.00  0.00     0.006 C 
BRANCH  13  14
ATOM     14  C   UNL     1     -12.937 -21.535  15.122  1.00  0.00     0.053 C 
BRANCH  14  15
ATOM     15  C   UNL     1     -12.071 -20.787  16.086  1.00  0.00     0.041 C 
ATOM     16  O   UNL     1     -12.193 -19.540  16.211  1.00  0.00    -0.550 OA
ATOM     17  O   UNL     1     -11.159 -21.474  16.879  1.00  0.00    -0.550 OA
ENDBRANCH  14  15
ENDBRANCH  13  14
ENDBRANCH  12  13
ENDBRANCH  11  12
ENDBRANCH  10  11
ENDBRANCH   9  10
ENDBRANCH   8   9
ENDBRANCH   7   8
ENDBRANCH   6   7
ENDBRANCH   5   6
ENDBRANCH   4   5
ENDBRANCH   3   4
ENDBRANCH   2   3
ENDBRANCH   1   2
BRANCH   1  18
ATOM     18  C   UNL     1     -17.371 -20.516  16.700  1.00  0.00     0.000 C 
BRANCH  18  19
ATOM     19  C   UNL     1     -18.551 -20.137  17.612  1.00  0.00     0.000 C 
BRANCH  19  20
ATOM     20  C   UNL     1     -18.234 -19.086  18.697  1.00  0.00     0.000 C 
BRANCH  20  21
ATOM     21  C   UNL     1     -19.163 -19.114  19.926  1.00  0.00     0.000 C 
BRANCH  21  22
ATOM     22  C   UNL     1     -20.537 -19.773  19.685  1.00  0.00     0.000 C 
BRANCH  22  23
ATOM     23  C   UNL     1     -21.693 -19.196  20.526  1.00  0.00     0.000 C 
BRANCH  23  24
ATOM     24  C   UNL     1     -22.606 -18.208  19.779  1.00  0.00    -0.000 C 
BRANCH  24  25
ATOM     25  C   UNL     1     -23.671 -18.915  18.921  1.00  0.00    -0.000 C 
BRANCH  25  26
ATOM     26  C   UNL     1     -23.788 -18.319  17.508  1.00  0.00    -0.000 C 
BRANCH  26  27
ATOM     27  C   UNL     1     -22.523 -17.550  17.089  1.00  0.00    -0.000 C 
BRANCH  27  28
ATOM     28  C   UNL     1     -21.534 -18.416  16.288  1.00  0.00    -0.000 C 
BRANCH  28  29
ATOM     29  C   UNL     1     -22.172 -19.557  15.473  1.00  0.00    -0.000 C 
BRANCH  29  30
ATOM     30  C   UNL     1     -21.475 -20.909  15.681  1.00  0.00    -0.000 C 
BRANCH  30  31
ATOM     31  C   UNL     1     -22.054 -21.647  16.893  1.00  0.00    -0.003 C 
ATOM     32  C   UNL     1     -21.149 -22.800  17.320  1.00  0.00     0.004 C 
ENDBRANCH  30  31
ENDBRANCH  29  30
ENDBRANCH  28  29
ENDBRANCH  27  28
ENDBRANCH  26  27
ENDBRANCH  25  26
ENDBRANCH  24  25
ENDBRANCH  23  24
ENDBRANCH  22  23
ENDBRANCH  21  22
ENDBRANCH  20  21
ENDBRANCH  19  20
ENDBRANCH  18  19
ENDBRANCH   1  18
TORSDOF 28
ENDMDL
MODEL 6
REMARK VINA RESULT:    -3.596     11.238     16.033
REMARK INTER + INTRA:         -15.449
REMARK INTER:                 -10.152
REMARK INTRA:                  -5.297
REMARK UNBOUND:                -5.967
REMARK SMILES CCCCCCCCCCCCCCCCCCCCCCCCCCCCCC(=O)[O-]
REMARK SMILES IDX 16 1 17 2 18 3 19 4 20 5 21 6 22 7 23 8 24 9 25 10 26 11
REMARK SMILES IDX 27 12 28 13 29 14 30 15 31 16 32 17 15 18 14 19 13 20 12 21
REMARK SMILES IDX 11 22 10 23 9 24 8 25 7 26 6 27 5 28 4 29 3 30 2 31 1 32
REMARK H PARENT
REMARK Flexibility Score: inf
ROOT
ATOM      1  C   UNL     1     -22.978 -21.226  15.406  1.00  0.00     0.000 C 
ENDROOT
BRANCH   1   2
ATOM      2  C   UNL     1     -21.528 -21.292  15.912  1.00  0.00     0.000 C 
BRANCH   2   3
ATOM      3  C   UNL     1     -21.427 -21.757  17.372  1.00  0.00     0.000 C 
BRANCH   3   4
ATOM      4  C   UNL     1     -20.263 -22.743  17.555  1.00  0.00     0.000 C 
BRANCH   4   5
ATOM      5  C   UNL     1     -19.554 -23.070  16.225  1.00  0.00     0.000 C 
BRANCH   5   6
ATOM      6  C   UNL     1     -18.022 -23.198  16.345  1.00  0.00     0.000 C 
BRANCH   6   7
ATOM      7  C   UNL     1     -17.240 -22.096  15.598  1.00  0.00     0.000 C 
BRANCH   7   8
ATOM      8  C   UNL     1     -17.857 -21.704  14.241  1.00  0.00     0.000 C 
BRANCH   8   9
ATOM      9  C   UNL     1     -17.119 -20.577  13.486  1.00  0.00     0.000 C 
BRANCH   9  10
ATOM     10  C   UNL     1     -15.745 -20.178  14.055  1.00  0.00     0.000 C 
BRANCH  10  11
ATOM     11  C   UNL     1     -14.572 -20.656  13.186  1.00  0.00     0.000 C 
BRANCH  11  12
ATOM     12  C   UNL     1     -14.138 -22.096  13.508  1.00  0.00     0.000 C 
BRANCH  12  13
ATOM     13  C   UNL     1     -12.719 -22.195  14.108  1.00  0.00     0.006 C 
BRANCH  13  14
ATOM     14  C   UNL     1     -12.109 -20.814  14.381  1.00  0.00     0.053 C 
BRANCH  14  15
ATOM     15  C   UNL     1     -11.961 -20.587  15.852  1.00  0.00     0.041 C 
ATOM     16  O   UNL     1     -12.208 -19.457  16.347  1.00  0.00    -0.550 OA
ATOM     17  O   UNL     1     -11.594 -21.639  16.683  1.00  0.00    -0.550 OA
ENDBRANCH  14  15
ENDBRANCH  13  14
ENDBRANCH  12  13
ENDBRANCH  11  12
ENDBRANCH  10  11
ENDBRANCH   9  10
ENDBRANCH   8   9
ENDBRANCH   7   8
ENDBRANCH   6   7
ENDBRANCH   5   6
ENDBRANCH   4   5
ENDBRANCH   3   4
ENDBRANCH   2   3
ENDBRANCH   1   2
BRANCH   1  18
ATOM     18  C   UNL     1     -23.439 -19.787  15.115  1.00  0.00     0.000 C 
BRANCH  18  19
ATOM     19  C   UNL     1     -22.430 -18.726  15.589  1.00  0.00     0.000 C 
BRANCH  19  20
ATOM     20  C   UNL     1     -22.896 -17.858  16.776  1.00  0.00     0.000 C 
BRANCH  20  21
ATOM     21  C   UNL     1     -24.167 -18.355  17.491  1.00  0.00     0.000 C 
BRANCH  21  22
ATOM     22  C   UNL     1     -23.911 -19.194  18.759  1.00  0.00     0.000 C 
BRANCH  22  23
ATOM     23  C   UNL     1     -22.758 -18.692  19.653  1.00  0.00     0.000 C 
BRANCH  23  24
ATOM     24  C   UNL     1     -22.210 -19.731  20.646  1.00  0.00    -0.000 C 
BRANCH  24  25
ATOM     25  C   UNL     1     -20.672 -19.792  20.653  1.00  0.00    -0.000 C 
BRANCH  25  26
ATOM     26  C   UNL     1     -20.040 -19.022  19.482  1.00  0.00    -0.000 C 
BRANCH  26  27
ATOM     27  C   UNL     1     -18.547 -19.347  19.302  1.00  0.00    -0.000 C 
BRANCH  27  28
ATOM     28  C   UNL     1     -18.166 -19.621  17.836  1.00  0.00    -0.000 C 
BRANCH  28  29
ATOM     29  C   UNL     1     -18.949 -18.803  16.792  1.00  0.00    -0.000 C 
BRANCH  29  30
ATOM     30  C   UNL     1     -18.048 -17.899  15.937  1.00  0.00    -0.000 C 
BRANCH  30  31
ATOM     31  C   UNL     1     -16.643 -17.792  16.541  1.00  0.00    -0.003 C 
ATOM     32  C   UNL     1     -16.227 -16.333  16.711  1.00  0.00     0.004 C 
ENDBRANCH  30  31
ENDBRANCH  29  30
ENDBRANCH  28  29
ENDBRANCH  27  28
ENDBRANCH  26  27
ENDBRANCH  25  26
ENDBRANCH  24  25
ENDBRANCH  23  24
ENDBRANCH  22  23
ENDBRANCH  21  22
ENDBRANCH  20  21
ENDBRANCH  19  20
ENDBRANCH  18  19
ENDBRANCH   1  18
TORSDOF 28
ENDMDL
MODEL 7
REMARK VINA RESULT:    -3.592      1.583      2.243
REMARK INTER + INTRA:         -15.439
REMARK INTER:                  -9.528
REMARK INTRA:                  -5.911
REMARK UNBOUND:                -5.967
REMARK SMILES CCCCCCCCCCCCCCCCCCCCCCCCCCCCCC(=O)[O-]
REMARK SMILES IDX 16 1 17 2 18 3 19 4 20 5 21 6 22 7 23 8 24 9 25 10 26 11
REMARK SMILES IDX 27 12 28 13 29 14 30 15 31 16 32 17 15 18 14 19 13 20 12 21
REMARK SMILES IDX 11 22 10 23 9 24 8 25 7 26 6 27 5 28 4 29 3 30 2 31 1 32
REMARK H PARENT
REMARK Flexibility Score: inf
ROOT
ATOM      1  C   UNL     1      -9.223  -9.500  16.940  1.00  0.00     0.000 C 
ENDROOT
BRANCH   1   2
ATOM      2  C   UNL     1      -9.395  -8.594  18.171  1.00  0.00     0.000 C 
BRANCH   2   3
ATOM      3  C   UNL     1      -9.224  -9.352  19.495  1.00  0.00     0.000 C 
BRANCH   3   4
ATOM      4  C   UNL     1      -8.231 -10.513  19.340  1.00  0.00     0.000 C 
BRANCH   4   5
ATOM      5  C   UNL     1      -7.129 -10.493  20.420  1.00  0.00     0.000 C 
BRANCH   5   6
ATOM      6  C   UNL     1      -5.714 -10.781  19.879  1.00  0.00     0.000 C 
BRANCH   6   7
ATOM      7  C   UNL     1      -5.679 -11.156  18.382  1.00  0.00     0.000 C 
BRANCH   7   8
ATOM      8  C   UNL     1      -5.214 -12.601  18.112  1.00  0.00     0.000 C 
BRANCH   8   9
ATOM      9  C   UNL     1      -6.005 -13.352  17.018  1.00  0.00     0.000 C 
BRANCH   9  10
ATOM     10  C   UNL     1      -6.632 -12.471  15.922  1.00  0.00     0.000 C 
BRANCH  10  11
ATOM     11  C   UNL     1      -8.155 -12.645  15.807  1.00  0.00     0.000 C 
BRANCH  11  12
ATOM     12  C   UNL     1      -8.593 -14.118  15.851  1.00  0.00     0.000 C 
BRANCH  12  13
ATOM     13  C   UNL     1      -9.630 -14.423  16.954  1.00  0.00     0.006 C 
BRANCH  13  14
ATOM     14  C   UNL     1      -9.942 -13.189  17.809  1.00  0.00     0.053 C 
BRANCH  14  15
ATOM     15  C   UNL     1     -11.330 -12.700  17.539  1.00  0.00     0.041 C 
ATOM     16  O   UNL     1     -11.904 -11.937  18.359  1.00  0.00    -0.550 OA
ATOM     17  O   UNL     1     -11.972 -13.050  16.357  1.00  0.00    -0.550 OA
ENDBRANCH  14  15
ENDBRANCH  13  14
ENDBRANCH  12  13
ENDBRANCH  11  12
ENDBRANCH  10  11
ENDBRANCH   9  10
ENDBRANCH   8   9
ENDBRANCH   7   8
ENDBRANCH   6   7
ENDBRANCH   5   6
ENDBRANCH   4   5
ENDBRANCH   3   4
ENDBRANCH   2   3
ENDBRANCH   1   2
BRANCH   1  18
ATOM     18  C   UNL     1      -8.870  -8.709  15.668  1.00  0.00     0.000 C 
BRANCH  18  19
ATOM     19  C   UNL     1      -7.445  -8.992  15.161  1.00  0.00     0.000 C 
BRANCH  19  20
ATOM     20  C   UNL     1      -6.767  -7.825  14.414  1.00  0.00     0.000 C 
BRANCH  20  21
ATOM     21  C   UNL     1      -5.764  -7.007  15.250  1.00  0.00     0.000 C 
BRANCH  21  22
ATOM     22  C   UNL     1      -6.363  -5.772  15.954  1.00  0.00     0.000 C 
BRANCH  22  23
ATOM     23  C   UNL     1      -6.791  -5.998  17.417  1.00  0.00     0.000 C 
BRANCH  23  24
ATOM     24  C   UNL     1      -5.999  -7.088  18.162  1.00  0.00    -0.000 C 
BRANCH  24  25
ATOM     25  C   UNL     1      -6.234  -7.057  19.683  1.00  0.00    -0.000 C 
BRANCH  25  26
ATOM     26  C   UNL     1      -7.360  -6.094  20.092  1.00  0.00    -0.000 C 
BRANCH  26  27
ATOM     27  C   UNL     1      -7.553  -6.033  21.618  1.00  0.00    -0.000 C 
BRANCH  27  28
ATOM     28  C   UNL     1      -8.553  -7.082  22.137  1.00  0.00    -0.000 C 
BRANCH  28  29
ATOM     29  C   UNL     1      -7.976  -8.094  23.145  1.00  0.00    -0.000 C 
BRANCH  29  30
ATOM     30  C   UNL     1      -6.602  -7.682  23.692  1.00  0.00    -0.000 C 
BRANCH  30  31
ATOM     31  C   UNL     1      -5.508  -8.646  23.218  1.00  0.00    -0.003 C 
ATOM     32  C   UNL     1      -5.655 -10.014  23.878  1.00  0.00     0.004 C 
ENDBRANCH  30  31
ENDBRANCH  29  30
ENDBRANCH  28  29
ENDBRANCH  27  28
ENDBRANCH  26  27
ENDBRANCH  25  26
ENDBRANCH  24  25
ENDBRANCH  23  24
ENDBRANCH  22  23
ENDBRANCH  21  22
ENDBRANCH  20  21
ENDBRANCH  19  20
ENDBRANCH  18  19
ENDBRANCH   1  18
TORSDOF 28
ENDMDL
MODEL 8
REMARK VINA RESULT:    -3.559     12.443     18.286
REMARK INTER + INTRA:         -15.352
REMARK INTER:                  -9.338
REMARK INTRA:                  -6.014
REMARK UNBOUND:                -5.967
REMARK SMILES CCCCCCCCCCCCCCCCCCCCCCCCCCCCCC(=O)[O-]
REMARK SMILES IDX 16 1 17 2 18 3 19 4 20 5 21 6 22 7 23 8 24 9 25 10 26 11
REMARK SMILES IDX 27 12 28 13 29 14 30 15 31 16 32 17 15 18 14 19 13 20 12 21
REMARK SMILES IDX 11 22 10 23 9 24 8 25 7 26 6 27 5 28 4 29 3 30 2 31 1 32
REMARK H PARENT
REMARK Flexibility Score: inf
ROOT
ATOM      1  C   UNL     1     -22.872 -18.079  19.575  1.00  0.00     0.000 C 
ENDROOT
BRANCH   1   2
ATOM      2  C   UNL     1     -23.991 -17.397  18.771  1.00  0.00     0.000 C 
BRANCH   2   3
ATOM      3  C   UNL     1     -23.522 -16.914  17.390  1.00  0.00     0.000 C 
BRANCH   3   4
ATOM      4  C   UNL     1     -24.016 -17.856  16.282  1.00  0.00     0.000 C 
BRANCH   4   5
ATOM      5  C   UNL     1     -22.879 -18.714  15.689  1.00  0.00     0.000 C 
BRANCH   5   6
ATOM      6  C   UNL     1     -21.475 -18.335  16.201  1.00  0.00     0.000 C 
BRANCH   6   7
ATOM      7  C   UNL     1     -20.513 -19.534  16.341  1.00  0.00     0.000 C 
BRANCH   7   8
ATOM      8  C   UNL     1     -20.919 -20.535  17.441  1.00  0.00     0.000 C 
BRANCH   8   9
ATOM      9  C   UNL     1     -20.097 -20.447  18.745  1.00  0.00     0.000 C 
BRANCH   9  10
ATOM     10  C   UNL     1     -19.497 -19.066  19.066  1.00  0.00     0.000 C 
BRANCH  10  11
ATOM     11  C   UNL     1     -18.164 -19.151  19.826  1.00  0.00     0.000 C 
BRANCH  11  12
ATOM     12  C   UNL     1     -16.945 -18.883  18.927  1.00  0.00     0.000 C 
BRANCH  12  13
ATOM     13  C   UNL     1     -17.123 -19.385  17.477  1.00  0.00     0.006 C 
BRANCH  13  14
ATOM     14  C   UNL     1     -16.298 -18.565  16.477  1.00  0.00     0.053 C 
BRANCH  14  15
ATOM     15  C   UNL     1     -16.906 -17.212  16.280  1.00  0.00     0.041 C 
ATOM     16  O   UNL     1     -18.086 -17.103  15.856  1.00  0.00    -0.550 OA
ATOM     17  O   UNL     1     -16.182 -16.071  16.608  1.00  0.00    -0.550 OA
ENDBRANCH  14  15
ENDBRANCH  13  14
ENDBRANCH  12  13
ENDBRANCH  11  12
ENDBRANCH  10  11
ENDBRANCH   9  10
ENDBRANCH   8   9
ENDBRANCH   7   8
ENDBRANCH   6   7
ENDBRANCH   5   6
ENDBRANCH   4   5
ENDBRANCH   3   4
ENDBRANCH   2   3
ENDBRANCH   1   2
BRANCH   1  18
ATOM     18  C   UNL     1     -23.227 -19.520  19.979  1.00  0.00     0.000 C 
BRANCH  18  19
ATOM     19  C   UNL     1     -24.469 -20.060  19.248  1.00  0.00     0.000 C 
BRANCH  19  20
ATOM     20  C   UNL     1     -24.261 -21.382  18.482  1.00  0.00     0.000 C 
BRANCH  20  21
ATOM     21  C   UNL     1     -24.853 -21.416  17.060  1.00  0.00     0.000 C 
BRANCH  21  22
ATOM     22  C   UNL     1     -24.041 -22.236  16.039  1.00  0.00     0.000 C 
BRANCH  22  23
ATOM     23  C   UNL     1     -23.158 -23.345  16.646  1.00  0.00     0.000 C 
BRANCH  23  24
ATOM     24  C   UNL     1     -22.856 -24.522  15.702  1.00  0.00    -0.000 C 
BRANCH  24  25
ATOM     25  C   UNL     1     -21.352 -24.837  15.607  1.00  0.00    -0.000 C 
BRANCH  25  26
ATOM     26  C   UNL     1     -20.482 -23.815  16.357  1.00  0.00    -0.000 C 
BRANCH  26  27
ATOM     27  C   UNL     1     -19.336 -23.270  15.487  1.00  0.00    -0.000 C 
BRANCH  27  28
ATOM     28  C   UNL     1     -19.691 -23.223  13.990  1.00  0.00    -0.000 C 
BRANCH  28  29
ATOM     29  C   UNL     1     -20.053 -21.828  13.446  1.00  0.00    -0.000 C 
BRANCH  29  30
ATOM     30  C   UNL     1     -21.564 -21.551  13.460  1.00  0.00    -0.000 C 
BRANCH  30  31
ATOM     31  C   UNL     1     -22.216 -21.985  12.142  1.00  0.00    -0.003 C 
ATOM     32  C   UNL     1     -23.369 -22.953  12.391  1.00  0.00     0.004 C 
ENDBRANCH  30  31
ENDBRANCH  29  30
ENDBRANCH  28  29
ENDBRANCH  27  28
ENDBRANCH  26  27
ENDBRANCH  25  26
ENDBRANCH  24  25
ENDBRANCH  23  24
ENDBRANCH  22  23
ENDBRANCH  21  22
ENDBRANCH  20  21
ENDBRANCH  19  20
ENDBRANCH  18  19
ENDBRANCH   1  18
TORSDOF 28
ENDMDL
MODEL 9
REMARK VINA RESULT:    -3.534     12.273     16.075
REMARK INTER + INTRA:         -15.286
REMARK INTER:                  -9.483
REMARK INTRA:                  -5.803
REMARK UNBOUND:                -5.967
REMARK SMILES CCCCCCCCCCCCCCCCCCCCCCCCCCCCCC(=O)[O-]
REMARK SMILES IDX 16 1 17 2 18 3 19 4 20 5 21 6 22 7 23 8 24 9 25 10 26 11
REMARK SMILES IDX 27 12 28 13 29 14 30 15 31 16 32 17 15 18 14 19 13 20 12 21
REMARK SMILES IDX 11 22 10 23 9 24 8 25 7 26 6 27 5 28 4 29 3 30 2 31 1 32
REMARK H PARENT
REMARK Flexibility Score: inf
ROOT
ATOM      1  C   UNL     1     -16.747 -21.479  16.329  1.00  0.00     0.000 C 
ENDROOT
BRANCH   1   2
ATOM      2  C   UNL     1     -15.702 -20.823  15.412  1.00  0.00     0.000 C 
BRANCH   2   3
ATOM      3  C   UNL     1     -15.891 -19.304  15.285  1.00  0.00     0.000 C 
BRANCH   3   4
ATOM      4  C   UNL     1     -17.362 -18.914  15.496  1.00  0.00     0.000 C 
BRANCH   4   5
ATOM      5  C   UNL     1     -17.514 -17.534  16.168  1.00  0.00     0.000 C 
BRANCH   5   6
ATOM      6  C   UNL     1     -16.565 -17.310  17.362  1.00  0.00     0.000 C 
BRANCH   6   7
ATOM      7  C   UNL     1     -17.185 -17.662  18.731  1.00  0.00     0.000 C 
BRANCH   7   8
ATOM      8  C   UNL     1     -17.685 -19.117  18.834  1.00  0.00     0.000 C 
BRANCH   8   9
ATOM      9  C   UNL     1     -19.203 -19.273  19.071  1.00  0.00     0.000 C 
BRANCH   9  10
ATOM     10  C   UNL     1     -19.867 -20.481  18.386  1.00  0.00     0.000 C 
BRANCH  10  11
ATOM     11  C   UNL     1     -20.411 -20.155  16.986  1.00  0.00     0.000 C 
BRANCH  11  12
ATOM     12  C   UNL     1     -20.847 -18.687  16.841  1.00  0.00     0.000 C 
BRANCH  12  13
ATOM     13  C   UNL     1     -22.358 -18.514  16.574  1.00  0.00     0.006 C 
BRANCH  13  14
ATOM     14  C   UNL     1     -23.216 -19.156  17.672  1.00  0.00     0.053 C 
BRANCH  14  15
ATOM     15  C   UNL     1     -23.148 -18.351  18.930  1.00  0.00     0.041 C 
ATOM     16  O   UNL     1     -23.655 -17.200  18.974  1.00  0.00    -0.550 OA
ATOM     17  O   UNL     1     -22.565 -18.891  20.071  1.00  0.00    -0.550 OA
ENDBRANCH  14  15
ENDBRANCH  13  14
ENDBRANCH  12  13
ENDBRANCH  11  12
ENDBRANCH  10  11
ENDBRANCH   9  10
ENDBRANCH   8   9
ENDBRANCH   7   8
ENDBRANCH   6   7
ENDBRANCH   5   6
ENDBRANCH   4   5
ENDBRANCH   3   4
ENDBRANCH   2   3
ENDBRANCH   1   2
BRANCH   1  18
ATOM     18  C   UNL     1     -17.162 -22.880  15.845  1.00  0.00     0.000 C 
BRANCH  18  19
ATOM     19  C   UNL     1     -18.688 -23.071  15.797  1.00  0.00     0.000 C 
BRANCH  19  20
ATOM     20  C   UNL     1     -19.304 -23.100  14.382  1.00  0.00     0.000 C 
BRANCH  20  21
ATOM     21  C   UNL     1     -19.265 -21.760  13.624  1.00  0.00     0.000 C 
BRANCH  21  22
ATOM     22  C   UNL     1     -18.526 -21.802  12.272  1.00  0.00     0.000 C 
BRANCH  22  23
ATOM     23  C   UNL     1     -17.159 -21.090  12.252  1.00  0.00     0.000 C 
BRANCH  23  24
ATOM     24  C   UNL     1     -15.955 -22.007  11.971  1.00  0.00    -0.000 C 
BRANCH  24  25
ATOM     25  C   UNL     1     -16.298 -23.500  12.121  1.00  0.00    -0.000 C 
BRANCH  25  26
ATOM     26  C   UNL     1     -15.499 -24.184  13.242  1.00  0.00    -0.000 C 
BRANCH  26  27
ATOM     27  C   UNL     1     -14.148 -23.495  13.503  1.00  0.00    -0.000 C 
BRANCH  27  28
ATOM     28  C   UNL     1     -13.308 -24.213  14.575  1.00  0.00    -0.000 C 
BRANCH  28  29
ATOM     29  C   UNL     1     -13.220 -23.490  15.933  1.00  0.00    -0.000 C 
BRANCH  29  30
ATOM     30  C   UNL     1     -11.978 -22.596  16.060  1.00  0.00    -0.000 C 
BRANCH  30  31
ATOM     31  C   UNL     1     -12.341 -21.118  15.877  1.00  0.00    -0.003 C 
ATOM     32  C   UNL     1     -11.920 -20.614  14.500  1.00  0.00     0.004 C 
ENDBRANCH  30  31
ENDBRANCH  29  30
ENDBRANCH  28  29
ENDBRANCH  27  28
ENDBRANCH  26  27
ENDBRANCH  25  26
ENDBRANCH  24  25
ENDBRANCH  23  24
ENDBRANCH  22  23
ENDBRANCH  21  22
ENDBRANCH  20  21
ENDBRANCH  19  20
ENDBRANCH  18  19
ENDBRANCH   1  18
TORSDOF 28
ENDMDL
