MODEL 1
REMARK VINA RESULT:    -3.976      0.000      0.000
REMARK INTER + INTRA:          -9.331
REMARK INTER:                  -7.230
REMARK INTRA:                  -2.101
REMARK UNBOUND:                -2.101
REMARK SMILES CCCCCCCCCCCCCCCC(=O)[O-]
REMARK SMILES IDX 9 1 10 2 11 3 12 4 13 5 14 6 15 7 16 8 17 9 18 10 8 11 7 12
REMARK SMILES IDX 6 13 5 14 4 15 3 16 2 17 1 18
REMARK H PARENT
REMARK Flexibility Score: inf
ROOT
ATOM      1  C   UNL     1       9.468  -2.152  43.019  1.00  0.00     0.000 C 
ENDROOT
BRANCH   1   2
ATOM      2  C   UNL     1       8.459  -1.539  42.027  1.00  0.00     0.000 C 
BRANCH   2   3
ATOM      3  C   UNL     1       8.949  -1.436  40.571  1.00  0.00     0.000 C 
BRANCH   3   4
ATOM      4  C   UNL     1       7.806  -1.547  39.548  1.00  0.00     0.000 C 
BRANCH   4   5
ATOM      5  C   UNL     1       7.890  -2.823  38.690  1.00  0.00     0.000 C 
BRANCH   5   6
ATOM      6  C   UNL     1       6.666  -3.094  37.796  1.00  0.00     0.006 C 
BRANCH   6   7
ATOM      7  C   UNL     1       6.882  -2.672  36.338  1.00  0.00     0.053 C 
BRANCH   7   8
ATOM      8  C   UNL     1       6.306  -1.312  36.097  1.00  0.00     0.041 C 
ATOM      9  O   UNL     1       5.372  -0.882  36.822  1.00  0.00    -0.550 OA
ATOM     10  O   UNL     1       6.772  -0.537  35.042  1.00  0.00    -0.550 OA
ENDBRANCH   7   8
ENDBRANCH   6   7
ENDBRANCH   5   6
ENDBRANCH   4   5
ENDBRANCH   3   4
ENDBRANCH   2   3
ENDBRANCH   1   2
BRANCH   1  11
ATOM     11  C   UNL     1      10.836  -2.527  42.416  1.00  0.00     0.000 C 
BRANCH  11  12
ATOM     12  C   UNL     1      11.067  -4.037  42.222  1.00  0.00    -0.000 C 
BRANCH  12  13
ATOM     13  C   UNL     1      11.219  -4.433  40.746  1.00  0.00    -0.000 C 
BRANCH  13  14
ATOM     14  C   UNL     1       9.967  -5.169  40.245  1.00  0.00    -0.000 C 
BRANCH  14  15
ATOM     15  C   UNL     1       9.688  -6.465  41.024  1.00  0.00    -0.000 C 
BRANCH  15  16
ATOM     16  C   UNL     1       8.221  -6.584  41.468  1.00  0.00    -0.000 C 
BRANCH  16  17
ATOM     17  C   UNL     1       7.558  -5.213  41.682  1.00  0.00    -0.003 C 
ATOM     18  C   UNL     1       7.202  -4.948  43.144  1.00  0.00     0.004 C 
ENDBRANCH  16  17
ENDBRANCH  15  16
ENDBRANCH  14  15
ENDBRANCH  13  14
ENDBRANCH  12  13
ENDBRANCH  11  12
ENDBRANCH   1  11
TORSDOF 14
ENDMDL
MODEL 2
REMARK VINA RESULT:    -3.950      2.157      2.924
REMARK INTER + INTRA:          -9.283
REMARK INTER:                  -8.597
REMARK INTRA:                  -0.687
REMARK UNBOUND:                -2.101
REMARK SMILES CCCCCCCCCCCCCCCC(=O)[O-]
REMARK SMILES IDX 9 1 10 2 11 3 12 4 13 5 14 6 15 7 16 8 17 9 18 10 8 11 7 12
REMARK SMILES IDX 6 13 5 14 4 15 3 16 2 17 1 18
REMARK H PARENT
REMARK Flexibility Score: inf
ROOT
ATOM      1  C   UNL     1       9.078  -2.685  42.011  1.00  0.00     0.000 C 
ENDROOT
BRANCH   1   2
ATOM      2  C   UNL     1       8.282  -1.696  41.138  1.00  0.00     0.000 C 
BRANCH   2   3
ATOM      3  C   UNL     1       8.347  -1.958  39.622  1.00  0.00     0.000 C 
BRANCH   3   4
ATOM      4  C   UNL     1       7.156  -2.786  39.108  1.00  0.00     0.000 C 
BRANCH   4   5
ATOM      5  C   UNL     1       6.629  -2.297  37.746  1.00  0.00     0.000 C 
BRANCH   5   6
ATOM      6  C   UNL     1       6.921  -3.231  36.557  1.00  0.00     0.006 C 
BRANCH   6   7
ATOM      7  C   UNL     1       7.438  -2.486  35.321  1.00  0.00     0.053 C 
BRANCH   7   8
ATOM      8  C   UNL     1       6.479  -1.411  34.919  1.00  0.00     0.041 C 
ATOM      9  O   UNL     1       5.410  -1.707  34.322  1.00  0.00    -0.550 OA
ATOM     10  O   UNL     1       6.784  -0.078  35.163  1.00  0.00    -0.550 OA
ENDBRANCH   7   8
ENDBRANCH   6   7
ENDBRANCH   5   6
ENDBRANCH   4   5
ENDBRANCH   3   4
ENDBRANCH   2   3
ENDBRANCH   1   2
BRANCH   1  11
ATOM     11  C   UNL     1       8.268  -3.880  42.555  1.00  0.00     0.000 C 
BRANCH  11  12
ATOM     12  C   UNL     1       8.860  -5.264  42.232  1.00  0.00    -0.000 C 
BRANCH  12  13
ATOM     13  C   UNL     1       7.844  -6.402  42.402  1.00  0.00    -0.000 C 
BRANCH  13  14
ATOM     14  C   UNL     1       8.246  -7.626  41.565  1.00  0.00    -0.000 C 
BRANCH  14  15
ATOM     15  C   UNL     1       7.863  -8.956  42.233  1.00  0.00    -0.000 C 
BRANCH  15  16
ATOM     16  C   UNL     1       7.904  -8.880  43.768  1.00  0.00    -0.000 C 
BRANCH  16  17
ATOM     17  C   UNL     1       7.347 -10.148  44.435  1.00  0.00    -0.003 C 
ATOM     18  C   UNL     1       6.370 -10.909  43.540  1.00  0.00     0.004 C 
ENDBRANCH  16  17
ENDBRANCH  15  16
ENDBRANCH  14  15
ENDBRANCH  13  14
ENDBRANCH  12  13
ENDBRANCH  11  12
ENDBRANCH   1  11
TORSDOF 14
ENDMDL
MODEL 3
REMARK VINA RESULT:    -3.915      3.611      6.492
REMARK INTER + INTRA:          -9.221
REMARK INTER:                  -7.527
REMARK INTRA:                  -1.694
REMARK UNBOUND:                -2.101
REMARK SMILES CCCCCCCCCCCCCCCC(=O)[O-]
REMARK SMILES IDX 9 1 10 2 11 3 12 4 13 5 14 6 15 7 16 8 17 9 18 10 8 11 7 12
REMARK SMILES IDX 6 13 5 14 4 15 3 16 2 17 1 18
REMARK H PARENT
REMARK Flexibility Score: inf
ROOT
ATOM      1  C   UNL     1       9.970  -2.270  39.691  1.00  0.00     0.000 C 
ENDROOT
BRANCH   1   2
ATOM      2  C   UNL     1      10.220  -2.584  41.180  1.00  0.00     0.000 C 
BRANCH   2   3
ATOM      3  C   UNL     1       9.198  -1.979  42.159  1.00  0.00     0.000 C 
BRANCH   3   4
ATOM      4  C   UNL     1       8.300  -3.041  42.816  1.00  0.00     0.000 C 
BRANCH   4   5
ATOM      5  C   UNL     1       8.711  -4.480  42.456  1.00  0.00     0.000 C 
BRANCH   5   6
ATOM      6  C   UNL     1       7.605  -5.539  42.621  1.00  0.00     0.006 C 
BRANCH   6   7
ATOM      7  C   UNL     1       8.021  -6.705  43.526  1.00  0.00     0.053 C 
BRANCH   7   8
ATOM      8  C   UNL     1       8.266  -7.937  42.712  1.00  0.00     0.041 C 
ATOM      9  O   UNL     1       7.906  -9.063  43.145  1.00  0.00    -0.550 OA
ATOM     10  O   UNL     1       8.930  -7.846  41.496  1.00  0.00    -0.550 OA
ENDBRANCH   7   8
ENDBRANCH   6   7
ENDBRANCH   5   6
ENDBRANCH   4   5
ENDBRANCH   3   4
ENDBRANCH   2   3
ENDBRANCH   1   2
BRANCH   1  11
ATOM     11  C   UNL     1       9.426  -3.445  38.855  1.00  0.00     0.000 C 
BRANCH  11  12
ATOM     12  C   UNL     1       7.906  -3.668  38.963  1.00  0.00    -0.000 C 
BRANCH  12  13
ATOM     13  C   UNL     1       7.110  -2.355  38.979  1.00  0.00    -0.000 C 
BRANCH  13  14
ATOM     14  C   UNL     1       6.051  -2.342  37.865  1.00  0.00    -0.000 C 
BRANCH  14  15
ATOM     15  C   UNL     1       6.629  -1.933  36.500  1.00  0.00    -0.000 C 
BRANCH  15  16
ATOM     16  C   UNL     1       6.851  -3.135  35.568  1.00  0.00    -0.000 C 
BRANCH  16  17
ATOM     17  C   UNL     1       8.332  -3.330  35.203  1.00  0.00    -0.003 C 
ATOM     18  C   UNL     1       8.682  -4.787  34.903  1.00  0.00     0.004 C 
ENDBRANCH  16  17
ENDBRANCH  15  16
ENDBRANCH  14  15
ENDBRANCH  13  14
ENDBRANCH  12  13
ENDBRANCH  11  12
ENDBRANCH   1  11
TORSDOF 14
ENDMDL
MODEL 4
REMARK VINA RESULT:    -3.864      5.032      7.692
REMARK INTER + INTRA:          -9.128
REMARK INTER:                  -7.940
REMARK INTRA:                  -1.188
REMARK UNBOUND:                -2.101
REMARK SMILES CCCCCCCCCCCCCCCC(=O)[O-]
REMARK SMILES IDX 9 1 10 2 11 3 12 4 13 5 14 6 15 7 16 8 17 9 18 10 8 11 7 12
REMARK SMILES IDX 6 13 5 14 4 15 3 16 2 17 1 18
REMARK H PARENT
REMARK Flexibility Score: inf
ROOT
ATOM      1  C   UNL     1       8.407  -7.538  42.272  1.00  0.00     0.000 C 
ENDROOT
BRANCH   1   2
ATOM      2  C   UNL     1       8.248  -7.833  43.777  1.00  0.00     0.000 C 
BRANCH   2   3
ATOM      3  C   UNL     1       7.854  -9.280  44.125  1.00  0.00     0.000 C 
BRANCH   3   4
ATOM      4  C   UNL     1       7.324 -10.062  42.911  1.00  0.00     0.000 C 
BRANCH   4   5
ATOM      5  C   UNL     1       6.142 -10.984  43.262  1.00  0.00     0.000 C 
BRANCH   5   6
ATOM      6  C   UNL     1       5.295 -11.449  42.063  1.00  0.00     0.006 C 
BRANCH   6   7
ATOM      7  C   UNL     1       5.791 -10.888  40.725  1.00  0.00     0.053 C 
BRANCH   7   8
ATOM      8  C   UNL     1       6.086 -12.000  39.768  1.00  0.00     0.041 C 
ATOM      9  O   UNL     1       6.856 -11.808  38.791  1.00  0.00    -0.550 OA
ATOM     10  O   UNL     1       5.475 -13.237  39.930  1.00  0.00    -0.550 OA
ENDBRANCH   7   8
ENDBRANCH   6   7
ENDBRANCH   5   6
ENDBRANCH   4   5
ENDBRANCH   3   4
ENDBRANCH   2   3
ENDBRANCH   1   2
BRANCH   1  11
ATOM     11  C   UNL     1       7.710  -6.254  41.778  1.00  0.00     0.000 C 
BRANCH  11  12
ATOM     12  C   UNL     1       8.065  -4.980  42.567  1.00  0.00    -0.000 C 
BRANCH  12  13
ATOM     13  C   UNL     1       9.545  -4.593  42.441  1.00  0.00    -0.000 C 
BRANCH  13  14
ATOM     14  C   UNL     1       9.708  -3.067  42.357  1.00  0.00    -0.000 C 
BRANCH  14  15
ATOM     15  C   UNL     1       8.410  -2.353  41.947  1.00  0.00    -0.000 C 
BRANCH  15  16
ATOM     16  C   UNL     1       8.386  -1.981  40.455  1.00  0.00    -0.000 C 
BRANCH  16  17
ATOM     17  C   UNL     1       7.577  -2.980  39.612  1.00  0.00    -0.003 C 
ATOM     18  C   UNL     1       8.426  -3.693  38.560  1.00  0.00     0.004 C 
ENDBRANCH  16  17
ENDBRANCH  15  16
ENDBRANCH  14  15
ENDBRANCH  13  14
ENDBRANCH  12  13
ENDBRANCH  11  12
ENDBRANCH   1  11
TORSDOF 14
ENDMDL
MODEL 5
REMARK VINA RESULT:    -3.798      5.069      7.665
REMARK INTER + INTRA:          -9.008
REMARK INTER:                  -7.522
REMARK INTRA:                  -1.486
REMARK UNBOUND:                -2.101
REMARK SMILES CCCCCCCCCCCCCCCC(=O)[O-]
REMARK SMILES IDX 9 1 10 2 11 3 12 4 13 5 14 6 15 7 16 8 17 9 18 10 8 11 7 12
REMARK SMILES IDX 6 13 5 14 4 15 3 16 2 17 1 18
REMARK H PARENT
REMARK Flexibility Score: inf
ROOT
ATOM      1  C   UNL     1       8.065  -4.937  42.704  1.00  0.00     0.000 C 
ENDROOT
BRANCH   1   2
ATOM      2  C   UNL     1       7.626  -5.914  41.595  1.00  0.00     0.000 C 
BRANCH   2   3
ATOM      3  C   UNL     1       7.899  -7.401  41.884  1.00  0.00     0.000 C 
BRANCH   3   4
ATOM      4  C   UNL     1       8.405  -7.648  43.316  1.00  0.00     0.000 C 
BRANCH   4   5
ATOM      5  C   UNL     1       7.933  -8.994  43.895  1.00  0.00     0.000 C 
BRANCH   5   6
ATOM      6  C   UNL     1       7.168  -9.899  42.912  1.00  0.00     0.006 C 
BRANCH   6   7
ATOM      7  C   UNL     1       6.747 -11.237  43.532  1.00  0.00     0.053 C 
BRANCH   7   8
ATOM      8  C   UNL     1       7.143 -12.373  42.642  1.00  0.00     0.041 C 
ATOM      9  O   UNL     1       7.385 -13.507  43.133  1.00  0.00    -0.550 OA
ATOM     10  O   UNL     1       7.290 -12.169  41.276  1.00  0.00    -0.550 OA
ENDBRANCH   7   8
ENDBRANCH   6   7
ENDBRANCH   5   6
ENDBRANCH   4   5
ENDBRANCH   3   4
ENDBRANCH   2   3
ENDBRANCH   1   2
BRANCH   1  11
ATOM     11  C   UNL     1       9.283  -4.056  42.359  1.00  0.00     0.000 C 
BRANCH  11  12
ATOM     12  C   UNL     1       9.216  -2.617  42.903  1.00  0.00    -0.000 C 
BRANCH  12  13
ATOM     13  C   UNL     1       9.518  -1.559  41.833  1.00  0.00    -0.000 C 
BRANCH  13  14
ATOM     14  C   UNL     1       8.225  -1.088  41.149  1.00  0.00    -0.000 C 
BRANCH  14  15
ATOM     15  C   UNL     1       8.163  -1.476  39.662  1.00  0.00    -0.000 C 
BRANCH  15  16
ATOM     16  C   UNL     1       7.458  -2.823  39.432  1.00  0.00    -0.000 C 
BRANCH  16  17
ATOM     17  C   UNL     1       8.194  -3.706  38.411  1.00  0.00    -0.003 C 
ATOM     18  C   UNL     1       9.659  -3.940  38.775  1.00  0.00     0.004 C 
ENDBRANCH  16  17
ENDBRANCH  15  16
ENDBRANCH  14  15
ENDBRANCH  13  14
ENDBRANCH  12  13
ENDBRANCH  11  12
ENDBRANCH   1  11
TORSDOF 14
ENDMDL
MODEL 6
REMARK VINA RESULT:    -3.786      2.404      3.291
REMARK INTER + INTRA:          -8.986
REMARK INTER:                  -8.034
REMARK INTRA:                  -0.953
REMARK UNBOUND:                -2.101
REMARK SMILES CCCCCCCCCCCCCCCC(=O)[O-]
REMARK SMILES IDX 9 1 10 2 11 3 12 4 13 5 14 6 15 7 16 8 17 9 18 10 8 11 7 12
REMARK SMILES IDX 6 13 5 14 4 15 3 16 2 17 1 18
REMARK H PARENT
REMARK Flexibility Score: inf
ROOT
ATOM      1  C   UNL     1       8.214  -3.209  42.996  1.00  0.00     0.000 C 
ENDROOT
BRANCH   1   2
ATOM      2  C   UNL     1       8.951  -1.957  42.480  1.00  0.00     0.000 C 
BRANCH   2   3
ATOM      3  C   UNL     1      10.086  -2.229  41.477  1.00  0.00     0.000 C 
BRANCH   3   4
ATOM      4  C   UNL     1       9.725  -1.814  40.040  1.00  0.00     0.000 C 
BRANCH   4   5
ATOM      5  C   UNL     1       8.213  -1.598  39.841  1.00  0.00     0.000 C 
BRANCH   5   6
ATOM      6  C   UNL     1       7.447  -2.808  39.274  1.00  0.00     0.006 C 
BRANCH   6   7
ATOM      7  C   UNL     1       6.544  -2.445  38.089  1.00  0.00     0.053 C 
BRANCH   7   8
ATOM      8  C   UNL     1       7.202  -2.818  36.798  1.00  0.00     0.041 C 
ATOM      9  O   UNL     1       7.023  -2.113  35.770  1.00  0.00    -0.550 OA
ATOM     10  O   UNL     1       7.976  -3.968  36.718  1.00  0.00    -0.550 OA
ENDBRANCH   7   8
ENDBRANCH   6   7
ENDBRANCH   5   6
ENDBRANCH   4   5
ENDBRANCH   3   4
ENDBRANCH   2   3
ENDBRANCH   1   2
BRANCH   1  11
ATOM     11  C   UNL     1       8.691  -4.546  42.392  1.00  0.00     0.000 C 
BRANCH  11  12
ATOM     12  C   UNL     1       7.890  -5.782  42.840  1.00  0.00    -0.000 C 
BRANCH  12  13
ATOM     13  C   UNL     1       7.502  -6.698  41.670  1.00  0.00    -0.000 C 
BRANCH  13  14
ATOM     14  C   UNL     1       8.433  -7.918  41.599  1.00  0.00    -0.000 C 
BRANCH  14  15
ATOM     15  C   UNL     1       7.772  -9.203  42.125  1.00  0.00    -0.000 C 
BRANCH  15  16
ATOM     16  C   UNL     1       7.750  -9.271  43.661  1.00  0.00    -0.000 C 
BRANCH  16  17
ATOM     17  C   UNL     1       6.959 -10.481  44.185  1.00  0.00    -0.003 C 
ATOM     18  C   UNL     1       5.930 -10.997  43.181  1.00  0.00     0.004 C 
ENDBRANCH  16  17
ENDBRANCH  15  16
ENDBRANCH  14  15
ENDBRANCH  13  14
ENDBRANCH  12  13
ENDBRANCH  11  12
ENDBRANCH   1  11
TORSDOF 14
ENDMDL
MODEL 7
REMARK VINA RESULT:    -3.782      4.650      7.147
REMARK INTER + INTRA:          -8.979
REMARK INTER:                  -7.302
REMARK INTRA:                  -1.677
REMARK UNBOUND:                -2.101
REMARK SMILES CCCCCCCCCCCCCCCC(=O)[O-]
REMARK SMILES IDX 9 1 10 2 11 3 12 4 13 5 14 6 15 7 16 8 17 9 18 10 8 11 7 12
REMARK SMILES IDX 6 13 5 14 4 15 3 16 2 17 1 18
REMARK H PARENT
REMARK Flexibility Score: inf
ROOT
ATOM      1  C   UNL     1       7.122  -9.327  41.686  1.00  0.00     0.000 C 
ENDROOT
BRANCH   1   2
ATOM      2  C   UNL     1       7.895  -7.995  41.614  1.00  0.00     0.000 C 
BRANCH   2   3
ATOM      3  C   UNL     1       8.679  -7.621  42.886  1.00  0.00     0.000 C 
BRANCH   3   4
ATOM      4  C   UNL     1       7.909  -6.650  43.797  1.00  0.00     0.000 C 
BRANCH   4   5
ATOM      5  C   UNL     1       7.453  -5.374  43.065  1.00  0.00     0.000 C 
BRANCH   5   6
ATOM      6  C   UNL     1       8.589  -4.472  42.549  1.00  0.00     0.006 C 
BRANCH   6   7
ATOM      7  C   UNL     1       8.206  -3.686  41.289  1.00  0.00     0.053 C 
BRANCH   7   8
ATOM      8  C   UNL     1       8.732  -4.370  40.067  1.00  0.00     0.041 C 
ATOM      9  O   UNL     1       9.666  -5.208  40.162  1.00  0.00    -0.550 OA
ATOM     10  O   UNL     1       8.220  -4.049  38.816  1.00  0.00    -0.550 OA
ENDBRANCH   7   8
ENDBRANCH   6   7
ENDBRANCH   5   6
ENDBRANCH   4   5
ENDBRANCH   3   4
ENDBRANCH   2   3
ENDBRANCH   1   2
BRANCH   1  11
ATOM     11  C   UNL     1       7.445 -10.208  42.910  1.00  0.00     0.000 C 
BRANCH  11  12
ATOM     12  C   UNL     1       6.220 -10.841  43.594  1.00  0.00    -0.000 C 
BRANCH  12  13
ATOM     13  C   UNL     1       5.306 -11.586  42.610  1.00  0.00    -0.000 C 
BRANCH  13  14
ATOM     14  C   UNL     1       5.762 -13.043  42.435  1.00  0.00    -0.000 C 
BRANCH  14  15
ATOM     15  C   UNL     1       5.900 -13.449  40.958  1.00  0.00    -0.000 C 
BRANCH  15  16
ATOM     16  C   UNL     1       5.604 -12.287  39.995  1.00  0.00    -0.000 C 
BRANCH  16  17
ATOM     17  C   UNL     1       6.813 -11.930  39.114  1.00  0.00    -0.003 C 
ATOM     18  C   UNL     1       8.141 -12.382  39.719  1.00  0.00     0.004 C 
ENDBRANCH  16  17
ENDBRANCH  15  16
ENDBRANCH  14  15
ENDBRANCH  13  14
ENDBRANCH  12  13
ENDBRANCH  11  12
ENDBRANCH   1  11
TORSDOF 14
ENDMDL
MODEL 8
REMARK VINA RESULT:    -3.762      1.625      2.851
REMARK INTER + INTRA:          -8.941
REMARK INTER:                  -7.140
REMARK INTRA:                  -1.801
REMARK UNBOUND:                -2.101
REMARK SMILES CCCCCCCCCCCCCCCC(=O)[O-]
REMARK SMILES IDX 9 1 10 2 11 3 12 4 13 5 14 6 15 7 16 8 17 9 18 10 8 11 7 12
REMARK SMILES IDX 6 13 5 14 4 15 3 16 2 17 1 18
REMARK H PARENT
REMARK Flexibility Score: inf
ROOT
ATOM      1  C   UNL     1      10.166  -3.135  42.461  1.00  0.00     0.000 C 
ENDROOT
BRANCH   1   2
ATOM      2  C   UNL     1      10.837  -2.847  41.103  1.00  0.00     0.000 C 
BRANCH   2   3
ATOM      3  C   UNL     1      11.063  -4.078  40.207  1.00  0.00     0.000 C 
BRANCH   3   4
ATOM      4  C   UNL     1       9.791  -4.512  39.458  1.00  0.00     0.000 C 
BRANCH   4   5
ATOM      5  C   UNL     1       9.156  -3.370  38.644  1.00  0.00     0.000 C 
BRANCH   5   6
ATOM      6  C   UNL     1       7.690  -3.052  38.993  1.00  0.00     0.006 C 
BRANCH   6   7
ATOM      7  C   UNL     1       6.743  -3.200  37.796  1.00  0.00     0.053 C 
BRANCH   7   8
ATOM      8  C   UNL     1       6.842  -2.006  36.900  1.00  0.00     0.041 C 
ATOM      9  O   UNL     1       7.440  -2.091  35.796  1.00  0.00    -0.550 OA
ATOM     10  O   UNL     1       6.313  -0.787  37.304  1.00  0.00    -0.550 OA
ENDBRANCH   7   8
ENDBRANCH   6   7
ENDBRANCH   5   6
ENDBRANCH   4   5
ENDBRANCH   3   4
ENDBRANCH   2   3
ENDBRANCH   1   2
BRANCH   1  11
ATOM     11  C   UNL     1       8.700  -2.671  42.580  1.00  0.00     0.000 C 
BRANCH  11  12
ATOM     12  C   UNL     1       7.684  -3.796  42.850  1.00  0.00    -0.000 C 
BRANCH  12  13
ATOM     13  C   UNL     1       8.312  -5.196  42.782  1.00  0.00    -0.000 C 
BRANCH  13  14
ATOM     14  C   UNL     1       7.557  -6.086  41.783  1.00  0.00    -0.000 C 
BRANCH  14  15
ATOM     15  C   UNL     1       8.118  -7.516  41.718  1.00  0.00    -0.000 C 
BRANCH  15  16
ATOM     16  C   UNL     1       8.727  -7.973  43.054  1.00  0.00    -0.000 C 
BRANCH  16  17
ATOM     17  C   UNL     1       7.909  -9.090  43.723  1.00  0.00    -0.003 C 
ATOM     18  C   UNL     1       7.105  -9.917  42.721  1.00  0.00     0.004 C 
ENDBRANCH  16  17
ENDBRANCH  15  16
ENDBRANCH  14  15
ENDBRANCH  13  14
ENDBRANCH  12  13
ENDBRANCH  11  12
ENDBRANCH   1  11
TORSDOF 14
ENDMDL
MODEL 9
REMARK VINA RESULT:    -3.757      4.109      7.201
REMARK INTER + INTRA:          -8.933
REMARK INTER:                  -7.778
REMARK INTRA:                  -1.155
REMARK UNBOUND:                -2.101
REMARK SMILES CCCCCCCCCCCCCCCC(=O)[O-]
REMARK SMILES IDX 9 1 10 2 11 3 12 4 13 5 14 6 15 7 16 8 17 9 18 10 8 11 7 12
REMARK SMILES IDX 6 13 5 14 4 15 3 16 2 17 1 18
REMARK H PARENT
REMARK Flexibility Score: inf
ROOT
ATOM      1  C   UNL     1       8.236  -2.083  40.868  1.00  0.00     0.000 C 
ENDROOT
BRANCH   1   2
ATOM      2  C   UNL     1       8.830  -3.087  41.876  1.00  0.00     0.000 C 
BRANCH   2   3
ATOM      3  C   UNL     1       7.808  -3.775  42.799  1.00  0.00     0.000 C 
BRANCH   3   4
ATOM      4  C   UNL     1       7.768  -5.301  42.610  1.00  0.00     0.000 C 
BRANCH   4   5
ATOM      5  C   UNL     1       8.692  -5.791  41.480  1.00  0.00     0.000 C 
BRANCH   5   6
ATOM      6  C   UNL     1       9.012  -7.297  41.501  1.00  0.00     0.006 C 
BRANCH   6   7
ATOM      7  C   UNL     1       7.761  -8.174  41.623  1.00  0.00     0.053 C 
BRANCH   7   8
ATOM      8  C   UNL     1       7.850  -9.045  42.836  1.00  0.00     0.041 C 
ATOM      9  O   UNL     1       8.500  -8.663  43.844  1.00  0.00    -0.550 OA
ATOM     10  O   UNL     1       7.252 -10.299  42.838  1.00  0.00    -0.550 OA
ENDBRANCH   7   8
ENDBRANCH   6   7
ENDBRANCH   5   6
ENDBRANCH   4   5
ENDBRANCH   3   4
ENDBRANCH   2   3
ENDBRANCH   1   2
BRANCH   1  11
ATOM     11  C   UNL     1       8.826  -2.154  39.445  1.00  0.00     0.000 C 
BRANCH  11  12
ATOM     12  C   UNL     1       8.486  -3.437  38.666  1.00  0.00    -0.000 C 
BRANCH  12  13
ATOM     13  C   UNL     1       7.089  -3.397  38.031  1.00  0.00    -0.000 C 
BRANCH  13  14
ATOM     14  C   UNL     1       6.907  -2.126  37.187  1.00  0.00    -0.000 C 
BRANCH  14  15
ATOM     15  C   UNL     1       5.606  -1.375  37.515  1.00  0.00    -0.000 C 
BRANCH  15  16
ATOM     16  C   UNL     1       5.474  -0.054  36.740  1.00  0.00    -0.000 C 
BRANCH  16  17
ATOM     17  C   UNL     1       5.567  -0.252  35.219  1.00  0.00    -0.003 C 
ATOM     18  C   UNL     1       6.330   0.872  34.520  1.00  0.00     0.004 C 
ENDBRANCH  16  17
ENDBRANCH  15  16
ENDBRANCH  14  15
ENDBRANCH  13  14
ENDBRANCH  12  13
ENDBRANCH  11  12
ENDBRANCH   1  11
TORSDOF 14
ENDMDL
