MODEL 1
REMARK VINA RESULT:    -5.952      0.000      0.000
REMARK INTER + INTRA:          -6.300
REMARK INTER:                  -6.300
REMARK INTRA:                   0.000
REMARK UNBOUND:                 0.000
REMARK SMILES O=c1ccc2cc(O)c(O)cc2o1
REMARK SMILES IDX 4 1 3 2 2 3 1 4 13 5 12 6 11 7 9 8 7 9 6 10 5 11 8 12 10 14
REMARK H PARENT 8 13 10 15
REMARK Flexibility Score: inf
ROOT
ATOM      1  C   UNL     1      27.279   6.284  32.525  1.00  0.00     0.019 A 
ATOM      2  C   UNL     1      26.896   7.535  33.005  1.00  0.00     0.094 A 
ATOM      3  C   UNL     1      27.872   8.522  33.184  1.00  0.00     0.336 A 
ATOM      4  O   UNL     1      27.546   9.658  33.616  1.00  0.00    -0.246 OA
ATOM      5  O   UNL     1      29.146   8.266  32.899  1.00  0.00    -0.423 OA
ATOM      6  C   UNL     1      29.555   7.086  32.438  1.00  0.00     0.142 A 
ATOM      7  C   UNL     1      30.908   6.877  32.155  1.00  0.00     0.098 A 
ATOM      8  C   UNL     1      31.345   5.634  31.670  1.00  0.00     0.161 A 
ATOM      9  C   UNL     1      30.418   4.596  31.467  1.00  0.00     0.158 A 
ATOM     10  C   UNL     1      29.062   4.803  31.749  1.00  0.00     0.062 A 
ATOM     11  C   UNL     1      28.627   6.044  32.234  1.00  0.00     0.022 A 
ENDROOT
BRANCH   9  12
ATOM     12  O   UNL     1      30.825   3.352  30.986  1.00  0.00    -0.504 OA
ATOM     13  H   UNL     1      31.255   3.241  30.075  1.00  0.00     0.293 HD
ENDBRANCH   9  12
BRANCH   8  14
ATOM     14  O   UNL     1      32.695   5.429  31.389  1.00  0.00    -0.504 OA
ATOM     15  H   UNL     1      33.424   5.818  31.976  1.00  0.00     0.293 HD
ENDBRANCH   8  14
TORSDOF 2
ENDMDL
MODEL 2
REMARK VINA RESULT:    -5.703      1.717      5.063
REMARK INTER + INTRA:          -6.037
REMARK INTER:                  -6.037
REMARK INTRA:                   0.000
REMARK UNBOUND:                 0.000
REMARK SMILES O=c1ccc2cc(O)c(O)cc2o1
REMARK SMILES IDX 4 1 3 2 2 3 1 4 13 5 12 6 11 7 9 8 7 9 6 10 5 11 8 12 10 14
REMARK H PARENT 8 13 10 15
REMARK Flexibility Score: inf
ROOT
ATOM      1  C   UNL     1      31.062   4.765  31.175  1.00  0.00     0.019 A 
ATOM      2  C   UNL     1      30.867   3.480  30.670  1.00  0.00     0.094 A 
ATOM      3  C   UNL     1      29.591   2.910  30.739  1.00  0.00     0.336 A 
ATOM      4  O   UNL     1      29.396   1.752  30.288  1.00  0.00    -0.246 OA
ATOM      5  O   UNL     1      28.581   3.587  31.278  1.00  0.00    -0.423 OA
ATOM      6  C   UNL     1      28.723   4.815  31.771  1.00  0.00     0.142 A 
ATOM      7  C   UNL     1      27.623   5.477  32.325  1.00  0.00     0.098 A 
ATOM      8  C   UNL     1      27.766   6.772  32.847  1.00  0.00     0.161 A 
ATOM      9  C   UNL     1      29.022   7.407  32.812  1.00  0.00     0.158 A 
ATOM     10  C   UNL     1      30.125   6.746  32.257  1.00  0.00     0.062 A 
ATOM     11  C   UNL     1      29.980   5.453  31.736  1.00  0.00     0.022 A 
ENDROOT
BRANCH   9  12
ATOM     12  O   UNL     1      29.192   8.693  33.323  1.00  0.00    -0.504 OA
ATOM     13  H   UNL     1      29.893   8.906  34.022  1.00  0.00     0.293 HD
ENDBRANCH   9  12
BRANCH   8  14
ATOM     14  O   UNL     1      26.667   7.429  33.399  1.00  0.00    -0.504 OA
ATOM     15  H   UNL     1      26.235   7.110  34.257  1.00  0.00     0.293 HD
ENDBRANCH   8  14
TORSDOF 2
ENDMDL
MODEL 3
REMARK VINA RESULT:    -5.516      1.318      4.568
REMARK INTER + INTRA:          -5.839
REMARK INTER:                  -5.839
REMARK INTRA:                   0.000
REMARK UNBOUND:                 0.000
REMARK SMILES O=c1ccc2cc(O)c(O)cc2o1
REMARK SMILES IDX 4 1 3 2 2 3 1 4 13 5 12 6 11 7 9 8 7 9 6 10 5 11 8 12 10 14
REMARK H PARENT 8 13 10 15
REMARK Flexibility Score: inf
ROOT
ATOM      1  C   UNL     1      28.459   3.809  31.087  1.00  0.00     0.019 A 
ATOM      2  C   UNL     1      29.581   3.248  30.480  1.00  0.00     0.094 A 
ATOM      3  C   UNL     1      30.799   3.933  30.540  1.00  0.00     0.336 A 
ATOM      4  O   UNL     1      31.823   3.443  29.997  1.00  0.00    -0.246 OA
ATOM      5  O   UNL     1      30.883   5.102  31.169  1.00  0.00    -0.423 OA
ATOM      6  C   UNL     1      29.837   5.673  31.762  1.00  0.00     0.142 A 
ATOM      7  C   UNL     1      29.986   6.904  32.409  1.00  0.00     0.098 A 
ATOM      8  C   UNL     1      28.887   7.511  33.036  1.00  0.00     0.161 A 
ATOM      9  C   UNL     1      27.630   6.879  33.014  1.00  0.00     0.158 A 
ATOM     10  C   UNL     1      27.478   5.646  32.368  1.00  0.00     0.062 A 
ATOM     11  C   UNL     1      28.576   5.041  31.742  1.00  0.00     0.022 A 
ENDROOT
BRANCH   9  12
ATOM     12  O   UNL     1      26.522   7.460  33.630  1.00  0.00    -0.504 OA
ATOM     13  H   UNL     1      26.475   8.452  33.829  1.00  0.00     0.293 HD
ENDBRANCH   9  12
BRANCH   8  14
ATOM     14  O   UNL     1      29.040   8.739  33.679  1.00  0.00    -0.504 OA
ATOM     15  H   UNL     1      28.995   9.613  33.171  1.00  0.00     0.293 HD
ENDBRANCH   8  14
TORSDOF 2
ENDMDL
MODEL 4
REMARK VINA RESULT:    -5.287      1.935      4.609
REMARK INTER + INTRA:          -5.596
REMARK INTER:                  -5.596
REMARK INTRA:                   0.000
REMARK UNBOUND:                 0.000
REMARK SMILES O=c1ccc2cc(O)c(O)cc2o1
REMARK SMILES IDX 4 1 3 2 2 3 1 4 13 5 12 6 11 7 9 8 7 9 6 10 5 11 8 12 10 14
REMARK H PARENT 8 13 10 15
REMARK Flexibility Score: inf
ROOT
ATOM      1  C   UNL     1      27.987   3.889  31.262  1.00  0.00     0.019 A 
ATOM      2  C   UNL     1      27.935   2.630  30.666  1.00  0.00     0.094 A 
ATOM      3  C   UNL     1      29.120   2.049  30.203  1.00  0.00     0.336 A 
ATOM      4  O   UNL     1      29.094   0.913  29.662  1.00  0.00    -0.246 OA
ATOM      5  O   UNL     1      30.279   2.690  30.332  1.00  0.00    -0.423 OA
ATOM      6  C   UNL     1      30.373   3.893  30.895  1.00  0.00     0.142 A 
ATOM      7  C   UNL     1      31.619   4.518  31.003  1.00  0.00     0.098 A 
ATOM      8  C   UNL     1      31.725   5.786  31.596  1.00  0.00     0.161 A 
ATOM      9  C   UNL     1      30.573   6.430  32.083  1.00  0.00     0.158 A 
ATOM     10  C   UNL     1      29.324   5.806  31.976  1.00  0.00     0.062 A 
ATOM     11  C   UNL     1      29.219   4.540  31.384  1.00  0.00     0.022 A 
ENDROOT
BRANCH   9  12
ATOM     12  O   UNL     1      30.650   7.690  32.676  1.00  0.00    -0.504 OA
ATOM     13  H   UNL     1      31.533   8.102  32.952  1.00  0.00     0.293 HD
ENDBRANCH   9  12
BRANCH   8  14
ATOM     14  O   UNL     1      32.969   6.406  31.701  1.00  0.00    -0.504 OA
ATOM     15  H   UNL     1      33.059   7.415  31.719  1.00  0.00     0.293 HD
ENDBRANCH   8  14
TORSDOF 2
ENDMDL
MODEL 5
REMARK VINA RESULT:    -5.234      3.213      4.963
REMARK INTER + INTRA:          -5.540
REMARK INTER:                  -5.540
REMARK INTRA:                   0.000
REMARK UNBOUND:                 0.000
REMARK SMILES O=c1ccc2cc(O)c(O)cc2o1
REMARK SMILES IDX 4 1 3 2 2 3 1 4 13 5 12 6 11 7 9 8 7 9 6 10 5 11 8 12 10 14
REMARK H PARENT 8 13 10 15
REMARK Flexibility Score: inf
ROOT
ATOM      1  C   UNL     1      31.800   4.104  29.490  1.00  0.00     0.019 A 
ATOM      2  C   UNL     1      32.359   4.943  30.453  1.00  0.00     0.094 A 
ATOM      3  C   UNL     1      31.589   5.312  31.561  1.00  0.00     0.336 A 
ATOM      4  O   UNL     1      32.077   6.068  32.441  1.00  0.00    -0.246 OA
ATOM      5  O   UNL     1      30.342   4.869  31.691  1.00  0.00    -0.423 OA
ATOM      6  C   UNL     1      29.770   4.067  30.796  1.00  0.00     0.142 A 
ATOM      7  C   UNL     1      28.454   3.632  30.987  1.00  0.00     0.098 A 
ATOM      8  C   UNL     1      27.846   2.787  30.046  1.00  0.00     0.161 A 
ATOM      9  C   UNL     1      28.561   2.376  28.907  1.00  0.00     0.158 A 
ATOM     10  C   UNL     1      29.878   2.810  28.713  1.00  0.00     0.062 A 
ATOM     11  C   UNL     1      30.486   3.653  29.653  1.00  0.00     0.022 A 
ENDROOT
BRANCH   9  12
ATOM     12  O   UNL     1      27.979   1.536  27.956  1.00  0.00    -0.504 OA
ATOM     13  H   UNL     1      26.992   1.314  27.967  1.00  0.00     0.293 HD
ENDBRANCH   9  12
BRANCH   8  14
ATOM     14  O   UNL     1      26.534   2.356  30.240  1.00  0.00    -0.504 OA
ATOM     15  H   UNL     1      25.798   2.999  30.507  1.00  0.00     0.293 HD
ENDBRANCH   8  14
TORSDOF 2
ENDMDL
MODEL 6
REMARK VINA RESULT:    -5.113      1.500      2.654
REMARK INTER + INTRA:          -5.412
REMARK INTER:                  -5.412
REMARK INTRA:                   0.000
REMARK UNBOUND:                 0.000
REMARK SMILES O=c1ccc2cc(O)c(O)cc2o1
REMARK SMILES IDX 4 1 3 2 2 3 1 4 13 5 12 6 11 7 9 8 7 9 6 10 5 11 8 12 10 14
REMARK H PARENT 8 13 10 15
REMARK Flexibility Score: inf
ROOT
ATOM      1  C   UNL     1      29.781   7.128  32.464  1.00  0.00     0.019 A 
ATOM      2  C   UNL     1      28.705   7.859  32.967  1.00  0.00     0.094 A 
ATOM      3  C   UNL     1      27.426   7.292  32.936  1.00  0.00     0.336 A 
ATOM      4  O   UNL     1      26.443   7.936  33.385  1.00  0.00    -0.246 OA
ATOM      5  O   UNL     1      27.242   6.074  32.434  1.00  0.00    -0.423 OA
ATOM      6  C   UNL     1      28.241   5.343  31.944  1.00  0.00     0.142 A 
ATOM      7  C   UNL     1      27.986   4.067  31.430  1.00  0.00     0.098 A 
ATOM      8  C   UNL     1      29.035   3.291  30.912  1.00  0.00     0.161 A 
ATOM      9  C   UNL     1      30.347   3.798  30.911  1.00  0.00     0.158 A 
ATOM     10  C   UNL     1      30.605   5.075  31.425  1.00  0.00     0.062 A 
ATOM     11  C   UNL     1      29.557   5.849  31.942  1.00  0.00     0.022 A 
ENDROOT
BRANCH   9  12
ATOM     12  O   UNL     1      31.408   3.048  30.402  1.00  0.00    -0.504 OA
ATOM     13  H   UNL     1      31.570   2.088  30.680  1.00  0.00     0.293 HD
ENDBRANCH   9  12
BRANCH   8  14
ATOM     14  O   UNL     1      28.777   2.021  30.400  1.00  0.00    -0.504 OA
ATOM     15  H   UNL     1      28.659   1.863  29.406  1.00  0.00     0.293 HD
ENDBRANCH   8  14
TORSDOF 2
ENDMDL
MODEL 7
REMARK VINA RESULT:    -5.078     11.597     12.963
REMARK INTER + INTRA:          -5.374
REMARK INTER:                  -5.374
REMARK INTRA:                   0.000
REMARK UNBOUND:                 0.000
REMARK SMILES O=c1ccc2cc(O)c(O)cc2o1
REMARK SMILES IDX 4 1 3 2 2 3 1 4 13 5 12 6 11 7 9 8 7 9 6 10 5 11 8 12 10 14
REMARK H PARENT 8 13 10 15
REMARK Flexibility Score: inf
ROOT
ATOM      1  C   UNL     1      21.505   2.253  25.310  1.00  0.00     0.019 A 
ATOM      2  C   UNL     1      22.266   1.185  25.783  1.00  0.00     0.094 A 
ATOM      3  C   UNL     1      23.130   0.525  24.903  1.00  0.00     0.336 A 
ATOM      4  O   UNL     1      23.826  -0.441  25.311  1.00  0.00    -0.246 OA
ATOM      5  O   UNL     1      23.222   0.913  23.633  1.00  0.00    -0.423 OA
ATOM      6  C   UNL     1      22.513   1.927  23.141  1.00  0.00     0.142 A 
ATOM      7  C   UNL     1      22.652   2.289  21.798  1.00  0.00     0.098 A 
ATOM      8  C   UNL     1      21.908   3.357  21.273  1.00  0.00     0.161 A 
ATOM      9  C   UNL     1      21.019   4.066  22.101  1.00  0.00     0.158 A 
ATOM     10  C   UNL     1      20.878   3.705  23.447  1.00  0.00     0.062 A 
ATOM     11  C   UNL     1      21.622   2.639  23.970  1.00  0.00     0.022 A 
ENDROOT
BRANCH   9  12
ATOM     12  O   UNL     1      20.267   5.131  21.605  1.00  0.00    -0.504 OA
ATOM     13  H   UNL     1      20.305   6.054  22.017  1.00  0.00     0.293 HD
ENDBRANCH   9  12
BRANCH   8  14
ATOM     14  O   UNL     1      22.049   3.715  19.933  1.00  0.00    -0.504 OA
ATOM     15  H   UNL     1      22.084   3.018  19.198  1.00  0.00     0.293 HD
ENDBRANCH   8  14
TORSDOF 2
ENDMDL
MODEL 8
REMARK VINA RESULT:    -5.077      2.995      4.908
REMARK INTER + INTRA:          -5.374
REMARK INTER:                  -5.374
REMARK INTRA:                   0.000
REMARK UNBOUND:                 0.000
REMARK SMILES O=c1ccc2cc(O)c(O)cc2o1
REMARK SMILES IDX 4 1 3 2 2 3 1 4 13 5 12 6 11 7 9 8 7 9 6 10 5 11 8 12 10 14
REMARK H PARENT 8 13 10 15
REMARK Flexibility Score: inf
ROOT
ATOM      1  C   UNL     1      29.797   2.334  28.632  1.00  0.00     0.019 A 
ATOM      2  C   UNL     1      28.497   1.852  28.776  1.00  0.00     0.094 A 
ATOM      3  C   UNL     1      27.702   2.345  29.817  1.00  0.00     0.336 A 
ATOM      4  O   UNL     1      26.526   1.923  29.963  1.00  0.00    -0.246 OA
ATOM      5  O   UNL     1      28.183   3.260  30.654  1.00  0.00    -0.423 OA
ATOM      6  C   UNL     1      29.418   3.746  30.552  1.00  0.00     0.142 A 
ATOM      7  C   UNL     1      29.868   4.707  31.463  1.00  0.00     0.098 A 
ATOM      8  C   UNL     1      31.169   5.224  31.360  1.00  0.00     0.161 A 
ATOM      9  C   UNL     1      32.024   4.773  30.338  1.00  0.00     0.158 A 
ATOM     10  C   UNL     1      31.575   3.811  29.425  1.00  0.00     0.062 A 
ATOM     11  C   UNL     1      30.276   3.295  29.528  1.00  0.00     0.022 A 
ENDROOT
BRANCH   9  12
ATOM     12  O   UNL     1      33.321   5.269  30.214  1.00  0.00    -0.504 OA
ATOM     13  H   UNL     1      33.618   6.121  30.673  1.00  0.00     0.293 HD
ENDBRANCH   9  12
BRANCH   8  14
ATOM     14  O   UNL     1      31.614   6.182  32.270  1.00  0.00    -0.504 OA
ATOM     15  H   UNL     1      32.212   5.936  33.050  1.00  0.00     0.293 HD
ENDBRANCH   8  14
TORSDOF 2
ENDMDL
MODEL 9
REMARK VINA RESULT:    -5.027      2.883      4.991
REMARK INTER + INTRA:          -5.321
REMARK INTER:                  -5.321
REMARK INTRA:                   0.000
REMARK UNBOUND:                 0.000
REMARK SMILES O=c1ccc2cc(O)c(O)cc2o1
REMARK SMILES IDX 4 1 3 2 2 3 1 4 13 5 12 6 11 7 9 8 7 9 6 10 5 11 8 12 10 14
REMARK H PARENT 8 13 10 15
REMARK Flexibility Score: inf
ROOT
ATOM      1  C   UNL     1      28.053   3.403  30.991  1.00  0.00     0.019 A 
ATOM      2  C   UNL     1      27.581   2.383  30.166  1.00  0.00     0.094 A 
ATOM      3  C   UNL     1      28.428   1.858  29.183  1.00  0.00     0.336 A 
ATOM      4  O   UNL     1      28.020   0.937  28.429  1.00  0.00    -0.246 OA
ATOM      5  O   UNL     1      29.664   2.328  29.041  1.00  0.00    -0.423 OA
ATOM      6  C   UNL     1      30.154   3.300  29.807  1.00  0.00     0.142 A 
ATOM      7  C   UNL     1      31.463   3.752  29.611  1.00  0.00     0.098 A 
ATOM      8  C   UNL     1      31.985   4.777  30.415  1.00  0.00     0.161 A 
ATOM      9  C   UNL     1      31.189   5.351  31.423  1.00  0.00     0.158 A 
ATOM     10  C   UNL     1      29.878   4.900  31.621  1.00  0.00     0.062 A 
ATOM     11  C   UNL     1      29.358   3.877  30.818  1.00  0.00     0.022 A 
ENDROOT
BRANCH   9  12
ATOM     12  O   UNL     1      31.683   6.371  32.236  1.00  0.00    -0.504 OA
ATOM     13  H   UNL     1      32.479   6.936  31.967  1.00  0.00     0.293 HD
ENDBRANCH   9  12
BRANCH   8  14
ATOM     14  O   UNL     1      33.290   5.225  30.216  1.00  0.00    -0.504 OA
ATOM     15  H   UNL     1      33.492   6.030  29.635  1.00  0.00     0.293 HD
ENDBRANCH   8  14
TORSDOF 2
ENDMDL
