MODEL 1
REMARK VINA RESULT:    -6.636      0.000      0.000
REMARK INTER + INTRA:          -7.555
REMARK INTER:                  -7.800
REMARK INTRA:                   0.246
REMARK UNBOUND:                 0.246
REMARK SMILES O=c1c(O)c(-c2ccc(O)cc2)oc2cc(O)cc(O)c12
REMARK SMILES IDX 5 1 3 2 2 3 1 4 21 5 19 6 18 7 16 8 15 9 14 10 13 11 6 12
REMARK SMILES IDX 7 13 8 14 9 15 12 16 11 17 10 18 4 20 20 22 17 24
REMARK H PARENT 10 19 4 21 20 23 17 25
REMARK Flexibility Score: inf
ROOT
ATOM      1  C   UNL     1     173.241 175.189 176.655  1.00  0.00     0.180 A 
ATOM      2  C   UNL     1     174.305 175.786 175.958  1.00  0.00     0.208 A 
ATOM      3  C   UNL     1     174.029 176.528 174.798  1.00  0.00     0.238 A 
ATOM      4  O   UNL     1     174.990 177.014 174.148  1.00  0.00    -0.285 OA
ATOM      5  C   UNL     1     172.690 176.677 174.360  1.00  0.00     0.111 A 
ATOM      6  C   UNL     1     172.291 177.440 173.221  1.00  0.00     0.134 A 
ATOM      7  C   UNL     1     170.955 177.410 172.805  1.00  0.00     0.093 A 
ATOM      8  C   UNL     1     169.991 176.697 173.524  1.00  0.00     0.123 A 
ATOM      9  C   UNL     1     170.361 175.998 174.670  1.00  0.00     0.094 A 
ATOM     10  C   UNL     1     171.693 175.980 175.090  1.00  0.00     0.146 A 
ATOM     11  O   UNL     1     172.004 175.292 176.181  1.00  0.00    -0.452 OA
ENDROOT
BRANCH   1  12
ATOM     12  C   UNL     1     173.450 174.414 177.899  1.00  0.00     0.021 A 
ATOM     13  C   UNL     1     172.520 174.520 178.946  1.00  0.00     0.016 A 
ATOM     14  C   UNL     1     172.709 173.814 180.138  1.00  0.00     0.047 A 
ATOM     15  C   UNL     1     173.840 173.004 180.303  1.00  0.00     0.115 A 
ATOM     16  C   UNL     1     174.594 173.613 178.081  1.00  0.00     0.016 A 
ATOM     17  C   UNL     1     174.781 172.909 179.274  1.00  0.00     0.047 A 
BRANCH  15  18
ATOM     18  O   UNL     1     174.040 172.295 181.486  1.00  0.00    -0.508 OA
ATOM     19  H   UNL     1     173.305 172.199 182.176  1.00  0.00     0.293 HD
ENDBRANCH  15  18
ENDBRANCH   1  12
BRANCH   2  20
ATOM     20  O   UNL     1     175.620 175.609 176.396  1.00  0.00    -0.502 OA
ATOM     21  H   UNL     1     176.078 176.260 177.022  1.00  0.00     0.293 HD
ENDBRANCH   2  20
BRANCH   6  22
ATOM     22  O   UNL     1     173.155 178.258 172.488  1.00  0.00    -0.507 OA
ATOM     23  H   UNL     1     174.162 178.212 172.527  1.00  0.00     0.293 HD
ENDBRANCH   6  22
BRANCH   8  24
ATOM     24  O   UNL     1     168.661 176.686 173.111  1.00  0.00    -0.508 OA
ATOM     25  H   UNL     1     167.935 177.146 173.649  1.00  0.00     0.293 HD
ENDBRANCH   8  24
TORSDOF 5
ENDMDL
MODEL 2
REMARK VINA RESULT:    -6.572      1.371      6.454
REMARK INTER + INTRA:          -7.479
REMARK INTER:                  -7.248
REMARK INTRA:                  -0.231
REMARK UNBOUND:                 0.246
REMARK SMILES O=c1c(O)c(-c2ccc(O)cc2)oc2cc(O)cc(O)c12
REMARK SMILES IDX 5 1 3 2 2 3 1 4 21 5 19 6 18 7 16 8 15 9 14 10 13 11 6 12
REMARK SMILES IDX 7 13 8 14 9 15 12 16 11 17 10 18 4 20 20 22 17 24
REMARK H PARENT 10 19 4 21 20 23 17 25
REMARK Flexibility Score: inf
ROOT
ATOM      1  C   UNL     1     172.243 175.409 176.032  1.00  0.00     0.180 A 
ATOM      2  C   UNL     1     173.603 175.505 175.691  1.00  0.00     0.208 A 
ATOM      3  C   UNL     1     174.557 174.878 176.510  1.00  0.00     0.238 A 
ATOM      4  O   UNL     1     175.776 175.013 176.230  1.00  0.00    -0.285 OA
ATOM      5  C   UNL     1     174.136 174.151 177.650  1.00  0.00     0.111 A 
ATOM      6  C   UNL     1     175.012 173.443 178.527  1.00  0.00     0.134 A 
ATOM      7  C   UNL     1     174.501 172.868 179.697  1.00  0.00     0.093 A 
ATOM      8  C   UNL     1     173.134 172.919 179.987  1.00  0.00     0.123 A 
ATOM      9  C   UNL     1     172.264 173.556 179.107  1.00  0.00     0.094 A 
ATOM     10  C   UNL     1     172.750 174.170 177.950  1.00  0.00     0.146 A 
ATOM     11  O   UNL     1     171.887 174.776 177.144  1.00  0.00    -0.452 OA
ENDROOT
BRANCH   1  12
ATOM     12  C   UNL     1     171.178 176.021 175.205  1.00  0.00     0.021 A 
ATOM     13  C   UNL     1     170.953 177.406 175.282  1.00  0.00     0.016 A 
ATOM     14  C   UNL     1     169.938 178.002 174.526  1.00  0.00     0.047 A 
ATOM     15  C   UNL     1     169.126 177.217 173.696  1.00  0.00     0.115 A 
ATOM     16  C   UNL     1     170.345 175.238 174.384  1.00  0.00     0.016 A 
ATOM     17  C   UNL     1     169.331 175.837 173.631  1.00  0.00     0.047 A 
BRANCH  15  18
ATOM     18  O   UNL     1     168.112 177.799 172.938  1.00  0.00    -0.508 OA
ATOM     19  H   UNL     1     167.531 177.246 172.319  1.00  0.00     0.293 HD
ENDBRANCH  15  18
ENDBRANCH   1  12
BRANCH   2  20
ATOM     20  O   UNL     1     173.998 176.246 174.574  1.00  0.00    -0.502 OA
ATOM     21  H   UNL     1     173.443 177.008 174.203  1.00  0.00     0.293 HD
ENDBRANCH   2  20
BRANCH   6  22
ATOM     22  O   UNL     1     176.376 173.254 178.284  1.00  0.00    -0.507 OA
ATOM     23  H   UNL     1     177.052 173.997 178.193  1.00  0.00     0.293 HD
ENDBRANCH   6  22
BRANCH   8  24
ATOM     24  O   UNL     1     172.632 172.329 181.145  1.00  0.00    -0.508 OA
ATOM     25  H   UNL     1     171.773 171.791 181.137  1.00  0.00     0.293 HD
ENDBRANCH   8  24
TORSDOF 5
ENDMDL
MODEL 3
REMARK VINA RESULT:    -6.527      4.656      7.013
REMARK INTER + INTRA:          -7.426
REMARK INTER:                  -7.188
REMARK INTRA:                  -0.238
REMARK UNBOUND:                 0.246
REMARK SMILES O=c1c(O)c(-c2ccc(O)cc2)oc2cc(O)cc(O)c12
REMARK SMILES IDX 5 1 3 2 2 3 1 4 21 5 19 6 18 7 16 8 15 9 14 10 13 11 6 12
REMARK SMILES IDX 7 13 8 14 9 15 12 16 11 17 10 18 4 20 20 22 17 24
REMARK H PARENT 10 19 4 21 20 23 17 25
REMARK Flexibility Score: inf
ROOT
ATOM      1  C   UNL     1     174.139 171.017 176.007  1.00  0.00     0.180 A 
ATOM      2  C   UNL     1     172.776 170.921 175.676  1.00  0.00     0.208 A 
ATOM      3  C   UNL     1     171.828 171.540 176.506  1.00  0.00     0.238 A 
ATOM      4  O   UNL     1     170.606 171.404 176.235  1.00  0.00    -0.285 OA
ATOM      5  C   UNL     1     172.255 172.262 177.646  1.00  0.00     0.111 A 
ATOM      6  C   UNL     1     171.385 172.963 178.534  1.00  0.00     0.134 A 
ATOM      7  C   UNL     1     171.904 173.534 179.703  1.00  0.00     0.093 A 
ATOM      8  C   UNL     1     173.273 173.484 179.982  1.00  0.00     0.123 A 
ATOM      9  C   UNL     1     174.138 172.854 179.091  1.00  0.00     0.094 A 
ATOM     10  C   UNL     1     173.644 172.245 177.935  1.00  0.00     0.146 A 
ATOM     11  O   UNL     1     174.502 171.645 177.119  1.00  0.00    -0.452 OA
ENDROOT
BRANCH   1  12
ATOM     12  C   UNL     1     175.198 170.412 175.168  1.00  0.00     0.021 A 
ATOM     13  C   UNL     1     175.439 169.031 175.248  1.00  0.00     0.016 A 
ATOM     14  C   UNL     1     176.450 168.441 174.481  1.00  0.00     0.047 A 
ATOM     15  C   UNL     1     177.242 169.230 173.636  1.00  0.00     0.115 A 
ATOM     16  C   UNL     1     176.012 171.200 174.332  1.00  0.00     0.016 A 
ATOM     17  C   UNL     1     177.022 170.608 173.567  1.00  0.00     0.047 A 
BRANCH  15  18
ATOM     18  O   UNL     1     178.251 168.655 172.867  1.00  0.00    -0.508 OA
ATOM     19  H   UNL     1     178.653 169.140 172.074  1.00  0.00     0.293 HD
ENDBRANCH  15  18
ENDBRANCH   1  12
BRANCH   2  20
ATOM     20  O   UNL     1     172.375 170.184 174.558  1.00  0.00    -0.502 OA
ATOM     21  H   UNL     1     172.285 169.176 174.574  1.00  0.00     0.293 HD
ENDBRANCH   2  20
BRANCH   6  22
ATOM     22  O   UNL     1     170.019 173.150 178.302  1.00  0.00    -0.507 OA
ATOM     23  H   UNL     1     169.319 173.232 179.024  1.00  0.00     0.293 HD
ENDBRANCH   6  22
BRANCH   8  24
ATOM     24  O   UNL     1     173.783 174.069 181.139  1.00  0.00    -0.508 OA
ATOM     25  H   UNL     1     174.520 173.626 181.676  1.00  0.00     0.293 HD
ENDBRANCH   8  24
TORSDOF 5
ENDMDL
MODEL 4
REMARK VINA RESULT:    -6.473      1.569      3.036
REMARK INTER + INTRA:          -7.363
REMARK INTER:                  -7.091
REMARK INTRA:                  -0.272
REMARK UNBOUND:                 0.246
REMARK SMILES O=c1c(O)c(-c2ccc(O)cc2)oc2cc(O)cc(O)c12
REMARK SMILES IDX 5 1 3 2 2 3 1 4 21 5 19 6 18 7 16 8 15 9 14 10 13 11 6 12
REMARK SMILES IDX 7 13 8 14 9 15 12 16 11 17 10 18 4 20 20 22 17 24
REMARK H PARENT 10 19 4 21 20 23 17 25
REMARK Flexibility Score: inf
ROOT
ATOM      1  C   UNL     1     172.304 174.302 176.977  1.00  0.00     0.180 A 
ATOM      2  C   UNL     1     171.407 173.440 176.324  1.00  0.00     0.208 A 
ATOM      3  C   UNL     1     170.830 173.849 175.110  1.00  0.00     0.238 A 
ATOM      4  O   UNL     1     169.986 173.096 174.558  1.00  0.00    -0.285 OA
ATOM      5  C   UNL     1     171.172 175.107 174.557  1.00  0.00     0.111 A 
ATOM      6  C   UNL     1     170.680 175.605 173.313  1.00  0.00     0.134 A 
ATOM      7  C   UNL     1     170.982 176.916 172.927  1.00  0.00     0.093 A 
ATOM      8  C   UNL     1     171.812 177.725 173.709  1.00  0.00     0.123 A 
ATOM      9  C   UNL     1     172.345 177.226 174.894  1.00  0.00     0.094 A 
ATOM     10  C   UNL     1     172.032 175.934 175.323  1.00  0.00     0.146 A 
ATOM     11  O   UNL     1     172.553 175.503 176.466  1.00  0.00    -0.452 OA
ENDROOT
BRANCH   1  12
ATOM     12  C   UNL     1     172.970 173.932 178.246  1.00  0.00     0.021 A 
ATOM     13  C   UNL     1     174.252 173.358 178.213  1.00  0.00     0.016 A 
ATOM     14  C   UNL     1     174.891 172.979 179.399  1.00  0.00     0.047 A 
ATOM     15  C   UNL     1     174.248 173.157 180.631  1.00  0.00     0.115 A 
ATOM     16  C   UNL     1     172.324 174.088 179.487  1.00  0.00     0.016 A 
ATOM     17  C   UNL     1     172.965 173.708 180.670  1.00  0.00     0.047 A 
BRANCH  15  18
ATOM     18  O   UNL     1     174.874 172.785 181.819  1.00  0.00    -0.508 OA
ATOM     19  H   UNL     1     175.450 173.436 182.339  1.00  0.00     0.293 HD
ENDBRANCH  15  18
ENDBRANCH   1  12
BRANCH   2  20
ATOM     20  O   UNL     1     171.066 172.212 176.898  1.00  0.00    -0.502 OA
ATOM     21  H   UNL     1     170.265 172.100 177.507  1.00  0.00     0.293 HD
ENDBRANCH   2  20
BRANCH   6  22
ATOM     22  O   UNL     1     169.921 174.849 172.415  1.00  0.00    -0.507 OA
ATOM     23  H   UNL     1     170.186 174.651 171.462  1.00  0.00     0.293 HD
ENDBRANCH   6  22
BRANCH   8  24
ATOM     24  O   UNL     1     172.120 179.023 173.308  1.00  0.00    -0.508 OA
ATOM     25  H   UNL     1     171.797 179.830 173.830  1.00  0.00     0.293 HD
ENDBRANCH   8  24
TORSDOF 5
ENDMDL
MODEL 5
REMARK VINA RESULT:    -6.440      4.602      6.078
REMARK INTER + INTRA:          -7.324
REMARK INTER:                  -7.174
REMARK INTRA:                  -0.151
REMARK UNBOUND:                 0.246
REMARK SMILES O=c1c(O)c(-c2ccc(O)cc2)oc2cc(O)cc(O)c12
REMARK SMILES IDX 5 1 3 2 2 3 1 4 21 5 19 6 18 7 16 8 15 9 14 10 13 11 6 12
REMARK SMILES IDX 7 13 8 14 9 15 12 16 11 17 10 18 4 20 20 22 17 24
REMARK H PARENT 10 19 4 21 20 23 17 25
REMARK Flexibility Score: inf
ROOT
ATOM      1  C   UNL     1     173.640 171.627 176.650  1.00  0.00     0.180 A 
ATOM      2  C   UNL     1     172.998 170.545 176.023  1.00  0.00     0.208 A 
ATOM      3  C   UNL     1     173.528 170.040 174.824  1.00  0.00     0.238 A 
ATOM      4  O   UNL     1     172.918 169.108 174.239  1.00  0.00    -0.285 OA
ATOM      5  C   UNL     1     174.702 170.613 174.277  1.00  0.00     0.111 A 
ATOM      6  C   UNL     1     175.348 170.156 173.089  1.00  0.00     0.134 A 
ATOM      7  C   UNL     1     176.428 170.880 172.569  1.00  0.00     0.093 A 
ATOM      8  C   UNL     1     176.925 172.007 173.229  1.00  0.00     0.123 A 
ATOM      9  C   UNL     1     176.338 172.426 174.420  1.00  0.00     0.094 A 
ATOM     10  C   UNL     1     175.237 171.745 174.945  1.00  0.00     0.146 A 
ATOM     11  O   UNL     1     174.700 172.184 176.077  1.00  0.00    -0.452 OA
ENDROOT
BRANCH   1  12
ATOM     12  C   UNL     1     173.156 172.197 177.928  1.00  0.00     0.021 A 
ATOM     13  C   UNL     1     173.913 172.017 179.096  1.00  0.00     0.016 A 
ATOM     14  C   UNL     1     173.464 172.528 180.319  1.00  0.00     0.047 A 
ATOM     15  C   UNL     1     172.243 173.212 180.389  1.00  0.00     0.115 A 
ATOM     16  C   UNL     1     171.921 172.868 178.010  1.00  0.00     0.016 A 
ATOM     17  C   UNL     1     171.474 173.376 179.234  1.00  0.00     0.047 A 
BRANCH  15  18
ATOM     18  O   UNL     1     171.785 173.726 181.600  1.00  0.00    -0.508 OA
ATOM     19  H   UNL     1     170.879 174.174 181.675  1.00  0.00     0.293 HD
ENDBRANCH  15  18
ENDBRANCH   1  12
BRANCH   2  20
ATOM     20  O   UNL     1     171.828 170.009 176.568  1.00  0.00    -0.502 OA
ATOM     21  H   UNL     1     171.288 170.490 177.277  1.00  0.00     0.293 HD
ENDBRANCH   2  20
BRANCH   6  22
ATOM     22  O   UNL     1     174.989 168.991 172.404  1.00  0.00    -0.507 OA
ATOM     23  H   UNL     1     175.578 168.178 172.306  1.00  0.00     0.293 HD
ENDBRANCH   6  22
BRANCH   8  24
ATOM     24  O   UNL     1     178.010 172.711 172.713  1.00  0.00    -0.508 OA
ATOM     25  H   UNL     1     178.710 173.125 173.318  1.00  0.00     0.293 HD
ENDBRANCH   8  24
TORSDOF 5
ENDMDL
MODEL 6
REMARK VINA RESULT:    -6.424      1.326      1.395
REMARK INTER + INTRA:          -7.305
REMARK INTER:                  -7.158
REMARK INTRA:                  -0.147
REMARK UNBOUND:                 0.246
REMARK SMILES O=c1c(O)c(-c2ccc(O)cc2)oc2cc(O)cc(O)c12
REMARK SMILES IDX 5 1 3 2 2 3 1 4 21 5 19 6 18 7 16 8 15 9 14 10 13 11 6 12
REMARK SMILES IDX 7 13 8 14 9 15 12 16 11 17 10 18 4 20 20 22 17 24
REMARK H PARENT 10 19 4 21 20 23 17 25
REMARK Flexibility Score: inf
ROOT
ATOM      1  C   UNL     1     172.822 174.693 176.623  1.00  0.00     0.180 A 
ATOM      2  C   UNL     1     173.521 175.746 176.007  1.00  0.00     0.208 A 
ATOM      3  C   UNL     1     173.057 176.244 174.778  1.00  0.00     0.238 A 
ATOM      4  O   UNL     1     173.718 177.149 174.205  1.00  0.00    -0.285 OA
ATOM      5  C   UNL     1     171.892 175.694 174.190  1.00  0.00     0.111 A 
ATOM      6  C   UNL     1     171.310 176.148 172.968  1.00  0.00     0.134 A 
ATOM      7  C   UNL     1     170.234 175.445 172.414  1.00  0.00     0.093 A 
ATOM      8  C   UNL     1     169.677 174.344 173.070  1.00  0.00     0.123 A 
ATOM      9  C   UNL     1     170.201 173.930 174.292  1.00  0.00     0.094 A 
ATOM     10  C   UNL     1     171.297 174.589 174.852  1.00  0.00     0.146 A 
ATOM     11  O   UNL     1     171.772 174.155 176.014  1.00  0.00    -0.452 OA
ENDROOT
BRANCH   1  12
ATOM     12  C   UNL     1     173.235 174.132 177.930  1.00  0.00     0.021 A 
ATOM     13  C   UNL     1     172.429 174.346 179.060  1.00  0.00     0.016 A 
ATOM     14  C   UNL     1     172.811 173.844 180.309  1.00  0.00     0.047 A 
ATOM     15  C   UNL     1     174.011 173.135 180.444  1.00  0.00     0.115 A 
ATOM     16  C   UNL     1     174.450 173.437 178.079  1.00  0.00     0.016 A 
ATOM     17  C   UNL     1     174.829 172.937 179.328  1.00  0.00     0.047 A 
BRANCH  15  18
ATOM     18  O   UNL     1     174.403 172.630 181.682  1.00  0.00    -0.508 OA
ATOM     19  H   UNL     1     175.101 173.099 182.248  1.00  0.00     0.293 HD
ENDBRANCH  15  18
ENDBRANCH   1  12
BRANCH   2  20
ATOM     20  O   UNL     1     174.681 176.259 176.593  1.00  0.00    -0.502 OA
ATOM     21  H   UNL     1     175.300 176.897 176.108  1.00  0.00     0.293 HD
ENDBRANCH   2  20
BRANCH   6  22
ATOM     22  O   UNL     1     171.731 177.290 172.281  1.00  0.00    -0.507 OA
ATOM     23  H   UNL     1     171.921 178.183 172.710  1.00  0.00     0.293 HD
ENDBRANCH   6  22
BRANCH   8  24
ATOM     24  O   UNL     1     168.596 173.661 172.519  1.00  0.00    -0.508 OA
ATOM     25  H   UNL     1     167.641 173.954 172.689  1.00  0.00     0.293 HD
ENDBRANCH   8  24
TORSDOF 5
ENDMDL
MODEL 7
REMARK VINA RESULT:    -6.248      2.633      3.745
REMARK INTER + INTRA:          -7.098
REMARK INTER:                  -6.834
REMARK INTRA:                  -0.264
REMARK UNBOUND:                 0.246
REMARK SMILES O=c1c(O)c(-c2ccc(O)cc2)oc2cc(O)cc(O)c12
REMARK SMILES IDX 5 1 3 2 2 3 1 4 21 5 19 6 18 7 16 8 15 9 14 10 13 11 6 12
REMARK SMILES IDX 7 13 8 14 9 15 12 16 11 17 10 18 4 20 20 22 17 24
REMARK H PARENT 10 19 4 21 20 23 17 25
REMARK Flexibility Score: inf
ROOT
ATOM      1  C   UNL     1     174.088 173.528 176.559  1.00  0.00     0.180 A 
ATOM      2  C   UNL     1     174.249 172.398 175.739  1.00  0.00     0.208 A 
ATOM      3  C   UNL     1     174.585 172.580 174.387  1.00  0.00     0.238 A 
ATOM      4  O   UNL     1     174.674 171.567 173.645  1.00  0.00    -0.285 OA
ATOM      5  C   UNL     1     174.772 173.888 173.877  1.00  0.00     0.111 A 
ATOM      6  C   UNL     1     175.153 174.187 172.535  1.00  0.00     0.134 A 
ATOM      7  C   UNL     1     175.181 175.519 172.106  1.00  0.00     0.093 A 
ATOM      8  C   UNL     1     174.905 176.567 172.990  1.00  0.00     0.123 A 
ATOM      9  C   UNL     1     174.591 176.287 174.317  1.00  0.00     0.094 A 
ATOM     10  C   UNL     1     174.520 174.966 174.764  1.00  0.00     0.146 A 
ATOM     11  O   UNL     1     174.205 174.743 176.035  1.00  0.00    -0.452 OA
ENDROOT
BRANCH   1  12
ATOM     12  C   UNL     1     173.759 173.417 177.998  1.00  0.00     0.021 A 
ATOM     13  C   UNL     1     174.777 173.119 178.919  1.00  0.00     0.016 A 
ATOM     14  C   UNL     1     174.485 172.987 180.281  1.00  0.00     0.047 A 
ATOM     15  C   UNL     1     173.168 173.137 180.735  1.00  0.00     0.115 A 
ATOM     16  C   UNL     1     172.436 173.546 178.460  1.00  0.00     0.016 A 
ATOM     17  C   UNL     1     172.147 173.412 179.822  1.00  0.00     0.047 A 
BRANCH  15  18
ATOM     18  O   UNL     1     172.864 173.008 182.089  1.00  0.00    -0.508 OA
ATOM     19  H   UNL     1     172.491 173.784 182.623  1.00  0.00     0.293 HD
ENDBRANCH  15  18
ENDBRANCH   1  12
BRANCH   2  20
ATOM     20  O   UNL     1     174.038 171.118 176.256  1.00  0.00    -0.502 OA
ATOM     21  H   UNL     1     174.800 170.506 176.523  1.00  0.00     0.293 HD
ENDBRANCH   2  20
BRANCH   6  22
ATOM     22  O   UNL     1     175.537 173.222 171.599  1.00  0.00    -0.507 OA
ATOM     23  H   UNL     1     176.130 172.431 171.799  1.00  0.00     0.293 HD
ENDBRANCH   6  22
BRANCH   8  24
ATOM     24  O   UNL     1     174.952 177.890 172.558  1.00  0.00    -0.508 OA
ATOM     25  H   UNL     1     175.597 178.558 172.965  1.00  0.00     0.293 HD
ENDBRANCH   8  24
TORSDOF 5
ENDMDL
MODEL 8
REMARK VINA RESULT:    -6.239      2.412      3.419
REMARK INTER + INTRA:          -7.087
REMARK INTER:                  -6.882
REMARK INTRA:                  -0.205
REMARK UNBOUND:                 0.246
REMARK SMILES O=c1c(O)c(-c2ccc(O)cc2)oc2cc(O)cc(O)c12
REMARK SMILES IDX 5 1 3 2 2 3 1 4 21 5 19 6 18 7 16 8 15 9 14 10 13 11 6 12
REMARK SMILES IDX 7 13 8 14 9 15 12 16 11 17 10 18 4 20 20 22 17 24
REMARK H PARENT 10 19 4 21 20 23 17 25
REMARK Flexibility Score: inf
ROOT
ATOM      1  C   UNL     1     172.109 173.249 176.887  1.00  0.00     0.180 A 
ATOM      2  C   UNL     1     171.959 172.109 176.079  1.00  0.00     0.208 A 
ATOM      3  C   UNL     1     171.292 172.228 174.848  1.00  0.00     0.238 A 
ATOM      4  O   UNL     1     171.113 171.194 174.155  1.00  0.00    -0.285 OA
ATOM      5  C   UNL     1     170.799 173.490 174.435  1.00  0.00     0.111 A 
ATOM      6  C   UNL     1     170.144 173.734 173.191  1.00  0.00     0.134 A 
ATOM      7  C   UNL     1     169.581 174.992 172.943  1.00  0.00     0.093 A 
ATOM      8  C   UNL     1     169.706 176.033 173.868  1.00  0.00     0.123 A 
ATOM      9  C   UNL     1     170.396 175.820 175.059  1.00  0.00     0.094 A 
ATOM     10  C   UNL     1     170.937 174.566 175.349  1.00  0.00     0.146 A 
ATOM     11  O   UNL     1     171.577 174.403 176.501  1.00  0.00    -0.452 OA
ENDROOT
BRANCH   1  12
ATOM     12  C   UNL     1     172.821 173.207 178.184  1.00  0.00     0.021 A 
ATOM     13  C   UNL     1     174.217 173.051 178.203  1.00  0.00     0.016 A 
ATOM     14  C   UNL     1     174.908 172.987 179.417  1.00  0.00     0.047 A 
ATOM     15  C   UNL     1     174.208 173.062 180.629  1.00  0.00     0.115 A 
ATOM     16  C   UNL     1     172.124 173.261 179.406  1.00  0.00     0.016 A 
ATOM     17  C   UNL     1     172.817 173.196 180.619  1.00  0.00     0.047 A 
BRANCH  15  18
ATOM     18  O   UNL     1     174.884 173.000 181.845  1.00  0.00    -0.508 OA
ATOM     19  H   UNL     1     175.848 173.300 181.930  1.00  0.00     0.293 HD
ENDBRANCH  15  18
ENDBRANCH   1  12
BRANCH   2  20
ATOM     20  O   UNL     1     172.435 170.869 176.516  1.00  0.00    -0.502 OA
ATOM     21  H   UNL     1     171.968 169.998 176.294  1.00  0.00     0.293 HD
ENDBRANCH   2  20
BRANCH   6  22
ATOM     22  O   UNL     1     170.044 172.792 172.162  1.00  0.00    -0.507 OA
ATOM     23  H   UNL     1     169.680 172.983 171.241  1.00  0.00     0.293 HD
ENDBRANCH   6  22
BRANCH   8  24
ATOM     24  O   UNL     1     169.157 177.286 173.606  1.00  0.00    -0.508 OA
ATOM     25  H   UNL     1     169.616 177.948 172.992  1.00  0.00     0.293 HD
ENDBRANCH   8  24
TORSDOF 5
ENDMDL
MODEL 9
REMARK VINA RESULT:    -6.121      3.981      5.434
REMARK INTER + INTRA:          -6.949
REMARK INTER:                  -6.660
REMARK INTRA:                  -0.289
REMARK UNBOUND:                 0.246
REMARK SMILES O=c1c(O)c(-c2ccc(O)cc2)oc2cc(O)cc(O)c12
REMARK SMILES IDX 5 1 3 2 2 3 1 4 21 5 19 6 18 7 16 8 15 9 14 10 13 11 6 12
REMARK SMILES IDX 7 13 8 14 9 15 12 16 11 17 10 18 4 20 20 22 17 24
REMARK H PARENT 10 19 4 21 20 23 17 25
REMARK Flexibility Score: inf
ROOT
ATOM      1  C   UNL     1     174.251 172.607 176.674  1.00  0.00     0.180 A 
ATOM      2  C   UNL     1     174.487 173.599 175.707  1.00  0.00     0.208 A 
ATOM      3  C   UNL     1     174.962 173.217 174.441  1.00  0.00     0.238 A 
ATOM      4  O   UNL     1     175.223 174.113 173.598  1.00  0.00    -0.285 OA
ATOM      5  C   UNL     1     175.179 171.847 174.155  1.00  0.00     0.111 A 
ATOM      6  C   UNL     1     175.620 171.343 172.894  1.00  0.00     0.134 A 
ATOM      7  C   UNL     1     175.927 169.983 172.764  1.00  0.00     0.093 A 
ATOM      8  C   UNL     1     175.746 169.098 173.830  1.00  0.00     0.123 A 
ATOM      9  C   UNL     1     175.260 169.570 175.046  1.00  0.00     0.094 A 
ATOM     10  C   UNL     1     174.979 170.928 175.217  1.00  0.00     0.146 A 
ATOM     11  O   UNL     1     174.528 171.338 176.397  1.00  0.00    -0.452 OA
ENDROOT
BRANCH   1  12
ATOM     12  C   UNL     1     173.727 172.929 178.021  1.00  0.00     0.021 A 
ATOM     13  C   UNL     1     174.614 173.006 179.108  1.00  0.00     0.016 A 
ATOM     14  C   UNL     1     174.138 173.287 180.393  1.00  0.00     0.047 A 
ATOM     15  C   UNL     1     172.767 173.480 180.609  1.00  0.00     0.115 A 
ATOM     16  C   UNL     1     172.349 173.104 178.250  1.00  0.00     0.016 A 
ATOM     17  C   UNL     1     171.877 173.384 179.536  1.00  0.00     0.047 A 
BRANCH  15  18
ATOM     18  O   UNL     1     172.280 173.760 181.884  1.00  0.00    -0.508 OA
ATOM     19  H   UNL     1     172.612 174.558 182.412  1.00  0.00     0.293 HD
ENDBRANCH  15  18
ENDBRANCH   1  12
BRANCH   2  20
ATOM     20  O   UNL     1     174.287 174.946 176.018  1.00  0.00    -0.502 OA
ATOM     21  H   UNL     1     175.023 175.534 176.391  1.00  0.00     0.293 HD
ENDBRANCH   2  20
BRANCH   6  22
ATOM     22  O   UNL     1     175.745 172.125 171.742  1.00  0.00    -0.507 OA
ATOM     23  H   UNL     1     174.982 172.380 171.134  1.00  0.00     0.293 HD
ENDBRANCH   6  22
BRANCH   8  24
ATOM     24  O   UNL     1     176.038 167.744 173.686  1.00  0.00    -0.508 OA
ATOM     25  H   UNL     1     176.918 167.354 174.003  1.00  0.00     0.293 HD
ENDBRANCH   8  24
TORSDOF 5
ENDMDL
