MODEL 1
REMARK VINA RESULT:    -5.433      0.000      0.000
REMARK INTER + INTRA:          -6.982
REMARK INTER:                  -6.545
REMARK INTRA:                  -0.437
REMARK UNBOUND:                -0.437
REMARK SMILES O=c1c(O)c(-c2ccc(O)cc2O)oc2cc(O)cc(O)c12
REMARK SMILES IDX 5 1 3 2 2 3 1 4 22 5 20 6 19 7 17 8 16 9 15 10 14 11 6 12
REMARK SMILES IDX 8 13 7 14 9 15 11 16 12 17 10 18 13 20 4 22 21 24 18 26
REMARK H PARENT 10 19 13 21 4 23 21 25 18 27
REMARK Flexibility Score: inf
ROOT
ATOM      1  C   UNL     1      15.324  34.799  52.278  1.00  0.00     0.184 A 
ATOM      2  C   UNL     1      16.431  34.074  52.756  1.00  0.00     0.208 A 
ATOM      3  C   UNL     1      16.302  33.351  53.953  1.00  0.00     0.238 A 
ATOM      4  O   UNL     1      17.289  32.705  54.396  1.00  0.00    -0.285 OA
ATOM      5  C   UNL     1      15.070  33.355  54.641  1.00  0.00     0.111 A 
ATOM      6  C   UNL     1      14.857  32.652  55.850  1.00  0.00     0.134 A 
ATOM      7  C   UNL     1      13.599  32.699  56.471  1.00  0.00     0.093 A 
ATOM      8  C   UNL     1      12.552  33.435  55.903  1.00  0.00     0.123 A 
ATOM      9  C   UNL     1      12.758  34.130  54.710  1.00  0.00     0.094 A 
ATOM     10  C   UNL     1      14.005  34.097  54.077  1.00  0.00     0.146 A 
ATOM     11  O   UNL     1      14.174  34.771  52.947  1.00  0.00    -0.451 OA
ENDROOT
BRANCH   1  12
ATOM     12  C   UNL     1      15.393  35.597  51.031  1.00  0.00     0.063 A 
ATOM     13  C   UNL     1      15.476  35.711  48.602  1.00  0.00     0.047 A 
ATOM     14  C   UNL     1      15.383  34.962  49.776  1.00  0.00     0.020 A 
ATOM     15  C   UNL     1      15.593  37.103  48.662  1.00  0.00     0.119 A 
ATOM     16  C   UNL     1      15.618  37.744  49.907  1.00  0.00     0.093 A 
ATOM     17  C   UNL     1      15.522  36.999  51.091  1.00  0.00     0.130 A 
BRANCH  15  18
ATOM     18  O   UNL     1      15.685  37.837  47.482  1.00  0.00    -0.508 OA
ATOM     19  H   UNL     1      14.861  38.087  46.948  1.00  0.00     0.293 HD
ENDBRANCH  15  18
BRANCH  17  20
ATOM     20  O   UNL     1      15.543  37.651  52.324  1.00  0.00    -0.507 OA
ATOM     21  H   UNL     1      16.032  37.264  53.123  1.00  0.00     0.293 HD
ENDBRANCH  17  20
ENDBRANCH   1  12
BRANCH   2  22
ATOM     22  O   UNL     1      17.626  34.055  52.034  1.00  0.00    -0.502 OA
ATOM     23  H   UNL     1      18.487  34.445  52.398  1.00  0.00     0.293 HD
ENDBRANCH   2  22
BRANCH   6  24
ATOM     24  O   UNL     1      15.881  31.909  56.440  1.00  0.00    -0.507 OA
ATOM     25  H   UNL     1      16.806  31.854  56.029  1.00  0.00     0.293 HD
ENDBRANCH   6  24
BRANCH   8  26
ATOM     26  O   UNL     1      11.303  33.482  56.517  1.00  0.00    -0.508 OA
ATOM     27  H   UNL     1      10.484  33.070  56.085  1.00  0.00     0.293 HD
ENDBRANCH   8  26
TORSDOF 6
ENDMDL
MODEL 2
REMARK VINA RESULT:    -5.051      1.412      1.467
REMARK INTER + INTRA:          -6.521
REMARK INTER:                  -6.118
REMARK INTRA:                  -0.404
REMARK UNBOUND:                -0.437
REMARK SMILES O=c1c(O)c(-c2ccc(O)cc2O)oc2cc(O)cc(O)c12
REMARK SMILES IDX 5 1 3 2 2 3 1 4 22 5 20 6 19 7 17 8 16 9 15 10 14 11 6 12
REMARK SMILES IDX 8 13 7 14 9 15 11 16 12 17 10 18 13 20 4 22 21 24 18 26
REMARK H PARENT 10 19 13 21 4 23 21 25 18 27
REMARK Flexibility Score: inf
ROOT
ATOM      1  C   UNL     1      14.132  34.586  51.978  1.00  0.00     0.184 A 
ATOM      2  C   UNL     1      15.428  34.279  52.435  1.00  0.00     0.208 A 
ATOM      3  C   UNL     1      15.591  33.805  53.746  1.00  0.00     0.238 A 
ATOM      4  O   UNL     1      16.747  33.534  54.168  1.00  0.00    -0.285 OA
ATOM      5  C   UNL     1      14.459  33.634  54.571  1.00  0.00     0.111 A 
ATOM      6  C   UNL     1      14.537  33.159  55.902  1.00  0.00     0.134 A 
ATOM      7  C   UNL     1      13.363  33.009  56.656  1.00  0.00     0.093 A 
ATOM      8  C   UNL     1      12.116  33.323  56.104  1.00  0.00     0.123 A 
ATOM      9  C   UNL     1      12.035  33.792  54.792  1.00  0.00     0.094 A 
ATOM     10  C   UNL     1      13.193  33.950  54.024  1.00  0.00     0.146 A 
ATOM     11  O   UNL     1      13.087  34.402  52.780  1.00  0.00    -0.451 OA
ENDROOT
BRANCH   1  12
ATOM     12  C   UNL     1      13.889  35.106  50.613  1.00  0.00     0.063 A 
ATOM     13  C   UNL     1      13.430  34.711  48.255  1.00  0.00     0.047 A 
ATOM     14  C   UNL     1      13.633  34.224  49.548  1.00  0.00     0.020 A 
ATOM     15  C   UNL     1      13.491  36.085  48.004  1.00  0.00     0.119 A 
ATOM     16  C   UNL     1      13.760  36.972  49.054  1.00  0.00     0.093 A 
ATOM     17  C   UNL     1      13.962  36.490  50.356  1.00  0.00     0.130 A 
BRANCH  15  18
ATOM     18  O   UNL     1      13.288  36.556  46.710  1.00  0.00    -0.508 OA
ATOM     19  H   UNL     1      13.969  36.398  45.975  1.00  0.00     0.293 HD
ENDBRANCH  15  18
BRANCH  17  20
ATOM     20  O   UNL     1      14.222  37.385  51.394  1.00  0.00    -0.507 OA
ATOM     21  H   UNL     1      15.025  38.004  51.374  1.00  0.00     0.293 HD
ENDBRANCH  17  20
ENDBRANCH   1  12
BRANCH   2  22
ATOM     22  O   UNL     1      16.527  34.419  51.583  1.00  0.00    -0.502 OA
ATOM     23  H   UNL     1      16.549  35.101  50.834  1.00  0.00     0.293 HD
ENDBRANCH   2  22
BRANCH   6  24
ATOM     24  O   UNL     1      15.765  32.837  56.480  1.00  0.00    -0.507 OA
ATOM     25  H   UNL     1      16.506  33.522  56.575  1.00  0.00     0.293 HD
ENDBRANCH   6  24
BRANCH   8  26
ATOM     26  O   UNL     1      10.951  33.174  56.852  1.00  0.00    -0.508 OA
ATOM     27  H   UNL     1      10.343  33.960  57.051  1.00  0.00     0.293 HD
ENDBRANCH   8  26
TORSDOF 6
ENDMDL
MODEL 3
REMARK VINA RESULT:    -5.004      4.751      7.597
REMARK INTER + INTRA:          -6.464
REMARK INTER:                  -5.989
REMARK INTRA:                  -0.475
REMARK UNBOUND:                -0.437
REMARK SMILES O=c1c(O)c(-c2ccc(O)cc2O)oc2cc(O)cc(O)c12
REMARK SMILES IDX 5 1 3 2 2 3 1 4 22 5 20 6 19 7 17 8 16 9 15 10 14 11 6 12
REMARK SMILES IDX 8 13 7 14 9 15 11 16 12 17 10 18 13 20 4 22 21 24 18 26
REMARK H PARENT 10 19 13 21 4 23 21 25 18 27
REMARK Flexibility Score: inf
ROOT
ATOM      1  C   UNL     1      12.004  36.227  48.208  1.00  0.00     0.184 A 
ATOM      2  C   UNL     1      12.738  36.200  47.007  1.00  0.00     0.208 A 
ATOM      3  C   UNL     1      14.086  36.595  47.028  1.00  0.00     0.238 A 
ATOM      4  O   UNL     1      14.751  36.583  45.957  1.00  0.00    -0.285 OA
ATOM      5  C   UNL     1      14.677  36.994  48.244  1.00  0.00     0.111 A 
ATOM      6  C   UNL     1      16.028  37.403  48.351  1.00  0.00     0.134 A 
ATOM      7  C   UNL     1      16.545  37.779  49.600  1.00  0.00     0.093 A 
ATOM      8  C   UNL     1      15.736  37.752  50.743  1.00  0.00     0.123 A 
ATOM      9  C   UNL     1      14.404  37.349  50.642  1.00  0.00     0.094 A 
ATOM     10  C   UNL     1      13.869  36.973  49.406  1.00  0.00     0.146 A 
ATOM     11  O   UNL     1      12.597  36.599  49.339  1.00  0.00    -0.451 OA
ENDROOT
BRANCH   1  12
ATOM     12  C   UNL     1      10.575  35.841  48.257  1.00  0.00     0.063 A 
ATOM     13  C   UNL     1       8.226  36.403  47.952  1.00  0.00     0.047 A 
ATOM     14  C   UNL     1       9.575  36.756  47.880  1.00  0.00     0.020 A 
ATOM     15  C   UNL     1       7.854  35.136  48.410  1.00  0.00     0.119 A 
ATOM     16  C   UNL     1       8.840  34.222  48.801  1.00  0.00     0.093 A 
ATOM     17  C   UNL     1      10.197  34.568  48.730  1.00  0.00     0.130 A 
BRANCH  15  18
ATOM     18  O   UNL     1       6.505  34.799  48.477  1.00  0.00    -0.508 OA
ATOM     19  H   UNL     1       5.816  35.439  48.858  1.00  0.00     0.293 HD
ENDBRANCH  15  18
BRANCH  17  20
ATOM     20  O   UNL     1      11.170  33.645  49.117  1.00  0.00    -0.507 OA
ATOM     21  H   UNL     1      12.146  33.903  49.197  1.00  0.00     0.293 HD
ENDBRANCH  17  20
ENDBRANCH   1  12
BRANCH   2  22
ATOM     22  O   UNL     1      12.138  35.762  45.824  1.00  0.00    -0.502 OA
ATOM     23  H   UNL     1      11.835  34.805  45.692  1.00  0.00     0.293 HD
ENDBRANCH   2  22
BRANCH   6  24
ATOM     24  O   UNL     1      16.858  37.440  47.230  1.00  0.00    -0.507 OA
ATOM     25  H   UNL     1      16.559  37.077  46.332  1.00  0.00     0.293 HD
ENDBRANCH   6  24
BRANCH   8  26
ATOM     26  O   UNL     1      16.249  38.124  51.983  1.00  0.00    -0.508 OA
ATOM     27  H   UNL     1      16.962  37.574  52.450  1.00  0.00     0.293 HD
ENDBRANCH   8  26
TORSDOF 6
ENDMDL
MODEL 4
REMARK VINA RESULT:    -4.951      1.857      3.872
REMARK INTER + INTRA:          -6.401
REMARK INTER:                  -6.034
REMARK INTRA:                  -0.367
REMARK UNBOUND:                -0.437
REMARK SMILES O=c1c(O)c(-c2ccc(O)cc2O)oc2cc(O)cc(O)c12
REMARK SMILES IDX 5 1 3 2 2 3 1 4 22 5 20 6 19 7 17 8 16 9 15 10 14 11 6 12
REMARK SMILES IDX 8 13 7 14 9 15 11 16 12 17 10 18 13 20 4 22 21 24 18 26
REMARK H PARENT 10 19 13 21 4 23 21 25 18 27
REMARK Flexibility Score: inf
ROOT
ATOM      1  C   UNL     1      14.306  33.837  54.075  1.00  0.00     0.184 A 
ATOM      2  C   UNL     1      12.976  33.987  54.511  1.00  0.00     0.208 A 
ATOM      3  C   UNL     1      12.616  33.490  55.774  1.00  0.00     0.238 A 
ATOM      4  O   UNL     1      11.426  33.611  56.172  1.00  0.00    -0.285 OA
ATOM      5  C   UNL     1      13.591  32.867  56.582  1.00  0.00     0.111 A 
ATOM      6  C   UNL     1      13.312  32.343  57.866  1.00  0.00     0.134 A 
ATOM      7  C   UNL     1      14.339  31.744  58.612  1.00  0.00     0.093 A 
ATOM      8  C   UNL     1      15.638  31.661  58.097  1.00  0.00     0.123 A 
ATOM      9  C   UNL     1      15.917  32.176  56.831  1.00  0.00     0.094 A 
ATOM     10  C   UNL     1      14.907  32.776  56.071  1.00  0.00     0.146 A 
ATOM     11  O   UNL     1      15.200  33.253  54.868  1.00  0.00    -0.451 OA
ENDROOT
BRANCH   1  12
ATOM     12  C   UNL     1      14.751  34.321  52.748  1.00  0.00     0.063 A 
ATOM     13  C   UNL     1      15.768  36.045  51.363  1.00  0.00     0.047 A 
ATOM     14  C   UNL     1      15.373  35.576  52.618  1.00  0.00     0.020 A 
ATOM     15  C   UNL     1      15.538  35.275  50.220  1.00  0.00     0.119 A 
ATOM     16  C   UNL     1      14.907  34.031  50.336  1.00  0.00     0.093 A 
ATOM     17  C   UNL     1      14.510  33.551  51.592  1.00  0.00     0.130 A 
BRANCH  15  18
ATOM     18  O   UNL     1      15.938  35.757  48.976  1.00  0.00    -0.508 OA
ATOM     19  H   UNL     1      15.910  35.172  48.147  1.00  0.00     0.293 HD
ENDBRANCH  15  18
BRANCH  17  20
ATOM     20  O   UNL     1      13.887  32.306  51.694  1.00  0.00    -0.507 OA
ATOM     21  H   UNL     1      12.978  32.131  51.282  1.00  0.00     0.293 HD
ENDBRANCH  17  20
ENDBRANCH   1  12
BRANCH   2  22
ATOM     22  O   UNL     1      12.041  34.644  53.708  1.00  0.00    -0.502 OA
ATOM     23  H   UNL     1      12.312  35.230  52.928  1.00  0.00     0.293 HD
ENDBRANCH   2  22
BRANCH   6  24
ATOM     24  O   UNL     1      12.027  32.411  58.407  1.00  0.00    -0.507 OA
ATOM     25  H   UNL     1      11.315  33.018  58.017  1.00  0.00     0.293 HD
ENDBRANCH   6  24
BRANCH   8  26
ATOM     26  O   UNL     1      16.658  31.068  58.837  1.00  0.00    -0.508 OA
ATOM     27  H   UNL     1      17.477  31.590  59.126  1.00  0.00     0.293 HD
ENDBRANCH   8  26
TORSDOF 6
ENDMDL
MODEL 5
REMARK VINA RESULT:    -4.936      1.824      6.978
REMARK INTER + INTRA:          -6.383
REMARK INTER:                  -5.919
REMARK INTRA:                  -0.464
REMARK UNBOUND:                -0.437
REMARK SMILES O=c1c(O)c(-c2ccc(O)cc2O)oc2cc(O)cc(O)c12
REMARK SMILES IDX 5 1 3 2 2 3 1 4 22 5 20 6 19 7 17 8 16 9 15 10 14 11 6 12
REMARK SMILES IDX 8 13 7 14 9 15 11 16 12 17 10 18 13 20 4 22 21 24 18 26
REMARK H PARENT 10 19 13 21 4 23 21 25 18 27
REMARK Flexibility Score: inf
ROOT
ATOM      1  C   UNL     1      14.184  34.156  53.389  1.00  0.00     0.184 A 
ATOM      2  C   UNL     1      12.996  34.065  52.639  1.00  0.00     0.208 A 
ATOM      3  C   UNL     1      12.863  34.846  51.480  1.00  0.00     0.238 A 
ATOM      4  O   UNL     1      11.801  34.778  50.806  1.00  0.00    -0.285 OA
ATOM      5  C   UNL     1      13.921  35.691  51.084  1.00  0.00     0.111 A 
ATOM      6  C   UNL     1      13.868  36.507  49.930  1.00  0.00     0.134 A 
ATOM      7  C   UNL     1      14.966  37.316  49.599  1.00  0.00     0.093 A 
ATOM      8  C   UNL     1      16.114  37.322  50.400  1.00  0.00     0.123 A 
ATOM      9  C   UNL     1      16.170  36.519  51.540  1.00  0.00     0.094 A 
ATOM     10  C   UNL     1      15.086  35.707  51.888  1.00  0.00     0.146 A 
ATOM     11  O   UNL     1      15.165  34.956  52.980  1.00  0.00    -0.451 OA
ENDROOT
BRANCH   1  12
ATOM     12  C   UNL     1      14.385  33.375  54.631  1.00  0.00     0.063 A 
ATOM     13  C   UNL     1      13.866  32.967  56.974  1.00  0.00     0.047 A 
ATOM     14  C   UNL     1      13.658  33.685  55.795  1.00  0.00     0.020 A 
ATOM     15  C   UNL     1      14.810  31.937  57.013  1.00  0.00     0.119 A 
ATOM     16  C   UNL     1      15.550  31.629  55.865  1.00  0.00     0.093 A 
ATOM     17  C   UNL     1      15.344  32.343  54.675  1.00  0.00     0.130 A 
BRANCH  15  18
ATOM     18  O   UNL     1      15.007  31.230  58.197  1.00  0.00    -0.508 OA
ATOM     19  H   UNL     1      14.458  31.424  59.027  1.00  0.00     0.293 HD
ENDBRANCH  15  18
BRANCH  17  20
ATOM     20  O   UNL     1      16.084  32.022  53.537  1.00  0.00    -0.507 OA
ATOM     21  H   UNL     1      16.675  32.705  53.077  1.00  0.00     0.293 HD
ENDBRANCH  17  20
ENDBRANCH   1  12
BRANCH   2  22
ATOM     22  O   UNL     1      11.981  33.189  53.032  1.00  0.00    -0.502 OA
ATOM     23  H   UNL     1      11.097  33.515  53.404  1.00  0.00     0.293 HD
ENDBRANCH   2  22
BRANCH   6  24
ATOM     24  O   UNL     1      12.738  36.523  49.111  1.00  0.00    -0.507 OA
ATOM     25  H   UNL     1      12.274  37.387  48.859  1.00  0.00     0.293 HD
ENDBRANCH   6  24
BRANCH   8  26
ATOM     26  O   UNL     1      17.205  38.124  50.071  1.00  0.00    -0.508 OA
ATOM     27  H   UNL     1      17.701  38.660  50.775  1.00  0.00     0.293 HD
ENDBRANCH   8  26
TORSDOF 6
ENDMDL
MODEL 6
REMARK VINA RESULT:    -4.929      1.200      2.870
REMARK INTER + INTRA:          -6.374
REMARK INTER:                  -5.896
REMARK INTRA:                  -0.478
REMARK UNBOUND:                -0.437
REMARK SMILES O=c1c(O)c(-c2ccc(O)cc2O)oc2cc(O)cc(O)c12
REMARK SMILES IDX 5 1 3 2 2 3 1 4 22 5 20 6 19 7 17 8 16 9 15 10 14 11 6 12
REMARK SMILES IDX 8 13 7 14 9 15 11 16 12 17 10 18 13 20 4 22 21 24 18 26
REMARK H PARENT 10 19 13 21 4 23 21 25 18 27
REMARK Flexibility Score: inf
ROOT
ATOM      1  C   UNL     1      14.395  34.907  52.077  1.00  0.00     0.184 A 
ATOM      2  C   UNL     1      13.065  34.758  52.513  1.00  0.00     0.208 A 
ATOM      3  C   UNL     1      12.807  33.972  53.647  1.00  0.00     0.238 A 
ATOM      4  O   UNL     1      11.620  33.824  54.042  1.00  0.00    -0.285 OA
ATOM      5  C   UNL     1      13.880  33.362  54.331  1.00  0.00     0.111 A 
ATOM      6  C   UNL     1      13.706  32.557  55.482  1.00  0.00     0.134 A 
ATOM      7  C   UNL     1      14.826  31.991  56.110  1.00  0.00     0.093 A 
ATOM      8  C   UNL     1      16.114  32.216  55.609  1.00  0.00     0.123 A 
ATOM      9  C   UNL     1      16.289  33.008  54.474  1.00  0.00     0.094 A 
ATOM     10  C   UNL     1      15.186  33.581  53.833  1.00  0.00     0.146 A 
ATOM     11  O   UNL     1      15.382  34.326  52.752  1.00  0.00    -0.451 OA
ENDROOT
BRANCH   1  12
ATOM     12  C   UNL     1      14.737  35.708  50.878  1.00  0.00     0.063 A 
ATOM     13  C   UNL     1      14.929  35.909  48.460  1.00  0.00     0.047 A 
ATOM     14  C   UNL     1      14.581  35.166  49.589  1.00  0.00     0.020 A 
ATOM     15  C   UNL     1      15.449  37.199  48.600  1.00  0.00     0.119 A 
ATOM     16  C   UNL     1      15.623  37.743  49.878  1.00  0.00     0.093 A 
ATOM     17  C   UNL     1      15.272  37.004  51.018  1.00  0.00     0.130 A 
BRANCH  15  18
ATOM     18  O   UNL     1      15.792  37.928  47.464  1.00  0.00    -0.508 OA
ATOM     19  H   UNL     1      16.655  37.751  46.961  1.00  0.00     0.293 HD
ENDBRANCH  15  18
BRANCH  17  20
ATOM     20  O   UNL     1      15.445  37.561  52.285  1.00  0.00    -0.507 OA
ATOM     21  H   UNL     1      16.086  38.329  52.447  1.00  0.00     0.293 HD
ENDBRANCH  17  20
ENDBRANCH   1  12
BRANCH   2  22
ATOM     22  O   UNL     1      12.026  35.407  51.840  1.00  0.00    -0.502 OA
ATOM     23  H   UNL     1      11.192  35.731  52.315  1.00  0.00     0.293 HD
ENDBRANCH   2  22
BRANCH   6  24
ATOM     24  O   UNL     1      12.435  32.315  56.005  1.00  0.00    -0.507 OA
ATOM     25  H   UNL     1      12.194  31.429  56.432  1.00  0.00     0.293 HD
ENDBRANCH   6  24
BRANCH   8  26
ATOM     26  O   UNL     1      17.226  31.655  56.233  1.00  0.00    -0.508 OA
ATOM     27  H   UNL     1      17.135  30.890  56.893  1.00  0.00     0.293 HD
ENDBRANCH   8  26
TORSDOF 6
ENDMDL
MODEL 7
REMARK VINA RESULT:    -4.891      2.033      3.385
REMARK INTER + INTRA:          -6.328
REMARK INTER:                  -6.032
REMARK INTRA:                  -0.296
REMARK UNBOUND:                -0.437
REMARK SMILES O=c1c(O)c(-c2ccc(O)cc2O)oc2cc(O)cc(O)c12
REMARK SMILES IDX 5 1 3 2 2 3 1 4 22 5 20 6 19 7 17 8 16 9 15 10 14 11 6 12
REMARK SMILES IDX 8 13 7 14 9 15 11 16 12 17 10 18 13 20 4 22 21 24 18 26
REMARK H PARENT 10 19 13 21 4 23 21 25 18 27
REMARK Flexibility Score: inf
ROOT
ATOM      1  C   UNL     1      13.104  34.523  52.171  1.00  0.00     0.184 A 
ATOM      2  C   UNL     1      11.754  34.124  52.203  1.00  0.00     0.208 A 
ATOM      3  C   UNL     1      11.247  33.544  53.376  1.00  0.00     0.238 A 
ATOM      4  O   UNL     1      10.042  33.175  53.414  1.00  0.00    -0.285 OA
ATOM      5  C   UNL     1      12.089  33.385  54.497  1.00  0.00     0.111 A 
ATOM      6  C   UNL     1      11.655  32.813  55.716  1.00  0.00     0.134 A 
ATOM      7  C   UNL     1      12.553  32.696  56.788  1.00  0.00     0.093 A 
ATOM      8  C   UNL     1      13.874  33.143  56.663  1.00  0.00     0.123 A 
ATOM      9  C   UNL     1      14.306  33.707  55.462  1.00  0.00     0.094 A 
ATOM     10  C   UNL     1      13.427  33.831  54.381  1.00  0.00     0.146 A 
ATOM     11  O   UNL     1      13.866  34.367  53.249  1.00  0.00    -0.451 OA
ENDROOT
BRANCH   1  12
ATOM     12  C   UNL     1      13.710  35.126  50.961  1.00  0.00     0.063 A 
ATOM     13  C   UNL     1      15.305  35.021  49.125  1.00  0.00     0.047 A 
ATOM     14  C   UNL     1      14.713  34.443  50.249  1.00  0.00     0.020 A 
ATOM     15  C   UNL     1      14.913  36.294  48.700  1.00  0.00     0.119 A 
ATOM     16  C   UNL     1      13.926  36.989  49.409  1.00  0.00     0.093 A 
ATOM     17  C   UNL     1      13.324  36.414  50.538  1.00  0.00     0.130 A 
BRANCH  15  18
ATOM     18  O   UNL     1      15.513  36.858  47.577  1.00  0.00    -0.508 OA
ATOM     19  H   UNL     1      16.092  36.308  46.953  1.00  0.00     0.293 HD
ENDBRANCH  15  18
BRANCH  17  20
ATOM     20  O   UNL     1      12.338  37.115  51.232  1.00  0.00    -0.507 OA
ATOM     21  H   UNL     1      11.445  36.692  51.460  1.00  0.00     0.293 HD
ENDBRANCH  17  20
ENDBRANCH   1  12
BRANCH   2  22
ATOM     22  O   UNL     1      10.932  34.330  51.093  1.00  0.00    -0.502 OA
ATOM     23  H   UNL     1      10.148  33.726  50.878  1.00  0.00     0.293 HD
ENDBRANCH   2  22
BRANCH   6  24
ATOM     24  O   UNL     1      10.345  32.359  55.871  1.00  0.00    -0.507 OA
ATOM     25  H   UNL     1       9.589  32.699  55.287  1.00  0.00     0.293 HD
ENDBRANCH   6  24
BRANCH   8  26
ATOM     26  O   UNL     1      14.765  33.028  57.727  1.00  0.00    -0.508 OA
ATOM     27  H   UNL     1      14.975  32.131  58.150  1.00  0.00     0.293 HD
ENDBRANCH   8  26
TORSDOF 6
ENDMDL
MODEL 8
REMARK VINA RESULT:    -4.846      2.112      6.989
REMARK INTER + INTRA:          -6.275
REMARK INTER:                  -6.049
REMARK INTRA:                  -0.225
REMARK UNBOUND:                -0.437
REMARK SMILES O=c1c(O)c(-c2ccc(O)cc2O)oc2cc(O)cc(O)c12
REMARK SMILES IDX 5 1 3 2 2 3 1 4 22 5 20 6 19 7 17 8 16 9 15 10 14 11 6 12
REMARK SMILES IDX 8 13 7 14 9 15 11 16 12 17 10 18 13 20 4 22 21 24 18 26
REMARK H PARENT 10 19 13 21 4 23 21 25 18 27
REMARK Flexibility Score: inf
ROOT
ATOM      1  C   UNL     1      13.889  34.301  52.062  1.00  0.00     0.184 A 
ATOM      2  C   UNL     1      12.862  33.699  51.312  1.00  0.00     0.208 A 
ATOM      3  C   UNL     1      12.647  34.124  49.991  1.00  0.00     0.238 A 
ATOM      4  O   UNL     1      11.725  33.597  49.313  1.00  0.00    -0.285 OA
ATOM      5  C   UNL     1      13.469  35.130  49.441  1.00  0.00     0.111 A 
ATOM      6  C   UNL     1      13.321  35.612  48.119  1.00  0.00     0.134 A 
ATOM      7  C   UNL     1      14.183  36.611  47.641  1.00  0.00     0.093 A 
ATOM      8  C   UNL     1      15.190  37.134  48.461  1.00  0.00     0.123 A 
ATOM      9  C   UNL     1      15.339  36.662  49.766  1.00  0.00     0.094 A 
ATOM     10  C   UNL     1      14.489  35.668  50.261  1.00  0.00     0.146 A 
ATOM     11  O   UNL     1      14.651  35.240  51.507  1.00  0.00    -0.451 OA
ENDROOT
BRANCH   1  12
ATOM     12  C   UNL     1      14.160  33.915  53.466  1.00  0.00     0.063 A 
ATOM     13  C   UNL     1      15.617  32.900  55.131  1.00  0.00     0.047 A 
ATOM     14  C   UNL     1      15.372  33.289  53.813  1.00  0.00     0.020 A 
ATOM     15  C   UNL     1      14.653  33.118  56.120  1.00  0.00     0.119 A 
ATOM     16  C   UNL     1      13.438  33.726  55.783  1.00  0.00     0.093 A 
ATOM     17  C   UNL     1      13.185  34.123  54.462  1.00  0.00     0.130 A 
BRANCH  15  18
ATOM     18  O   UNL     1      14.912  32.723  57.430  1.00  0.00    -0.508 OA
ATOM     19  H   UNL     1      15.273  31.800  57.644  1.00  0.00     0.293 HD
ENDBRANCH  15  18
BRANCH  17  20
ATOM     20  O   UNL     1      11.972  34.734  54.141  1.00  0.00    -0.507 OA
ATOM     21  H   UNL     1      11.138  34.584  54.696  1.00  0.00     0.293 HD
ENDBRANCH  17  20
ENDBRANCH   1  12
BRANCH   2  22
ATOM     22  O   UNL     1      12.090  32.676  51.869  1.00  0.00    -0.502 OA
ATOM     23  H   UNL     1      12.131  31.721  51.534  1.00  0.00     0.293 HD
ENDBRANCH   2  22
BRANCH   6  24
ATOM     24  O   UNL     1      12.326  35.110  47.277  1.00  0.00    -0.507 OA
ATOM     25  H   UNL     1      11.736  34.334  47.553  1.00  0.00     0.293 HD
ENDBRANCH   6  24
BRANCH   8  26
ATOM     26  O   UNL     1      16.047  38.125  47.988  1.00  0.00    -0.508 OA
ATOM     27  H   UNL     1      15.723  38.851  47.359  1.00  0.00     0.293 HD
ENDBRANCH   8  26
TORSDOF 6
ENDMDL
MODEL 9
REMARK VINA RESULT:    -4.826      2.047      6.431
REMARK INTER + INTRA:          -6.250
REMARK INTER:                  -6.194
REMARK INTRA:                  -0.056
REMARK UNBOUND:                -0.437
REMARK SMILES O=c1c(O)c(-c2ccc(O)cc2O)oc2cc(O)cc(O)c12
REMARK SMILES IDX 5 1 3 2 2 3 1 4 22 5 20 6 19 7 17 8 16 9 15 10 14 11 6 12
REMARK SMILES IDX 8 13 7 14 9 15 11 16 12 17 10 18 13 20 4 22 21 24 18 26
REMARK H PARENT 10 19 13 21 4 23 21 25 18 27
REMARK Flexibility Score: inf
ROOT
ATOM      1  C   UNL     1      14.824  34.773  52.321  1.00  0.00     0.184 A 
ATOM      2  C   UNL     1      15.918  35.451  51.753  1.00  0.00     0.208 A 
ATOM      3  C   UNL     1      15.750  36.094  50.516  1.00  0.00     0.238 A 
ATOM      4  O   UNL     1      16.726  36.698  49.994  1.00  0.00    -0.285 OA
ATOM      5  C   UNL     1      14.493  36.060  49.878  1.00  0.00     0.111 A 
ATOM      6  C   UNL     1      14.240  36.684  48.633  1.00  0.00     0.134 A 
ATOM      7  C   UNL     1      12.958  36.610  48.066  1.00  0.00     0.093 A 
ATOM      8  C   UNL     1      11.927  35.926  48.721  1.00  0.00     0.123 A 
ATOM      9  C   UNL     1      12.173  35.309  49.948  1.00  0.00     0.094 A 
ATOM     10  C   UNL     1      13.444  35.369  50.530  1.00  0.00     0.146 A 
ATOM     11  O   UNL     1      13.650  34.769  51.695  1.00  0.00    -0.451 OA
ENDROOT
BRANCH   1  12
ATOM     12  C   UNL     1      14.935  34.058  53.614  1.00  0.00     0.063 A 
ATOM     13  C   UNL     1      16.191  32.633  55.136  1.00  0.00     0.047 A 
ATOM     14  C   UNL     1      16.096  33.329  53.929  1.00  0.00     0.020 A 
ATOM     15  C   UNL     1      15.125  32.644  56.040  1.00  0.00     0.119 A 
ATOM     16  C   UNL     1      13.958  33.354  55.730  1.00  0.00     0.093 A 
ATOM     17  C   UNL     1      13.856  34.059  54.522  1.00  0.00     0.130 A 
BRANCH  15  18
ATOM     18  O   UNL     1      15.234  31.944  57.239  1.00  0.00    -0.508 OA
ATOM     19  H   UNL     1      14.417  31.578  57.716  1.00  0.00     0.293 HD
ENDBRANCH  15  18
BRANCH  17  20
ATOM     20  O   UNL     1      12.691  34.767  54.228  1.00  0.00    -0.507 OA
ATOM     21  H   UNL     1      12.009  34.990  54.944  1.00  0.00     0.293 HD
ENDBRANCH  17  20
ENDBRANCH   1  12
BRANCH   2  22
ATOM     22  O   UNL     1      17.141  35.504  52.427  1.00  0.00    -0.502 OA
ATOM     23  H   UNL     1      17.207  35.711  53.416  1.00  0.00     0.293 HD
ENDBRANCH   2  22
BRANCH   6  24
ATOM     24  O   UNL     1      15.247  37.373  47.957  1.00  0.00    -0.507 OA
ATOM     25  H   UNL     1      15.551  37.100  47.030  1.00  0.00     0.293 HD
ENDBRANCH   6  24
BRANCH   8  26
ATOM     26  O   UNL     1      10.655  35.853  48.158  1.00  0.00    -0.508 OA
ATOM     27  H   UNL     1      10.511  35.517  47.213  1.00  0.00     0.293 HD
ENDBRANCH   8  26
TORSDOF 6
ENDMDL
