MODEL 1
REMARK VINA RESULT:    -7.173      0.000      0.000
REMARK INTER + INTRA:          -8.575
REMARK INTER:                  -8.431
REMARK INTRA:                  -0.144
REMARK UNBOUND:                -0.144
REMARK SMILES O=c1c(O)c(-c2ccc(O)cc2)oc2cc(O)cc(O)c12
REMARK SMILES IDX 5 1 3 2 2 3 1 4 21 5 19 6 18 7 16 8 15 9 14 10 13 11 6 12
REMARK SMILES IDX 7 13 8 14 9 15 12 16 11 17 10 18 4 20 20 22 17 24
REMARK H PARENT 10 19 4 21 20 23 17 25
REMARK Flexibility Score: inf
ROOT
ATOM      1  C   UNL     1      81.954   1.768  -0.117  1.00  0.00     0.180 A 
ATOM      2  C   UNL     1      82.785   0.974   0.693  1.00  0.00     0.208 A 
ATOM      3  C   UNL     1      84.176   1.143   0.611  1.00  0.00     0.238 A 
ATOM      4  O   UNL     1      84.913   0.467   1.376  1.00  0.00    -0.285 OA
ATOM      5  C   UNL     1      84.720   2.090  -0.290  1.00  0.00     0.111 A 
ATOM      6  C   UNL     1      86.115   2.316  -0.483  1.00  0.00     0.134 A 
ATOM      7  C   UNL     1      86.538   3.369  -1.304  1.00  0.00     0.093 A 
ATOM      8  C   UNL     1      85.618   4.162  -1.988  1.00  0.00     0.123 A 
ATOM      9  C   UNL     1      84.251   3.912  -1.852  1.00  0.00     0.094 A 
ATOM     10  C   UNL     1      83.798   2.891  -1.013  1.00  0.00     0.146 A 
ATOM     11  O   UNL     1      82.490   2.693  -0.903  1.00  0.00    -0.452 OA
ENDROOT
BRANCH   1  12
ATOM     12  C   UNL     1      80.479   1.631  -0.105  1.00  0.00     0.021 A 
ATOM     13  C   UNL     1      79.685   2.731   0.259  1.00  0.00     0.016 A 
ATOM     14  C   UNL     1      78.291   2.631   0.255  1.00  0.00     0.047 A 
ATOM     15  C   UNL     1      77.672   1.434  -0.129  1.00  0.00     0.115 A 
ATOM     16  C   UNL     1      79.851   0.438  -0.508  1.00  0.00     0.016 A 
ATOM     17  C   UNL     1      78.456   0.341  -0.512  1.00  0.00     0.047 A 
BRANCH  15  18
ATOM     18  O   UNL     1      76.284   1.322  -0.136  1.00  0.00    -0.508 OA
ATOM     19  H   UNL     1      75.753   1.372  -0.998  1.00  0.00     0.293 HD
ENDBRANCH  15  18
ENDBRANCH   1  12
BRANCH   2  20
ATOM     20  O   UNL     1      82.227   0.059   1.589  1.00  0.00    -0.502 OA
ATOM     21  H   UNL     1      82.473  -0.923   1.589  1.00  0.00     0.293 HD
ENDBRANCH   2  20
BRANCH   6  22
ATOM     22  O   UNL     1      87.121   1.523   0.079  1.00  0.00    -0.507 OA
ATOM     23  H   UNL     1      86.971   0.827   0.795  1.00  0.00     0.293 HD
ENDBRANCH   6  22
BRANCH   8  24
ATOM     24  O   UNL     1      86.073   5.192  -2.808  1.00  0.00    -0.508 OA
ATOM     25  H   UNL     1      86.726   5.019  -3.563  1.00  0.00     0.293 HD
ENDBRANCH   8  24
TORSDOF 5
ENDMDL
MODEL 2
REMARK VINA RESULT:    -6.771      1.292      3.330
REMARK INTER + INTRA:          -8.102
REMARK INTER:                  -7.958
REMARK INTRA:                  -0.144
REMARK UNBOUND:                -0.144
REMARK SMILES O=c1c(O)c(-c2ccc(O)cc2)oc2cc(O)cc(O)c12
REMARK SMILES IDX 5 1 3 2 2 3 1 4 21 5 19 6 18 7 16 8 15 9 14 10 13 11 6 12
REMARK SMILES IDX 7 13 8 14 9 15 12 16 11 17 10 18 4 20 20 22 17 24
REMARK H PARENT 10 19 4 21 20 23 17 25
REMARK Flexibility Score: inf
ROOT
ATOM      1  C   UNL     1      82.034   1.844  -0.018  1.00  0.00     0.180 A 
ATOM      2  C   UNL     1      82.756   2.748  -0.816  1.00  0.00     0.208 A 
ATOM      3  C   UNL     1      84.157   2.769  -0.721  1.00  0.00     0.238 A 
ATOM      4  O   UNL     1      84.802   3.543  -1.476  1.00  0.00    -0.285 OA
ATOM      5  C   UNL     1      84.815   1.899   0.181  1.00  0.00     0.111 A 
ATOM      6  C   UNL     1      86.227   1.864   0.388  1.00  0.00     0.134 A 
ATOM      7  C   UNL     1      86.781   0.873   1.208  1.00  0.00     0.093 A 
ATOM      8  C   UNL     1      85.971  -0.041   1.879  1.00  0.00     0.123 A 
ATOM      9  C   UNL     1      84.584   0.022   1.731  1.00  0.00     0.094 A 
ATOM     10  C   UNL     1      84.005   0.976   0.891  1.00  0.00     0.146 A 
ATOM     11  O   UNL     1      82.683   0.996   0.769  1.00  0.00    -0.452 OA
ENDROOT
BRANCH   1  12
ATOM     12  C   UNL     1      80.553   1.779  -0.044  1.00  0.00     0.021 A 
ATOM     13  C   UNL     1      79.920   0.582  -0.417  1.00  0.00     0.016 A 
ATOM     14  C   UNL     1      78.525   0.491  -0.427  1.00  0.00     0.047 A 
ATOM     15  C   UNL     1      77.746   1.593  -0.048  1.00  0.00     0.115 A 
ATOM     16  C   UNL     1      79.766   2.874   0.353  1.00  0.00     0.016 A 
ATOM     17  C   UNL     1      78.370   2.781   0.344  1.00  0.00     0.047 A 
BRANCH  15  18
ATOM     18  O   UNL     1      76.355   1.515  -0.054  1.00  0.00    -0.508 OA
ATOM     19  H   UNL     1      75.822   1.492   0.808  1.00  0.00     0.293 HD
ENDBRANCH  15  18
ENDBRANCH   1  12
BRANCH   2  20
ATOM     20  O   UNL     1      82.088   3.583  -1.715  1.00  0.00    -0.502 OA
ATOM     21  H   UNL     1      82.559   4.316  -2.231  1.00  0.00     0.293 HD
ENDBRANCH   2  20
BRANCH   6  22
ATOM     22  O   UNL     1      87.121   2.789  -0.161  1.00  0.00    -0.507 OA
ATOM     23  H   UNL     1      87.656   3.457   0.372  1.00  0.00     0.293 HD
ENDBRANCH   6  22
BRANCH   8  24
ATOM     24  O   UNL     1      86.554  -1.004   2.700  1.00  0.00    -0.508 OA
ATOM     25  H   UNL     1      86.069  -1.377   3.508  1.00  0.00     0.293 HD
ENDBRANCH   8  24
TORSDOF 5
ENDMDL
MODEL 3
REMARK VINA RESULT:    -6.502      8.198      9.476
REMARK INTER + INTRA:          -7.785
REMARK INTER:                  -7.645
REMARK INTRA:                  -0.140
REMARK UNBOUND:                -0.144
REMARK SMILES O=c1c(O)c(-c2ccc(O)cc2)oc2cc(O)cc(O)c12
REMARK SMILES IDX 5 1 3 2 2 3 1 4 21 5 19 6 18 7 16 8 15 9 14 10 13 11 6 12
REMARK SMILES IDX 7 13 8 14 9 15 12 16 11 17 10 18 4 20 20 22 17 24
REMARK H PARENT 10 19 4 21 20 23 17 25
REMARK Flexibility Score: inf
ROOT
ATOM      1  C   UNL     1      84.589  -2.630  -6.996  1.00  0.00     0.180 A 
ATOM      2  C   UNL     1      83.670  -2.624  -8.061  1.00  0.00     0.208 A 
ATOM      3  C   UNL     1      83.512  -1.451  -8.816  1.00  0.00     0.238 A 
ATOM      4  O   UNL     1      82.728  -1.467  -9.800  1.00  0.00    -0.285 OA
ATOM      5  C   UNL     1      84.261  -0.295  -8.488  1.00  0.00     0.111 A 
ATOM      6  C   UNL     1      84.151   0.959  -9.159  1.00  0.00     0.134 A 
ATOM      7  C   UNL     1      85.035   1.996  -8.836  1.00  0.00     0.093 A 
ATOM      8  C   UNL     1      85.980   1.847  -7.822  1.00  0.00     0.123 A 
ATOM      9  C   UNL     1      86.056   0.644  -7.118  1.00  0.00     0.094 A 
ATOM     10  C   UNL     1      85.212  -0.421  -7.442  1.00  0.00     0.146 A 
ATOM     11  O   UNL     1      85.324  -1.552  -6.755  1.00  0.00    -0.452 OA
ENDROOT
BRANCH   1  12
ATOM     12  C   UNL     1      84.794  -3.821  -6.139  1.00  0.00     0.021 A 
ATOM     13  C   UNL     1      86.068  -4.409  -6.065  1.00  0.00     0.016 A 
ATOM     14  C   UNL     1      86.289  -5.519  -5.245  1.00  0.00     0.047 A 
ATOM     15  C   UNL     1      85.242  -6.046  -4.477  1.00  0.00     0.115 A 
ATOM     16  C   UNL     1      83.753  -4.343  -5.351  1.00  0.00     0.016 A 
ATOM     17  C   UNL     1      83.977  -5.453  -4.530  1.00  0.00     0.047 A 
BRANCH  15  18
ATOM     18  O   UNL     1      85.450  -7.153  -3.656  1.00  0.00    -0.508 OA
ATOM     19  H   UNL     1      84.729  -7.489  -3.028  1.00  0.00     0.293 HD
ENDBRANCH  15  18
ENDBRANCH   1  12
BRANCH   2  20
ATOM     20  O   UNL     1      82.957  -3.782  -8.380  1.00  0.00    -0.502 OA
ATOM     21  H   UNL     1      81.949  -3.842  -8.295  1.00  0.00     0.293 HD
ENDBRANCH   2  20
BRANCH   6  22
ATOM     22  O   UNL     1      83.181   1.246 -10.125  1.00  0.00    -0.507 OA
ATOM     23  H   UNL     1      82.505   1.992 -10.056  1.00  0.00     0.293 HD
ENDBRANCH   6  22
BRANCH   8  24
ATOM     24  O   UNL     1      86.833   2.905  -7.515  1.00  0.00    -0.508 OA
ATOM     25  H   UNL     1      86.832   3.338  -6.599  1.00  0.00     0.293 HD
ENDBRANCH   8  24
TORSDOF 5
ENDMDL
MODEL 4
REMARK VINA RESULT:    -5.880      4.440      7.180
REMARK INTER + INTRA:          -7.055
REMARK INTER:                  -6.755
REMARK INTRA:                  -0.300
REMARK UNBOUND:                -0.144
REMARK SMILES O=c1c(O)c(-c2ccc(O)cc2)oc2cc(O)cc(O)c12
REMARK SMILES IDX 5 1 3 2 2 3 1 4 21 5 19 6 18 7 16 8 15 9 14 10 13 11 6 12
REMARK SMILES IDX 7 13 8 14 9 15 12 16 11 17 10 18 4 20 20 22 17 24
REMARK H PARENT 10 19 4 21 20 23 17 25
REMARK Flexibility Score: inf
ROOT
ATOM      1  C   UNL     1      85.999   1.124   2.713  1.00  0.00     0.180 A 
ATOM      2  C   UNL     1      86.475  -0.173   2.978  1.00  0.00     0.208 A 
ATOM      3  C   UNL     1      86.636  -0.578   4.312  1.00  0.00     0.238 A 
ATOM      4  O   UNL     1      87.012  -1.758   4.544  1.00  0.00    -0.285 OA
ATOM      5  C   UNL     1      86.337   0.321   5.363  1.00  0.00     0.111 A 
ATOM      6  C   UNL     1      86.502   0.029   6.750  1.00  0.00     0.134 A 
ATOM      7  C   UNL     1      86.051   0.946   7.708  1.00  0.00     0.093 A 
ATOM      8  C   UNL     1      85.500   2.169   7.330  1.00  0.00     0.123 A 
ATOM      9  C   UNL     1      85.389   2.490   5.976  1.00  0.00     0.094 A 
ATOM     10  C   UNL     1      85.798   1.581   4.997  1.00  0.00     0.146 A 
ATOM     11  O   UNL     1      85.665   1.920   3.720  1.00  0.00    -0.452 OA
ENDROOT
BRANCH   1  12
ATOM     12  C   UNL     1      85.825   1.633   1.332  1.00  0.00     0.021 A 
ATOM     13  C   UNL     1      84.572   1.522   0.707  1.00  0.00     0.016 A 
ATOM     14  C   UNL     1      84.379   2.016  -0.586  1.00  0.00     0.047 A 
ATOM     15  C   UNL     1      85.434   2.642  -1.264  1.00  0.00     0.115 A 
ATOM     16  C   UNL     1      86.873   2.279   0.653  1.00  0.00     0.016 A 
ATOM     17  C   UNL     1      86.678   2.774  -0.640  1.00  0.00     0.047 A 
BRANCH  15  18
ATOM     18  O   UNL     1      85.254   3.137  -2.554  1.00  0.00    -0.508 OA
ATOM     19  H   UNL     1      84.409   2.950  -3.080  1.00  0.00     0.293 HD
ENDBRANCH  15  18
ENDBRANCH   1  12
BRANCH   2  20
ATOM     20  O   UNL     1      86.744  -1.051   1.925  1.00  0.00    -0.502 OA
ATOM     21  H   UNL     1      87.503  -0.900   1.271  1.00  0.00     0.293 HD
ENDBRANCH   2  20
BRANCH   6  22
ATOM     22  O   UNL     1      87.125  -1.125   7.237  1.00  0.00    -0.507 OA
ATOM     23  H   UNL     1      87.795  -1.677   6.723  1.00  0.00     0.293 HD
ENDBRANCH   6  22
BRANCH   8  24
ATOM     24  O   UNL     1      85.076   3.065   8.309  1.00  0.00    -0.508 OA
ATOM     25  H   UNL     1      84.397   2.799   9.012  1.00  0.00     0.293 HD
ENDBRANCH   8  24
TORSDOF 5
ENDMDL
MODEL 5
REMARK VINA RESULT:    -5.800      8.659     10.270
REMARK INTER + INTRA:          -6.961
REMARK INTER:                  -7.048
REMARK INTRA:                   0.087
REMARK UNBOUND:                -0.144
REMARK SMILES O=c1c(O)c(-c2ccc(O)cc2)oc2cc(O)cc(O)c12
REMARK SMILES IDX 5 1 3 2 2 3 1 4 21 5 19 6 18 7 16 8 15 9 14 10 13 11 6 12
REMARK SMILES IDX 7 13 8 14 9 15 12 16 11 17 10 18 4 20 20 22 17 24
REMARK H PARENT 10 19 4 21 20 23 17 25
REMARK Flexibility Score: inf
ROOT
ATOM      1  C   UNL     1      84.641   5.459   7.178  1.00  0.00     0.180 A 
ATOM      2  C   UNL     1      83.400   5.368   7.832  1.00  0.00     0.208 A 
ATOM      3  C   UNL     1      82.959   4.113   8.282  1.00  0.00     0.238 A 
ATOM      4  O   UNL     1      81.871   4.045   8.913  1.00  0.00    -0.285 OA
ATOM      5  C   UNL     1      83.757   2.965   8.061  1.00  0.00     0.111 A 
ATOM      6  C   UNL     1      83.390   1.639   8.440  1.00  0.00     0.134 A 
ATOM      7  C   UNL     1      84.313   0.597   8.290  1.00  0.00     0.093 A 
ATOM      8  C   UNL     1      85.564   0.820   7.716  1.00  0.00     0.123 A 
ATOM      9  C   UNL     1      85.910   2.103   7.287  1.00  0.00     0.094 A 
ATOM     10  C   UNL     1      85.024   3.169   7.456  1.00  0.00     0.146 A 
ATOM     11  O   UNL     1      85.396   4.375   7.045  1.00  0.00    -0.452 OA
ENDROOT
BRANCH   1  12
ATOM     12  C   UNL     1      85.163   6.742   6.653  1.00  0.00     0.021 A 
ATOM     13  C   UNL     1      86.523   7.054   6.814  1.00  0.00     0.016 A 
ATOM     14  C   UNL     1      87.041   8.249   6.306  1.00  0.00     0.047 A 
ATOM     15  C   UNL     1      86.208   9.140   5.616  1.00  0.00     0.115 A 
ATOM     16  C   UNL     1      84.336   7.632   5.943  1.00  0.00     0.016 A 
ATOM     17  C   UNL     1      84.857   8.826   5.434  1.00  0.00     0.047 A 
BRANCH  15  18
ATOM     18  O   UNL     1      86.712  10.334   5.106  1.00  0.00    -0.508 OA
ATOM     19  H   UNL     1      86.373  11.233   5.429  1.00  0.00     0.293 HD
ENDBRANCH  15  18
ENDBRANCH   1  12
BRANCH   2  20
ATOM     20  O   UNL     1      82.638   6.517   8.058  1.00  0.00    -0.502 OA
ATOM     21  H   UNL     1      82.560   6.947   8.972  1.00  0.00     0.293 HD
ENDBRANCH   2  20
BRANCH   6  22
ATOM     22  O   UNL     1      82.131   1.288   8.938  1.00  0.00    -0.507 OA
ATOM     23  H   UNL     1      81.765   1.580   9.832  1.00  0.00     0.293 HD
ENDBRANCH   6  22
BRANCH   8  24
ATOM     24  O   UNL     1      86.452  -0.243   7.566  1.00  0.00    -0.508 OA
ATOM     25  H   UNL     1      86.222  -1.051   7.002  1.00  0.00     0.293 HD
ENDBRANCH   8  24
TORSDOF 5
ENDMDL
MODEL 6
REMARK VINA RESULT:    -5.647      3.953      6.583
REMARK INTER + INTRA:          -6.781
REMARK INTER:                  -6.492
REMARK INTRA:                  -0.289
REMARK UNBOUND:                -0.144
REMARK SMILES O=c1c(O)c(-c2ccc(O)cc2)oc2cc(O)cc(O)c12
REMARK SMILES IDX 5 1 3 2 2 3 1 4 21 5 19 6 18 7 16 8 15 9 14 10 13 11 6 12
REMARK SMILES IDX 7 13 8 14 9 15 12 16 11 17 10 18 4 20 20 22 17 24
REMARK H PARENT 10 19 4 21 20 23 17 25
REMARK Flexibility Score: inf
ROOT
ATOM      1  C   UNL     1      86.011   2.775  -2.646  1.00  0.00     0.180 A 
ATOM      2  C   UNL     1      86.337   4.118  -2.906  1.00  0.00     0.208 A 
ATOM      3  C   UNL     1      86.529   4.525  -4.236  1.00  0.00     0.238 A 
ATOM      4  O   UNL     1      86.768   5.739  -4.468  1.00  0.00    -0.285 OA
ATOM      5  C   UNL     1      86.409   3.583  -5.286  1.00  0.00     0.111 A 
ATOM      6  C   UNL     1      86.622   3.877  -6.666  1.00  0.00     0.134 A 
ATOM      7  C   UNL     1      86.348   2.900  -7.631  1.00  0.00     0.093 A 
ATOM      8  C   UNL     1      85.933   1.622  -7.263  1.00  0.00     0.123 A 
ATOM      9  C   UNL     1      85.779   1.305  -5.912  1.00  0.00     0.094 A 
ATOM     10  C   UNL     1      86.009   2.270  -4.928  1.00  0.00     0.146 A 
ATOM     11  O   UNL     1      85.841   1.932  -3.655  1.00  0.00    -0.452 OA
ENDROOT
BRANCH   1  12
ATOM     12  C   UNL     1      85.817   2.265  -1.268  1.00  0.00     0.021 A 
ATOM     13  C   UNL     1      84.514   2.112  -0.764  1.00  0.00     0.016 A 
ATOM     14  C   UNL     1      84.307   1.611   0.524  1.00  0.00     0.047 A 
ATOM     15  C   UNL     1      85.400   1.240   1.319  1.00  0.00     0.115 A 
ATOM     16  C   UNL     1      86.908   1.874  -0.472  1.00  0.00     0.016 A 
ATOM     17  C   UNL     1      86.699   1.371   0.816  1.00  0.00     0.047 A 
BRANCH  15  18
ATOM     18  O   UNL     1      85.207   0.740   2.604  1.00  0.00    -0.508 OA
ATOM     19  H   UNL     1      85.590  -0.154   2.888  1.00  0.00     0.293 HD
ENDBRANCH  15  18
ENDBRANCH   1  12
BRANCH   2  20
ATOM     20  O   UNL     1      86.429   5.036  -1.857  1.00  0.00    -0.502 OA
ATOM     21  H   UNL     1      86.305   4.768  -0.887  1.00  0.00     0.293 HD
ENDBRANCH   2  20
BRANCH   6  22
ATOM     22  O   UNL     1      87.125   5.094  -7.137  1.00  0.00    -0.507 OA
ATOM     23  H   UNL     1      87.242   5.329  -8.111  1.00  0.00     0.293 HD
ENDBRANCH   6  22
BRANCH   8  24
ATOM     24  O   UNL     1      85.684   0.668  -8.248  1.00  0.00    -0.508 OA
ATOM     25  H   UNL     1      84.884   0.049  -8.197  1.00  0.00     0.293 HD
ENDBRANCH   8  24
TORSDOF 5
ENDMDL
MODEL 7
REMARK VINA RESULT:    -4.987      8.762     10.575
REMARK INTER + INTRA:          -6.005
REMARK INTER:                  -6.191
REMARK INTRA:                   0.187
REMARK UNBOUND:                -0.144
REMARK SMILES O=c1c(O)c(-c2ccc(O)cc2)oc2cc(O)cc(O)c12
REMARK SMILES IDX 5 1 3 2 2 3 1 4 21 5 19 6 18 7 16 8 15 9 14 10 13 11 6 12
REMARK SMILES IDX 7 13 8 14 9 15 12 16 11 17 10 18 4 20 20 22 17 24
REMARK H PARENT 10 19 4 21 20 23 17 25
REMARK Flexibility Score: inf
ROOT
ATOM      1  C   UNL     1      84.948   6.137   6.918  1.00  0.00     0.180 A 
ATOM      2  C   UNL     1      85.783   5.010   7.016  1.00  0.00     0.208 A 
ATOM      3  C   UNL     1      85.290   3.850   7.634  1.00  0.00     0.238 A 
ATOM      4  O   UNL     1      86.023   2.827   7.672  1.00  0.00    -0.285 OA
ATOM      5  C   UNL     1      83.976   3.837   8.161  1.00  0.00     0.111 A 
ATOM      6  C   UNL     1      83.389   2.730   8.844  1.00  0.00     0.134 A 
ATOM      7  C   UNL     1      82.037   2.780   9.207  1.00  0.00     0.093 A 
ATOM      8  C   UNL     1      81.271   3.921   8.972  1.00  0.00     0.123 A 
ATOM      9  C   UNL     1      81.852   5.032   8.359  1.00  0.00     0.094 A 
ATOM     10  C   UNL     1      83.188   4.998   7.952  1.00  0.00     0.146 A 
ATOM     11  O   UNL     1      83.700   6.072   7.363  1.00  0.00    -0.452 OA
ENDROOT
BRANCH   1  12
ATOM     12  C   UNL     1      85.405   7.405   6.301  1.00  0.00     0.021 A 
ATOM     13  C   UNL     1      84.491   8.193   5.583  1.00  0.00     0.016 A 
ATOM     14  C   UNL     1      84.894   9.403   5.012  1.00  0.00     0.047 A 
ATOM     15  C   UNL     1      86.214   9.849   5.167  1.00  0.00     0.115 A 
ATOM     16  C   UNL     1      86.723   7.867   6.468  1.00  0.00     0.016 A 
ATOM     17  C   UNL     1      87.124   9.079   5.898  1.00  0.00     0.047 A 
BRANCH  15  18
ATOM     18  O   UNL     1      86.628  11.053   4.602  1.00  0.00    -0.508 OA
ATOM     19  H   UNL     1      87.562  11.168   4.225  1.00  0.00     0.293 HD
ENDBRANCH  15  18
ENDBRANCH   1  12
BRANCH   2  20
ATOM     20  O   UNL     1      87.069   5.038   6.470  1.00  0.00    -0.502 OA
ATOM     21  H   UNL     1      87.905   5.011   7.043  1.00  0.00     0.293 HD
ENDBRANCH   2  20
BRANCH   6  22
ATOM     22  O   UNL     1      84.090   1.577   9.212  1.00  0.00    -0.507 OA
ATOM     23  H   UNL     1      84.354   0.838   8.577  1.00  0.00     0.293 HD
ENDBRANCH   6  22
BRANCH   8  24
ATOM     24  O   UNL     1      79.933   3.943   9.361  1.00  0.00    -0.508 OA
ATOM     25  H   UNL     1      79.651   4.292  10.270  1.00  0.00     0.293 HD
ENDBRANCH   8  24
TORSDOF 5
ENDMDL
MODEL 8
REMARK VINA RESULT:    -4.699      5.479      8.021
REMARK INTER + INTRA:          -5.667
REMARK INTER:                  -5.372
REMARK INTRA:                  -0.294
REMARK UNBOUND:                -0.144
REMARK SMILES O=c1c(O)c(-c2ccc(O)cc2)oc2cc(O)cc(O)c12
REMARK SMILES IDX 5 1 3 2 2 3 1 4 21 5 19 6 18 7 16 8 15 9 14 10 13 11 6 12
REMARK SMILES IDX 7 13 8 14 9 15 12 16 11 17 10 18 4 20 20 22 17 24
REMARK H PARENT 10 19 4 21 20 23 17 25
REMARK Flexibility Score: inf
ROOT
ATOM      1  C   UNL     1      85.765   1.556   4.287  1.00  0.00     0.180 A 
ATOM      2  C   UNL     1      86.323   0.505   5.037  1.00  0.00     0.208 A 
ATOM      3  C   UNL     1      86.175   0.513   6.433  1.00  0.00     0.238 A 
ATOM      4  O   UNL     1      86.631  -0.457   7.094  1.00  0.00    -0.285 OA
ATOM      5  C   UNL     1      85.487   1.577   7.063  1.00  0.00     0.111 A 
ATOM      6  C   UNL     1      85.313   1.707   8.474  1.00  0.00     0.134 A 
ATOM      7  C   UNL     1      84.502   2.731   8.978  1.00  0.00     0.093 A 
ATOM      8  C   UNL     1      83.912   3.667   8.130  1.00  0.00     0.123 A 
ATOM      9  C   UNL     1      84.125   3.584   6.753  1.00  0.00     0.094 A 
ATOM     10  C   UNL     1      84.900   2.553   6.217  1.00  0.00     0.146 A 
ATOM     11  O   UNL     1      85.068   2.504   4.901  1.00  0.00    -0.452 OA
ENDROOT
BRANCH   1  12
ATOM     12  C   UNL     1      85.899   1.630   2.813  1.00  0.00     0.021 A 
ATOM     13  C   UNL     1      84.851   1.170   1.999  1.00  0.00     0.016 A 
ATOM     14  C   UNL     1      84.947   1.252   0.607  1.00  0.00     0.047 A 
ATOM     15  C   UNL     1      86.087   1.810   0.012  1.00  0.00     0.115 A 
ATOM     16  C   UNL     1      87.032   2.205   2.210  1.00  0.00     0.016 A 
ATOM     17  C   UNL     1      87.125   2.288   0.817  1.00  0.00     0.047 A 
BRANCH  15  18
ATOM     18  O   UNL     1      86.194   1.896  -1.374  1.00  0.00    -0.508 OA
ATOM     19  H   UNL     1      87.058   1.667  -1.853  1.00  0.00     0.293 HD
ENDBRANCH  15  18
ENDBRANCH   1  12
BRANCH   2  20
ATOM     20  O   UNL     1      86.980  -0.546   4.393  1.00  0.00    -0.502 OA
ATOM     21  H   UNL     1      87.769  -1.029   4.806  1.00  0.00     0.293 HD
ENDBRANCH   2  20
BRANCH   6  22
ATOM     22  O   UNL     1      85.932   0.881   9.417  1.00  0.00    -0.507 OA
ATOM     23  H   UNL     1      86.896   0.585   9.376  1.00  0.00     0.293 HD
ENDBRANCH   6  22
BRANCH   8  24
ATOM     24  O   UNL     1      83.124   4.683   8.667  1.00  0.00    -0.508 OA
ATOM     25  H   UNL     1      82.114   4.611   8.695  1.00  0.00     0.293 HD
ENDBRANCH   8  24
TORSDOF 5
ENDMDL
MODEL 9
REMARK VINA RESULT:    -4.501      8.328      9.172
REMARK INTER + INTRA:          -5.434
REMARK INTER:                  -5.283
REMARK INTRA:                  -0.151
REMARK UNBOUND:                -0.144
REMARK SMILES O=c1c(O)c(-c2ccc(O)cc2)oc2cc(O)cc(O)c12
REMARK SMILES IDX 5 1 3 2 2 3 1 4 21 5 19 6 18 7 16 8 15 9 14 10 13 11 6 12
REMARK SMILES IDX 7 13 8 14 9 15 12 16 11 17 10 18 4 20 20 22 17 24
REMARK H PARENT 10 19 4 21 20 23 17 25
REMARK Flexibility Score: inf
ROOT
ATOM      1  C   UNL     1      84.410  -2.783  -6.951  1.00  0.00     0.180 A 
ATOM      2  C   UNL     1      85.691  -2.271  -6.678  1.00  0.00     0.208 A 
ATOM      3  C   UNL     1      85.992  -0.955  -7.063  1.00  0.00     0.238 A 
ATOM      4  O   UNL     1      87.123  -0.484  -6.769  1.00  0.00    -0.285 OA
ATOM      5  C   UNL     1      85.018  -0.174  -7.728  1.00  0.00     0.111 A 
ATOM      6  C   UNL     1      85.229   1.157  -8.198  1.00  0.00     0.134 A 
ATOM      7  C   UNL     1      84.153   1.882  -8.726  1.00  0.00     0.093 A 
ATOM      8  C   UNL     1      82.892   1.304  -8.861  1.00  0.00     0.123 A 
ATOM      9  C   UNL     1      82.690  -0.018  -8.460  1.00  0.00     0.094 A 
ATOM     10  C   UNL     1      83.734  -0.755  -7.896  1.00  0.00     0.146 A 
ATOM     11  O   UNL     1      83.497  -2.005  -7.518  1.00  0.00    -0.452 OA
ENDROOT
BRANCH   1  12
ATOM     12  C   UNL     1      84.025  -4.170  -6.599  1.00  0.00     0.021 A 
ATOM     13  C   UNL     1      83.885  -4.526  -5.247  1.00  0.00     0.016 A 
ATOM     14  C   UNL     1      83.500  -5.822  -4.892  1.00  0.00     0.047 A 
ATOM     15  C   UNL     1      83.234  -6.774  -5.886  1.00  0.00     0.115 A 
ATOM     16  C   UNL     1      83.739  -5.125  -7.591  1.00  0.00     0.016 A 
ATOM     17  C   UNL     1      83.352  -6.421  -7.233  1.00  0.00     0.047 A 
BRANCH  15  18
ATOM     18  O   UNL     1      82.851  -8.069  -5.545  1.00  0.00    -0.508 OA
ATOM     19  H   UNL     1      82.516  -8.723  -6.242  1.00  0.00     0.293 HD
ENDBRANCH  15  18
ENDBRANCH   1  12
BRANCH   2  20
ATOM     20  O   UNL     1      86.631  -3.052  -6.002  1.00  0.00    -0.502 OA
ATOM     21  H   UNL     1      86.474  -4.030  -5.787  1.00  0.00     0.293 HD
ENDBRANCH   2  20
BRANCH   6  22
ATOM     22  O   UNL     1      86.471   1.799  -8.196  1.00  0.00    -0.507 OA
ATOM     23  H   UNL     1      87.277   1.491  -8.719  1.00  0.00     0.293 HD
ENDBRANCH   6  22
BRANCH   8  24
ATOM     24  O   UNL     1      81.848   2.048  -9.405  1.00  0.00    -0.508 OA
ATOM     25  H   UNL     1      80.940   1.636  -9.584  1.00  0.00     0.293 HD
ENDBRANCH   8  24
TORSDOF 5
ENDMDL
