MODEL 1
REMARK VINA RESULT:    -4.343      0.000      0.000
REMARK INTER + INTRA:          -4.343
REMARK INTER:                  -4.343
REMARK INTRA:                   0.000
REMARK UNBOUND:                 0.000
REMARK SMILES CC1(C)C(=O)[C@@]2(C)CC[C@@H]1C2
REMARK SMILES IDX 1 1 2 2 10 3 9 4 8 5 6 6 11 7 4 8 5 9 7 10 3 11
REMARK H PARENT
REMARK Flexibility Score: inf
ROOT
ATOM      1  C   UNL     1      -1.552   9.112   6.172  1.00  0.00     0.020 C 
ATOM      2  C   UNL     1      -0.807   7.787   5.900  1.00  0.00     0.027 C 
ATOM      3  C   UNL     1       0.571   7.960   5.165  1.00  0.00     0.003 C 
ATOM      4  C   UNL     1       0.435   8.891   3.934  1.00  0.00     0.005 C 
ATOM      5  C   UNL     1      -0.425   8.055   2.958  1.00  0.00     0.015 C 
ATOM      6  C   UNL     1      -0.587   6.720   3.710  1.00  0.00     0.027 C 
ATOM      7  C   UNL     1       0.736   6.623   4.445  1.00  0.00     0.019 C 
ATOM      8  C   UNL     1      -1.516   6.959   4.868  1.00  0.00     0.144 C 
ATOM      9  O   UNL     1      -2.685   6.603   4.926  1.00  0.00    -0.298 OA
ATOM     10  C   UNL     1      -0.925   5.511   2.836  1.00  0.00     0.020 C 
ATOM     11  C   UNL     1      -0.652   7.013   7.227  1.00  0.00     0.020 C 
ENDROOT
TORSDOF 0
ENDMDL
MODEL 2
REMARK VINA RESULT:    -4.330      1.539      3.164
REMARK INTER + INTRA:          -4.330
REMARK INTER:                  -4.330
REMARK INTRA:                   0.000
REMARK UNBOUND:                 0.000
REMARK SMILES CC1(C)C(=O)[C@@]2(C)CC[C@@H]1C2
REMARK SMILES IDX 1 1 2 2 10 3 9 4 8 5 6 6 11 7 4 8 5 9 7 10 3 11
REMARK H PARENT
REMARK Flexibility Score: inf
ROOT
ATOM      1  C   UNL     1      -2.179   6.920   4.531  1.00  0.00     0.020 C 
ATOM      2  C   UNL     1      -0.655   6.779   4.328  1.00  0.00     0.027 C 
ATOM      3  C   UNL     1       0.143   6.436   5.637  1.00  0.00     0.003 C 
ATOM      4  C   UNL     1      -0.272   7.368   6.805  1.00  0.00     0.005 C 
ATOM      5  C   UNL     1       0.276   8.744   6.364  1.00  0.00     0.015 C 
ATOM      6  C   UNL     1       1.019   8.408   5.056  1.00  0.00     0.027 C 
ATOM      7  C   UNL     1       1.528   7.010   5.346  1.00  0.00     0.019 C 
ATOM      8  C   UNL     1      -0.017   8.101   4.010  1.00  0.00     0.144 C 
ATOM      9  O   UNL     1      -0.344   8.843   3.094  1.00  0.00    -0.298 OA
ATOM     10  C   UNL     1       2.097   9.410   4.637  1.00  0.00     0.020 C 
ATOM     11  C   UNL     1      -0.387   5.747   3.211  1.00  0.00     0.020 C 
ENDROOT
TORSDOF 0
ENDMDL
MODEL 3
REMARK VINA RESULT:    -4.268      1.595      2.521
REMARK INTER + INTRA:          -4.268
REMARK INTER:                  -4.268
REMARK INTRA:                   0.000
REMARK UNBOUND:                 0.000
REMARK SMILES CC1(C)C(=O)[C@@]2(C)CC[C@@H]1C2
REMARK SMILES IDX 1 1 2 2 10 3 9 4 8 5 6 6 11 7 4 8 5 9 7 10 3 11
REMARK H PARENT
REMARK Flexibility Score: inf
ROOT
ATOM      1  C   UNL     1       0.136   8.686   6.432  1.00  0.00     0.020 C 
ATOM      2  C   UNL     1       0.296   8.466   4.912  1.00  0.00     0.027 C 
ATOM      3  C   UNL     1      -1.001   8.765   4.076  1.00  0.00     0.003 C 
ATOM      4  C   UNL     1      -2.241   8.079   4.703  1.00  0.00     0.005 C 
ATOM      5  C   UNL     1      -1.965   6.576   4.469  1.00  0.00     0.015 C 
ATOM      6  C   UNL     1      -0.658   6.597   3.652  1.00  0.00     0.027 C 
ATOM      7  C   UNL     1      -0.822   7.873   2.849  1.00  0.00     0.019 C 
ATOM      8  C   UNL     1       0.452   7.009   4.580  1.00  0.00     0.144 C 
ATOM      9  O   UNL     1       1.299   6.263   5.050  1.00  0.00    -0.298 OA
ATOM     10  C   UNL     1      -0.384   5.345   2.818  1.00  0.00     0.020 C 
ATOM     11  C   UNL     1       1.502   9.286   4.406  1.00  0.00     0.020 C 
ENDROOT
TORSDOF 0
ENDMDL
MODEL 4
REMARK VINA RESULT:    -4.198      1.294      2.466
REMARK INTER + INTRA:          -4.198
REMARK INTER:                  -4.198
REMARK INTRA:                   0.000
REMARK UNBOUND:                 0.000
REMARK SMILES CC1(C)C(=O)[C@@]2(C)CC[C@@H]1C2
REMARK SMILES IDX 1 1 2 2 10 3 9 4 8 5 6 6 11 7 4 8 5 9 7 10 3 11
REMARK H PARENT
REMARK Flexibility Score: inf
ROOT
ATOM      1  C   UNL     1      -3.243   7.362   5.089  1.00  0.00     0.020 C 
ATOM      2  C   UNL     1      -1.920   8.160   5.071  1.00  0.00     0.027 C 
ATOM      3  C   UNL     1      -1.295   8.342   3.641  1.00  0.00     0.003 C 
ATOM      4  C   UNL     1      -1.249   6.995   2.875  1.00  0.00     0.005 C 
ATOM      5  C   UNL     1      -0.194   6.183   3.661  1.00  0.00     0.015 C 
ATOM      6  C   UNL     1       0.300   7.198   4.710  1.00  0.00     0.027 C 
ATOM      7  C   UNL     1       0.194   8.502   3.945  1.00  0.00     0.019 C 
ATOM      8  C   UNL     1      -0.804   7.389   5.714  1.00  0.00     0.144 C 
ATOM      9  O   UNL     1      -0.823   6.926   6.846  1.00  0.00    -0.298 OA
ATOM     10  C   UNL     1       1.681   6.911   5.301  1.00  0.00     0.020 C 
ATOM     11  C   UNL     1      -2.140   9.517   5.773  1.00  0.00     0.020 C 
ENDROOT
TORSDOF 0
ENDMDL
MODEL 5
REMARK VINA RESULT:    -4.045      1.659      2.556
REMARK INTER + INTRA:          -4.045
REMARK INTER:                  -4.045
REMARK INTRA:                   0.000
REMARK UNBOUND:                 0.000
REMARK SMILES CC1(C)C(=O)[C@@]2(C)CC[C@@H]1C2
REMARK SMILES IDX 1 1 2 2 10 3 9 4 8 5 6 6 11 7 4 8 5 9 7 10 3 11
REMARK H PARENT
REMARK Flexibility Score: inf
ROOT
ATOM      1  C   UNL     1       1.481   7.650   5.250  1.00  0.00     0.020 C 
ATOM      2  C   UNL     1      -0.026   7.502   5.552  1.00  0.00     0.027 C 
ATOM      3  C   UNL     1      -0.693   6.232   4.911  1.00  0.00     0.003 C 
ATOM      4  C   UNL     1      -0.317   6.098   3.414  1.00  0.00     0.005 C 
ATOM      5  C   UNL     1      -1.050   7.293   2.762  1.00  0.00     0.015 C 
ATOM      6  C   UNL     1      -1.829   7.897   3.946  1.00  0.00     0.027 C 
ATOM      7  C   UNL     1      -2.152   6.659   4.761  1.00  0.00     0.019 C 
ATOM      8  C   UNL     1      -0.833   8.561   4.857  1.00  0.00     0.144 C 
ATOM      9  O   UNL     1      -0.655   9.767   4.956  1.00  0.00    -0.298 OA
ATOM     10  C   UNL     1      -3.042   8.749   3.568  1.00  0.00     0.020 C 
ATOM     11  C   UNL     1      -0.242   7.550   7.080  1.00  0.00     0.020 C 
ENDROOT
TORSDOF 0
ENDMDL
MODEL 6
REMARK VINA RESULT:    -4.033      0.942      3.244
REMARK INTER + INTRA:          -4.033
REMARK INTER:                  -4.033
REMARK INTRA:                   0.000
REMARK UNBOUND:                 0.000
REMARK SMILES CC1(C)C(=O)[C@@]2(C)CC[C@@H]1C2
REMARK SMILES IDX 1 1 2 2 10 3 9 4 8 5 6 6 11 7 4 8 5 9 7 10 3 11
REMARK H PARENT
REMARK Flexibility Score: inf
ROOT
ATOM      1  C   UNL     1      -0.232   5.859   3.328  1.00  0.00     0.020 C 
ATOM      2  C   UNL     1      -0.416   7.231   4.013  1.00  0.00     0.027 C 
ATOM      3  C   UNL     1       0.805   7.683   4.891  1.00  0.00     0.003 C 
ATOM      4  C   UNL     1       1.266   6.545   5.836  1.00  0.00     0.005 C 
ATOM      5  C   UNL     1       0.092   6.422   6.834  1.00  0.00     0.015 C 
ATOM      6  C   UNL     1      -0.842   7.567   6.398  1.00  0.00     0.027 C 
ATOM      7  C   UNL     1       0.153   8.606   5.920  1.00  0.00     0.019 C 
ATOM      8  C   UNL     1      -1.464   7.173   5.086  1.00  0.00     0.144 C 
ATOM      9  O   UNL     1      -2.616   6.792   4.933  1.00  0.00    -0.298 OA
ATOM     10  C   UNL     1      -1.820   8.060   7.466  1.00  0.00     0.020 C 
ATOM     11  C   UNL     1      -0.770   8.286   2.943  1.00  0.00     0.020 C 
ENDROOT
TORSDOF 0
ENDMDL
MODEL 7
REMARK VINA RESULT:    -4.029     13.495     14.769
REMARK INTER + INTRA:          -4.029
REMARK INTER:                  -4.029
REMARK INTRA:                   0.000
REMARK UNBOUND:                 0.000
REMARK SMILES CC1(C)C(=O)[C@@]2(C)CC[C@@H]1C2
REMARK SMILES IDX 1 1 2 2 10 3 9 4 8 5 6 6 11 7 4 8 5 9 7 10 3 11
REMARK H PARENT
REMARK Flexibility Score: inf
ROOT
ATOM      1  C   UNL     1       6.867  -2.260   2.436  1.00  0.00     0.020 C 
ATOM      2  C   UNL     1       7.742  -3.532   2.382  1.00  0.00     0.027 C 
ATOM      3  C   UNL     1       9.181  -3.302   1.795  1.00  0.00     0.003 C 
ATOM      4  C   UNL     1       9.122  -2.500   0.470  1.00  0.00     0.005 C 
ATOM      5  C   UNL     1       8.456  -3.492  -0.510  1.00  0.00     0.015 C 
ATOM      6  C   UNL     1       8.310  -4.765   0.347  1.00  0.00     0.027 C 
ATOM      7  C   UNL     1       9.537  -4.677   1.233  1.00  0.00     0.019 C 
ATOM      8  C   UNL     1       7.231  -4.509   1.363  1.00  0.00     0.144 C 
ATOM      9  O   UNL     1       6.096  -4.962   1.323  1.00  0.00    -0.298 OA
ATOM     10  C   UNL     1       8.177  -6.072  -0.436  1.00  0.00     0.020 C 
ATOM     11  C   UNL     1       7.796  -4.168   3.788  1.00  0.00     0.020 C 
ENDROOT
TORSDOF 0
ENDMDL
MODEL 8
REMARK VINA RESULT:    -3.967     15.226     16.722
REMARK INTER + INTRA:          -3.967
REMARK INTER:                  -3.967
REMARK INTRA:                   0.000
REMARK UNBOUND:                 0.000
REMARK SMILES CC1(C)C(=O)[C@@]2(C)CC[C@@H]1C2
REMARK SMILES IDX 1 1 2 2 10 3 9 4 8 5 6 6 11 7 4 8 5 9 7 10 3 11
REMARK H PARENT
REMARK Flexibility Score: inf
ROOT
ATOM      1  C   UNL     1       8.238  -3.885  -0.112  1.00  0.00     0.020 C 
ATOM      2  C   UNL     1       8.358  -5.148   0.770  1.00  0.00     0.027 C 
ATOM      3  C   UNL     1       9.277  -6.271   0.167  1.00  0.00     0.003 C 
ATOM      4  C   UNL     1       8.923  -6.548  -1.316  1.00  0.00     0.005 C 
ATOM      5  C   UNL     1       7.523  -7.197  -1.224  1.00  0.00     0.015 C 
ATOM      6  C   UNL     1       7.298  -7.301   0.297  1.00  0.00     0.027 C 
ATOM      7  C   UNL     1       8.709  -7.542   0.797  1.00  0.00     0.019 C 
ATOM      8  C   UNL     1       7.065  -5.910   0.819  1.00  0.00     0.144 C 
ATOM      9  O   UNL     1       5.984  -5.449   1.155  1.00  0.00    -0.298 OA
ATOM     10  C   UNL     1       6.273  -8.347   0.739  1.00  0.00     0.020 C 
ATOM     11  C   UNL     1       8.817  -4.735   2.185  1.00  0.00     0.020 C 
ENDROOT
TORSDOF 0
ENDMDL
MODEL 9
REMARK VINA RESULT:    -3.960      1.599      2.644
REMARK INTER + INTRA:          -3.960
REMARK INTER:                  -3.960
REMARK INTRA:                   0.000
REMARK UNBOUND:                 0.000
REMARK SMILES CC1(C)C(=O)[C@@]2(C)CC[C@@H]1C2
REMARK SMILES IDX 1 1 2 2 10 3 9 4 8 5 6 6 11 7 4 8 5 9 7 10 3 11
REMARK H PARENT
REMARK Flexibility Score: inf
ROOT
ATOM      1  C   UNL     1      -0.463   9.912   5.654  1.00  0.00     0.020 C 
ATOM      2  C   UNL     1      -1.411   8.930   4.931  1.00  0.00     0.027 C 
ATOM      3  C   UNL     1      -1.841   7.691   5.796  1.00  0.00     0.003 C 
ATOM      4  C   UNL     1      -0.613   7.027   6.470  1.00  0.00     0.005 C 
ATOM      5  C   UNL     1       0.156   6.420   5.275  1.00  0.00     0.015 C 
ATOM      6  C   UNL     1      -0.776   6.725   4.085  1.00  0.00     0.027 C 
ATOM      7  C   UNL     1      -2.141   6.632   4.737  1.00  0.00     0.019 C 
ATOM      8  C   UNL     1      -0.709   8.204   3.821  1.00  0.00     0.144 C 
ATOM      9  O   UNL     1      -0.112   8.733   2.894  1.00  0.00    -0.298 OA
ATOM     10  C   UNL     1      -0.589   5.830   2.859  1.00  0.00     0.020 C 
ATOM     11  C   UNL     1      -2.636   9.708   4.403  1.00  0.00     0.020 C 
ENDROOT
TORSDOF 0
ENDMDL
