MODEL 1
REMARK VINA RESULT:    -5.900      0.000      0.000
REMARK INTER + INTRA:          -7.168
REMARK INTER:                  -7.107
REMARK INTRA:                  -0.061
REMARK UNBOUND:                -0.061
REMARK SMILES O=c1c(O)c(-c2ccc(O)c(O)c2)oc2cc(O)cc(O)c12
REMARK SMILES IDX 5 1 3 2 2 3 1 4 22 5 20 6 19 7 17 8 16 9 15 10 14 11 6 12
REMARK SMILES IDX 7 13 8 14 9 15 13 16 11 17 10 18 12 20 4 22 21 24 18 26
REMARK H PARENT 10 19 12 21 4 23 21 25 18 27
REMARK Flexibility Score: inf
ROOT
ATOM      1  C   UNL     1     152.633 155.658 139.226  1.00  0.00     0.180 A 
ATOM      2  C   UNL     1     153.542 155.529 140.291  1.00  0.00     0.208 A 
ATOM      3  C   UNL     1     154.442 154.452 140.291  1.00  0.00     0.238 A 
ATOM      4  O   UNL     1     155.216 154.312 141.274  1.00  0.00    -0.285 OA
ATOM      5  C   UNL     1     154.435 153.528 139.220  1.00  0.00     0.111 A 
ATOM      6  C   UNL     1     155.330 152.422 139.096  1.00  0.00     0.134 A 
ATOM      7  C   UNL     1     155.146 151.497 138.062  1.00  0.00     0.093 A 
ATOM      8  C   UNL     1     154.141 151.673 137.107  1.00  0.00     0.123 A 
ATOM      9  C   UNL     1     153.300 152.780 137.185  1.00  0.00     0.094 A 
ATOM     10  C   UNL     1     153.435 153.701 138.227  1.00  0.00     0.146 A 
ATOM     11  O   UNL     1     152.606 154.738 138.269  1.00  0.00    -0.452 OA
ENDROOT
BRANCH   1  12
ATOM     12  C   UNL     1     151.670 156.780 139.143  1.00  0.00     0.025 A 
ATOM     13  C   UNL     1     151.627 157.626 138.022  1.00  0.00     0.016 A 
ATOM     14  C   UNL     1     150.693 158.664 137.955  1.00  0.00     0.051 A 
ATOM     15  C   UNL     1     149.780 158.863 139.000  1.00  0.00     0.157 A 
ATOM     16  C   UNL     1     150.739 156.969 140.178  1.00  0.00     0.062 A 
ATOM     17  C   UNL     1     149.802 158.009 140.115  1.00  0.00     0.158 A 
BRANCH  15  18
ATOM     18  O   UNL     1     148.852 159.899 138.931  1.00  0.00    -0.504 OA
ATOM     19  H   UNL     1     148.537 160.387 139.761  1.00  0.00     0.293 HD
ENDBRANCH  15  18
BRANCH  17  20
ATOM     20  O   UNL     1     148.904 158.174 141.168  1.00  0.00    -0.504 OA
ATOM     21  H   UNL     1     148.726 159.081 141.585  1.00  0.00     0.293 HD
ENDBRANCH  17  20
ENDBRANCH   1  12
BRANCH   2  22
ATOM     22  O   UNL     1     153.517 156.442 141.350  1.00  0.00    -0.502 OA
ATOM     23  H   UNL     1     154.360 156.773 141.801  1.00  0.00     0.293 HD
ENDBRANCH   2  22
BRANCH   6  24
ATOM     24  O   UNL     1     156.422 152.205 139.941  1.00  0.00    -0.507 OA
ATOM     25  H   UNL     1     156.373 152.179 140.948  1.00  0.00     0.293 HD
ENDBRANCH   6  24
BRANCH   8  26
ATOM     26  O   UNL     1     153.975 150.755 136.072  1.00  0.00    -0.508 OA
ATOM     27  H   UNL     1     154.690 150.074 135.848  1.00  0.00     0.293 HD
ENDBRANCH   8  26
TORSDOF 6
ENDMDL
MODEL 2
REMARK VINA RESULT:    -5.690      2.124      2.940
REMARK INTER + INTRA:          -6.915
REMARK INTER:                  -6.591
REMARK INTRA:                  -0.323
REMARK UNBOUND:                -0.061
REMARK SMILES O=c1c(O)c(-c2ccc(O)c(O)c2)oc2cc(O)cc(O)c12
REMARK SMILES IDX 5 1 3 2 2 3 1 4 22 5 20 6 19 7 17 8 16 9 15 10 14 11 6 12
REMARK SMILES IDX 7 13 8 14 9 15 13 16 11 17 10 18 12 20 4 22 21 24 18 26
REMARK H PARENT 10 19 12 21 4 23 21 25 18 27
REMARK Flexibility Score: inf
ROOT
ATOM      1  C   UNL     1     152.725 156.315 138.923  1.00  0.00     0.180 A 
ATOM      2  C   UNL     1     153.669 157.125 138.270  1.00  0.00     0.208 A 
ATOM      3  C   UNL     1     154.482 156.558 137.277  1.00  0.00     0.238 A 
ATOM      4  O   UNL     1     155.364 157.275 136.735  1.00  0.00    -0.285 OA
ATOM      5  C   UNL     1     154.330 155.193 136.936  1.00  0.00     0.111 A 
ATOM      6  C   UNL     1     155.072 154.524 135.916  1.00  0.00     0.134 A 
ATOM      7  C   UNL     1     154.931 153.141 135.754  1.00  0.00     0.093 A 
ATOM      8  C   UNL     1     154.025 152.413 136.531  1.00  0.00     0.123 A 
ATOM      9  C   UNL     1     153.254 153.067 137.488  1.00  0.00     0.094 A 
ATOM     10  C   UNL     1     153.399 154.440 137.698  1.00  0.00     0.146 A 
ATOM     11  O   UNL     1     152.650 155.023 138.628  1.00  0.00    -0.452 OA
ENDROOT
BRANCH   1  12
ATOM     12  C   UNL     1     151.815 156.847 139.964  1.00  0.00     0.025 A 
ATOM     13  C   UNL     1     152.185 156.866 141.319  1.00  0.00     0.016 A 
ATOM     14  C   UNL     1     151.320 157.395 142.281  1.00  0.00     0.051 A 
ATOM     15  C   UNL     1     150.080 157.925 141.901  1.00  0.00     0.157 A 
ATOM     16  C   UNL     1     150.580 157.399 139.585  1.00  0.00     0.062 A 
ATOM     17  C   UNL     1     149.710 157.930 140.546  1.00  0.00     0.158 A 
BRANCH  15  18
ATOM     18  O   UNL     1     149.219 158.450 142.863  1.00  0.00    -0.504 OA
ATOM     19  H   UNL     1     148.265 158.123 142.958  1.00  0.00     0.293 HD
ENDBRANCH  15  18
BRANCH  17  20
ATOM     20  O   UNL     1     148.486 158.456 140.134  1.00  0.00    -0.504 OA
ATOM     21  H   UNL     1     148.423 159.319 139.607  1.00  0.00     0.293 HD
ENDBRANCH  17  20
ENDBRANCH   1  12
BRANCH   2  22
ATOM     22  O   UNL     1     153.818 158.466 138.638  1.00  0.00    -0.502 OA
ATOM     23  H   UNL     1     153.619 159.229 138.003  1.00  0.00     0.293 HD
ENDBRANCH   2  22
BRANCH   6  24
ATOM     24  O   UNL     1     155.934 155.172 135.026  1.00  0.00    -0.507 OA
ATOM     25  H   UNL     1     156.062 156.171 134.975  1.00  0.00     0.293 HD
ENDBRANCH   6  24
BRANCH   8  26
ATOM     26  O   UNL     1     153.880 151.039 136.352  1.00  0.00    -0.508 OA
ATOM     27  H   UNL     1     153.182 150.509 136.860  1.00  0.00     0.293 HD
ENDBRANCH   8  26
TORSDOF 6
ENDMDL
MODEL 3
REMARK VINA RESULT:    -5.556      4.234      6.679
REMARK INTER + INTRA:          -6.754
REMARK INTER:                  -6.489
REMARK INTRA:                  -0.265
REMARK UNBOUND:                -0.061
REMARK SMILES O=c1c(O)c(-c2ccc(O)c(O)c2)oc2cc(O)cc(O)c12
REMARK SMILES IDX 5 1 3 2 2 3 1 4 22 5 20 6 19 7 17 8 16 9 15 10 14 11 6 12
REMARK SMILES IDX 7 13 8 14 9 15 13 16 11 17 10 18 12 20 4 22 21 24 18 26
REMARK H PARENT 10 19 12 21 4 23 21 25 18 27
REMARK Flexibility Score: inf
ROOT
ATOM      1  C   UNL     1     152.971 158.021 136.018  1.00  0.00     0.180 A 
ATOM      2  C   UNL     1     151.653 158.399 136.324  1.00  0.00     0.208 A 
ATOM      3  C   UNL     1     151.160 158.162 137.616  1.00  0.00     0.238 A 
ATOM      4  O   UNL     1     149.961 158.452 137.869  1.00  0.00    -0.285 OA
ATOM      5  C   UNL     1     151.995 157.567 138.591  1.00  0.00     0.111 A 
ATOM      6  C   UNL     1     151.613 157.317 139.944  1.00  0.00     0.134 A 
ATOM      7  C   UNL     1     152.475 156.604 140.786  1.00  0.00     0.093 A 
ATOM      8  C   UNL     1     153.734 156.189 140.342  1.00  0.00     0.123 A 
ATOM      9  C   UNL     1     154.139 156.479 139.042  1.00  0.00     0.094 A 
ATOM     10  C   UNL     1     153.286 157.157 138.168  1.00  0.00     0.146 A 
ATOM     11  O   UNL     1     153.709 157.405 136.933  1.00  0.00    -0.452 OA
ENDROOT
BRANCH   1  12
ATOM     12  C   UNL     1     153.570 158.261 134.684  1.00  0.00     0.025 A 
ATOM     13  C   UNL     1     153.710 157.222 133.748  1.00  0.00     0.016 A 
ATOM     14  C   UNL     1     154.256 157.477 132.486  1.00  0.00     0.051 A 
ATOM     15  C   UNL     1     154.656 158.774 132.137  1.00  0.00     0.157 A 
ATOM     16  C   UNL     1     153.953 159.563 134.322  1.00  0.00     0.062 A 
ATOM     17  C   UNL     1     154.500 159.822 133.060  1.00  0.00     0.158 A 
BRANCH  15  18
ATOM     18  O   UNL     1     155.201 159.024 130.880  1.00  0.00    -0.504 OA
ATOM     19  H   UNL     1     156.176 158.837 130.677  1.00  0.00     0.293 HD
ENDBRANCH  15  18
BRANCH  17  20
ATOM     20  O   UNL     1     154.882 161.125 132.742  1.00  0.00    -0.504 OA
ATOM     21  H   UNL     1     155.477 161.332 131.948  1.00  0.00     0.293 HD
ENDBRANCH  17  20
ENDBRANCH   1  12
BRANCH   2  22
ATOM     22  O   UNL     1     150.837 158.966 135.339  1.00  0.00    -0.502 OA
ATOM     23  H   UNL     1     150.842 159.957 135.134  1.00  0.00     0.293 HD
ENDBRANCH   2  22
BRANCH   6  24
ATOM     24  O   UNL     1     150.418 157.769 140.513  1.00  0.00    -0.507 OA
ATOM     25  H   UNL     1     150.224 157.787 141.502  1.00  0.00     0.293 HD
ENDBRANCH   6  24
BRANCH   8  26
ATOM     26  O   UNL     1     154.592 155.494 141.191  1.00  0.00    -0.508 OA
ATOM     27  H   UNL     1     155.500 155.169 140.879  1.00  0.00     0.293 HD
ENDBRANCH   8  26
TORSDOF 6
ENDMDL
MODEL 4
REMARK VINA RESULT:    -5.543      2.043      3.633
REMARK INTER + INTRA:          -6.737
REMARK INTER:                  -6.942
REMARK INTRA:                   0.204
REMARK UNBOUND:                -0.061
REMARK SMILES O=c1c(O)c(-c2ccc(O)c(O)c2)oc2cc(O)cc(O)c12
REMARK SMILES IDX 5 1 3 2 2 3 1 4 22 5 20 6 19 7 17 8 16 9 15 10 14 11 6 12
REMARK SMILES IDX 7 13 8 14 9 15 13 16 11 17 10 18 12 20 4 22 21 24 18 26
REMARK H PARENT 10 19 12 21 4 23 21 25 18 27
REMARK Flexibility Score: inf
ROOT
ATOM      1  C   UNL     1     153.596 155.117 140.216  1.00  0.00     0.180 A 
ATOM      2  C   UNL     1     153.387 153.865 139.613  1.00  0.00     0.208 A 
ATOM      3  C   UNL     1     154.408 152.904 139.667  1.00  0.00     0.238 A 
ATOM      4  O   UNL     1     154.236 151.805 139.078  1.00  0.00    -0.285 OA
ATOM      5  C   UNL     1     155.619 153.199 140.338  1.00  0.00     0.111 A 
ATOM      6  C   UNL     1     156.705 152.286 140.491  1.00  0.00     0.134 A 
ATOM      7  C   UNL     1     157.906 152.728 141.060  1.00  0.00     0.093 A 
ATOM      8  C   UNL     1     158.036 154.034 141.542  1.00  0.00     0.123 A 
ATOM      9  C   UNL     1     156.961 154.915 141.451  1.00  0.00     0.094 A 
ATOM     10  C   UNL     1     155.763 154.513 140.855  1.00  0.00     0.146 A 
ATOM     11  O   UNL     1     154.767 155.388 140.781  1.00  0.00    -0.452 OA
ENDROOT
BRANCH   1  12
ATOM     12  C   UNL     1     152.557 156.173 140.221  1.00  0.00     0.025 A 
ATOM     13  C   UNL     1     152.374 157.013 141.332  1.00  0.00     0.016 A 
ATOM     14  C   UNL     1     151.403 158.019 141.305  1.00  0.00     0.051 A 
ATOM     15  C   UNL     1     150.613 158.209 140.164  1.00  0.00     0.157 A 
ATOM     16  C   UNL     1     151.778 156.380 139.071  1.00  0.00     0.062 A 
ATOM     17  C   UNL     1     150.804 157.387 139.041  1.00  0.00     0.158 A 
BRANCH  15  18
ATOM     18  O   UNL     1     149.645 159.211 140.140  1.00  0.00    -0.504 OA
ATOM     19  H   UNL     1     149.476 159.805 140.944  1.00  0.00     0.293 HD
ENDBRANCH  15  18
BRANCH  17  20
ATOM     20  O   UNL     1     150.039 157.553 137.886  1.00  0.00    -0.504 OA
ATOM     21  H   UNL     1     149.123 157.985 137.907  1.00  0.00     0.293 HD
ENDBRANCH  17  20
ENDBRANCH   1  12
BRANCH   2  22
ATOM     22  O   UNL     1     152.192 153.602 138.936  1.00  0.00    -0.502 OA
ATOM     23  H   UNL     1     151.874 152.661 138.740  1.00  0.00     0.293 HD
ENDBRANCH   2  22
BRANCH   6  24
ATOM     24  O   UNL     1     156.647 150.937 140.128  1.00  0.00    -0.507 OA
ATOM     25  H   UNL     1     157.162 150.525 139.365  1.00  0.00     0.293 HD
ENDBRANCH   6  24
BRANCH   8  26
ATOM     26  O   UNL     1     159.229 154.461 142.120  1.00  0.00    -0.508 OA
ATOM     27  H   UNL     1     160.128 154.219 141.722  1.00  0.00     0.293 HD
ENDBRANCH   8  26
TORSDOF 6
ENDMDL
MODEL 5
REMARK VINA RESULT:    -5.493      2.338      3.614
REMARK INTER + INTRA:          -6.678
REMARK INTER:                  -6.349
REMARK INTRA:                  -0.329
REMARK UNBOUND:                -0.061
REMARK SMILES O=c1c(O)c(-c2ccc(O)c(O)c2)oc2cc(O)cc(O)c12
REMARK SMILES IDX 5 1 3 2 2 3 1 4 22 5 20 6 19 7 17 8 16 9 15 10 14 11 6 12
REMARK SMILES IDX 7 13 8 14 9 15 13 16 11 17 10 18 12 20 4 22 21 24 18 26
REMARK H PARENT 10 19 12 21 4 23 21 25 18 27
REMARK Flexibility Score: inf
ROOT
ATOM      1  C   UNL     1     153.268 156.090 140.548  1.00  0.00     0.180 A 
ATOM      2  C   UNL     1     152.575 155.233 139.676  1.00  0.00     0.208 A 
ATOM      3  C   UNL     1     153.158 154.006 139.322  1.00  0.00     0.238 A 
ATOM      4  O   UNL     1     152.558 153.267 138.498  1.00  0.00    -0.285 OA
ATOM      5  C   UNL     1     154.417 153.643 139.857  1.00  0.00     0.111 A 
ATOM      6  C   UNL     1     155.082 152.407 139.600  1.00  0.00     0.134 A 
ATOM      7  C   UNL     1     156.383 152.209 140.077  1.00  0.00     0.093 A 
ATOM      8  C   UNL     1     157.018 153.178 140.860  1.00  0.00     0.123 A 
ATOM      9  C   UNL     1     156.355 154.363 141.166  1.00  0.00     0.094 A 
ATOM     10  C   UNL     1     155.070 154.604 140.673  1.00  0.00     0.146 A 
ATOM     11  O   UNL     1     154.477 155.752 140.981  1.00  0.00    -0.452 OA
ENDROOT
BRANCH   1  12
ATOM     12  C   UNL     1     152.707 157.389 140.987  1.00  0.00     0.025 A 
ATOM     13  C   UNL     1     151.938 157.496 142.158  1.00  0.00     0.016 A 
ATOM     14  C   UNL     1     151.440 158.737 142.565  1.00  0.00     0.051 A 
ATOM     15  C   UNL     1     151.714 159.890 141.817  1.00  0.00     0.157 A 
ATOM     16  C   UNL     1     152.998 158.550 140.251  1.00  0.00     0.062 A 
ATOM     17  C   UNL     1     152.500 159.795 140.656  1.00  0.00     0.158 A 
BRANCH  15  18
ATOM     18  O   UNL     1     151.214 161.125 142.224  1.00  0.00    -0.504 OA
ATOM     19  H   UNL     1     150.237 161.365 142.113  1.00  0.00     0.293 HD
ENDBRANCH  15  18
BRANCH  17  20
ATOM     20  O   UNL     1     152.797 160.923 139.892  1.00  0.00    -0.504 OA
ATOM     21  H   UNL     1     153.722 161.337 139.883  1.00  0.00     0.293 HD
ENDBRANCH  17  20
ENDBRANCH   1  12
BRANCH   2  22
ATOM     22  O   UNL     1     151.343 155.620 139.142  1.00  0.00    -0.502 OA
ATOM     23  H   UNL     1     150.506 155.059 139.243  1.00  0.00     0.293 HD
ENDBRANCH   2  22
BRANCH   6  24
ATOM     24  O   UNL     1     154.503 151.339 138.908  1.00  0.00    -0.507 OA
ATOM     25  H   UNL     1     153.679 151.407 138.331  1.00  0.00     0.293 HD
ENDBRANCH   6  24
BRANCH   8  26
ATOM     26  O   UNL     1     158.307 152.967 141.344  1.00  0.00    -0.508 OA
ATOM     27  H   UNL     1     159.059 152.661 140.737  1.00  0.00     0.293 HD
ENDBRANCH   8  26
TORSDOF 6
ENDMDL
MODEL 6
REMARK VINA RESULT:    -5.426      4.704      7.432
REMARK INTER + INTRA:          -6.597
REMARK INTER:                  -6.287
REMARK INTRA:                  -0.310
REMARK UNBOUND:                -0.061
REMARK SMILES O=c1c(O)c(-c2ccc(O)c(O)c2)oc2cc(O)cc(O)c12
REMARK SMILES IDX 5 1 3 2 2 3 1 4 22 5 20 6 19 7 17 8 16 9 15 10 14 11 6 12
REMARK SMILES IDX 7 13 8 14 9 15 13 16 11 17 10 18 12 20 4 22 21 24 18 26
REMARK H PARENT 10 19 12 21 4 23 21 25 18 27
REMARK Flexibility Score: inf
ROOT
ATOM      1  C   UNL     1     153.216 158.645 135.400  1.00  0.00     0.180 A 
ATOM      2  C   UNL     1     153.695 157.485 136.032  1.00  0.00     0.208 A 
ATOM      3  C   UNL     1     153.012 156.988 137.152  1.00  0.00     0.238 A 
ATOM      4  O   UNL     1     153.477 155.980 137.746  1.00  0.00    -0.285 OA
ATOM      5  C   UNL     1     151.848 157.646 137.617  1.00  0.00     0.111 A 
ATOM      6  C   UNL     1     151.053 157.207 138.718  1.00  0.00     0.134 A 
ATOM      7  C   UNL     1     149.998 158.008 139.171  1.00  0.00     0.093 A 
ATOM      8  C   UNL     1     149.668 159.200 138.522  1.00  0.00     0.123 A 
ATOM      9  C   UNL     1     150.401 159.608 137.410  1.00  0.00     0.094 A 
ATOM     10  C   UNL     1     151.482 158.848 136.956  1.00  0.00     0.146 A 
ATOM     11  O   UNL     1     152.161 159.278 135.898  1.00  0.00    -0.452 OA
ENDROOT
BRANCH   1  12
ATOM     12  C   UNL     1     153.869 159.215 134.199  1.00  0.00     0.025 A 
ATOM     13  C   UNL     1     154.819 160.246 134.302  1.00  0.00     0.016 A 
ATOM     14  C   UNL     1     155.440 160.753 133.157  1.00  0.00     0.051 A 
ATOM     15  C   UNL     1     155.132 160.227 131.895  1.00  0.00     0.157 A 
ATOM     16  C   UNL     1     153.580 158.677 132.934  1.00  0.00     0.062 A 
ATOM     17  C   UNL     1     154.200 159.183 131.784  1.00  0.00     0.158 A 
BRANCH  15  18
ATOM     18  O   UNL     1     155.752 160.735 130.755  1.00  0.00    -0.504 OA
ATOM     19  H   UNL     1     155.525 161.653 130.391  1.00  0.00     0.293 HD
ENDBRANCH  15  18
BRANCH  17  20
ATOM     20  O   UNL     1     153.876 158.633 130.544  1.00  0.00    -0.504 OA
ATOM     21  H   UNL     1     153.016 158.118 130.392  1.00  0.00     0.293 HD
ENDBRANCH  17  20
ENDBRANCH   1  12
BRANCH   2  22
ATOM     22  O   UNL     1     154.860 156.863 135.570  1.00  0.00    -0.502 OA
ATOM     23  H   UNL     1     155.635 157.383 135.179  1.00  0.00     0.293 HD
ENDBRANCH   2  22
BRANCH   6  24
ATOM     24  O   UNL     1     151.240 155.989 139.378  1.00  0.00    -0.507 OA
ATOM     25  H   UNL     1     151.738 155.877 140.248  1.00  0.00     0.293 HD
ENDBRANCH   6  24
BRANCH   8  26
ATOM     26  O   UNL     1     148.607 159.984 138.970  1.00  0.00    -0.508 OA
ATOM     27  H   UNL     1     148.762 160.841 139.488  1.00  0.00     0.293 HD
ENDBRANCH   8  26
TORSDOF 6
ENDMDL
MODEL 7
REMARK VINA RESULT:    -5.414      2.623      3.669
REMARK INTER + INTRA:          -6.582
REMARK INTER:                  -6.247
REMARK INTRA:                  -0.335
REMARK UNBOUND:                -0.061
REMARK SMILES O=c1c(O)c(-c2ccc(O)c(O)c2)oc2cc(O)cc(O)c12
REMARK SMILES IDX 5 1 3 2 2 3 1 4 22 5 20 6 19 7 17 8 16 9 15 10 14 11 6 12
REMARK SMILES IDX 7 13 8 14 9 15 13 16 11 17 10 18 12 20 4 22 21 24 18 26
REMARK H PARENT 10 19 12 21 4 23 21 25 18 27
REMARK Flexibility Score: inf
ROOT
ATOM      1  C   UNL     1     152.679 155.954 138.801  1.00  0.00     0.180 A 
ATOM      2  C   UNL     1     152.618 154.567 138.582  1.00  0.00     0.208 A 
ATOM      3  C   UNL     1     153.425 153.999 137.585  1.00  0.00     0.238 A 
ATOM      4  O   UNL     1     153.326 152.765 137.357  1.00  0.00    -0.285 OA
ATOM      5  C   UNL     1     154.296 154.820 136.830  1.00  0.00     0.111 A 
ATOM      6  C   UNL     1     155.188 154.346 135.822  1.00  0.00     0.134 A 
ATOM      7  C   UNL     1     155.908 155.263 135.048  1.00  0.00     0.093 A 
ATOM      8  C   UNL     1     155.818 156.637 135.290  1.00  0.00     0.123 A 
ATOM      9  C   UNL     1     154.995 157.106 136.310  1.00  0.00     0.094 A 
ATOM     10  C   UNL     1     154.236 156.217 137.075  1.00  0.00     0.146 A 
ATOM     11  O   UNL     1     153.456 156.708 138.032  1.00  0.00    -0.452 OA
ENDROOT
BRANCH   1  12
ATOM     12  C   UNL     1     151.876 156.623 139.851  1.00  0.00     0.025 A 
ATOM     13  C   UNL     1     152.359 156.761 141.164  1.00  0.00     0.016 A 
ATOM     14  C   UNL     1     151.594 157.417 142.132  1.00  0.00     0.051 A 
ATOM     15  C   UNL     1     150.344 157.958 141.800  1.00  0.00     0.157 A 
ATOM     16  C   UNL     1     150.633 157.186 139.517  1.00  0.00     0.062 A 
ATOM     17  C   UNL     1     149.864 157.843 140.485  1.00  0.00     0.158 A 
BRANCH  15  18
ATOM     18  O   UNL     1     149.584 158.610 142.768  1.00  0.00    -0.504 OA
ATOM     19  H   UNL     1     148.622 158.350 142.953  1.00  0.00     0.293 HD
ENDBRANCH  15  18
BRANCH  17  20
ATOM     20  O   UNL     1     148.628 158.376 140.119  1.00  0.00    -0.504 OA
ATOM     21  H   UNL     1     148.394 159.349 140.279  1.00  0.00     0.293 HD
ENDBRANCH  17  20
ENDBRANCH   1  12
BRANCH   2  22
ATOM     22  O   UNL     1     151.735 153.777 139.325  1.00  0.00    -0.502 OA
ATOM     23  H   UNL     1     152.043 152.978 139.865  1.00  0.00     0.293 HD
ENDBRANCH   2  22
BRANCH   6  24
ATOM     24  O   UNL     1     155.422 152.992 135.562  1.00  0.00    -0.507 OA
ATOM     25  H   UNL     1     154.855 152.416 134.959  1.00  0.00     0.293 HD
ENDBRANCH   6  24
BRANCH   8  26
ATOM     26  O   UNL     1     156.549 157.543 134.525  1.00  0.00    -0.508 OA
ATOM     27  H   UNL     1     156.442 158.543 134.641  1.00  0.00     0.293 HD
ENDBRANCH   8  26
TORSDOF 6
ENDMDL
MODEL 8
REMARK VINA RESULT:    -5.368      1.534      6.821
REMARK INTER + INTRA:          -6.527
REMARK INTER:                  -6.200
REMARK INTRA:                  -0.327
REMARK UNBOUND:                -0.061
REMARK SMILES O=c1c(O)c(-c2ccc(O)c(O)c2)oc2cc(O)cc(O)c12
REMARK SMILES IDX 5 1 3 2 2 3 1 4 22 5 20 6 19 7 17 8 16 9 15 10 14 11 6 12
REMARK SMILES IDX 7 13 8 14 9 15 13 16 11 17 10 18 12 20 4 22 21 24 18 26
REMARK H PARENT 10 19 12 21 4 23 21 25 18 27
REMARK Flexibility Score: inf
ROOT
ATOM      1  C   UNL     1     153.330 155.332 138.953  1.00  0.00     0.180 A 
ATOM      2  C   UNL     1     153.266 155.796 140.278  1.00  0.00     0.208 A 
ATOM      3  C   UNL     1     152.503 156.938 140.564  1.00  0.00     0.238 A 
ATOM      4  O   UNL     1     152.494 157.380 141.743  1.00  0.00    -0.285 OA
ATOM      5  C   UNL     1     151.800 157.594 139.526  1.00  0.00     0.111 A 
ATOM      6  C   UNL     1     150.963 158.736 139.707  1.00  0.00     0.134 A 
ATOM      7  C   UNL     1     150.421 159.381 138.589  1.00  0.00     0.093 A 
ATOM      8  C   UNL     1     150.631 158.886 137.300  1.00  0.00     0.123 A 
ATOM      9  C   UNL     1     151.397 157.738 137.117  1.00  0.00     0.094 A 
ATOM     10  C   UNL     1     151.982 157.093 138.210  1.00  0.00     0.146 A 
ATOM     11  O   UNL     1     152.713 156.007 137.990  1.00  0.00    -0.452 OA
ENDROOT
BRANCH   1  12
ATOM     12  C   UNL     1     154.094 154.120 138.578  1.00  0.00     0.025 A 
ATOM     13  C   UNL     1     153.482 152.856 138.529  1.00  0.00     0.016 A 
ATOM     14  C   UNL     1     154.217 151.729 138.149  1.00  0.00     0.051 A 
ATOM     15  C   UNL     1     155.568 151.851 137.798  1.00  0.00     0.157 A 
ATOM     16  C   UNL     1     155.442 154.241 138.204  1.00  0.00     0.062 A 
ATOM     17  C   UNL     1     156.182 153.115 137.823  1.00  0.00     0.158 A 
BRANCH  15  18
ATOM     18  O   UNL     1     156.298 150.726 137.421  1.00  0.00    -0.504 OA
ATOM     19  H   UNL     1     157.311 150.718 137.444  1.00  0.00     0.293 HD
ENDBRANCH  15  18
BRANCH  17  20
ATOM     20  O   UNL     1     157.523 153.272 137.474  1.00  0.00    -0.504 OA
ATOM     21  H   UNL     1     157.869 153.036 136.551  1.00  0.00     0.293 HD
ENDBRANCH  17  20
ENDBRANCH   1  12
BRANCH   2  22
ATOM     22  O   UNL     1     153.986 155.146 141.285  1.00  0.00    -0.502 OA
ATOM     23  H   UNL     1     153.759 155.247 142.267  1.00  0.00     0.293 HD
ENDBRANCH   2  22
BRANCH   6  24
ATOM     24  O   UNL     1     150.614 159.257 140.958  1.00  0.00    -0.507 OA
ATOM     25  H   UNL     1     150.223 160.174 141.109  1.00  0.00     0.293 HD
ENDBRANCH   6  24
BRANCH   8  26
ATOM     26  O   UNL     1     150.075 159.525 136.194  1.00  0.00    -0.508 OA
ATOM     27  H   UNL     1     150.530 160.317 135.755  1.00  0.00     0.293 HD
ENDBRANCH   8  26
TORSDOF 6
ENDMDL
MODEL 9
REMARK VINA RESULT:    -5.306      3.065      4.562
REMARK INTER + INTRA:          -6.452
REMARK INTER:                  -6.146
REMARK INTRA:                  -0.306
REMARK UNBOUND:                -0.061
REMARK SMILES O=c1c(O)c(-c2ccc(O)c(O)c2)oc2cc(O)cc(O)c12
REMARK SMILES IDX 5 1 3 2 2 3 1 4 22 5 20 6 19 7 17 8 16 9 15 10 14 11 6 12
REMARK SMILES IDX 7 13 8 14 9 15 13 16 11 17 10 18 12 20 4 22 21 24 18 26
REMARK H PARENT 10 19 12 21 4 23 21 25 18 27
REMARK Flexibility Score: inf
ROOT
ATOM      1  C   UNL     1     152.178 157.191 138.557  1.00  0.00     0.180 A 
ATOM      2  C   UNL     1     153.175 156.201 138.593  1.00  0.00     0.208 A 
ATOM      3  C   UNL     1     153.985 156.010 137.463  1.00  0.00     0.238 A 
ATOM      4  O   UNL     1     154.840 155.086 137.482  1.00  0.00    -0.285 OA
ATOM      5  C   UNL     1     153.801 156.821 136.318  1.00  0.00     0.111 A 
ATOM      6  C   UNL     1     154.592 156.742 135.132  1.00  0.00     0.134 A 
ATOM      7  C   UNL     1     154.237 157.503 134.013  1.00  0.00     0.093 A 
ATOM      8  C   UNL     1     153.158 158.391 134.058  1.00  0.00     0.123 A 
ATOM      9  C   UNL     1     152.416 158.518 135.230  1.00  0.00     0.094 A 
ATOM     10  C   UNL     1     152.724 157.745 136.351  1.00  0.00     0.146 A 
ATOM     11  O   UNL     1     151.985 157.891 137.445  1.00  0.00    -0.452 OA
ENDROOT
BRANCH   1  12
ATOM     12  C   UNL     1     151.300 157.468 139.718  1.00  0.00     0.025 A 
ATOM     13  C   UNL     1     150.024 156.890 139.824  1.00  0.00     0.016 A 
ATOM     14  C   UNL     1     149.222 157.147 140.940  1.00  0.00     0.051 A 
ATOM     15  C   UNL     1     149.690 157.972 141.972  1.00  0.00     0.157 A 
ATOM     16  C   UNL     1     151.773 158.277 140.764  1.00  0.00     0.062 A 
ATOM     17  C   UNL     1     150.973 158.537 141.883  1.00  0.00     0.158 A 
BRANCH  15  18
ATOM     18  O   UNL     1     148.888 158.227 143.082  1.00  0.00    -0.504 OA
ATOM     19  H   UNL     1     149.287 158.417 143.993  1.00  0.00     0.293 HD
ENDBRANCH  15  18
BRANCH  17  20
ATOM     20  O   UNL     1     151.471 159.357 142.895  1.00  0.00    -0.504 OA
ATOM     21  H   UNL     1     151.837 158.979 143.761  1.00  0.00     0.293 HD
ENDBRANCH  17  20
ENDBRANCH   1  12
BRANCH   2  22
ATOM     22  O   UNL     1     153.326 155.396 139.727  1.00  0.00    -0.502 OA
ATOM     23  H   UNL     1     154.161 155.414 140.298  1.00  0.00     0.293 HD
ENDBRANCH   2  22
BRANCH   6  24
ATOM     24  O   UNL     1     155.743 155.958 135.013  1.00  0.00    -0.507 OA
ATOM     25  H   UNL     1     156.021 155.243 135.668  1.00  0.00     0.293 HD
ENDBRANCH   6  24
BRANCH   8  26
ATOM     26  O   UNL     1     152.820 159.156 132.944  1.00  0.00    -0.508 OA
ATOM     27  H   UNL     1     151.983 158.968 132.405  1.00  0.00     0.293 HD
ENDBRANCH   8  26
TORSDOF 6
ENDMDL
