MODEL 1
REMARK VINA RESULT:     1.599      0.000      0.000
REMARK INTER + INTRA:           2.526
REMARK INTER:                   4.028
REMARK INTRA:                  -1.502
REMARK UNBOUND:                -1.502
REMARK SMILES CCCCCCCCCCCCCCCCCCCCCCCCCCCC(=O)[O-]
REMARK SMILES IDX 15 1 16 2 17 3 18 4 19 5 20 6 21 7 22 8 23 9 24 10 25 11
REMARK SMILES IDX 26 12 27 13 28 14 29 15 30 16 14 17 13 18 12 19 11 20 10 21
REMARK SMILES IDX 9 22 8 23 7 24 6 25 5 26 4 27 3 28 2 29 1 30
REMARK H PARENT
REMARK Flexibility Score: inf
ROOT
ATOM      1  C   UNL     1      15.886 -28.193  15.060  1.00  0.00     0.000 C 
ENDROOT
BRANCH   1   2
ATOM      2  C   UNL     1      15.823 -26.765  15.648  1.00  0.00     0.000 C 
BRANCH   2   3
ATOM      3  C   UNL     1      16.675 -26.532  16.915  1.00  0.00     0.000 C 
BRANCH   3   4
ATOM      4  C   UNL     1      18.109 -26.038  16.641  1.00  0.00     0.000 C 
BRANCH   4   5
ATOM      5  C   UNL     1      18.196 -24.555  16.227  1.00  0.00     0.000 C 
BRANCH   5   6
ATOM      6  C   UNL     1      19.645 -24.124  15.936  1.00  0.00     0.000 C 
BRANCH   6   7
ATOM      7  C   UNL     1      19.827 -22.598  15.953  1.00  0.00     0.000 C 
BRANCH   7   8
ATOM      8  C   UNL     1      18.894 -21.882  14.961  1.00  0.00     0.000 C 
BRANCH   8   9
ATOM      9  C   UNL     1      18.531 -20.459  15.414  1.00  0.00     0.000 C 
BRANCH   9  10
ATOM     10  C   UNL     1      19.732 -19.692  15.986  1.00  0.00     0.000 C 
BRANCH  10  11
ATOM     11  C   UNL     1      19.825 -18.283  15.379  1.00  0.00     0.000 C 
BRANCH  11  12
ATOM     12  C   UNL     1      18.857 -17.290  16.042  1.00  0.00     0.006 C 
BRANCH  12  13
ATOM     13  C   UNL     1      19.279 -16.927  17.472  1.00  0.00     0.053 C 
BRANCH  13  14
ATOM     14  C   UNL     1      18.098 -16.968  18.391  1.00  0.00     0.041 C 
ATOM     15  O   UNL     1      16.930 -16.920  17.924  1.00  0.00    -0.550 OA
ATOM     16  O   UNL     1      18.289 -17.004  19.766  1.00  0.00    -0.550 OA
ENDBRANCH  13  14
ENDBRANCH  12  13
ENDBRANCH  11  12
ENDBRANCH  10  11
ENDBRANCH   9  10
ENDBRANCH   8   9
ENDBRANCH   7   8
ENDBRANCH   6   7
ENDBRANCH   5   6
ENDBRANCH   4   5
ENDBRANCH   3   4
ENDBRANCH   2   3
ENDBRANCH   1   2
BRANCH   1  17
ATOM     17  C   UNL     1      14.529 -28.827  14.695  1.00  0.00     0.000 C 
BRANCH  17  18
ATOM     18  C   UNL     1      14.463 -30.333  14.996  1.00  0.00     0.000 C 
BRANCH  18  19
ATOM     19  C   UNL     1      13.638 -31.108  13.956  1.00  0.00     0.000 C 
BRANCH  19  20
ATOM     20  C   UNL     1      12.171 -31.286  14.388  1.00  0.00     0.000 C 
BRANCH  20  21
ATOM     21  C   UNL     1      11.342 -32.063  13.354  1.00  0.00     0.000 C 
BRANCH  21  22
ATOM     22  C   UNL     1      10.845 -33.415  13.894  1.00  0.00    -0.000 C 
BRANCH  22  23
ATOM     23  C   UNL     1       9.779 -34.064  12.992  1.00  0.00    -0.000 C 
BRANCH  23  24
ATOM     24  C   UNL     1       8.348 -33.524  13.174  1.00  0.00    -0.000 C 
BRANCH  24  25
ATOM     25  C   UNL     1       7.490 -34.395  14.108  1.00  0.00    -0.000 C 
BRANCH  25  26
ATOM     26  C   UNL     1       7.104 -33.680  15.417  1.00  0.00    -0.000 C 
BRANCH  26  27
ATOM     27  C   UNL     1       7.636 -32.242  15.566  1.00  0.00    -0.000 C 
BRANCH  27  28
ATOM     28  C   UNL     1       8.869 -32.147  16.475  1.00  0.00    -0.000 C 
BRANCH  28  29
ATOM     29  C   UNL     1       8.500 -32.454  17.931  1.00  0.00    -0.003 C 
ATOM     30  C   UNL     1       8.987 -31.353  18.867  1.00  0.00     0.004 C 
ENDBRANCH  28  29
ENDBRANCH  27  28
ENDBRANCH  26  27
ENDBRANCH  25  26
ENDBRANCH  24  25
ENDBRANCH  23  24
ENDBRANCH  22  23
ENDBRANCH  21  22
ENDBRANCH  20  21
ENDBRANCH  19  20
ENDBRANCH  18  19
ENDBRANCH  17  18
ENDBRANCH   1  17
TORSDOF 26
ENDMDL
MODEL 2
REMARK VINA RESULT:     1.668      4.233     13.940
REMARK INTER + INTRA:           2.702
REMARK INTER:                   4.634
REMARK INTRA:                  -1.931
REMARK UNBOUND:                -1.502
REMARK SMILES CCCCCCCCCCCCCCCCCCCCCCCCCCCC(=O)[O-]
REMARK SMILES IDX 15 1 16 2 17 3 18 4 19 5 20 6 21 7 22 8 23 9 24 10 25 11
REMARK SMILES IDX 26 12 27 13 28 14 29 15 30 16 14 17 13 18 12 19 11 20 10 21
REMARK SMILES IDX 9 22 8 23 7 24 6 25 5 26 4 27 3 28 2 29 1 30
REMARK H PARENT
REMARK Flexibility Score: inf
ROOT
ATOM      1  C   UNL     1      11.069 -32.068  13.636  1.00  0.00     0.000 C 
ENDROOT
BRANCH   1   2
ATOM      2  C   UNL     1      11.602 -33.452  13.203  1.00  0.00     0.000 C 
BRANCH   2   3
ATOM      3  C   UNL     1      10.856 -34.666  13.798  1.00  0.00     0.000 C 
BRANCH   3   4
ATOM      4  C   UNL     1       9.641 -35.137  12.976  1.00  0.00     0.000 C 
BRANCH   4   5
ATOM      5  C   UNL     1       9.480 -36.669  12.912  1.00  0.00     0.000 C 
BRANCH   5   6
ATOM      6  C   UNL     1       8.000 -37.091  12.875  1.00  0.00     0.000 C 
BRANCH   6   7
ATOM      7  C   UNL     1       7.042 -35.928  13.179  1.00  0.00     0.000 C 
BRANCH   7   8
ATOM      8  C   UNL     1       6.138 -36.211  14.392  1.00  0.00     0.000 C 
BRANCH   8   9
ATOM      9  C   UNL     1       6.414 -35.261  15.568  1.00  0.00     0.000 C 
BRANCH   9  10
ATOM     10  C   UNL     1       7.385 -34.128  15.202  1.00  0.00     0.000 C 
BRANCH  10  11
ATOM     11  C   UNL     1       7.087 -32.863  16.021  1.00  0.00     0.000 C 
BRANCH  11  12
ATOM     12  C   UNL     1       8.346 -32.025  16.295  1.00  0.00     0.006 C 
BRANCH  12  13
ATOM     13  C   UNL     1       8.883 -32.223  17.719  1.00  0.00     0.053 C 
BRANCH  13  14
ATOM     14  C   UNL     1       9.585 -30.987  18.189  1.00  0.00     0.041 C 
ATOM     15  O   UNL     1       9.178 -30.377  19.212  1.00  0.00    -0.550 OA
ATOM     16  O   UNL     1      10.656 -30.480  17.466  1.00  0.00    -0.550 OA
ENDBRANCH  13  14
ENDBRANCH  12  13
ENDBRANCH  11  12
ENDBRANCH  10  11
ENDBRANCH   9  10
ENDBRANCH   8   9
ENDBRANCH   7   8
ENDBRANCH   6   7
ENDBRANCH   5   6
ENDBRANCH   4   5
ENDBRANCH   3   4
ENDBRANCH   2   3
ENDBRANCH   1   2
BRANCH   1  17
ATOM     17  C   UNL     1      12.048 -31.197  14.449  1.00  0.00     0.000 C 
BRANCH  17  18
ATOM     18  C   UNL     1      13.523 -31.569  14.222  1.00  0.00     0.000 C 
BRANCH  18  19
ATOM     19  C   UNL     1      14.484 -30.433  14.606  1.00  0.00     0.000 C 
BRANCH  19  20
ATOM     20  C   UNL     1      14.469 -29.282  13.584  1.00  0.00     0.000 C 
BRANCH  20  21
ATOM     21  C   UNL     1      15.127 -28.003  14.124  1.00  0.00     0.000 C 
BRANCH  21  22
ATOM     22  C   UNL     1      15.650 -28.172  15.560  1.00  0.00    -0.000 C 
BRANCH  22  23
ATOM     23  C   UNL     1      15.547 -26.879  16.390  1.00  0.00    -0.000 C 
BRANCH  23  24
ATOM     24  C   UNL     1      16.807 -26.515  17.197  1.00  0.00    -0.000 C 
BRANCH  24  25
ATOM     25  C   UNL     1      17.980 -26.060  16.312  1.00  0.00    -0.000 C 
BRANCH  25  26
ATOM     26  C   UNL     1      17.988 -24.541  16.052  1.00  0.00    -0.000 C 
BRANCH  26  27
ATOM     27  C   UNL     1      19.379 -23.915  15.840  1.00  0.00    -0.000 C 
BRANCH  27  28
ATOM     28  C   UNL     1      19.442 -22.437  16.250  1.00  0.00    -0.000 C 
BRANCH  28  29
ATOM     29  C   UNL     1      19.397 -21.525  15.019  1.00  0.00    -0.003 C 
ATOM     30  C   UNL     1      19.957 -20.142  15.336  1.00  0.00     0.004 C 
ENDBRANCH  28  29
ENDBRANCH  27  28
ENDBRANCH  26  27
ENDBRANCH  25  26
ENDBRANCH  24  25
ENDBRANCH  23  24
ENDBRANCH  22  23
ENDBRANCH  21  22
ENDBRANCH  20  21
ENDBRANCH  19  20
ENDBRANCH  18  19
ENDBRANCH  17  18
ENDBRANCH   1  17
TORSDOF 26
ENDMDL
MODEL 3
REMARK VINA RESULT:     2.058      4.350     14.357
REMARK INTER + INTRA:           3.684
REMARK INTER:                   4.642
REMARK INTRA:                  -0.958
REMARK UNBOUND:                -1.502
REMARK SMILES CCCCCCCCCCCCCCCCCCCCCCCCCCCC(=O)[O-]
REMARK SMILES IDX 15 1 16 2 17 3 18 4 19 5 20 6 21 7 22 8 23 9 24 10 25 11
REMARK SMILES IDX 26 12 27 13 28 14 29 15 30 16 14 17 13 18 12 19 11 20 10 21
REMARK SMILES IDX 9 22 8 23 7 24 6 25 5 26 4 27 3 28 2 29 1 30
REMARK H PARENT
REMARK Flexibility Score: inf
ROOT
ATOM      1  C   UNL     1      11.814 -31.121  14.173  1.00  0.00     0.000 C 
ENDROOT
BRANCH   1   2
ATOM      2  C   UNL     1      11.201 -32.539  14.182  1.00  0.00     0.000 C 
BRANCH   2   3
ATOM      3  C   UNL     1      10.118 -32.801  13.113  1.00  0.00     0.000 C 
BRANCH   3   4
ATOM      4  C   UNL     1       9.120 -31.644  12.916  1.00  0.00     0.000 C 
BRANCH   4   5
ATOM      5  C   UNL     1       7.643 -32.086  12.875  1.00  0.00     0.000 C 
BRANCH   5   6
ATOM      6  C   UNL     1       7.299 -33.046  14.029  1.00  0.00     0.000 C 
BRANCH   6   7
ATOM      7  C   UNL     1       6.615 -34.335  13.546  1.00  0.00     0.000 C 
BRANCH   7   8
ATOM      8  C   UNL     1       6.039 -35.166  14.705  1.00  0.00     0.000 C 
BRANCH   8   9
ATOM      9  C   UNL     1       7.133 -35.840  15.548  1.00  0.00     0.000 C 
BRANCH   9  10
ATOM     10  C   UNL     1       7.200 -35.292  16.982  1.00  0.00     0.000 C 
BRANCH  10  11
ATOM     11  C   UNL     1       8.528 -34.559  17.229  1.00  0.00     0.000 C 
BRANCH  11  12
ATOM     12  C   UNL     1       8.668 -33.287  16.379  1.00  0.00     0.006 C 
BRANCH  12  13
ATOM     13  C   UNL     1       8.150 -32.038  17.104  1.00  0.00     0.053 C 
BRANCH  13  14
ATOM     14  C   UNL     1       9.165 -31.545  18.088  1.00  0.00     0.041 C 
ATOM     15  O   UNL     1       8.932 -31.608  19.323  1.00  0.00    -0.550 OA
ATOM     16  O   UNL     1      10.345 -30.970  17.638  1.00  0.00    -0.550 OA
ENDBRANCH  13  14
ENDBRANCH  12  13
ENDBRANCH  11  12
ENDBRANCH  10  11
ENDBRANCH   9  10
ENDBRANCH   8   9
ENDBRANCH   7   8
ENDBRANCH   6   7
ENDBRANCH   5   6
ENDBRANCH   4   5
ENDBRANCH   3   4
ENDBRANCH   2   3
ENDBRANCH   1   2
BRANCH   1  17
ATOM     17  C   UNL     1      13.324 -31.041  14.474  1.00  0.00     0.000 C 
BRANCH  17  18
ATOM     18  C   UNL     1      14.062 -30.010  13.603  1.00  0.00     0.000 C 
BRANCH  18  19
ATOM     19  C   UNL     1      15.288 -29.411  14.310  1.00  0.00     0.000 C 
BRANCH  19  20
ATOM     20  C   UNL     1      14.950 -28.115  15.069  1.00  0.00     0.000 C 
BRANCH  20  21
ATOM     21  C   UNL     1      16.007 -27.756  16.125  1.00  0.00     0.000 C 
BRANCH  21  22
ATOM     22  C   UNL     1      16.417 -26.275  16.067  1.00  0.00    -0.000 C 
BRANCH  22  23
ATOM     23  C   UNL     1      17.581 -25.939  17.018  1.00  0.00    -0.000 C 
BRANCH  23  24
ATOM     24  C   UNL     1      18.773 -25.216  16.365  1.00  0.00    -0.000 C 
BRANCH  24  25
ATOM     25  C   UNL     1      18.441 -23.779  15.927  1.00  0.00    -0.000 C 
BRANCH  25  26
ATOM     26  C   UNL     1      19.615 -22.800  16.122  1.00  0.00    -0.000 C 
BRANCH  26  27
ATOM     27  C   UNL     1      20.143 -22.138  14.835  1.00  0.00    -0.000 C 
BRANCH  27  28
ATOM     28  C   UNL     1      20.356 -20.625  14.982  1.00  0.00    -0.000 C 
BRANCH  28  29
ATOM     29  C   UNL     1      19.294 -20.010  15.900  1.00  0.00    -0.003 C 
ATOM     30  C   UNL     1      19.209 -18.499  15.709  1.00  0.00     0.004 C 
ENDBRANCH  28  29
ENDBRANCH  27  28
ENDBRANCH  26  27
ENDBRANCH  25  26
ENDBRANCH  24  25
ENDBRANCH  23  24
ENDBRANCH  22  23
ENDBRANCH  21  22
ENDBRANCH  20  21
ENDBRANCH  19  20
ENDBRANCH  18  19
ENDBRANCH  17  18
ENDBRANCH   1  17
TORSDOF 26
ENDMDL
MODEL 4
REMARK VINA RESULT:     2.059      4.270     14.640
REMARK INTER + INTRA:           3.686
REMARK INTER:                   4.843
REMARK INTRA:                  -1.157
REMARK UNBOUND:                -1.502
REMARK SMILES CCCCCCCCCCCCCCCCCCCCCCCCCCCC(=O)[O-]
REMARK SMILES IDX 15 1 16 2 17 3 18 4 19 5 20 6 21 7 22 8 23 9 24 10 25 11
REMARK SMILES IDX 26 12 27 13 28 14 29 15 30 16 14 17 13 18 12 19 11 20 10 21
REMARK SMILES IDX 9 22 8 23 7 24 6 25 5 26 4 27 3 28 2 29 1 30
REMARK H PARENT
REMARK Flexibility Score: inf
ROOT
ATOM      1  C   UNL     1      15.513 -27.878  14.410  1.00  0.00     0.000 C 
ENDROOT
BRANCH   1   2
ATOM      2  C   UNL     1      15.018 -29.179  15.079  1.00  0.00     0.000 C 
BRANCH   2   3
ATOM      3  C   UNL     1      14.477 -30.256  14.115  1.00  0.00     0.000 C 
BRANCH   3   4
ATOM      4  C   UNL     1      12.992 -30.615  14.323  1.00  0.00     0.000 C 
BRANCH   4   5
ATOM      5  C   UNL     1      12.567 -31.942  13.662  1.00  0.00     0.000 C 
BRANCH   5   6
ATOM      6  C   UNL     1      11.036 -32.102  13.628  1.00  0.00     0.000 C 
BRANCH   6   7
ATOM      7  C   UNL     1      10.593 -33.574  13.592  1.00  0.00     0.000 C 
BRANCH   7   8
ATOM      8  C   UNL     1       9.184 -33.750  13.000  1.00  0.00     0.000 C 
BRANCH   8   9
ATOM      9  C   UNL     1       8.249 -34.541  13.928  1.00  0.00     0.000 C 
BRANCH   9  10
ATOM     10  C   UNL     1       6.921 -33.816  14.192  1.00  0.00     0.000 C 
BRANCH  10  11
ATOM     11  C   UNL     1       6.971 -33.042  15.519  1.00  0.00     0.000 C 
BRANCH  11  12
ATOM     12  C   UNL     1       8.320 -33.192  16.240  1.00  0.00     0.006 C 
BRANCH  12  13
ATOM     13  C   UNL     1       8.270 -32.684  17.687  1.00  0.00     0.053 C 
BRANCH  13  14
ATOM     14  C   UNL     1       9.194 -31.520  17.865  1.00  0.00     0.041 C 
ATOM     15  O   UNL     1       9.926 -31.141  16.913  1.00  0.00    -0.550 OA
ATOM     16  O   UNL     1       9.284 -30.887  19.097  1.00  0.00    -0.550 OA
ENDBRANCH  13  14
ENDBRANCH  12  13
ENDBRANCH  11  12
ENDBRANCH  10  11
ENDBRANCH   9  10
ENDBRANCH   8   9
ENDBRANCH   7   8
ENDBRANCH   6   7
ENDBRANCH   5   6
ENDBRANCH   4   5
ENDBRANCH   3   4
ENDBRANCH   2   3
ENDBRANCH   1   2
BRANCH   1  17
ATOM     17  C   UNL     1      15.757 -26.687  15.358  1.00  0.00     0.000 C 
BRANCH  17  18
ATOM     18  C   UNL     1      16.645 -27.042  16.562  1.00  0.00     0.000 C 
BRANCH  18  19
ATOM     19  C   UNL     1      17.449 -25.837  17.079  1.00  0.00     0.000 C 
BRANCH  19  20
ATOM     20  C   UNL     1      18.386 -25.256  16.005  1.00  0.00     0.000 C 
BRANCH  20  21
ATOM     21  C   UNL     1      18.745 -23.785  16.269  1.00  0.00     0.000 C 
BRANCH  21  22
ATOM     22  C   UNL     1      18.624 -22.914  15.008  1.00  0.00    -0.000 C 
BRANCH  22  23
ATOM     23  C   UNL     1      18.460 -21.417  15.328  1.00  0.00    -0.000 C 
BRANCH  23  24
ATOM     24  C   UNL     1      19.753 -20.585  15.256  1.00  0.00    -0.000 C 
BRANCH  24  25
ATOM     25  C   UNL     1      19.595 -19.294  14.434  1.00  0.00    -0.000 C 
BRANCH  25  26
ATOM     26  C   UNL     1      19.683 -18.016  15.291  1.00  0.00    -0.000 C 
BRANCH  26  27
ATOM     27  C   UNL     1      19.357 -18.200  16.786  1.00  0.00    -0.000 C 
BRANCH  27  28
ATOM     28  C   UNL     1      19.040 -16.879  17.499  1.00  0.00    -0.000 C 
BRANCH  28  29
ATOM     29  C   UNL     1      17.603 -16.875  18.031  1.00  0.00    -0.003 C 
ATOM     30  C   UNL     1      17.558 -17.282  19.500  1.00  0.00     0.004 C 
ENDBRANCH  28  29
ENDBRANCH  27  28
ENDBRANCH  26  27
ENDBRANCH  25  26
ENDBRANCH  24  25
ENDBRANCH  23  24
ENDBRANCH  22  23
ENDBRANCH  21  22
ENDBRANCH  20  21
ENDBRANCH  19  20
ENDBRANCH  18  19
ENDBRANCH  17  18
ENDBRANCH   1  17
TORSDOF 26
ENDMDL
MODEL 5
REMARK VINA RESULT:     2.069      4.267     14.349
REMARK INTER + INTRA:           3.711
REMARK INTER:                   3.605
REMARK INTRA:                   0.106
REMARK UNBOUND:                -1.502
REMARK SMILES CCCCCCCCCCCCCCCCCCCCCCCCCCCC(=O)[O-]
REMARK SMILES IDX 15 1 16 2 17 3 18 4 19 5 20 6 21 7 22 8 23 9 24 10 25 11
REMARK SMILES IDX 26 12 27 13 28 14 29 15 30 16 14 17 13 18 12 19 11 20 10 21
REMARK SMILES IDX 9 22 8 23 7 24 6 25 5 26 4 27 3 28 2 29 1 30
REMARK H PARENT
REMARK Flexibility Score: inf
ROOT
ATOM      1  C   UNL     1      13.041 -31.486  14.029  1.00  0.00     0.000 C 
ENDROOT
BRANCH   1   2
ATOM      2  C   UNL     1      12.960 -32.656  13.022  1.00  0.00     0.000 C 
BRANCH   2   3
ATOM      3  C   UNL     1      11.601 -33.383  12.959  1.00  0.00     0.000 C 
BRANCH   3   4
ATOM      4  C   UNL     1      11.695 -34.921  12.988  1.00  0.00     0.000 C 
BRANCH   4   5
ATOM      5  C   UNL     1      10.329 -35.636  12.969  1.00  0.00     0.000 C 
BRANCH   5   6
ATOM      6  C   UNL     1       9.159 -34.639  12.882  1.00  0.00     0.000 C 
BRANCH   6   7
ATOM      7  C   UNL     1       7.915 -35.113  13.651  1.00  0.00     0.000 C 
BRANCH   7   8
ATOM      8  C   UNL     1       6.775 -34.081  13.621  1.00  0.00     0.000 C 
BRANCH   8   9
ATOM      9  C   UNL     1       7.261 -32.676  13.229  1.00  0.00     0.000 C 
BRANCH   9  10
ATOM     10  C   UNL     1       8.585 -32.294  13.907  1.00  0.00     0.000 C 
BRANCH  10  11
ATOM     11  C   UNL     1       8.374 -32.000  15.400  1.00  0.00     0.000 C 
BRANCH  11  12
ATOM     12  C   UNL     1       8.749 -33.191  16.296  1.00  0.00     0.006 C 
BRANCH  12  13
ATOM     13  C   UNL     1       8.484 -32.912  17.782  1.00  0.00     0.053 C 
BRANCH  13  14
ATOM     14  C   UNL     1       8.841 -31.498  18.120  1.00  0.00     0.041 C 
ATOM     15  O   UNL     1       8.049 -30.789  18.794  1.00  0.00    -0.550 OA
ATOM     16  O   UNL     1      10.024 -30.949  17.646  1.00  0.00    -0.550 OA
ENDBRANCH  13  14
ENDBRANCH  12  13
ENDBRANCH  11  12
ENDBRANCH  10  11
ENDBRANCH   9  10
ENDBRANCH   8   9
ENDBRANCH   7   8
ENDBRANCH   6   7
ENDBRANCH   5   6
ENDBRANCH   4   5
ENDBRANCH   3   4
ENDBRANCH   2   3
ENDBRANCH   1   2
BRANCH   1  17
ATOM     17  C   UNL     1      14.253 -30.547  13.870  1.00  0.00     0.000 C 
BRANCH  17  18
ATOM     18  C   UNL     1      14.684 -29.883  15.188  1.00  0.00     0.000 C 
BRANCH  18  19
ATOM     19  C   UNL     1      15.272 -28.479  14.978  1.00  0.00     0.000 C 
BRANCH  19  20
ATOM     20  C   UNL     1      16.092 -28.001  16.190  1.00  0.00     0.000 C 
BRANCH  20  21
ATOM     21  C   UNL     1      16.295 -26.478  16.202  1.00  0.00     0.000 C 
BRANCH  21  22
ATOM     22  C   UNL     1      17.768 -26.082  16.399  1.00  0.00    -0.000 C 
BRANCH  22  23
ATOM     23  C   UNL     1      17.961 -24.565  16.580  1.00  0.00    -0.000 C 
BRANCH  23  24
ATOM     24  C   UNL     1      19.189 -23.970  15.866  1.00  0.00    -0.000 C 
BRANCH  24  25
ATOM     25  C   UNL     1      18.963 -22.530  15.377  1.00  0.00    -0.000 C 
BRANCH  25  26
ATOM     26  C   UNL     1      20.205 -21.632  15.545  1.00  0.00    -0.000 C 
BRANCH  26  27
ATOM     27  C   UNL     1      19.914 -20.171  15.937  1.00  0.00    -0.000 C 
BRANCH  27  28
ATOM     28  C   UNL     1      19.470 -19.307  14.749  1.00  0.00    -0.000 C 
BRANCH  28  29
ATOM     29  C   UNL     1      19.342 -17.836  15.160  1.00  0.00    -0.003 C 
ATOM     30  C   UNL     1      19.365 -17.683  16.677  1.00  0.00     0.004 C 
ENDBRANCH  28  29
ENDBRANCH  27  28
ENDBRANCH  26  27
ENDBRANCH  25  26
ENDBRANCH  24  25
ENDBRANCH  23  24
ENDBRANCH  22  23
ENDBRANCH  21  22
ENDBRANCH  20  21
ENDBRANCH  19  20
ENDBRANCH  18  19
ENDBRANCH  17  18
ENDBRANCH   1  17
TORSDOF 26
ENDMDL
MODEL 6
REMARK VINA RESULT:     2.186      1.467      3.859
REMARK INTER + INTRA:           4.005
REMARK INTER:                   5.399
REMARK INTRA:                  -1.393
REMARK UNBOUND:                -1.502
REMARK SMILES CCCCCCCCCCCCCCCCCCCCCCCCCCCC(=O)[O-]
REMARK SMILES IDX 15 1 16 2 17 3 18 4 19 5 20 6 21 7 22 8 23 9 24 10 25 11
REMARK SMILES IDX 26 12 27 13 28 14 29 15 30 16 14 17 13 18 12 19 11 20 10 21
REMARK SMILES IDX 9 22 8 23 7 24 6 25 5 26 4 27 3 28 2 29 1 30
REMARK H PARENT
REMARK Flexibility Score: inf
ROOT
ATOM      1  C   UNL     1      12.834 -31.157  13.397  1.00  0.00     0.000 C 
ENDROOT
BRANCH   1   2
ATOM      2  C   UNL     1      13.808 -30.779  14.535  1.00  0.00     0.000 C 
BRANCH   2   3
ATOM      3  C   UNL     1      14.858 -29.705  14.181  1.00  0.00     0.000 C 
BRANCH   3   4
ATOM      4  C   UNL     1      15.114 -28.668  15.292  1.00  0.00     0.000 C 
BRANCH   4   5
ATOM      5  C   UNL     1      15.611 -27.303  14.776  1.00  0.00     0.000 C 
BRANCH   5   6
ATOM      6  C   UNL     1      16.023 -26.368  15.928  1.00  0.00     0.000 C 
BRANCH   6   7
ATOM      7  C   UNL     1      17.303 -26.832  16.642  1.00  0.00     0.000 C 
BRANCH   7   8
ATOM      8  C   UNL     1      18.239 -25.662  16.992  1.00  0.00     0.000 C 
BRANCH   8   9
ATOM      9  C   UNL     1      18.360 -24.641  15.850  1.00  0.00     0.000 C 
BRANCH   9  10
ATOM     10  C   UNL     1      19.106 -23.366  16.269  1.00  0.00     0.000 C 
BRANCH  10  11
ATOM     11  C   UNL     1      19.196 -22.372  15.100  1.00  0.00     0.000 C 
BRANCH  11  12
ATOM     12  C   UNL     1      19.746 -21.002  15.530  1.00  0.00     0.006 C 
BRANCH  12  13
ATOM     13  C   UNL     1      18.742 -19.866  15.290  1.00  0.00     0.053 C 
BRANCH  13  14
ATOM     14  C   UNL     1      19.413 -18.536  15.441  1.00  0.00     0.041 C 
ATOM     15  O   UNL     1      19.660 -18.079  16.587  1.00  0.00    -0.550 OA
ATOM     16  O   UNL     1      19.715 -17.780  14.317  1.00  0.00    -0.550 OA
ENDBRANCH  13  14
ENDBRANCH  12  13
ENDBRANCH  11  12
ENDBRANCH  10  11
ENDBRANCH   9  10
ENDBRANCH   8   9
ENDBRANCH   7   8
ENDBRANCH   6   7
ENDBRANCH   5   6
ENDBRANCH   4   5
ENDBRANCH   3   4
ENDBRANCH   2   3
ENDBRANCH   1   2
BRANCH   1  17
ATOM     17  C   UNL     1      12.519 -32.659  13.253  1.00  0.00     0.000 C 
BRANCH  17  18
ATOM     18  C   UNL     1      11.103 -33.030  13.722  1.00  0.00     0.000 C 
BRANCH  18  19
ATOM     19  C   UNL     1      10.716 -34.470  13.350  1.00  0.00     0.000 C 
BRANCH  19  20
ATOM     20  C   UNL     1       9.254 -34.580  12.881  1.00  0.00     0.000 C 
BRANCH  20  21
ATOM     21  C   UNL     1       8.587 -35.890  13.330  1.00  0.00     0.000 C 
BRANCH  21  22
ATOM     22  C   UNL     1       7.054 -35.832  13.232  1.00  0.00    -0.000 C 
BRANCH  22  23
ATOM     23  C   UNL     1       6.419 -34.925  14.303  1.00  0.00    -0.000 C 
BRANCH  23  24
ATOM     24  C   UNL     1       6.029 -33.516  13.822  1.00  0.00    -0.000 C 
BRANCH  24  25
ATOM     25  C   UNL     1       7.088 -32.450  14.154  1.00  0.00    -0.000 C 
BRANCH  25  26
ATOM     26  C   UNL     1       7.829 -32.725  15.477  1.00  0.00    -0.000 C 
BRANCH  26  27
ATOM     27  C   UNL     1       8.843 -31.646  15.901  1.00  0.00    -0.000 C 
BRANCH  27  28
ATOM     28  C   UNL     1       9.513 -31.948  17.249  1.00  0.00    -0.000 C 
BRANCH  28  29
ATOM     29  C   UNL     1       8.474 -32.010  18.374  1.00  0.00    -0.003 C 
ATOM     30  C   UNL     1       8.966 -31.280  19.620  1.00  0.00     0.004 C 
ENDBRANCH  28  29
ENDBRANCH  27  28
ENDBRANCH  26  27
ENDBRANCH  25  26
ENDBRANCH  24  25
ENDBRANCH  23  24
ENDBRANCH  22  23
ENDBRANCH  21  22
ENDBRANCH  20  21
ENDBRANCH  19  20
ENDBRANCH  18  19
ENDBRANCH  17  18
ENDBRANCH   1  17
TORSDOF 26
ENDMDL
MODEL 7
REMARK VINA RESULT:     2.237      2.016      4.838
REMARK INTER + INTRA:           4.135
REMARK INTER:                   6.683
REMARK INTRA:                  -2.548
REMARK UNBOUND:                -1.502
REMARK SMILES CCCCCCCCCCCCCCCCCCCCCCCCCCCC(=O)[O-]
REMARK SMILES IDX 15 1 16 2 17 3 18 4 19 5 20 6 21 7 22 8 23 9 24 10 25 11
REMARK SMILES IDX 26 12 27 13 28 14 29 15 30 16 14 17 13 18 12 19 11 20 10 21
REMARK SMILES IDX 9 22 8 23 7 24 6 25 5 26 4 27 3 28 2 29 1 30
REMARK H PARENT
REMARK Flexibility Score: inf
ROOT
ATOM      1  C   UNL     1      11.596 -31.771  13.966  1.00  0.00     0.000 C 
ENDROOT
BRANCH   1   2
ATOM      2  C   UNL     1      12.937 -31.705  14.731  1.00  0.00     0.000 C 
BRANCH   2   3
ATOM      3  C   UNL     1      14.110 -31.063  13.960  1.00  0.00     0.000 C 
BRANCH   3   4
ATOM      4  C   UNL     1      14.801 -29.900  14.697  1.00  0.00     0.000 C 
BRANCH   4   5
ATOM      5  C   UNL     1      14.861 -28.588  13.889  1.00  0.00     0.000 C 
BRANCH   5   6
ATOM      6  C   UNL     1      15.462 -27.433  14.710  1.00  0.00     0.000 C 
BRANCH   6   7
ATOM      7  C   UNL     1      15.707 -27.812  16.180  1.00  0.00     0.000 C 
BRANCH   7   8
ATOM      8  C   UNL     1      16.593 -26.790  16.912  1.00  0.00     0.000 C 
BRANCH   8   9
ATOM      9  C   UNL     1      17.089 -25.668  15.986  1.00  0.00     0.000 C 
BRANCH   9  10
ATOM     10  C   UNL     1      18.399 -25.031  16.473  1.00  0.00     0.000 C 
BRANCH  10  11
ATOM     11  C   UNL     1      18.858 -23.920  15.516  1.00  0.00     0.000 C 
BRANCH  11  12
ATOM     12  C   UNL     1      19.396 -22.686  16.258  1.00  0.00     0.006 C 
BRANCH  12  13
ATOM     13  C   UNL     1      20.241 -21.780  15.353  1.00  0.00     0.053 C 
BRANCH  13  14
ATOM     14  C   UNL     1      19.631 -20.416  15.263  1.00  0.00     0.041 C 
ATOM     15  O   UNL     1      18.622 -20.127  15.957  1.00  0.00    -0.550 OA
ATOM     16  O   UNL     1      20.148 -19.482  14.375  1.00  0.00    -0.550 OA
ENDBRANCH  13  14
ENDBRANCH  12  13
ENDBRANCH  11  12
ENDBRANCH  10  11
ENDBRANCH   9  10
ENDBRANCH   8   9
ENDBRANCH   7   8
ENDBRANCH   6   7
ENDBRANCH   5   6
ENDBRANCH   4   5
ENDBRANCH   3   4
ENDBRANCH   2   3
ENDBRANCH   1   2
BRANCH   1  17
ATOM     17  C   UNL     1      11.239 -33.140  13.354  1.00  0.00     0.000 C 
BRANCH  17  18
ATOM     18  C   UNL     1       9.763 -33.253  12.938  1.00  0.00     0.000 C 
BRANCH  18  19
ATOM     19  C   UNL     1       9.056 -31.889  12.897  1.00  0.00     0.000 C 
BRANCH  19  20
ATOM     20  C   UNL     1       7.542 -32.008  13.152  1.00  0.00     0.000 C 
BRANCH  20  21
ATOM     21  C   UNL     1       7.009 -33.425  12.891  1.00  0.00     0.000 C 
BRANCH  21  22
ATOM     22  C   UNL     1       6.149 -33.952  14.051  1.00  0.00    -0.000 C 
BRANCH  22  23
ATOM     23  C   UNL     1       6.326 -35.464  14.288  1.00  0.00    -0.000 C 
BRANCH  23  24
ATOM     24  C   UNL     1       7.051 -35.843  15.592  1.00  0.00    -0.000 C 
BRANCH  24  25
ATOM     25  C   UNL     1       8.257 -34.939  15.898  1.00  0.00    -0.000 C 
BRANCH  25  26
ATOM     26  C   UNL     1       8.068 -34.086  17.167  1.00  0.00    -0.000 C 
BRANCH  26  27
ATOM     27  C   UNL     1       8.029 -32.563  16.939  1.00  0.00    -0.000 C 
BRANCH  27  28
ATOM     28  C   UNL     1       9.364 -31.997  16.435  1.00  0.00    -0.000 C 
BRANCH  28  29
ATOM     29  C   UNL     1       9.832 -30.833  17.316  1.00  0.00    -0.003 C 
ATOM     30  C   UNL     1       9.433 -31.048  18.772  1.00  0.00     0.004 C 
ENDBRANCH  28  29
ENDBRANCH  27  28
ENDBRANCH  26  27
ENDBRANCH  25  26
ENDBRANCH  24  25
ENDBRANCH  23  24
ENDBRANCH  22  23
ENDBRANCH  21  22
ENDBRANCH  20  21
ENDBRANCH  19  20
ENDBRANCH  18  19
ENDBRANCH  17  18
ENDBRANCH   1  17
TORSDOF 26
ENDMDL
MODEL 8
REMARK VINA RESULT:     2.267      1.325      2.703
REMARK INTER + INTRA:           4.210
REMARK INTER:                   5.869
REMARK INTRA:                  -1.658
REMARK UNBOUND:                -1.502
REMARK SMILES CCCCCCCCCCCCCCCCCCCCCCCCCCCC(=O)[O-]
REMARK SMILES IDX 15 1 16 2 17 3 18 4 19 5 20 6 21 7 22 8 23 9 24 10 25 11
REMARK SMILES IDX 26 12 27 13 28 14 29 15 30 16 14 17 13 18 12 19 11 20 10 21
REMARK SMILES IDX 9 22 8 23 7 24 6 25 5 26 4 27 3 28 2 29 1 30
REMARK H PARENT
REMARK Flexibility Score: inf
ROOT
ATOM      1  C   UNL     1      14.733 -30.008  13.626  1.00  0.00     0.000 C 
ENDROOT
BRANCH   1   2
ATOM      2  C   UNL     1      14.741 -28.864  14.664  1.00  0.00     0.000 C 
BRANCH   2   3
ATOM      3  C   UNL     1      15.763 -27.737  14.401  1.00  0.00     0.000 C 
BRANCH   3   4
ATOM      4  C   UNL     1      15.691 -26.562  15.395  1.00  0.00     0.000 C 
BRANCH   4   5
ATOM      5  C   UNL     1      16.173 -26.908  16.817  1.00  0.00     0.000 C 
BRANCH   5   6
ATOM      6  C   UNL     1      17.612 -26.421  17.072  1.00  0.00     0.000 C 
BRANCH   6   7
ATOM      7  C   UNL     1      17.957 -25.148  16.282  1.00  0.00     0.000 C 
BRANCH   7   8
ATOM      8  C   UNL     1      19.436 -24.750  16.423  1.00  0.00     0.000 C 
BRANCH   8   9
ATOM      9  C   UNL     1      19.768 -23.443  15.685  1.00  0.00     0.000 C 
BRANCH   9  10
ATOM     10  C   UNL     1      18.636 -22.408  15.769  1.00  0.00     0.000 C 
BRANCH  10  11
ATOM     11  C   UNL     1      18.827 -21.298  14.724  1.00  0.00     0.000 C 
BRANCH  11  12
ATOM     12  C   UNL     1      19.841 -20.233  15.172  1.00  0.00     0.006 C 
BRANCH  12  13
ATOM     13  C   UNL     1      19.231 -19.214  16.143  1.00  0.00     0.053 C 
BRANCH  13  14
ATOM     14  C   UNL     1      19.497 -17.818  15.671  1.00  0.00     0.041 C 
ATOM     15  O   UNL     1      19.645 -16.886  16.503  1.00  0.00    -0.550 OA
ATOM     16  O   UNL     1      19.529 -17.540  14.311  1.00  0.00    -0.550 OA
ENDBRANCH  13  14
ENDBRANCH  12  13
ENDBRANCH  11  12
ENDBRANCH  10  11
ENDBRANCH   9  10
ENDBRANCH   8   9
ENDBRANCH   7   8
ENDBRANCH   6   7
ENDBRANCH   5   6
ENDBRANCH   4   5
ENDBRANCH   3   4
ENDBRANCH   2   3
ENDBRANCH   1   2
BRANCH   1  17
ATOM     17  C   UNL     1      13.776 -31.179  13.925  1.00  0.00     0.000 C 
BRANCH  17  18
ATOM     18  C   UNL     1      12.534 -30.757  14.728  1.00  0.00     0.000 C 
BRANCH  18  19
ATOM     19  C   UNL     1      11.305 -31.625  14.413  1.00  0.00     0.000 C 
BRANCH  19  20
ATOM     20  C   UNL     1      11.529 -32.535  13.192  1.00  0.00     0.000 C 
BRANCH  20  21
ATOM     21  C   UNL     1      10.344 -33.478  12.933  1.00  0.00     0.000 C 
BRANCH  21  22
ATOM     22  C   UNL     1       8.989 -32.818  13.235  1.00  0.00    -0.000 C 
BRANCH  22  23
ATOM     23  C   UNL     1       7.808 -33.801  13.132  1.00  0.00    -0.000 C 
BRANCH  23  24
ATOM     24  C   UNL     1       6.729 -33.647  14.219  1.00  0.00    -0.000 C 
BRANCH  24  25
ATOM     25  C   UNL     1       6.995 -34.514  15.461  1.00  0.00    -0.000 C 
BRANCH  25  26
ATOM     26  C   UNL     1       8.293 -34.132  16.199  1.00  0.00    -0.000 C 
BRANCH  26  27
ATOM     27  C   UNL     1       8.386 -32.664  16.654  1.00  0.00    -0.000 C 
BRANCH  27  28
ATOM     28  C   UNL     1       8.540 -32.514  18.174  1.00  0.00    -0.000 C 
BRANCH  28  29
ATOM     29  C   UNL     1       8.982 -31.093  18.542  1.00  0.00    -0.003 C 
ATOM     30  C   UNL     1      10.197 -30.665  17.726  1.00  0.00     0.004 C 
ENDBRANCH  28  29
ENDBRANCH  27  28
ENDBRANCH  26  27
ENDBRANCH  25  26
ENDBRANCH  24  25
ENDBRANCH  23  24
ENDBRANCH  22  23
ENDBRANCH  21  22
ENDBRANCH  20  21
ENDBRANCH  19  20
ENDBRANCH  18  19
ENDBRANCH  17  18
ENDBRANCH   1  17
TORSDOF 26
ENDMDL
MODEL 9
REMARK VINA RESULT:     2.346      5.383      8.940
REMARK INTER + INTRA:           4.410
REMARK INTER:                   6.162
REMARK INTRA:                  -1.752
REMARK UNBOUND:                -1.502
REMARK SMILES CCCCCCCCCCCCCCCCCCCCCCCCCCCC(=O)[O-]
REMARK SMILES IDX 15 1 16 2 17 3 18 4 19 5 20 6 21 7 22 8 23 9 24 10 25 11
REMARK SMILES IDX 26 12 27 13 28 14 29 15 30 16 14 17 13 18 12 19 11 20 10 21
REMARK SMILES IDX 9 22 8 23 7 24 6 25 5 26 4 27 3 28 2 29 1 30
REMARK H PARENT
REMARK Flexibility Score: inf
ROOT
ATOM      1  C   UNL     1       9.129 -30.924  19.659  1.00  0.00     0.000 C 
ENDROOT
BRANCH   1   2
ATOM      2  C   UNL     1       8.904 -30.133  18.351  1.00  0.00     0.000 C 
BRANCH   2   3
ATOM      3  C   UNL     1       9.552 -30.740  17.089  1.00  0.00     0.000 C 
BRANCH   3   4
ATOM      4  C   UNL     1      11.034 -30.370  16.889  1.00  0.00     0.000 C 
BRANCH   4   5
ATOM      5  C   UNL     1      11.696 -31.056  15.676  1.00  0.00     0.000 C 
BRANCH   5   6
ATOM      6  C   UNL     1      10.653 -31.609  14.688  1.00  0.00     0.000 C 
BRANCH   6   7
ATOM      7  C   UNL     1      11.279 -32.085  13.367  1.00  0.00     0.000 C 
BRANCH   7   8
ATOM      8  C   UNL     1      12.578 -32.880  13.584  1.00  0.00     0.000 C 
BRANCH   8   9
ATOM      9  C   UNL     1      13.836 -32.021  13.383  1.00  0.00     0.000 C 
BRANCH   9  10
ATOM     10  C   UNL     1      13.679 -30.598  13.939  1.00  0.00     0.000 C 
BRANCH  10  11
ATOM     11  C   UNL     1      14.941 -29.762  13.673  1.00  0.00     0.000 C 
BRANCH  11  12
ATOM     12  C   UNL     1      14.914 -28.405  14.395  1.00  0.00     0.006 C 
BRANCH  12  13
ATOM     13  C   UNL     1      15.693 -28.429  15.716  1.00  0.00     0.053 C 
BRANCH  13  14
ATOM     14  C   UNL     1      16.065 -27.039  16.129  1.00  0.00     0.041 C 
ATOM     15  O   UNL     1      16.398 -26.800  17.319  1.00  0.00    -0.550 OA
ATOM     16  O   UNL     1      15.993 -26.000  15.212  1.00  0.00    -0.550 OA
ENDBRANCH  13  14
ENDBRANCH  12  13
ENDBRANCH  11  12
ENDBRANCH  10  11
ENDBRANCH   9  10
ENDBRANCH   8   9
ENDBRANCH   7   8
ENDBRANCH   6   7
ENDBRANCH   5   6
ENDBRANCH   4   5
ENDBRANCH   3   4
ENDBRANCH   2   3
ENDBRANCH   1   2
BRANCH   1  17
ATOM     17  C   UNL     1       9.340 -32.443  19.496  1.00  0.00     0.000 C 
BRANCH  17  18
ATOM     18  C   UNL     1       8.092 -33.175  18.976  1.00  0.00     0.000 C 
BRANCH  18  19
ATOM     19  C   UNL     1       8.336 -33.872  17.628  1.00  0.00     0.000 C 
BRANCH  19  20
ATOM     20  C   UNL     1       8.186 -35.401  17.724  1.00  0.00     0.000 C 
BRANCH  20  21
ATOM     21  C   UNL     1       6.784 -35.884  17.323  1.00  0.00     0.000 C 
BRANCH  21  22
ATOM     22  C   UNL     1       6.827 -37.096  16.379  1.00  0.00    -0.000 C 
BRANCH  22  23
ATOM     23  C   UNL     1       5.956 -36.907  15.122  1.00  0.00    -0.000 C 
BRANCH  23  24
ATOM     24  C   UNL     1       5.921 -35.475  14.558  1.00  0.00    -0.000 C 
BRANCH  24  25
ATOM     25  C   UNL     1       6.438 -35.383  13.112  1.00  0.00    -0.000 C 
BRANCH  25  26
ATOM     26  C   UNL     1       7.529 -34.311  12.927  1.00  0.00    -0.000 C 
BRANCH  26  27
ATOM     27  C   UNL     1       8.478 -34.121  14.125  1.00  0.00    -0.000 C 
BRANCH  27  28
ATOM     28  C   UNL     1       9.525 -35.237  14.246  1.00  0.00    -0.000 C 
BRANCH  28  29
ATOM     29  C   UNL     1      10.138 -35.562  12.879  1.00  0.00    -0.003 C 
ATOM     30  C   UNL     1      11.514 -36.202  13.030  1.00  0.00     0.004 C 
ENDBRANCH  28  29
ENDBRANCH  27  28
ENDBRANCH  26  27
ENDBRANCH  25  26
ENDBRANCH  24  25
ENDBRANCH  23  24
ENDBRANCH  22  23
ENDBRANCH  21  22
ENDBRANCH  20  21
ENDBRANCH  19  20
ENDBRANCH  18  19
ENDBRANCH  17  18
ENDBRANCH   1  17
TORSDOF 26
ENDMDL
