MODEL 1
REMARK VINA RESULT:    -6.742      0.000      0.000
REMARK INTER + INTRA:          -8.411
REMARK INTER:                  -8.122
REMARK INTRA:                  -0.290
REMARK UNBOUND:                -0.290
REMARK SMILES O=c1c(O)c(-c2ccc(O)c(O)c2)oc2cc(O)cc(O)c12
REMARK SMILES IDX 5 1 3 2 2 3 1 4 22 5 20 6 19 7 17 8 16 9 15 10 14 11 6 12
REMARK SMILES IDX 7 13 8 14 9 15 13 16 11 17 10 18 12 20 4 22 21 24 18 26
REMARK H PARENT 10 19 12 21 4 23 21 25 18 27
REMARK Flexibility Score: inf
ROOT
ATOM      1  C   UNL     1      14.832 -22.248  21.424  1.00  0.00     0.180 A 
ATOM      2  C   UNL     1      15.538 -21.236  22.097  1.00  0.00     0.208 A 
ATOM      3  C   UNL     1      15.417 -19.909  21.652  1.00  0.00     0.238 A 
ATOM      4  O   UNL     1      16.093 -19.016  22.224  1.00  0.00    -0.285 OA
ATOM      5  C   UNL     1      14.578 -19.610  20.552  1.00  0.00     0.111 A 
ATOM      6  C   UNL     1      14.349 -18.297  20.042  1.00  0.00     0.134 A 
ATOM      7  C   UNL     1      13.602 -18.132  18.869  1.00  0.00     0.093 A 
ATOM      8  C   UNL     1      13.023 -19.228  18.223  1.00  0.00     0.123 A 
ATOM      9  C   UNL     1      13.192 -20.507  18.747  1.00  0.00     0.094 A 
ATOM     10  C   UNL     1      13.962 -20.707  19.896  1.00  0.00     0.146 A 
ATOM     11  O   UNL     1      14.105 -21.944  20.355  1.00  0.00    -0.452 OA
ENDROOT
BRANCH   1  12
ATOM     12  C   UNL     1      14.890 -23.666  21.849  1.00  0.00     0.025 A 
ATOM     13  C   UNL     1      15.984 -24.457  21.466  1.00  0.00     0.016 A 
ATOM     14  C   UNL     1      16.050 -25.802  21.840  1.00  0.00     0.051 A 
ATOM     15  C   UNL     1      15.019 -26.380  22.586  1.00  0.00     0.157 A 
ATOM     16  C   UNL     1      13.845 -24.253  22.583  1.00  0.00     0.062 A 
ATOM     17  C   UNL     1      13.907 -25.605  22.957  1.00  0.00     0.158 A 
BRANCH  15  18
ATOM     18  O   UNL     1      15.112 -27.724  22.945  1.00  0.00    -0.504 OA
ATOM     19  H   UNL     1      14.428 -28.170  23.544  1.00  0.00     0.293 HD
ENDBRANCH  15  18
BRANCH  17  20
ATOM     20  O   UNL     1      12.869 -26.178  23.689  1.00  0.00    -0.504 OA
ATOM     21  H   UNL     1      13.008 -27.018  24.238  1.00  0.00     0.293 HD
ENDBRANCH  17  20
ENDBRANCH   1  12
BRANCH   2  22
ATOM     22  O   UNL     1      16.379 -21.557  23.167  1.00  0.00    -0.502 OA
ATOM     23  H   UNL     1      17.351 -21.810  23.039  1.00  0.00     0.293 HD
ENDBRANCH   2  22
BRANCH   6  24
ATOM     24  O   UNL     1      14.803 -17.128  20.662  1.00  0.00    -0.507 OA
ATOM     25  H   UNL     1      15.191 -17.084  21.591  1.00  0.00     0.293 HD
ENDBRANCH   6  24
BRANCH   8  26
ATOM     26  O   UNL     1      12.270 -19.053  17.064  1.00  0.00    -0.508 OA
ATOM     27  H   UNL     1      12.021 -19.836  16.470  1.00  0.00     0.293 HD
ENDBRANCH   8  26
TORSDOF 6
ENDMDL
MODEL 2
REMARK VINA RESULT:    -6.677      2.673      3.694
REMARK INTER + INTRA:          -8.333
REMARK INTER:                  -8.012
REMARK INTRA:                  -0.321
REMARK UNBOUND:                -0.290
REMARK SMILES O=c1c(O)c(-c2ccc(O)c(O)c2)oc2cc(O)cc(O)c12
REMARK SMILES IDX 5 1 3 2 2 3 1 4 22 5 20 6 19 7 17 8 16 9 15 10 14 11 6 12
REMARK SMILES IDX 7 13 8 14 9 15 13 16 11 17 10 18 12 20 4 22 21 24 18 26
REMARK H PARENT 10 19 12 21 4 23 21 25 18 27
REMARK Flexibility Score: inf
ROOT
ATOM      1  C   UNL     1      15.201 -22.847  22.166  1.00  0.00     0.180 A 
ATOM      2  C   UNL     1      14.849 -23.856  21.254  1.00  0.00     0.208 A 
ATOM      3  C   UNL     1      14.272 -23.494  20.026  1.00  0.00     0.238 A 
ATOM      4  O   UNL     1      13.909 -24.404  19.237  1.00  0.00    -0.285 OA
ATOM      5  C   UNL     1      14.071 -22.126  19.719  1.00  0.00     0.111 A 
ATOM      6  C   UNL     1      13.533 -21.643  18.489  1.00  0.00     0.134 A 
ATOM      7  C   UNL     1      13.257 -20.278  18.345  1.00  0.00     0.093 A 
ATOM      8  C   UNL     1      13.561 -19.370  19.363  1.00  0.00     0.123 A 
ATOM      9  C   UNL     1      14.141 -19.824  20.544  1.00  0.00     0.094 A 
ATOM     10  C   UNL     1      14.395 -21.186  20.732  1.00  0.00     0.146 A 
ATOM     11  O   UNL     1      14.940 -21.577  21.877  1.00  0.00    -0.452 OA
ENDROOT
BRANCH   1  12
ATOM     12  C   UNL     1      15.836 -23.149  23.470  1.00  0.00     0.025 A 
ATOM     13  C   UNL     1      17.236 -23.210  23.559  1.00  0.00     0.016 A 
ATOM     14  C   UNL     1      17.855 -23.513  24.774  1.00  0.00     0.051 A 
ATOM     15  C   UNL     1      17.089 -23.776  25.912  1.00  0.00     0.157 A 
ATOM     16  C   UNL     1      15.066 -23.433  24.611  1.00  0.00     0.062 A 
ATOM     17  C   UNL     1      15.686 -23.741  25.832  1.00  0.00     0.158 A 
BRANCH  15  18
ATOM     18  O   UNL     1      17.735 -24.075  27.112  1.00  0.00    -0.504 OA
ATOM     19  H   UNL     1      17.644 -23.489  27.932  1.00  0.00     0.293 HD
ENDBRANCH  15  18
BRANCH  17  20
ATOM     20  O   UNL     1      14.915 -24.016  26.960  1.00  0.00    -0.504 OA
ATOM     21  H   UNL     1      13.952 -23.711  27.031  1.00  0.00     0.293 HD
ENDBRANCH  17  20
ENDBRANCH   1  12
BRANCH   2  22
ATOM     22  O   UNL     1      15.036 -25.201  21.586  1.00  0.00    -0.502 OA
ATOM     23  H   UNL     1      15.917 -25.680  21.444  1.00  0.00     0.293 HD
ENDBRANCH   2  22
BRANCH   6  24
ATOM     24  O   UNL     1      13.280 -22.451  17.376  1.00  0.00    -0.507 OA
ATOM     25  H   UNL     1      12.939 -22.117  16.488  1.00  0.00     0.293 HD
ENDBRANCH   6  24
BRANCH   8  26
ATOM     26  O   UNL     1      13.296 -18.011  19.206  1.00  0.00    -0.508 OA
ATOM     27  H   UNL     1      13.992 -17.375  18.832  1.00  0.00     0.293 HD
ENDBRANCH   8  26
TORSDOF 6
ENDMDL
MODEL 3
REMARK VINA RESULT:    -6.614      2.373      6.983
REMARK INTER + INTRA:          -8.257
REMARK INTER:                  -7.938
REMARK INTRA:                  -0.319
REMARK UNBOUND:                -0.290
REMARK SMILES O=c1c(O)c(-c2ccc(O)c(O)c2)oc2cc(O)cc(O)c12
REMARK SMILES IDX 5 1 3 2 2 3 1 4 22 5 20 6 19 7 17 8 16 9 15 10 14 11 6 12
REMARK SMILES IDX 7 13 8 14 9 15 13 16 11 17 10 18 12 20 4 22 21 24 18 26
REMARK H PARENT 10 19 12 21 4 23 21 25 18 27
REMARK Flexibility Score: inf
ROOT
ATOM      1  C   UNL     1      14.628 -23.315  21.553  1.00  0.00     0.180 A 
ATOM      2  C   UNL     1      14.971 -24.654  21.296  1.00  0.00     0.208 A 
ATOM      3  C   UNL     1      15.439 -25.453  22.352  1.00  0.00     0.238 A 
ATOM      4  O   UNL     1      15.795 -26.634  22.105  1.00  0.00    -0.285 OA
ATOM      5  C   UNL     1      15.541 -24.907  23.655  1.00  0.00     0.111 A 
ATOM      6  C   UNL     1      15.964 -25.636  24.807  1.00  0.00     0.134 A 
ATOM      7  C   UNL     1      16.152 -24.962  26.020  1.00  0.00     0.093 A 
ATOM      8  C   UNL     1      15.871 -23.598  26.137  1.00  0.00     0.123 A 
ATOM      9  C   UNL     1      15.401 -22.891  25.033  1.00  0.00     0.094 A 
ATOM     10  C   UNL     1      15.238 -23.528  23.800  1.00  0.00     0.146 A 
ATOM     11  O   UNL     1      14.797 -22.815  22.771  1.00  0.00    -0.452 OA
ENDROOT
BRANCH   1  12
ATOM     12  C   UNL     1      14.104 -22.419  20.497  1.00  0.00     0.025 A 
ATOM     13  C   UNL     1      14.964 -21.489  19.891  1.00  0.00     0.016 A 
ATOM     14  C   UNL     1      14.486 -20.621  18.906  1.00  0.00     0.051 A 
ATOM     15  C   UNL     1      13.142 -20.656  18.523  1.00  0.00     0.157 A 
ATOM     16  C   UNL     1      12.748 -22.440  20.125  1.00  0.00     0.062 A 
ATOM     17  C   UNL     1      12.265 -21.566  19.138  1.00  0.00     0.158 A 
BRANCH  15  18
ATOM     18  O   UNL     1      12.694 -19.779  17.537  1.00  0.00    -0.504 OA
ATOM     19  H   UNL     1      13.247 -18.989  17.227  1.00  0.00     0.293 HD
ENDBRANCH  15  18
BRANCH  17  20
ATOM     20  O   UNL     1      10.921 -21.597  18.772  1.00  0.00    -0.504 OA
ATOM     21  H   UNL     1      10.194 -21.826  19.440  1.00  0.00     0.293 HD
ENDBRANCH  17  20
ENDBRANCH   1  12
BRANCH   2  22
ATOM     22  O   UNL     1      14.883 -25.166  19.998  1.00  0.00    -0.502 OA
ATOM     23  H   UNL     1      15.681 -25.559  19.513  1.00  0.00     0.293 HD
ENDBRANCH   2  22
BRANCH   6  24
ATOM     24  O   UNL     1      16.183 -27.017  24.820  1.00  0.00    -0.507 OA
ATOM     25  H   UNL     1      17.084 -27.457  24.719  1.00  0.00     0.293 HD
ENDBRANCH   6  24
BRANCH   8  26
ATOM     26  O   UNL     1      16.047 -22.938  27.352  1.00  0.00    -0.508 OA
ATOM     27  H   UNL     1      16.059 -21.927  27.409  1.00  0.00     0.293 HD
ENDBRANCH   8  26
TORSDOF 6
ENDMDL
MODEL 4
REMARK VINA RESULT:    -6.394      1.177      2.861
REMARK INTER + INTRA:          -7.993
REMARK INTER:                  -7.702
REMARK INTRA:                  -0.291
REMARK UNBOUND:                -0.290
REMARK SMILES O=c1c(O)c(-c2ccc(O)c(O)c2)oc2cc(O)cc(O)c12
REMARK SMILES IDX 5 1 3 2 2 3 1 4 22 5 20 6 19 7 17 8 16 9 15 10 14 11 6 12
REMARK SMILES IDX 7 13 8 14 9 15 13 16 11 17 10 18 12 20 4 22 21 24 18 26
REMARK H PARENT 10 19 12 21 4 23 21 25 18 27
REMARK Flexibility Score: inf
ROOT
ATOM      1  C   UNL     1      14.431 -22.567  20.863  1.00  0.00     0.180 A 
ATOM      2  C   UNL     1      13.591 -22.366  19.754  1.00  0.00     0.208 A 
ATOM      3  C   UNL     1      13.491 -21.080  19.198  1.00  0.00     0.238 A 
ATOM      4  O   UNL     1      12.696 -20.896  18.241  1.00  0.00    -0.285 OA
ATOM      5  C   UNL     1      14.247 -20.016  19.747  1.00  0.00     0.111 A 
ATOM      6  C   UNL     1      14.254 -18.683  19.239  1.00  0.00     0.134 A 
ATOM      7  C   UNL     1      14.937 -17.681  19.940  1.00  0.00     0.093 A 
ATOM      8  C   UNL     1      15.666 -17.978  21.095  1.00  0.00     0.123 A 
ATOM      9  C   UNL     1      15.713 -19.288  21.565  1.00  0.00     0.094 A 
ATOM     10  C   UNL     1      15.012 -20.303  20.908  1.00  0.00     0.146 A 
ATOM     11  O   UNL     1      15.076 -21.536  21.395  1.00  0.00    -0.452 OA
ENDROOT
BRANCH   1  12
ATOM     12  C   UNL     1      14.607 -23.898  21.488  1.00  0.00     0.025 A 
ATOM     13  C   UNL     1      15.725 -24.678  21.150  1.00  0.00     0.016 A 
ATOM     14  C   UNL     1      15.900 -25.945  21.712  1.00  0.00     0.051 A 
ATOM     15  C   UNL     1      14.956 -26.459  22.605  1.00  0.00     0.157 A 
ATOM     16  C   UNL     1      13.648 -24.425  22.371  1.00  0.00     0.062 A 
ATOM     17  C   UNL     1      13.821 -25.699  22.934  1.00  0.00     0.158 A 
BRANCH  15  18
ATOM     18  O   UNL     1      15.158 -27.726  23.152  1.00  0.00    -0.504 OA
ATOM     19  H   UNL     1      14.738 -28.557  22.754  1.00  0.00     0.293 HD
ENDBRANCH  15  18
BRANCH  17  20
ATOM     20  O   UNL     1      12.868 -26.211  23.813  1.00  0.00    -0.504 OA
ATOM     21  H   UNL     1      12.402 -25.622  24.493  1.00  0.00     0.293 HD
ENDBRANCH  17  20
ENDBRANCH   1  12
BRANCH   2  22
ATOM     22  O   UNL     1      12.837 -23.426  19.242  1.00  0.00    -0.502 OA
ATOM     23  H   UNL     1      11.879 -23.314  18.933  1.00  0.00     0.293 HD
ENDBRANCH   2  22
BRANCH   6  24
ATOM     24  O   UNL     1      13.636 -18.298  18.045  1.00  0.00    -0.507 OA
ATOM     25  H   UNL     1      14.109 -18.191  17.162  1.00  0.00     0.293 HD
ENDBRANCH   6  24
BRANCH   8  26
ATOM     26  O   UNL     1      16.355 -16.978  21.778  1.00  0.00    -0.508 OA
ATOM     27  H   UNL     1      15.927 -16.465  22.540  1.00  0.00     0.293 HD
ENDBRANCH   8  26
TORSDOF 6
ENDMDL
MODEL 5
REMARK VINA RESULT:    -6.338      2.806      3.370
REMARK INTER + INTRA:          -7.925
REMARK INTER:                  -7.741
REMARK INTRA:                  -0.184
REMARK UNBOUND:                -0.290
REMARK SMILES O=c1c(O)c(-c2ccc(O)c(O)c2)oc2cc(O)cc(O)c12
REMARK SMILES IDX 5 1 3 2 2 3 1 4 22 5 20 6 19 7 17 8 16 9 15 10 14 11 6 12
REMARK SMILES IDX 7 13 8 14 9 15 13 16 11 17 10 18 12 20 4 22 21 24 18 26
REMARK H PARENT 10 19 12 21 4 23 21 25 18 27
REMARK Flexibility Score: inf
ROOT
ATOM      1  C   UNL     1      15.253 -22.751  22.531  1.00  0.00     0.180 A 
ATOM      2  C   UNL     1      15.430 -21.384  22.252  1.00  0.00     0.208 A 
ATOM      3  C   UNL     1      14.855 -20.847  21.089  1.00  0.00     0.238 A 
ATOM      4  O   UNL     1      15.063 -19.636  20.816  1.00  0.00    -0.285 OA
ATOM      5  C   UNL     1      14.097 -21.678  20.229  1.00  0.00     0.111 A 
ATOM      6  C   UNL     1      13.437 -21.231  19.045  1.00  0.00     0.134 A 
ATOM      7  C   UNL     1      12.824 -22.165  18.202  1.00  0.00     0.093 A 
ATOM      8  C   UNL     1      12.793 -23.523  18.532  1.00  0.00     0.123 A 
ATOM      9  C   UNL     1      13.383 -23.960  19.715  1.00  0.00     0.094 A 
ATOM     10  C   UNL     1      14.034 -23.057  20.559  1.00  0.00     0.146 A 
ATOM     11  O   UNL     1      14.592 -23.517  21.672  1.00  0.00    -0.452 OA
ENDROOT
BRANCH   1  12
ATOM     12  C   UNL     1      15.806 -23.384  23.750  1.00  0.00     0.025 A 
ATOM     13  C   UNL     1      16.741 -24.424  23.624  1.00  0.00     0.016 A 
ATOM     14  C   UNL     1      17.261 -25.049  24.761  1.00  0.00     0.051 A 
ATOM     15  C   UNL     1      16.846 -24.657  26.036  1.00  0.00     0.157 A 
ATOM     16  C   UNL     1      15.374 -23.004  25.033  1.00  0.00     0.062 A 
ATOM     17  C   UNL     1      15.894 -23.633  26.176  1.00  0.00     0.158 A 
BRANCH  15  18
ATOM     18  O   UNL     1      17.383 -25.298  27.152  1.00  0.00    -0.504 OA
ATOM     19  H   UNL     1      17.567 -24.807  28.019  1.00  0.00     0.293 HD
ENDBRANCH  15  18
BRANCH  17  20
ATOM     20  O   UNL     1      15.464 -23.246  27.444  1.00  0.00    -0.504 OA
ATOM     21  H   UNL     1      15.876 -22.456  27.926  1.00  0.00     0.293 HD
ENDBRANCH  17  20
ENDBRANCH   1  12
BRANCH   2  22
ATOM     22  O   UNL     1      16.201 -20.587  23.103  1.00  0.00    -0.502 OA
ATOM     23  H   UNL     1      15.795 -19.868  23.691  1.00  0.00     0.293 HD
ENDBRANCH   2  22
BRANCH   6  24
ATOM     24  O   UNL     1      13.330 -19.888  18.671  1.00  0.00    -0.507 OA
ATOM     25  H   UNL     1      12.460 -19.392  18.552  1.00  0.00     0.293 HD
ENDBRANCH   6  24
BRANCH   8  26
ATOM     26  O   UNL     1      12.168 -24.444  17.694  1.00  0.00    -0.508 OA
ATOM     27  H   UNL     1      12.201 -25.439  17.881  1.00  0.00     0.293 HD
ENDBRANCH   8  26
TORSDOF 6
ENDMDL
MODEL 6
REMARK VINA RESULT:    -6.333      2.496      7.046
REMARK INTER + INTRA:          -7.918
REMARK INTER:                  -7.699
REMARK INTRA:                  -0.219
REMARK UNBOUND:                -0.290
REMARK SMILES O=c1c(O)c(-c2ccc(O)c(O)c2)oc2cc(O)cc(O)c12
REMARK SMILES IDX 5 1 3 2 2 3 1 4 22 5 20 6 19 7 17 8 16 9 15 10 14 11 6 12
REMARK SMILES IDX 7 13 8 14 9 15 13 16 11 17 10 18 12 20 4 22 21 24 18 26
REMARK H PARENT 10 19 12 21 4 23 21 25 18 27
REMARK Flexibility Score: inf
ROOT
ATOM      1  C   UNL     1      14.555 -18.922  20.589  1.00  0.00     0.180 A 
ATOM      2  C   UNL     1      13.641 -18.874  19.522  1.00  0.00     0.208 A 
ATOM      3  C   UNL     1      13.157 -20.078  18.984  1.00  0.00     0.238 A 
ATOM      4  O   UNL     1      12.382 -20.029  17.994  1.00  0.00    -0.285 OA
ATOM      5  C   UNL     1      13.578 -21.313  19.532  1.00  0.00     0.111 A 
ATOM      6  C   UNL     1      13.121 -22.592  19.093  1.00  0.00     0.134 A 
ATOM      7  C   UNL     1      13.703 -23.751  19.620  1.00  0.00     0.093 A 
ATOM      8  C   UNL     1      14.681 -23.678  20.616  1.00  0.00     0.123 A 
ATOM      9  C   UNL     1      15.091 -22.436  21.092  1.00  0.00     0.094 A 
ATOM     10  C   UNL     1      14.555 -21.260  20.561  1.00  0.00     0.146 A 
ATOM     11  O   UNL     1      14.981 -20.097  21.038  1.00  0.00    -0.452 OA
ENDROOT
BRANCH   1  12
ATOM     12  C   UNL     1      15.090 -17.696  21.224  1.00  0.00     0.025 A 
ATOM     13  C   UNL     1      16.463 -17.415  21.134  1.00  0.00     0.016 A 
ATOM     14  C   UNL     1      16.992 -16.274  21.743  1.00  0.00     0.051 A 
ATOM     15  C   UNL     1      16.165 -15.407  22.462  1.00  0.00     0.157 A 
ATOM     16  C   UNL     1      14.262 -16.834  21.965  1.00  0.00     0.062 A 
ATOM     17  C   UNL     1      14.793 -15.689  22.579  1.00  0.00     0.158 A 
BRANCH  15  18
ATOM     18  O   UNL     1      16.721 -14.275  23.057  1.00  0.00    -0.504 OA
ATOM     19  H   UNL     1      17.443 -13.728  22.604  1.00  0.00     0.293 HD
ENDBRANCH  15  18
BRANCH  17  20
ATOM     20  O   UNL     1      13.965 -14.837  23.306  1.00  0.00    -0.504 OA
ATOM     21  H   UNL     1      12.974 -15.022  23.412  1.00  0.00     0.293 HD
ENDBRANCH  17  20
ENDBRANCH   1  12
BRANCH   2  22
ATOM     22  O   UNL     1      13.255 -17.644  18.981  1.00  0.00    -0.502 OA
ATOM     23  H   UNL     1      13.904 -16.876  18.858  1.00  0.00     0.293 HD
ENDBRANCH   2  22
BRANCH   6  24
ATOM     24  O   UNL     1      12.086 -22.777  18.172  1.00  0.00    -0.507 OA
ATOM     25  H   UNL     1      11.129 -22.979  18.415  1.00  0.00     0.293 HD
ENDBRANCH   6  24
BRANCH   8  26
ATOM     26  O   UNL     1      15.245 -24.838  21.144  1.00  0.00    -0.508 OA
ATOM     27  H   UNL     1      16.233 -24.897  21.360  1.00  0.00     0.293 HD
ENDBRANCH   8  26
TORSDOF 6
ENDMDL
MODEL 7
REMARK VINA RESULT:    -6.330      1.935      6.951
REMARK INTER + INTRA:          -7.916
REMARK INTER:                  -7.760
REMARK INTRA:                  -0.155
REMARK UNBOUND:                -0.290
REMARK SMILES O=c1c(O)c(-c2ccc(O)c(O)c2)oc2cc(O)cc(O)c12
REMARK SMILES IDX 5 1 3 2 2 3 1 4 22 5 20 6 19 7 17 8 16 9 15 10 14 11 6 12
REMARK SMILES IDX 7 13 8 14 9 15 13 16 11 17 10 18 12 20 4 22 21 24 18 26
REMARK H PARENT 10 19 12 21 4 23 21 25 18 27
REMARK Flexibility Score: inf
ROOT
ATOM      1  C   UNL     1      14.153 -21.683  20.711  1.00  0.00     0.180 A 
ATOM      2  C   UNL     1      13.877 -23.046  20.506  1.00  0.00     0.208 A 
ATOM      3  C   UNL     1      14.219 -23.968  21.509  1.00  0.00     0.238 A 
ATOM      4  O   UNL     1      14.019 -25.192  21.297  1.00  0.00    -0.285 OA
ATOM      5  C   UNL     1      14.815 -23.514  22.710  1.00  0.00     0.111 A 
ATOM      6  C   UNL     1      15.165 -24.355  23.808  1.00  0.00     0.134 A 
ATOM      7  C   UNL     1      15.869 -23.817  24.893  1.00  0.00     0.093 A 
ATOM      8  C   UNL     1      16.179 -22.455  24.946  1.00  0.00     0.123 A 
ATOM      9  C   UNL     1      15.789 -21.616  23.906  1.00  0.00     0.094 A 
ATOM     10  C   UNL     1      15.117 -22.130  22.794  1.00  0.00     0.146 A 
ATOM     11  O   UNL     1      14.773 -21.296  21.820  1.00  0.00    -0.452 OA
ENDROOT
BRANCH   1  12
ATOM     12  C   UNL     1      13.800 -20.649  19.711  1.00  0.00     0.025 A 
ATOM     13  C   UNL     1      14.810 -19.836  19.172  1.00  0.00     0.016 A 
ATOM     14  C   UNL     1      14.496 -18.841  18.243  1.00  0.00     0.051 A 
ATOM     15  C   UNL     1      13.171 -18.632  17.850  1.00  0.00     0.157 A 
ATOM     16  C   UNL     1      12.465 -20.424  19.331  1.00  0.00     0.062 A 
ATOM     17  C   UNL     1      12.148 -19.423  18.399  1.00  0.00     0.158 A 
BRANCH  15  18
ATOM     18  O   UNL     1      12.889 -17.632  16.920  1.00  0.00    -0.504 OA
ATOM     19  H   UNL     1      12.626 -16.695  17.199  1.00  0.00     0.293 HD
ENDBRANCH  15  18
BRANCH  17  20
ATOM     20  O   UNL     1      10.823 -19.211  18.023  1.00  0.00    -0.504 OA
ATOM     21  H   UNL     1      10.096 -19.883  18.238  1.00  0.00     0.293 HD
ENDBRANCH  17  20
ENDBRANCH   1  12
BRANCH   2  22
ATOM     22  O   UNL     1      13.308 -23.475  19.304  1.00  0.00    -0.502 OA
ATOM     23  H   UNL     1      13.414 -22.962  18.437  1.00  0.00     0.293 HD
ENDBRANCH   2  22
BRANCH   6  24
ATOM     24  O   UNL     1      14.822 -25.708  23.897  1.00  0.00    -0.507 OA
ATOM     25  H   UNL     1      15.330 -26.459  23.455  1.00  0.00     0.293 HD
ENDBRANCH   6  24
BRANCH   8  26
ATOM     26  O   UNL     1      16.867 -21.925  26.036  1.00  0.00    -0.508 OA
ATOM     27  H   UNL     1      16.491 -21.976  26.976  1.00  0.00     0.293 HD
ENDBRANCH   8  26
TORSDOF 6
ENDMDL
MODEL 8
REMARK VINA RESULT:    -6.307      3.801      6.396
REMARK INTER + INTRA:          -7.888
REMARK INTER:                  -7.605
REMARK INTRA:                  -0.282
REMARK UNBOUND:                -0.290
REMARK SMILES O=c1c(O)c(-c2ccc(O)c(O)c2)oc2cc(O)cc(O)c12
REMARK SMILES IDX 5 1 3 2 2 3 1 4 22 5 20 6 19 7 17 8 16 9 15 10 14 11 6 12
REMARK SMILES IDX 7 13 8 14 9 15 13 16 11 17 10 18 12 20 4 22 21 24 18 26
REMARK H PARENT 10 19 12 21 4 23 21 25 18 27
REMARK Flexibility Score: inf
ROOT
ATOM      1  C   UNL     1      15.063 -17.563  21.105  1.00  0.00     0.180 A 
ATOM      2  C   UNL     1      16.429 -17.237  21.045  1.00  0.00     0.208 A 
ATOM      3  C   UNL     1      16.926 -16.229  21.887  1.00  0.00     0.238 A 
ATOM      4  O   UNL     1      18.138 -15.904  21.791  1.00  0.00    -0.285 OA
ATOM      5  C   UNL     1      16.055 -15.573  22.790  1.00  0.00     0.111 A 
ATOM      6  C   UNL     1      16.458 -14.565  23.716  1.00  0.00     0.134 A 
ATOM      7  C   UNL     1      15.488 -13.892  24.470  1.00  0.00     0.093 A 
ATOM      8  C   UNL     1      14.136 -14.236  24.376  1.00  0.00     0.123 A 
ATOM      9  C   UNL     1      13.740 -15.258  23.518  1.00  0.00     0.094 A 
ATOM     10  C   UNL     1      14.681 -15.923  22.727  1.00  0.00     0.146 A 
ATOM     11  O   UNL     1      14.259 -16.885  21.915  1.00  0.00    -0.452 OA
ENDROOT
BRANCH   1  12
ATOM     12  C   UNL     1      14.471 -18.632  20.267  1.00  0.00     0.025 A 
ATOM     13  C   UNL     1      14.677 -19.976  20.614  1.00  0.00     0.016 A 
ATOM     14  C   UNL     1      14.144 -21.000  19.827  1.00  0.00     0.051 A 
ATOM     15  C   UNL     1      13.413 -20.699  18.674  1.00  0.00     0.157 A 
ATOM     16  C   UNL     1      13.753 -18.330  19.096  1.00  0.00     0.062 A 
ATOM     17  C   UNL     1      13.219 -19.358  18.302  1.00  0.00     0.158 A 
BRANCH  15  18
ATOM     18  O   UNL     1      12.893 -21.741  17.909  1.00  0.00    -0.504 OA
ATOM     19  H   UNL     1      12.737 -21.652  16.912  1.00  0.00     0.293 HD
ENDBRANCH  15  18
BRANCH  17  20
ATOM     20  O   UNL     1      12.504 -19.050  17.147  1.00  0.00    -0.504 OA
ATOM     21  H   UNL     1      12.867 -19.264  16.225  1.00  0.00     0.293 HD
ENDBRANCH  17  20
ENDBRANCH   1  12
BRANCH   2  22
ATOM     22  O   UNL     1      17.267 -17.882  20.131  1.00  0.00    -0.502 OA
ATOM     23  H   UNL     1      16.966 -18.127  19.195  1.00  0.00     0.293 HD
ENDBRANCH   2  22
BRANCH   6  24
ATOM     24  O   UNL     1      17.789 -14.211  23.954  1.00  0.00    -0.507 OA
ATOM     25  H   UNL     1      18.215 -13.346  23.659  1.00  0.00     0.293 HD
ENDBRANCH   6  24
BRANCH   8  26
ATOM     26  O   UNL     1      13.180 -13.571  25.141  1.00  0.00    -0.508 OA
ATOM     27  H   UNL     1      12.785 -12.686  24.844  1.00  0.00     0.293 HD
ENDBRANCH   8  26
TORSDOF 6
ENDMDL
MODEL 9
REMARK VINA RESULT:    -6.241      2.369      6.767
REMARK INTER + INTRA:          -7.808
REMARK INTER:                  -7.516
REMARK INTRA:                  -0.293
REMARK UNBOUND:                -0.290
REMARK SMILES O=c1c(O)c(-c2ccc(O)c(O)c2)oc2cc(O)cc(O)c12
REMARK SMILES IDX 5 1 3 2 2 3 1 4 22 5 20 6 19 7 17 8 16 9 15 10 14 11 6 12
REMARK SMILES IDX 7 13 8 14 9 15 13 16 11 17 10 18 12 20 4 22 21 24 18 26
REMARK H PARENT 10 19 12 21 4 23 21 25 18 27
REMARK Flexibility Score: inf
ROOT
ATOM      1  C   UNL     1      15.096 -21.795  21.153  1.00  0.00     0.180 A 
ATOM      2  C   UNL     1      16.388 -22.115  20.704  1.00  0.00     0.208 A 
ATOM      3  C   UNL     1      17.245 -22.836  21.552  1.00  0.00     0.238 A 
ATOM      4  O   UNL     1      18.419 -23.072  21.166  1.00  0.00    -0.285 OA
ATOM      5  C   UNL     1      16.792 -23.241  22.831  1.00  0.00     0.111 A 
ATOM      6  C   UNL     1      17.561 -24.009  23.756  1.00  0.00     0.134 A 
ATOM      7  C   UNL     1      17.061 -24.241  25.044  1.00  0.00     0.093 A 
ATOM      8  C   UNL     1      15.792 -23.788  25.417  1.00  0.00     0.123 A 
ATOM      9  C   UNL     1      15.011 -23.088  24.501  1.00  0.00     0.094 A 
ATOM     10  C   UNL     1      15.497 -22.810  23.221  1.00  0.00     0.146 A 
ATOM     11  O   UNL     1      14.723 -22.132  22.382  1.00  0.00    -0.452 OA
ENDROOT
BRANCH   1  12
ATOM     12  C   UNL     1      14.127 -21.060  20.307  1.00  0.00     0.025 A 
ATOM     13  C   UNL     1      13.152 -21.775  19.593  1.00  0.00     0.016 A 
ATOM     14  C   UNL     1      12.242 -21.103  18.773  1.00  0.00     0.051 A 
ATOM     15  C   UNL     1      12.300 -19.713  18.641  1.00  0.00     0.157 A 
ATOM     16  C   UNL     1      14.197 -19.663  20.158  1.00  0.00     0.062 A 
ATOM     17  C   UNL     1      13.285 -18.987  19.332  1.00  0.00     0.158 A 
BRANCH  15  18
ATOM     18  O   UNL     1      11.377 -19.070  17.817  1.00  0.00    -0.504 OA
ATOM     19  H   UNL     1      11.498 -19.015  16.813  1.00  0.00     0.293 HD
ENDBRANCH  15  18
BRANCH  17  20
ATOM     20  O   UNL     1      13.358 -17.603  19.195  1.00  0.00    -0.504 OA
ATOM     21  H   UNL     1      12.566 -17.006  19.403  1.00  0.00     0.293 HD
ENDBRANCH  17  20
ENDBRANCH   1  12
BRANCH   2  22
ATOM     22  O   UNL     1      16.823 -21.686  19.447  1.00  0.00    -0.502 OA
ATOM     23  H   UNL     1      16.224 -21.703  18.629  1.00  0.00     0.293 HD
ENDBRANCH   2  22
BRANCH   6  24
ATOM     24  O   UNL     1      18.798 -24.586  23.454  1.00  0.00    -0.507 OA
ATOM     25  H   UNL     1      19.618 -24.528  24.038  1.00  0.00     0.293 HD
ENDBRANCH   6  24
BRANCH   8  26
ATOM     26  O   UNL     1      15.297 -24.037  26.695  1.00  0.00    -0.508 OA
ATOM     27  H   UNL     1      14.390 -24.466  26.839  1.00  0.00     0.293 HD
ENDBRANCH   8  26
TORSDOF 6
ENDMDL
