MODEL 1
REMARK VINA RESULT:    -6.982      0.000      0.000
REMARK INTER + INTRA:          -7.390
REMARK INTER:                  -7.390
REMARK INTRA:                   0.000
REMARK UNBOUND:                 0.000
REMARK SMILES O=c1ccc2cc(O)c(O)cc2o1
REMARK SMILES IDX 4 1 3 2 2 3 1 4 13 5 12 6 11 7 9 8 7 9 6 10 5 11 8 12 10 14
REMARK H PARENT 8 13 10 15
REMARK Flexibility Score: inf
ROOT
ATOM      1  C   UNL     1      14.353  -3.534 -13.384  1.00  0.00     0.019 A 
ATOM      2  C   UNL     1      14.968  -4.119 -14.492  1.00  0.00     0.094 A 
ATOM      3  C   UNL     1      14.431  -5.297 -15.021  1.00  0.00     0.336 A 
ATOM      4  O   UNL     1      14.971  -5.840 -16.020  1.00  0.00    -0.246 OA
ATOM      5  O   UNL     1      13.350  -5.850 -14.476  1.00  0.00    -0.423 OA
ATOM      6  C   UNL     1      12.734  -5.324 -13.419  1.00  0.00     0.142 A 
ATOM      7  C   UNL     1      11.602  -5.950 -12.888  1.00  0.00     0.098 A 
ATOM      8  C   UNL     1      10.948  -5.401 -11.775  1.00  0.00     0.161 A 
ATOM      9  C   UNL     1      11.432  -4.216 -11.190  1.00  0.00     0.158 A 
ATOM     10  C   UNL     1      12.565  -3.588 -11.720  1.00  0.00     0.062 A 
ATOM     11  C   UNL     1      13.219  -4.135 -12.832  1.00  0.00     0.022 A 
ENDROOT
BRANCH   9  12
ATOM     12  O   UNL     1      10.801  -3.650 -10.084  1.00  0.00    -0.504 OA
ATOM     13  H   UNL     1      10.751  -4.126  -9.190  1.00  0.00     0.293 HD
ENDBRANCH   9  12
BRANCH   8  14
ATOM     14  O   UNL     1       9.819  -6.027 -11.249  1.00  0.00    -0.504 OA
ATOM     15  H   UNL     1       9.372  -6.803 -11.724  1.00  0.00     0.293 HD
ENDBRANCH   8  14
TORSDOF 2
ENDMDL
MODEL 2
REMARK VINA RESULT:    -6.913      2.410      4.424
REMARK INTER + INTRA:          -7.317
REMARK INTER:                  -7.317
REMARK INTRA:                   0.000
REMARK UNBOUND:                 0.000
REMARK SMILES O=c1ccc2cc(O)c(O)cc2o1
REMARK SMILES IDX 4 1 3 2 2 3 1 4 13 5 12 6 11 7 9 8 7 9 6 10 5 11 8 12 10 14
REMARK H PARENT 8 13 10 15
REMARK Flexibility Score: inf
ROOT
ATOM      1  C   UNL     1      11.854  -8.008 -13.365  1.00  0.00     0.019 A 
ATOM      2  C   UNL     1      11.280  -9.212 -12.958  1.00  0.00     0.094 A 
ATOM      3  C   UNL     1      10.535  -9.242 -11.774  1.00  0.00     0.336 A 
ATOM      4  O   UNL     1      10.010 -10.319 -11.390  1.00  0.00    -0.246 OA
ATOM      5  O   UNL     1      10.377  -8.137 -11.050  1.00  0.00    -0.423 OA
ATOM      6  C   UNL     1      10.908  -6.968 -11.403  1.00  0.00     0.142 A 
ATOM      7  C   UNL     1      10.708  -5.840 -10.602  1.00  0.00     0.098 A 
ATOM      8  C   UNL     1      11.264  -4.605 -10.968  1.00  0.00     0.161 A 
ATOM      9  C   UNL     1      12.025  -4.500 -12.147  1.00  0.00     0.158 A 
ATOM     10  C   UNL     1      12.226  -5.629 -12.951  1.00  0.00     0.062 A 
ATOM     11  C   UNL     1      11.671  -6.862 -12.586  1.00  0.00     0.022 A 
ENDROOT
BRANCH   9  12
ATOM     12  O   UNL     1      12.589  -3.286 -12.534  1.00  0.00    -0.504 OA
ATOM     13  H   UNL     1      12.526  -2.941 -13.486  1.00  0.00     0.293 HD
ENDBRANCH   9  12
BRANCH   8  14
ATOM     14  O   UNL     1      11.062  -3.482 -10.167  1.00  0.00    -0.504 OA
ATOM     15  H   UNL     1      10.534  -2.682 -10.496  1.00  0.00     0.293 HD
ENDBRANCH   8  14
TORSDOF 2
ENDMDL
MODEL 3
REMARK VINA RESULT:    -6.675      1.278      4.553
REMARK INTER + INTRA:          -7.065
REMARK INTER:                  -7.065
REMARK INTRA:                   0.000
REMARK UNBOUND:                 0.000
REMARK SMILES O=c1ccc2cc(O)c(O)cc2o1
REMARK SMILES IDX 4 1 3 2 2 3 1 4 13 5 12 6 11 7 9 8 7 9 6 10 5 11 8 12 10 14
REMARK H PARENT 8 13 10 15
REMARK Flexibility Score: inf
ROOT
ATOM      1  C   UNL     1      11.986  -3.868 -11.259  1.00  0.00     0.019 A 
ATOM      2  C   UNL     1      10.874  -4.353 -10.569  1.00  0.00     0.094 A 
ATOM      3  C   UNL     1      10.267  -5.534 -11.009  1.00  0.00     0.336 A 
ATOM      4  O   UNL     1       9.264  -5.988 -10.400  1.00  0.00    -0.246 OA
ATOM      5  O   UNL     1      10.744  -6.184 -12.068  1.00  0.00    -0.423 OA
ATOM      6  C   UNL     1      11.802  -5.754 -12.754  1.00  0.00     0.142 A 
ATOM      7  C   UNL     1      12.258  -6.478 -13.859  1.00  0.00     0.098 A 
ATOM      8  C   UNL     1      13.372  -6.031 -14.586  1.00  0.00     0.161 A 
ATOM      9  C   UNL     1      14.033  -4.851 -14.200  1.00  0.00     0.158 A 
ATOM     10  C   UNL     1      13.578  -4.124 -13.094  1.00  0.00     0.062 A 
ATOM     11  C   UNL     1      12.466  -4.570 -12.368  1.00  0.00     0.022 A 
ENDROOT
BRANCH   9  12
ATOM     12  O   UNL     1      15.142  -4.385 -14.905  1.00  0.00    -0.504 OA
ATOM     13  H   UNL     1      15.484  -3.436 -14.804  1.00  0.00     0.293 HD
ENDBRANCH   9  12
BRANCH   8  14
ATOM     14  O   UNL     1      13.824  -6.756 -15.687  1.00  0.00    -0.504 OA
ATOM     15  H   UNL     1      13.939  -6.324 -16.597  1.00  0.00     0.293 HD
ENDBRANCH   8  14
TORSDOF 2
ENDMDL
MODEL 4
REMARK VINA RESULT:    -6.549      1.969      2.995
REMARK INTER + INTRA:          -6.932
REMARK INTER:                  -6.932
REMARK INTRA:                   0.000
REMARK UNBOUND:                 0.000
REMARK SMILES O=c1ccc2cc(O)c(O)cc2o1
REMARK SMILES IDX 4 1 3 2 2 3 1 4 13 5 12 6 11 7 9 8 7 9 6 10 5 11 8 12 10 14
REMARK H PARENT 8 13 10 15
REMARK Flexibility Score: inf
ROOT
ATOM      1  C   UNL     1      11.820  -3.984 -11.474  1.00  0.00     0.019 A 
ATOM      2  C   UNL     1      12.754  -3.239 -12.194  1.00  0.00     0.094 A 
ATOM      3  C   UNL     1      13.489  -3.869 -13.205  1.00  0.00     0.336 A 
ATOM      4  O   UNL     1      14.337  -3.214 -13.865  1.00  0.00    -0.246 OA
ATOM      5  O   UNL     1      13.298  -5.158 -13.474  1.00  0.00    -0.423 OA
ATOM      6  C   UNL     1      12.417  -5.904 -12.810  1.00  0.00     0.142 A 
ATOM      7  C   UNL     1      12.260  -7.254 -13.137  1.00  0.00     0.098 A 
ATOM      8  C   UNL     1      11.334  -8.046 -12.442  1.00  0.00     0.161 A 
ATOM      9  C   UNL     1      10.558  -7.480 -11.413  1.00  0.00     0.158 A 
ATOM     10  C   UNL     1      10.714  -6.128 -11.085  1.00  0.00     0.062 A 
ATOM     11  C   UNL     1      11.640  -5.336 -11.778  1.00  0.00     0.022 A 
ENDROOT
BRANCH   9  12
ATOM     12  O   UNL     1       9.631  -8.244 -10.707  1.00  0.00    -0.504 OA
ATOM     13  H   UNL     1       8.785  -7.842 -10.320  1.00  0.00     0.293 HD
ENDBRANCH   9  12
BRANCH   8  14
ATOM     14  O   UNL     1      11.179  -9.392 -12.771  1.00  0.00    -0.504 OA
ATOM     15  H   UNL     1      11.178  -9.707 -13.734  1.00  0.00     0.293 HD
ENDBRANCH   8  14
TORSDOF 2
ENDMDL
MODEL 5
REMARK VINA RESULT:    -6.520      1.589      2.467
REMARK INTER + INTRA:          -6.901
REMARK INTER:                  -6.901
REMARK INTRA:                   0.000
REMARK UNBOUND:                 0.000
REMARK SMILES O=c1ccc2cc(O)c(O)cc2o1
REMARK SMILES IDX 4 1 3 2 2 3 1 4 13 5 12 6 11 7 9 8 7 9 6 10 5 11 8 12 10 14
REMARK H PARENT 8 13 10 15
REMARK Flexibility Score: inf
ROOT
ATOM      1  C   UNL     1      14.054  -5.341 -14.370  1.00  0.00     0.019 A 
ATOM      2  C   UNL     1      14.993  -4.347 -14.645  1.00  0.00     0.094 A 
ATOM      3  C   UNL     1      14.943  -3.149 -13.924  1.00  0.00     0.336 A 
ATOM      4  O   UNL     1      15.782  -2.240 -14.158  1.00  0.00    -0.246 OA
ATOM      5  O   UNL     1      14.014  -2.963 -12.989  1.00  0.00    -0.423 OA
ATOM      6  C   UNL     1      13.100  -3.885 -12.696  1.00  0.00     0.142 A 
ATOM      7  C   UNL     1      12.147  -3.633 -11.705  1.00  0.00     0.098 A 
ATOM      8  C   UNL     1      11.181  -4.601 -11.391  1.00  0.00     0.161 A 
ATOM      9  C   UNL     1      11.171  -5.831 -12.075  1.00  0.00     0.158 A 
ATOM     10  C   UNL     1      12.124  -6.085 -13.068  1.00  0.00     0.062 A 
ATOM     11  C   UNL     1      13.089  -5.119 -13.383  1.00  0.00     0.022 A 
ENDROOT
BRANCH   9  12
ATOM     12  O   UNL     1      10.222  -6.810 -11.783  1.00  0.00    -0.504 OA
ATOM     13  H   UNL     1       9.700  -7.286 -12.508  1.00  0.00     0.293 HD
ENDBRANCH   9  12
BRANCH   8  14
ATOM     14  O   UNL     1      10.233  -4.347 -10.401  1.00  0.00    -0.504 OA
ATOM     15  H   UNL     1      10.016  -5.030  -9.684  1.00  0.00     0.293 HD
ENDBRANCH   8  14
TORSDOF 2
ENDMDL
MODEL 6
REMARK VINA RESULT:    -6.391      1.197      5.033
REMARK INTER + INTRA:          -6.764
REMARK INTER:                  -6.764
REMARK INTRA:                   0.000
REMARK UNBOUND:                 0.000
REMARK SMILES O=c1ccc2cc(O)c(O)cc2o1
REMARK SMILES IDX 4 1 3 2 2 3 1 4 13 5 12 6 11 7 9 8 7 9 6 10 5 11 8 12 10 14
REMARK H PARENT 8 13 10 15
REMARK Flexibility Score: inf
ROOT
ATOM      1  C   UNL     1      11.351  -6.574 -12.983  1.00  0.00     0.019 A 
ATOM      2  C   UNL     1      10.681  -6.150 -11.836  1.00  0.00     0.094 A 
ATOM      3  C   UNL     1      11.137  -5.009 -11.167  1.00  0.00     0.336 A 
ATOM      4  O   UNL     1      10.546  -4.611 -10.130  1.00  0.00    -0.246 OA
ATOM      5  O   UNL     1      12.193  -4.339 -11.621  1.00  0.00    -0.423 OA
ATOM      6  C   UNL     1      12.861  -4.710 -12.712  1.00  0.00     0.142 A 
ATOM      7  C   UNL     1      13.964  -3.967 -13.142  1.00  0.00     0.098 A 
ATOM      8  C   UNL     1      14.672  -4.352 -14.290  1.00  0.00     0.161 A 
ATOM      9  C   UNL     1      14.270  -5.490 -15.014  1.00  0.00     0.158 A 
ATOM     10  C   UNL     1      13.165  -6.235 -14.585  1.00  0.00     0.062 A 
ATOM     11  C   UNL     1      12.458  -5.851 -13.438  1.00  0.00     0.022 A 
ENDROOT
BRANCH   9  12
ATOM     12  O   UNL     1      14.955  -5.895 -16.158  1.00  0.00    -0.504 OA
ATOM     13  H   UNL     1      15.936  -5.685 -16.301  1.00  0.00     0.293 HD
ENDBRANCH   9  12
BRANCH   8  14
ATOM     14  O   UNL     1      15.771  -3.608 -14.716  1.00  0.00    -0.504 OA
ATOM     15  H   UNL     1      16.043  -2.748 -14.253  1.00  0.00     0.293 HD
ENDBRANCH   8  14
TORSDOF 2
ENDMDL
MODEL 7
REMARK VINA RESULT:    -6.277      2.504      4.341
REMARK INTER + INTRA:          -6.644
REMARK INTER:                  -6.644
REMARK INTRA:                   0.000
REMARK UNBOUND:                 0.000
REMARK SMILES O=c1ccc2cc(O)c(O)cc2o1
REMARK SMILES IDX 4 1 3 2 2 3 1 4 13 5 12 6 11 7 9 8 7 9 6 10 5 11 8 12 10 14
REMARK H PARENT 8 13 10 15
REMARK Flexibility Score: inf
ROOT
ATOM      1  C   UNL     1      10.165  -7.750 -10.880  1.00  0.00     0.019 A 
ATOM      2  C   UNL     1      10.175  -9.045 -11.400  1.00  0.00     0.094 A 
ATOM      3  C   UNL     1      10.991  -9.326 -12.501  1.00  0.00     0.336 A 
ATOM      4  O   UNL     1      11.012 -10.488 -12.985  1.00  0.00    -0.246 OA
ATOM      5  O   UNL     1      11.746  -8.373 -13.041  1.00  0.00    -0.423 OA
ATOM      6  C   UNL     1      11.766  -7.126 -12.575  1.00  0.00     0.142 A 
ATOM      7  C   UNL     1      12.579  -6.166 -13.185  1.00  0.00     0.098 A 
ATOM      8  C   UNL     1      12.606  -4.850 -12.698  1.00  0.00     0.161 A 
ATOM      9  C   UNL     1      11.811  -4.495 -11.593  1.00  0.00     0.158 A 
ATOM     10  C   UNL     1      10.995  -5.454 -10.981  1.00  0.00     0.062 A 
ATOM     11  C   UNL     1      10.969  -6.769 -11.467  1.00  0.00     0.022 A 
ENDROOT
BRANCH   9  12
ATOM     12  O   UNL     1      11.818  -3.195 -11.090  1.00  0.00    -0.504 OA
ATOM     13  H   UNL     1      12.112  -2.985 -10.143  1.00  0.00     0.293 HD
ENDBRANCH   9  12
BRANCH   8  14
ATOM     14  O   UNL     1      13.418  -3.896 -13.308  1.00  0.00    -0.504 OA
ATOM     15  H   UNL     1      14.415  -4.042 -13.422  1.00  0.00     0.293 HD
ENDBRANCH   8  14
TORSDOF 2
ENDMDL
MODEL 8
REMARK VINA RESULT:    -6.190      2.558      4.342
REMARK INTER + INTRA:          -6.552
REMARK INTER:                  -6.552
REMARK INTRA:                   0.000
REMARK UNBOUND:                 0.000
REMARK SMILES O=c1ccc2cc(O)c(O)cc2o1
REMARK SMILES IDX 4 1 3 2 2 3 1 4 13 5 12 6 11 7 9 8 7 9 6 10 5 11 8 12 10 14
REMARK H PARENT 8 13 10 15
REMARK Flexibility Score: inf
ROOT
ATOM      1  C   UNL     1      12.670  -6.134 -13.504  1.00  0.00     0.019 A 
ATOM      2  C   UNL     1      12.751  -4.818 -13.049  1.00  0.00     0.094 A 
ATOM      3  C   UNL     1      12.009  -4.443 -11.923  1.00  0.00     0.336 A 
ATOM      4  O   UNL     1      12.068  -3.260 -11.498  1.00  0.00    -0.246 OA
ATOM      5  O   UNL     1      11.240  -5.330 -11.297  1.00  0.00    -0.423 OA
ATOM      6  C   UNL     1      11.134  -6.595 -11.699  1.00  0.00     0.142 A 
ATOM      7  C   UNL     1      10.310  -7.483 -11.001  1.00  0.00     0.098 A 
ATOM      8  C   UNL     1      10.195  -8.817 -11.419  1.00  0.00     0.161 A 
ATOM      9  C   UNL     1      10.912  -9.265 -12.543  1.00  0.00     0.158 A 
ATOM     10  C   UNL     1      11.739  -8.378 -13.243  1.00  0.00     0.062 A 
ATOM     11  C   UNL     1      11.854  -7.045 -12.827  1.00  0.00     0.022 A 
ENDROOT
BRANCH   9  12
ATOM     12  O   UNL     1      10.816 -10.586 -12.980  1.00  0.00    -0.504 OA
ATOM     13  H   UNL     1      10.210 -11.260 -12.526  1.00  0.00     0.293 HD
ENDBRANCH   9  12
BRANCH   8  14
ATOM     14  O   UNL     1       9.371  -9.699 -10.721  1.00  0.00    -0.504 OA
ATOM     15  H   UNL     1       8.505  -9.392 -10.293  1.00  0.00     0.293 HD
ENDBRANCH   8  14
TORSDOF 2
ENDMDL
MODEL 9
REMARK VINA RESULT:    -6.115     17.387     18.686
REMARK INTER + INTRA:          -6.473
REMARK INTER:                  -6.473
REMARK INTRA:                   0.000
REMARK UNBOUND:                 0.000
REMARK SMILES O=c1ccc2cc(O)c(O)cc2o1
REMARK SMILES IDX 4 1 3 2 2 3 1 4 13 5 12 6 11 7 9 8 7 9 6 10 5 11 8 12 10 14
REMARK H PARENT 8 13 10 15
REMARK Flexibility Score: inf
ROOT
ATOM      1  C   UNL     1      -1.184   4.152 -10.706  1.00  0.00     0.019 A 
ATOM      2  C   UNL     1      -2.013   4.044 -11.824  1.00  0.00     0.094 A 
ATOM      3  C   UNL     1      -3.043   4.975 -11.996  1.00  0.00     0.336 A 
ATOM      4  O   UNL     1      -3.801   4.894 -12.996  1.00  0.00    -0.246 OA
ATOM      5  O   UNL     1      -3.227   5.948 -11.107  1.00  0.00    -0.423 OA
ATOM      6  C   UNL     1      -2.459   6.086 -10.028  1.00  0.00     0.142 A 
ATOM      7  C   UNL     1      -2.701   7.128  -9.128  1.00  0.00     0.098 A 
ATOM      8  C   UNL     1      -1.895   7.280  -7.989  1.00  0.00     0.161 A 
ATOM      9  C   UNL     1      -0.839   6.380  -7.752  1.00  0.00     0.158 A 
ATOM     10  C   UNL     1      -0.596   5.336  -8.651  1.00  0.00     0.062 A 
ATOM     11  C   UNL     1      -1.400   5.184  -9.789  1.00  0.00     0.022 A 
ENDROOT
BRANCH   9  12
ATOM     12  O   UNL     1      -0.024   6.508  -6.628  1.00  0.00    -0.504 OA
ATOM     13  H   UNL     1       0.255   5.708  -6.072  1.00  0.00     0.293 HD
ENDBRANCH   9  12
BRANCH   8  14
ATOM     14  O   UNL     1      -2.139   8.321  -7.094  1.00  0.00    -0.504 OA
ATOM     15  H   UNL     1      -1.736   9.241  -7.227  1.00  0.00     0.293 HD
ENDBRANCH   8  14
TORSDOF 2
ENDMDL
