MODEL 1
REMARK VINA RESULT:    -6.435      0.000      0.000
REMARK INTER + INTRA:          -7.826
REMARK INTER:                  -7.564
REMARK INTRA:                  -0.262
REMARK UNBOUND:                -0.262
REMARK SMILES O=c1c(O)c(-c2ccc(O)cc2)oc2cc(O)cc(O)c12
REMARK SMILES IDX 5 1 3 2 2 3 1 4 21 5 19 6 18 7 16 8 15 9 14 10 13 11 6 12
REMARK SMILES IDX 7 13 8 14 9 15 12 16 11 17 10 18 4 20 20 22 17 24
REMARK H PARENT 10 19 4 21 20 23 17 25
REMARK Flexibility Score: inf
ROOT
ATOM      1  C   UNL     1      18.889  -1.630 -17.141  1.00  0.00     0.180 A 
ATOM      2  C   UNL     1      18.142  -0.933 -16.175  1.00  0.00     0.208 A 
ATOM      3  C   UNL     1      17.429  -1.662 -15.211  1.00  0.00     0.238 A 
ATOM      4  O   UNL     1      16.823  -1.031 -14.305  1.00  0.00    -0.285 OA
ATOM      5  C   UNL     1      17.425  -3.077 -15.256  1.00  0.00     0.111 A 
ATOM      6  C   UNL     1      16.701  -3.917 -14.355  1.00  0.00     0.134 A 
ATOM      7  C   UNL     1      16.857  -5.307 -14.429  1.00  0.00     0.093 A 
ATOM      8  C   UNL     1      17.661  -5.889 -15.412  1.00  0.00     0.123 A 
ATOM      9  C   UNL     1      18.328  -5.081 -16.329  1.00  0.00     0.094 A 
ATOM     10  C   UNL     1      18.223  -3.690 -16.257  1.00  0.00     0.146 A 
ATOM     11  O   UNL     1      18.893  -2.957 -17.138  1.00  0.00    -0.452 OA
ENDROOT
BRANCH   1  12
ATOM     12  C   UNL     1      19.678  -0.933 -18.182  1.00  0.00     0.021 A 
ATOM     13  C   UNL     1      19.201  -0.899 -19.504  1.00  0.00     0.016 A 
ATOM     14  C   UNL     1      19.941  -0.265 -20.507  1.00  0.00     0.047 A 
ATOM     15  C   UNL     1      21.172   0.327 -20.206  1.00  0.00     0.115 A 
ATOM     16  C   UNL     1      20.926  -0.353 -17.890  1.00  0.00     0.016 A 
ATOM     17  C   UNL     1      21.664   0.280 -18.897  1.00  0.00     0.047 A 
BRANCH  15  18
ATOM     18  O   UNL     1      21.897   0.955 -21.216  1.00  0.00    -0.508 OA
ATOM     19  H   UNL     1      21.713   0.766 -22.195  1.00  0.00     0.293 HD
ENDBRANCH  15  18
ENDBRANCH   1  12
BRANCH   2  20
ATOM     20  O   UNL     1      18.096   0.463 -16.195  1.00  0.00    -0.502 OA
ATOM     21  H   UNL     1      17.867   1.012 -15.375  1.00  0.00     0.293 HD
ENDBRANCH   2  20
BRANCH   6  22
ATOM     22  O   UNL     1      15.803  -3.444 -13.394  1.00  0.00    -0.507 OA
ATOM     23  H   UNL     1      14.880  -3.087 -13.591  1.00  0.00     0.293 HD
ENDBRANCH   6  22
BRANCH   8  24
ATOM     24  O   UNL     1      17.798  -7.274 -15.490  1.00  0.00    -0.508 OA
ATOM     25  H   UNL     1      17.406  -7.885 -14.784  1.00  0.00     0.293 HD
ENDBRANCH   8  24
TORSDOF 5
ENDMDL
MODEL 2
REMARK VINA RESULT:    -5.972      9.430     12.938
REMARK INTER + INTRA:          -7.281
REMARK INTER:                  -6.984
REMARK INTRA:                  -0.297
REMARK UNBOUND:                -0.262
REMARK SMILES O=c1c(O)c(-c2ccc(O)cc2)oc2cc(O)cc(O)c12
REMARK SMILES IDX 5 1 3 2 2 3 1 4 21 5 19 6 18 7 16 8 15 9 14 10 13 11 6 12
REMARK SMILES IDX 7 13 8 14 9 15 12 16 11 17 10 18 4 20 20 22 17 24
REMARK H PARENT 10 19 4 21 20 23 17 25
REMARK Flexibility Score: inf
ROOT
ATOM      1  C   UNL     1      10.365  -5.959  -9.130  1.00  0.00     0.180 A 
ATOM      2  C   UNL     1       9.666  -7.135  -9.453  1.00  0.00     0.208 A 
ATOM      3  C   UNL     1       8.747  -7.656  -8.530  1.00  0.00     0.238 A 
ATOM      4  O   UNL     1       8.071  -8.667  -8.856  1.00  0.00    -0.285 OA
ATOM      5  C   UNL     1       8.577  -7.029  -7.272  1.00  0.00     0.111 A 
ATOM      6  C   UNL     1       7.705  -7.496  -6.242  1.00  0.00     0.134 A 
ATOM      7  C   UNL     1       7.540  -6.734  -5.078  1.00  0.00     0.093 A 
ATOM      8  C   UNL     1       8.262  -5.554  -4.881  1.00  0.00     0.123 A 
ATOM      9  C   UNL     1       9.155  -5.119  -5.856  1.00  0.00     0.094 A 
ATOM     10  C   UNL     1       9.314  -5.837  -7.044  1.00  0.00     0.146 A 
ATOM     11  O   UNL     1      10.161  -5.374  -7.956  1.00  0.00    -0.452 OA
ENDROOT
BRANCH   1  12
ATOM     12  C   UNL     1      11.340  -5.341 -10.057  1.00  0.00     0.021 A 
ATOM     13  C   UNL     1      12.700  -5.678  -9.955  1.00  0.00     0.016 A 
ATOM     14  C   UNL     1      13.641  -5.090 -10.805  1.00  0.00     0.047 A 
ATOM     15  C   UNL     1      13.238  -4.146 -11.755  1.00  0.00     0.115 A 
ATOM     16  C   UNL     1      10.944  -4.376 -11.001  1.00  0.00     0.016 A 
ATOM     17  C   UNL     1      11.888  -3.788 -11.849  1.00  0.00     0.047 A 
BRANCH  15  18
ATOM     18  O   UNL     1      14.187  -3.569 -12.596  1.00  0.00    -0.508 OA
ATOM     19  H   UNL     1      13.917  -3.076 -13.439  1.00  0.00     0.293 HD
ENDBRANCH  15  18
ENDBRANCH   1  12
BRANCH   2  20
ATOM     20  O   UNL     1       9.905  -7.783 -10.668  1.00  0.00    -0.502 OA
ATOM     21  H   UNL     1      10.838  -8.004 -10.994  1.00  0.00     0.293 HD
ENDBRANCH   2  20
BRANCH   6  22
ATOM     22  O   UNL     1       7.004  -8.704  -6.297  1.00  0.00    -0.507 OA
ATOM     23  H   UNL     1       6.037  -8.799  -6.568  1.00  0.00     0.293 HD
ENDBRANCH   6  22
BRANCH   8  24
ATOM     24  O   UNL     1       8.104  -4.811  -3.714  1.00  0.00    -0.508 OA
ATOM     25  H   UNL     1       8.325  -5.200  -2.804  1.00  0.00     0.293 HD
ENDBRANCH   8  24
TORSDOF 5
ENDMDL
MODEL 3
REMARK VINA RESULT:    -5.967      1.205      3.116
REMARK INTER + INTRA:          -7.276
REMARK INTER:                  -7.063
REMARK INTRA:                  -0.213
REMARK UNBOUND:                -0.262
REMARK SMILES O=c1c(O)c(-c2ccc(O)cc2)oc2cc(O)cc(O)c12
REMARK SMILES IDX 5 1 3 2 2 3 1 4 21 5 19 6 18 7 16 8 15 9 14 10 13 11 6 12
REMARK SMILES IDX 7 13 8 14 9 15 12 16 11 17 10 18 4 20 20 22 17 24
REMARK H PARENT 10 19 4 21 20 23 17 25
REMARK Flexibility Score: inf
ROOT
ATOM      1  C   UNL     1      19.019  -2.380 -17.644  1.00  0.00     0.180 A 
ATOM      2  C   UNL     1      18.915  -3.766 -17.848  1.00  0.00     0.208 A 
ATOM      3  C   UNL     1      18.239  -4.545 -16.895  1.00  0.00     0.238 A 
ATOM      4  O   UNL     1      18.085  -5.774 -17.120  1.00  0.00    -0.285 OA
ATOM      5  C   UNL     1      17.724  -3.938 -15.724  1.00  0.00     0.111 A 
ATOM      6  C   UNL     1      17.060  -4.638 -14.671  1.00  0.00     0.134 A 
ATOM      7  C   UNL     1      16.498  -3.917 -13.609  1.00  0.00     0.093 A 
ATOM      8  C   UNL     1      16.632  -2.529 -13.531  1.00  0.00     0.123 A 
ATOM      9  C   UNL     1      17.325  -1.844 -14.525  1.00  0.00     0.094 A 
ATOM     10  C   UNL     1      17.863  -2.530 -15.616  1.00  0.00     0.146 A 
ATOM     11  O   UNL     1      18.498  -1.834 -16.552  1.00  0.00    -0.452 OA
ENDROOT
BRANCH   1  12
ATOM     12  C   UNL     1      19.704  -1.490 -18.609  1.00  0.00     0.021 A 
ATOM     13  C   UNL     1      20.912  -0.872 -18.243  1.00  0.00     0.016 A 
ATOM     14  C   UNL     1      21.564  -0.011 -19.131  1.00  0.00     0.047 A 
ATOM     15  C   UNL     1      21.010   0.257 -20.386  1.00  0.00     0.115 A 
ATOM     16  C   UNL     1      19.142  -1.201 -19.866  1.00  0.00     0.016 A 
ATOM     17  C   UNL     1      19.797  -0.338 -20.751  1.00  0.00     0.047 A 
BRANCH  15  18
ATOM     18  O   UNL     1      21.672   1.116 -21.260  1.00  0.00    -0.508 OA
ATOM     19  H   UNL     1      22.683   1.129 -21.324  1.00  0.00     0.293 HD
ENDBRANCH  15  18
ENDBRANCH   1  12
BRANCH   2  20
ATOM     20  O   UNL     1      19.497  -4.358 -18.971  1.00  0.00    -0.502 OA
ATOM     21  H   UNL     1      20.464  -4.202 -19.230  1.00  0.00     0.293 HD
ENDBRANCH   2  20
BRANCH   6  22
ATOM     22  O   UNL     1      16.947  -6.030 -14.604  1.00  0.00    -0.507 OA
ATOM     23  H   UNL     1      17.238  -6.597 -13.822  1.00  0.00     0.293 HD
ENDBRANCH   6  22
BRANCH   8  24
ATOM     24  O   UNL     1      16.085  -1.821 -12.462  1.00  0.00    -0.508 OA
ATOM     25  H   UNL     1      15.586  -0.951 -12.604  1.00  0.00     0.293 HD
ENDBRANCH   8  24
TORSDOF 5
ENDMDL
MODEL 4
REMARK VINA RESULT:    -5.855      6.807      8.928
REMARK INTER + INTRA:          -7.144
REMARK INTER:                  -6.855
REMARK INTRA:                  -0.289
REMARK UNBOUND:                -0.262
REMARK SMILES O=c1c(O)c(-c2ccc(O)cc2)oc2cc(O)cc(O)c12
REMARK SMILES IDX 5 1 3 2 2 3 1 4 21 5 19 6 18 7 16 8 15 9 14 10 13 11 6 12
REMARK SMILES IDX 7 13 8 14 9 15 12 16 11 17 10 18 4 20 20 22 17 24
REMARK H PARENT 10 19 4 21 20 23 17 25
REMARK Flexibility Score: inf
ROOT
ATOM      1  C   UNL     1      18.116  -2.078  -8.829  1.00  0.00     0.180 A 
ATOM      2  C   UNL     1      17.384  -0.880  -8.897  1.00  0.00     0.208 A 
ATOM      3  C   UNL     1      16.311  -0.789  -9.798  1.00  0.00     0.238 A 
ATOM      4  O   UNL     1      15.614   0.259  -9.801  1.00  0.00    -0.285 OA
ATOM      5  C   UNL     1      16.018  -1.874 -10.659  1.00  0.00     0.111 A 
ATOM      6  C   UNL     1      14.982  -1.875 -11.641  1.00  0.00     0.134 A 
ATOM      7  C   UNL     1      14.715  -3.045 -12.363  1.00  0.00     0.093 A 
ATOM      8  C   UNL     1      15.488  -4.195 -12.183  1.00  0.00     0.123 A 
ATOM      9  C   UNL     1      16.536  -4.187 -11.266  1.00  0.00     0.094 A 
ATOM     10  C   UNL     1      16.802  -3.047 -10.503  1.00  0.00     0.146 A 
ATOM     11  O   UNL     1      17.797  -3.091  -9.625  1.00  0.00    -0.452 OA
ENDROOT
BRANCH   1  12
ATOM     12  C   UNL     1      19.251  -2.256  -7.895  1.00  0.00     0.021 A 
ATOM     13  C   UNL     1      20.566  -2.106  -8.368  1.00  0.00     0.016 A 
ATOM     14  C   UNL     1      21.653  -2.291  -7.509  1.00  0.00     0.047 A 
ATOM     15  C   UNL     1      21.442  -2.645  -6.173  1.00  0.00     0.115 A 
ATOM     16  C   UNL     1      19.046  -2.631  -6.555  1.00  0.00     0.016 A 
ATOM     17  C   UNL     1      20.136  -2.817  -5.698  1.00  0.00     0.047 A 
BRANCH  15  18
ATOM     18  O   UNL     1      22.535  -2.826  -5.329  1.00  0.00    -0.508 OA
ATOM     19  H   UNL     1      22.564  -3.583  -4.656  1.00  0.00     0.293 HD
ENDBRANCH  15  18
ENDBRANCH   1  12
BRANCH   2  20
ATOM     20  O   UNL     1      17.738   0.207  -8.095  1.00  0.00    -0.502 OA
ATOM     21  H   UNL     1      18.286   0.105  -7.249  1.00  0.00     0.293 HD
ENDBRANCH   2  20
BRANCH   6  22
ATOM     22  O   UNL     1      14.208  -0.757 -11.965  1.00  0.00    -0.507 OA
ATOM     23  H   UNL     1      13.461  -0.386 -11.397  1.00  0.00     0.293 HD
ENDBRANCH   6  22
BRANCH   8  24
ATOM     24  O   UNL     1      15.227  -5.349 -12.917  1.00  0.00    -0.508 OA
ATOM     25  H   UNL     1      14.836  -5.306 -13.851  1.00  0.00     0.293 HD
ENDBRANCH   8  24
TORSDOF 5
ENDMDL
MODEL 5
REMARK VINA RESULT:    -5.790      9.222     13.004
REMARK INTER + INTRA:          -7.067
REMARK INTER:                  -6.817
REMARK INTRA:                  -0.250
REMARK UNBOUND:                -0.262
REMARK SMILES O=c1c(O)c(-c2ccc(O)cc2)oc2cc(O)cc(O)c12
REMARK SMILES IDX 5 1 3 2 2 3 1 4 21 5 19 6 18 7 16 8 15 9 14 10 13 11 6 12
REMARK SMILES IDX 7 13 8 14 9 15 12 16 11 17 10 18 4 20 20 22 17 24
REMARK H PARENT 10 19 4 21 20 23 17 25
REMARK Flexibility Score: inf
ROOT
ATOM      1  C   UNL     1      10.418  -7.250  -9.718  1.00  0.00     0.180 A 
ATOM      2  C   UNL     1      10.279  -8.033  -8.559  1.00  0.00     0.208 A 
ATOM      3  C   UNL     1       9.298  -7.687  -7.617  1.00  0.00     0.238 A 
ATOM      4  O   UNL     1       9.129  -8.435  -6.619  1.00  0.00    -0.285 OA
ATOM      5  C   UNL     1       8.505  -6.531  -7.817  1.00  0.00     0.111 A 
ATOM      6  C   UNL     1       7.510  -6.060  -6.906  1.00  0.00     0.134 A 
ATOM      7  C   UNL     1       6.713  -4.964  -7.260  1.00  0.00     0.093 A 
ATOM      8  C   UNL     1       6.917  -4.283  -8.462  1.00  0.00     0.123 A 
ATOM      9  C   UNL     1       7.920  -4.701  -9.332  1.00  0.00     0.094 A 
ATOM     10  C   UNL     1       8.707  -5.814  -9.026  1.00  0.00     0.146 A 
ATOM     11  O   UNL     1       9.638  -6.190  -9.894  1.00  0.00    -0.452 OA
ENDROOT
BRANCH   1  12
ATOM     12  C   UNL     1      11.419  -7.559 -10.763  1.00  0.00     0.021 A 
ATOM     13  C   UNL     1      12.558  -6.744 -10.893  1.00  0.00     0.016 A 
ATOM     14  C   UNL     1      13.505  -7.005 -11.887  1.00  0.00     0.047 A 
ATOM     15  C   UNL     1      13.320  -8.070 -12.774  1.00  0.00     0.115 A 
ATOM     16  C   UNL     1      11.229  -8.616 -11.672  1.00  0.00     0.016 A 
ATOM     17  C   UNL     1      12.179  -8.873 -12.666  1.00  0.00     0.047 A 
BRANCH  15  18
ATOM     18  O   UNL     1      14.274  -8.317 -13.759  1.00  0.00    -0.508 OA
ATOM     19  H   UNL     1      14.140  -9.043 -14.453  1.00  0.00     0.293 HD
ENDBRANCH  15  18
ENDBRANCH   1  12
BRANCH   2  20
ATOM     20  O   UNL     1      11.123  -9.125  -8.343  1.00  0.00    -0.502 OA
ATOM     21  H   UNL     1      11.652  -9.561  -9.089  1.00  0.00     0.293 HD
ENDBRANCH   2  20
BRANCH   6  22
ATOM     22  O   UNL     1       7.282  -6.611  -5.642  1.00  0.00    -0.507 OA
ATOM     23  H   UNL     1       6.843  -6.129  -4.872  1.00  0.00     0.293 HD
ENDBRANCH   6  22
BRANCH   8  24
ATOM     24  O   UNL     1       6.131  -3.183  -8.798  1.00  0.00    -0.508 OA
ATOM     25  H   UNL     1       5.737  -3.076  -9.725  1.00  0.00     0.293 HD
ENDBRANCH   8  24
TORSDOF 5
ENDMDL
MODEL 6
REMARK VINA RESULT:    -5.736      9.373     12.643
REMARK INTER + INTRA:          -7.004
REMARK INTER:                  -6.706
REMARK INTRA:                  -0.298
REMARK UNBOUND:                -0.262
REMARK SMILES O=c1c(O)c(-c2ccc(O)cc2)oc2cc(O)cc(O)c12
REMARK SMILES IDX 5 1 3 2 2 3 1 4 21 5 19 6 18 7 16 8 15 9 14 10 13 11 6 12
REMARK SMILES IDX 7 13 8 14 9 15 12 16 11 17 10 18 4 20 20 22 17 24
REMARK H PARENT 10 19 4 21 20 23 17 25
REMARK Flexibility Score: inf
ROOT
ATOM      1  C   UNL     1      10.394  -6.404 -10.012  1.00  0.00     0.180 A 
ATOM      2  C   UNL     1       9.283  -5.874 -10.690  1.00  0.00     0.208 A 
ATOM      3  C   UNL     1       8.272  -5.243  -9.949  1.00  0.00     0.238 A 
ATOM      4  O   UNL     1       7.316  -4.706 -10.569  1.00  0.00    -0.285 OA
ATOM      5  C   UNL     1       8.355  -5.196  -8.537  1.00  0.00     0.111 A 
ATOM      6  C   UNL     1       7.367  -4.620  -7.682  1.00  0.00     0.134 A 
ATOM      7  C   UNL     1       7.607  -4.536  -6.305  1.00  0.00     0.093 A 
ATOM      8  C   UNL     1       8.772  -5.065  -5.744  1.00  0.00     0.123 A 
ATOM      9  C   UNL     1       9.717  -5.677  -6.562  1.00  0.00     0.094 A 
ATOM     10  C   UNL     1       9.524  -5.742  -7.944  1.00  0.00     0.146 A 
ATOM     11  O   UNL     1      10.461  -6.316  -8.689  1.00  0.00    -0.452 OA
ENDROOT
BRANCH   1  12
ATOM     12  C   UNL     1      11.507  -7.072 -10.723  1.00  0.00     0.021 A 
ATOM     13  C   UNL     1      11.506  -8.472 -10.849  1.00  0.00     0.016 A 
ATOM     14  C   UNL     1      12.558  -9.125 -11.498  1.00  0.00     0.047 A 
ATOM     15  C   UNL     1      13.631  -8.392 -12.013  1.00  0.00     0.115 A 
ATOM     16  C   UNL     1      12.600  -6.342 -11.227  1.00  0.00     0.016 A 
ATOM     17  C   UNL     1      13.651  -6.999 -11.874  1.00  0.00     0.047 A 
BRANCH  15  18
ATOM     18  O   UNL     1      14.672  -9.057 -12.658  1.00  0.00    -0.508 OA
ATOM     19  H   UNL     1      15.047  -8.724 -13.539  1.00  0.00     0.293 HD
ENDBRANCH  15  18
ENDBRANCH   1  12
BRANCH   2  20
ATOM     20  O   UNL     1       9.181  -5.999 -12.077  1.00  0.00    -0.502 OA
ATOM     21  H   UNL     1       9.690  -6.701 -12.600  1.00  0.00     0.293 HD
ENDBRANCH   2  20
BRANCH   6  22
ATOM     22  O   UNL     1       6.130  -4.142  -8.126  1.00  0.00    -0.507 OA
ATOM     23  H   UNL     1       5.322  -4.717  -8.316  1.00  0.00     0.293 HD
ENDBRANCH   6  22
BRANCH   8  24
ATOM     24  O   UNL     1       8.996  -4.993  -4.371  1.00  0.00    -0.508 OA
ATOM     25  H   UNL     1       8.412  -4.424  -3.768  1.00  0.00     0.293 HD
ENDBRANCH   8  24
TORSDOF 5
ENDMDL
MODEL 7
REMARK VINA RESULT:    -5.625     16.389     18.166
REMARK INTER + INTRA:          -6.874
REMARK INTER:                  -6.683
REMARK INTRA:                  -0.191
REMARK UNBOUND:                -0.262
REMARK SMILES O=c1c(O)c(-c2ccc(O)cc2)oc2cc(O)cc(O)c12
REMARK SMILES IDX 5 1 3 2 2 3 1 4 21 5 19 6 18 7 16 8 15 9 14 10 13 11 6 12
REMARK SMILES IDX 7 13 8 14 9 15 12 16 11 17 10 18 4 20 20 22 17 24
REMARK H PARENT 10 19 4 21 20 23 17 25
REMARK Flexibility Score: inf
ROOT
ATOM      1  C   UNL     1       4.792   6.005 -10.691  1.00  0.00     0.180 A 
ATOM      2  C   UNL     1       4.738   7.409 -10.665  1.00  0.00     0.208 A 
ATOM      3  C   UNL     1       4.516   8.103 -11.864  1.00  0.00     0.238 A 
ATOM      4  O   UNL     1       4.395   9.356 -11.823  1.00  0.00    -0.285 OA
ATOM      5  C   UNL     1       4.407   7.391 -13.083  1.00  0.00     0.111 A 
ATOM      6  C   UNL     1       4.225   7.995 -14.364  1.00  0.00     0.134 A 
ATOM      7  C   UNL     1       4.023   7.184 -15.488  1.00  0.00     0.093 A 
ATOM      8  C   UNL     1       4.060   5.791 -15.387  1.00  0.00     0.123 A 
ATOM      9  C   UNL     1       4.290   5.193 -14.151  1.00  0.00     0.094 A 
ATOM     10  C   UNL     1       4.457   5.974 -13.005  1.00  0.00     0.146 A 
ATOM     11  O   UNL     1       4.654   5.362 -11.844  1.00  0.00    -0.452 OA
ENDROOT
BRANCH   1  12
ATOM     12  C   UNL     1       5.009   5.201  -9.466  1.00  0.00     0.021 A 
ATOM     13  C   UNL     1       6.187   4.447  -9.334  1.00  0.00     0.016 A 
ATOM     14  C   UNL     1       6.402   3.664  -8.196  1.00  0.00     0.047 A 
ATOM     15  C   UNL     1       5.437   3.610  -7.185  1.00  0.00     0.115 A 
ATOM     16  C   UNL     1       4.033   5.127  -8.456  1.00  0.00     0.016 A 
ATOM     17  C   UNL     1       4.251   4.342  -7.319  1.00  0.00     0.047 A 
BRANCH  15  18
ATOM     18  O   UNL     1       5.666   2.826  -6.057  1.00  0.00    -0.508 OA
ATOM     19  H   UNL     1       4.927   2.627  -5.393  1.00  0.00     0.293 HD
ENDBRANCH  15  18
ENDBRANCH   1  12
BRANCH   2  20
ATOM     20  O   UNL     1       4.926   8.098  -9.465  1.00  0.00    -0.502 OA
ATOM     21  H   UNL     1       4.573   9.035  -9.313  1.00  0.00     0.293 HD
ENDBRANCH   2  20
BRANCH   6  22
ATOM     22  O   UNL     1       4.260   9.373 -14.592  1.00  0.00    -0.507 OA
ATOM     23  H   UNL     1       5.096   9.938 -14.592  1.00  0.00     0.293 HD
ENDBRANCH   6  22
BRANCH   8  24
ATOM     24  O   UNL     1       3.875   4.991 -16.513  1.00  0.00    -0.508 OA
ATOM     25  H   UNL     1       3.105   4.336 -16.577  1.00  0.00     0.293 HD
ENDBRANCH   8  24
TORSDOF 5
ENDMDL
MODEL 8
REMARK VINA RESULT:    -5.574      1.614      2.295
REMARK INTER + INTRA:          -6.814
REMARK INTER:                  -6.646
REMARK INTRA:                  -0.168
REMARK UNBOUND:                -0.262
REMARK SMILES O=c1c(O)c(-c2ccc(O)cc2)oc2cc(O)cc(O)c12
REMARK SMILES IDX 5 1 3 2 2 3 1 4 21 5 19 6 18 7 16 8 15 9 14 10 13 11 6 12
REMARK SMILES IDX 7 13 8 14 9 15 12 16 11 17 10 18 4 20 20 22 17 24
REMARK H PARENT 10 19 4 21 20 23 17 25
REMARK Flexibility Score: inf
ROOT
ATOM      1  C   UNL     1      18.028  -1.091 -16.036  1.00  0.00     0.180 A 
ATOM      2  C   UNL     1      17.478  -0.047 -15.272  1.00  0.00     0.208 A 
ATOM      3  C   UNL     1      16.634  -0.363 -14.196  1.00  0.00     0.238 A 
ATOM      4  O   UNL     1      16.205   0.572 -13.471  1.00  0.00    -0.285 OA
ATOM      5  C   UNL     1      16.307  -1.715 -13.929  1.00  0.00     0.111 A 
ATOM      6  C   UNL     1      15.427  -2.148 -12.891  1.00  0.00     0.134 A 
ATOM      7  C   UNL     1      15.260  -3.518 -12.653  1.00  0.00     0.093 A 
ATOM      8  C   UNL     1      15.892  -4.471 -13.456  1.00  0.00     0.123 A 
ATOM      9  C   UNL     1      16.709  -4.058 -14.505  1.00  0.00     0.094 A 
ATOM     10  C   UNL     1      16.926  -2.699 -14.744  1.00  0.00     0.146 A 
ATOM     11  O   UNL     1      17.729  -2.350 -15.742  1.00  0.00    -0.452 OA
ENDROOT
BRANCH   1  12
ATOM     12  C   UNL     1      18.937  -0.839 -17.177  1.00  0.00     0.021 A 
ATOM     13  C   UNL     1      20.218  -0.311 -16.937  1.00  0.00     0.016 A 
ATOM     14  C   UNL     1      21.084  -0.044 -18.002  1.00  0.00     0.047 A 
ATOM     15  C   UNL     1      20.677  -0.284 -19.318  1.00  0.00     0.115 A 
ATOM     16  C   UNL     1      18.526  -1.059 -18.504  1.00  0.00     0.016 A 
ATOM     17  C   UNL     1      19.395  -0.789 -19.567  1.00  0.00     0.047 A 
BRANCH  15  18
ATOM     18  O   UNL     1      21.551  -0.014 -20.368  1.00  0.00    -0.508 OA
ATOM     19  H   UNL     1      21.373  -0.355 -21.305  1.00  0.00     0.293 HD
ENDBRANCH  15  18
ENDBRANCH   1  12
BRANCH   2  20
ATOM     20  O   UNL     1      17.751   1.283 -15.599  1.00  0.00    -0.502 OA
ATOM     21  H   UNL     1      17.318   1.750 -16.387  1.00  0.00     0.293 HD
ENDBRANCH   2  20
BRANCH   6  22
ATOM     22  O   UNL     1      14.678  -1.283 -12.087  1.00  0.00    -0.507 OA
ATOM     23  H   UNL     1      15.063  -0.656 -11.397  1.00  0.00     0.293 HD
ENDBRANCH   6  22
BRANCH   8  24
ATOM     24  O   UNL     1      15.707  -5.832 -13.224  1.00  0.00    -0.508 OA
ATOM     25  H   UNL     1      15.524  -6.478 -13.982  1.00  0.00     0.293 HD
ENDBRANCH   8  24
TORSDOF 5
ENDMDL
MODEL 9
REMARK VINA RESULT:    -5.563      2.475      6.673
REMARK INTER + INTRA:          -6.801
REMARK INTER:                  -6.513
REMARK INTRA:                  -0.288
REMARK UNBOUND:                -0.262
REMARK SMILES O=c1c(O)c(-c2ccc(O)cc2)oc2cc(O)cc(O)c12
REMARK SMILES IDX 5 1 3 2 2 3 1 4 21 5 19 6 18 7 16 8 15 9 14 10 13 11 6 12
REMARK SMILES IDX 7 13 8 14 9 15 12 16 11 17 10 18 4 20 20 22 17 24
REMARK H PARENT 10 19 4 21 20 23 17 25
REMARK Flexibility Score: inf
ROOT
ATOM      1  C   UNL     1      18.437  -0.609 -15.881  1.00  0.00     0.180 A 
ATOM      2  C   UNL     1      19.586  -0.039 -15.306  1.00  0.00     0.208 A 
ATOM      3  C   UNL     1      20.678   0.269 -16.131  1.00  0.00     0.238 A 
ATOM      4  O   UNL     1      21.674   0.847 -15.623  1.00  0.00    -0.285 OA
ATOM      5  C   UNL     1      20.632  -0.048 -17.511  1.00  0.00     0.111 A 
ATOM      6  C   UNL     1      21.699   0.179 -18.433  1.00  0.00     0.134 A 
ATOM      7  C   UNL     1      21.500  -0.077 -19.796  1.00  0.00     0.093 A 
ATOM      8  C   UNL     1      20.296  -0.610 -20.260  1.00  0.00     0.123 A 
ATOM      9  C   UNL     1      19.269  -0.886 -19.361  1.00  0.00     0.094 A 
ATOM     10  C   UNL     1      19.422  -0.606 -18.001  1.00  0.00     0.146 A 
ATOM     11  O   UNL     1      18.410  -0.864 -17.183  1.00  0.00    -0.452 OA
ENDROOT
BRANCH   1  12
ATOM     12  C   UNL     1      17.239  -0.948 -15.079  1.00  0.00     0.021 A 
ATOM     13  C   UNL     1      16.224   0.010 -14.913  1.00  0.00     0.016 A 
ATOM     14  C   UNL     1      15.095  -0.281 -14.141  1.00  0.00     0.047 A 
ATOM     15  C   UNL     1      14.974  -1.524 -13.513  1.00  0.00     0.115 A 
ATOM     16  C   UNL     1      17.120  -2.189 -14.428  1.00  0.00     0.016 A 
ATOM     17  C   UNL     1      15.989  -2.477 -13.656  1.00  0.00     0.047 A 
BRANCH  15  18
ATOM     18  O   UNL     1      13.842  -1.800 -12.748  1.00  0.00    -0.508 OA
ATOM     19  H   UNL     1      12.941  -1.394 -12.972  1.00  0.00     0.293 HD
ENDBRANCH  15  18
ENDBRANCH   1  12
BRANCH   2  20
ATOM     20  O   UNL     1      19.642   0.195 -13.930  1.00  0.00    -0.502 OA
ATOM     21  H   UNL     1      18.905  -0.095 -13.298  1.00  0.00     0.293 HD
ENDBRANCH   2  20
BRANCH   6  22
ATOM     22  O   UNL     1      22.971   0.625 -18.064  1.00  0.00    -0.507 OA
ATOM     23  H   UNL     1      23.835   0.330 -18.495  1.00  0.00     0.293 HD
ENDBRANCH   6  22
BRANCH   8  24
ATOM     24  O   UNL     1      20.113  -0.878 -21.615  1.00  0.00    -0.508 OA
ATOM     25  H   UNL     1      20.606  -0.355 -22.330  1.00  0.00     0.293 HD
ENDBRANCH   8  24
TORSDOF 5
ENDMDL
