MODEL 1
REMARK VINA RESULT:    -3.576      0.000      0.000
REMARK INTER + INTRA:          -8.411
REMARK INTER:                  -6.503
REMARK INTRA:                  -1.908
REMARK UNBOUND:                -1.908
REMARK SMILES CCCCCCCCCCCCCCCC(=O)[O-]
REMARK SMILES IDX 9 1 10 2 11 3 12 4 13 5 14 6 15 7 16 8 17 9 18 10 8 11 7 12
REMARK SMILES IDX 6 13 5 14 4 15 3 16 2 17 1 18
REMARK H PARENT
REMARK Flexibility Score: inf
ROOT
ATOM      1  C   UNL     1     122.928  55.401  45.403  1.00  0.00     0.000 C 
ENDROOT
BRANCH   1   2
ATOM      2  C   UNL     1     123.541  55.152  46.792  1.00  0.00     0.000 C 
BRANCH   2   3
ATOM      3  C   UNL     1     124.850  55.916  47.068  1.00  0.00     0.000 C 
BRANCH   3   4
ATOM      4  C   UNL     1     125.373  55.754  48.512  1.00  0.00     0.000 C 
BRANCH   4   5
ATOM      5  C   UNL     1     124.398  54.960  49.399  1.00  0.00     0.000 C 
BRANCH   5   6
ATOM      6  C   UNL     1     123.761  55.825  50.501  1.00  0.00     0.006 C 
BRANCH   6   7
ATOM      7  C   UNL     1     124.742  56.241  51.609  1.00  0.00     0.053 C 
BRANCH   7   8
ATOM      8  C   UNL     1     124.852  57.730  51.733  1.00  0.00     0.041 C 
ATOM      9  O   UNL     1     123.825  58.452  51.638  1.00  0.00    -0.550 OA
ATOM     10  O   UNL     1     126.092  58.323  51.933  1.00  0.00    -0.550 OA
ENDBRANCH   7   8
ENDBRANCH   6   7
ENDBRANCH   5   6
ENDBRANCH   4   5
ENDBRANCH   3   4
ENDBRANCH   2   3
ENDBRANCH   1   2
BRANCH   1  11
ATOM     11  C   UNL     1     123.740  56.398  44.564  1.00  0.00     0.000 C 
BRANCH  11  12
ATOM     12  C   UNL     1     124.271  55.731  43.286  1.00  0.00    -0.000 C 
BRANCH  12  13
ATOM     13  C   UNL     1     125.808  55.710  43.210  1.00  0.00    -0.000 C 
BRANCH  13  14
ATOM     14  C   UNL     1     126.454  54.318  43.342  1.00  0.00    -0.000 C 
BRANCH  14  15
ATOM     15  C   UNL     1     125.430  53.173  43.284  1.00  0.00    -0.000 C 
BRANCH  15  16
ATOM     16  C   UNL     1     125.313  52.412  44.614  1.00  0.00    -0.000 C 
BRANCH  16  17
ATOM     17  C   UNL     1     126.308  52.891  45.693  1.00  0.00    -0.003 C 
ATOM     18  C   UNL     1     126.458  51.882  46.832  1.00  0.00     0.004 C 
ENDBRANCH  16  17
ENDBRANCH  15  16
ENDBRANCH  14  15
ENDBRANCH  13  14
ENDBRANCH  12  13
ENDBRANCH  11  12
ENDBRANCH   1  11
TORSDOF 14
ENDMDL
MODEL 2
REMARK VINA RESULT:    -3.564      6.775      9.783
REMARK INTER + INTRA:          -8.389
REMARK INTER:                  -6.603
REMARK INTRA:                  -1.786
REMARK UNBOUND:                -1.908
REMARK SMILES CCCCCCCCCCCCCCCC(=O)[O-]
REMARK SMILES IDX 9 1 10 2 11 3 12 4 13 5 14 6 15 7 16 8 17 9 18 10 8 11 7 12
REMARK SMILES IDX 6 13 5 14 4 15 3 16 2 17 1 18
REMARK H PARENT
REMARK Flexibility Score: inf
ROOT
ATOM      1  C   UNL     1     118.228  51.584  53.869  1.00  0.00     0.000 C 
ENDROOT
BRANCH   1   2
ATOM      2  C   UNL     1     119.342  52.642  53.956  1.00  0.00     0.000 C 
BRANCH   2   3
ATOM      3  C   UNL     1     118.957  53.925  54.718  1.00  0.00     0.000 C 
BRANCH   3   4
ATOM      4  C   UNL     1     119.730  54.119  56.041  1.00  0.00     0.000 C 
BRANCH   4   5
ATOM      5  C   UNL     1     120.976  53.221  56.125  1.00  0.00     0.000 C 
BRANCH   5   6
ATOM      6  C   UNL     1     122.274  53.975  55.783  1.00  0.00     0.006 C 
BRANCH   6   7
ATOM      7  C   UNL     1     123.042  53.381  54.592  1.00  0.00     0.053 C 
BRANCH   7   8
ATOM      8  C   UNL     1     123.072  54.315  53.420  1.00  0.00     0.041 C 
ATOM      9  O   UNL     1     121.999  54.675  52.869  1.00  0.00    -0.550 OA
ATOM     10  O   UNL     1     124.286  54.773  52.925  1.00  0.00    -0.550 OA
ENDBRANCH   7   8
ENDBRANCH   6   7
ENDBRANCH   5   6
ENDBRANCH   4   5
ENDBRANCH   3   4
ENDBRANCH   2   3
ENDBRANCH   1   2
BRANCH   1  11
ATOM     11  C   UNL     1     116.915  52.046  54.519  1.00  0.00     0.000 C 
BRANCH  11  12
ATOM     12  C   UNL     1     115.770  52.047  53.496  1.00  0.00    -0.000 C 
BRANCH  12  13
ATOM     13  C   UNL     1     115.346  53.462  53.066  1.00  0.00    -0.000 C 
BRANCH  13  14
ATOM     14  C   UNL     1     115.499  53.766  51.563  1.00  0.00    -0.000 C 
BRANCH  14  15
ATOM     15  C   UNL     1     116.966  53.830  51.110  1.00  0.00    -0.000 C 
BRANCH  15  16
ATOM     16  C   UNL     1     117.689  55.090  51.611  1.00  0.00    -0.000 C 
BRANCH  16  17
ATOM     17  C   UNL     1     118.027  56.098  50.491  1.00  0.00    -0.003 C 
ATOM     18  C   UNL     1     118.628  55.417  49.261  1.00  0.00     0.004 C 
ENDBRANCH  16  17
ENDBRANCH  15  16
ENDBRANCH  14  15
ENDBRANCH  13  14
ENDBRANCH  12  13
ENDBRANCH  11  12
ENDBRANCH   1  11
TORSDOF 14
ENDMDL
MODEL 3
REMARK VINA RESULT:    -3.551      7.007      9.477
REMARK INTER + INTRA:          -8.366
REMARK INTER:                  -6.305
REMARK INTRA:                  -2.061
REMARK UNBOUND:                -1.908
REMARK SMILES CCCCCCCCCCCCCCCC(=O)[O-]
REMARK SMILES IDX 9 1 10 2 11 3 12 4 13 5 14 6 15 7 16 8 17 9 18 10 8 11 7 12
REMARK SMILES IDX 6 13 5 14 4 15 3 16 2 17 1 18
REMARK H PARENT
REMARK Flexibility Score: inf
ROOT
ATOM      1  C   UNL     1     119.518  53.930  52.190  1.00  0.00     0.000 C 
ENDROOT
BRANCH   1   2
ATOM      2  C   UNL     1     119.025  54.559  53.505  1.00  0.00     0.000 C 
BRANCH   2   3
ATOM      3  C   UNL     1     118.962  53.591  54.701  1.00  0.00     0.000 C 
BRANCH   3   4
ATOM      4  C   UNL     1     119.900  53.977  55.866  1.00  0.00     0.000 C 
BRANCH   4   5
ATOM      5  C   UNL     1     121.264  53.270  55.774  1.00  0.00     0.000 C 
BRANCH   5   6
ATOM      6  C   UNL     1     122.362  54.175  55.186  1.00  0.00     0.006 C 
BRANCH   6   7
ATOM      7  C   UNL     1     123.068  53.576  53.959  1.00  0.00     0.053 C 
BRANCH   7   8
ATOM      8  C   UNL     1     123.284  54.595  52.882  1.00  0.00     0.041 C 
ATOM      9  O   UNL     1     123.720  55.740  53.171  1.00  0.00    -0.550 OA
ATOM     10  O   UNL     1     122.987  54.287  51.560  1.00  0.00    -0.550 OA
ENDBRANCH   7   8
ENDBRANCH   6   7
ENDBRANCH   5   6
ENDBRANCH   4   5
ENDBRANCH   3   4
ENDBRANCH   2   3
ENDBRANCH   1   2
BRANCH   1  11
ATOM     11  C   UNL     1     118.400  53.777  51.147  1.00  0.00     0.000 C 
BRANCH  11  12
ATOM     12  C   UNL     1     117.186  54.643  51.517  1.00  0.00    -0.000 C 
BRANCH  12  13
ATOM     13  C   UNL     1     115.880  53.836  51.625  1.00  0.00    -0.000 C 
BRANCH  13  14
ATOM     14  C   UNL     1     115.548  53.309  53.034  1.00  0.00    -0.000 C 
BRANCH  14  15
ATOM     15  C   UNL     1     115.578  51.775  53.124  1.00  0.00    -0.000 C 
BRANCH  15  16
ATOM     16  C   UNL     1     115.745  51.102  51.752  1.00  0.00    -0.000 C 
BRANCH  16  17
ATOM     17  C   UNL     1     116.941  50.129  51.680  1.00  0.00    -0.003 C 
ATOM     18  C   UNL     1     118.093  50.559  52.589  1.00  0.00     0.004 C 
ENDBRANCH  16  17
ENDBRANCH  15  16
ENDBRANCH  14  15
ENDBRANCH  13  14
ENDBRANCH  12  13
ENDBRANCH  11  12
ENDBRANCH   1  11
TORSDOF 14
ENDMDL
MODEL 4
REMARK VINA RESULT:    -3.491      1.214      2.315
REMARK INTER + INTRA:          -8.257
REMARK INTER:                  -6.760
REMARK INTRA:                  -1.497
REMARK UNBOUND:                -1.908
REMARK SMILES CCCCCCCCCCCCCCCC(=O)[O-]
REMARK SMILES IDX 9 1 10 2 11 3 12 4 13 5 14 6 15 7 16 8 17 9 18 10 8 11 7 12
REMARK SMILES IDX 6 13 5 14 4 15 3 16 2 17 1 18
REMARK H PARENT
REMARK Flexibility Score: inf
ROOT
ATOM      1  C   UNL     1     124.653  57.239  44.507  1.00  0.00     0.000 C 
ENDROOT
BRANCH   1   2
ATOM      2  C   UNL     1     124.570  57.055  46.032  1.00  0.00     0.000 C 
BRANCH   2   3
ATOM      3  C   UNL     1     123.561  55.989  46.500  1.00  0.00     0.000 C 
BRANCH   3   4
ATOM      4  C   UNL     1     124.134  55.006  47.545  1.00  0.00     0.000 C 
BRANCH   4   5
ATOM      5  C   UNL     1     124.860  55.732  48.690  1.00  0.00     0.000 C 
BRANCH   5   6
ATOM      6  C   UNL     1     123.942  56.006  49.895  1.00  0.00     0.006 C 
BRANCH   6   7
ATOM      7  C   UNL     1     124.696  56.175  51.224  1.00  0.00     0.053 C 
BRANCH   7   8
ATOM      8  C   UNL     1     124.802  57.613  51.631  1.00  0.00     0.041 C 
ATOM      9  O   UNL     1     125.920  58.101  51.945  1.00  0.00    -0.550 OA
ATOM     10  O   UNL     1     123.666  58.410  51.683  1.00  0.00    -0.550 OA
ENDBRANCH   7   8
ENDBRANCH   6   7
ENDBRANCH   5   6
ENDBRANCH   4   5
ENDBRANCH   3   4
ENDBRANCH   2   3
ENDBRANCH   1   2
BRANCH   1  11
ATOM     11  C   UNL     1     124.556  55.912  43.740  1.00  0.00     0.000 C 
BRANCH  11  12
ATOM     12  C   UNL     1     125.866  55.614  42.995  1.00  0.00    -0.000 C 
BRANCH  12  13
ATOM     13  C   UNL     1     126.520  54.292  43.432  1.00  0.00    -0.000 C 
BRANCH  13  14
ATOM     14  C   UNL     1     125.938  53.661  44.711  1.00  0.00    -0.000 C 
BRANCH  14  15
ATOM     15  C   UNL     1     125.154  52.367  44.440  1.00  0.00    -0.000 C 
BRANCH  15  16
ATOM     16  C   UNL     1     124.759  52.209  42.962  1.00  0.00    -0.000 C 
BRANCH  16  17
ATOM     17  C   UNL     1     123.268  51.871  42.752  1.00  0.00    -0.003 C 
ATOM     18  C   UNL     1     122.362  53.083  42.972  1.00  0.00     0.004 C 
ENDBRANCH  16  17
ENDBRANCH  15  16
ENDBRANCH  14  15
ENDBRANCH  13  14
ENDBRANCH  12  13
ENDBRANCH  11  12
ENDBRANCH   1  11
TORSDOF 14
ENDMDL
MODEL 5
REMARK VINA RESULT:    -3.457      5.023      7.562
REMARK INTER + INTRA:          -8.195
REMARK INTER:                  -6.096
REMARK INTRA:                  -2.099
REMARK UNBOUND:                -1.908
REMARK SMILES CCCCCCCCCCCCCCCC(=O)[O-]
REMARK SMILES IDX 9 1 10 2 11 3 12 4 13 5 14 6 15 7 16 8 17 9 18 10 8 11 7 12
REMARK SMILES IDX 6 13 5 14 4 15 3 16 2 17 1 18
REMARK H PARENT
REMARK Flexibility Score: inf
ROOT
ATOM      1  C   UNL     1     126.496  53.511  44.790  1.00  0.00     0.000 C 
ENDROOT
BRANCH   1   2
ATOM      2  C   UNL     1     125.305  52.830  45.486  1.00  0.00     0.000 C 
BRANCH   2   3
ATOM      3  C   UNL     1     125.303  51.292  45.407  1.00  0.00     0.000 C 
BRANCH   3   4
ATOM      4  C   UNL     1     124.137  50.712  44.577  1.00  0.00     0.000 C 
BRANCH   4   5
ATOM      5  C   UNL     1     123.137  51.797  44.141  1.00  0.00     0.000 C 
BRANCH   5   6
ATOM      6  C   UNL     1     123.192  52.080  42.629  1.00  0.00     0.006 C 
BRANCH   6   7
ATOM      7  C   UNL     1     123.841  50.954  41.809  1.00  0.00     0.053 C 
BRANCH   7   8
ATOM      8  C   UNL     1     122.968  50.508  40.676  1.00  0.00     0.041 C 
ATOM      9  O   UNL     1     123.104  49.356  40.186  1.00  0.00    -0.550 OA
ATOM     10  O   UNL     1     122.016  51.371  40.147  1.00  0.00    -0.550 OA
ENDBRANCH   7   8
ENDBRANCH   6   7
ENDBRANCH   5   6
ENDBRANCH   4   5
ENDBRANCH   3   4
ENDBRANCH   2   3
ENDBRANCH   1   2
BRANCH   1  11
ATOM     11  C   UNL     1     126.150  54.026  43.385  1.00  0.00     0.000 C 
BRANCH  11  12
ATOM     12  C   UNL     1     125.691  55.492  43.439  1.00  0.00    -0.000 C 
BRANCH  12  13
ATOM     13  C   UNL     1     124.162  55.648  43.371  1.00  0.00    -0.000 C 
BRANCH  13  14
ATOM     14  C   UNL     1     123.540  56.513  44.483  1.00  0.00    -0.000 C 
BRANCH  14  15
ATOM     15  C   UNL     1     124.522  56.821  45.624  1.00  0.00    -0.000 C 
BRANCH  15  16
ATOM     16  C   UNL     1     124.159  56.100  46.932  1.00  0.00    -0.000 C 
BRANCH  16  17
ATOM     17  C   UNL     1     125.376  55.793  47.830  1.00  0.00    -0.003 C 
ATOM     18  C   UNL     1     125.123  54.612  48.767  1.00  0.00     0.004 C 
ENDBRANCH  16  17
ENDBRANCH  15  16
ENDBRANCH  14  15
ENDBRANCH  13  14
ENDBRANCH  12  13
ENDBRANCH  11  12
ENDBRANCH   1  11
TORSDOF 14
ENDMDL
MODEL 6
REMARK VINA RESULT:    -3.441      3.657      5.435
REMARK INTER + INTRA:          -8.165
REMARK INTER:                  -5.806
REMARK INTRA:                  -2.359
REMARK UNBOUND:                -1.908
REMARK SMILES CCCCCCCCCCCCCCCC(=O)[O-]
REMARK SMILES IDX 9 1 10 2 11 3 12 4 13 5 14 6 15 7 16 8 17 9 18 10 8 11 7 12
REMARK SMILES IDX 6 13 5 14 4 15 3 16 2 17 1 18
REMARK H PARENT
REMARK Flexibility Score: inf
ROOT
ATOM      1  C   UNL     1     123.936  52.859  46.430  1.00  0.00     0.000 C 
ENDROOT
BRANCH   1   2
ATOM      2  C   UNL     1     125.332  53.200  45.880  1.00  0.00     0.000 C 
BRANCH   2   3
ATOM      3  C   UNL     1     125.770  52.362  44.663  1.00  0.00     0.000 C 
BRANCH   3   4
ATOM      4  C   UNL     1     125.913  53.182  43.362  1.00  0.00     0.000 C 
BRANCH   4   5
ATOM      5  C   UNL     1     126.579  54.547  43.604  1.00  0.00     0.000 C 
BRANCH   5   6
ATOM      6  C   UNL     1     125.823  55.704  42.927  1.00  0.00     0.006 C 
BRANCH   6   7
ATOM      7  C   UNL     1     124.461  56.015  43.569  1.00  0.00     0.053 C 
BRANCH   7   8
ATOM      8  C   UNL     1     124.573  57.039  44.657  1.00  0.00     0.041 C 
ATOM      9  O   UNL     1     124.665  58.262  44.369  1.00  0.00    -0.550 OA
ATOM     10  O   UNL     1     124.594  56.644  45.988  1.00  0.00    -0.550 OA
ENDBRANCH   7   8
ENDBRANCH   6   7
ENDBRANCH   5   6
ENDBRANCH   4   5
ENDBRANCH   3   4
ENDBRANCH   2   3
ENDBRANCH   1   2
BRANCH   1  11
ATOM     11  C   UNL     1     122.802  53.478  45.599  1.00  0.00     0.000 C 
BRANCH  11  12
ATOM     12  C   UNL     1     122.142  52.420  44.702  1.00  0.00    -0.000 C 
BRANCH  12  13
ATOM     13  C   UNL     1     122.298  52.720  43.201  1.00  0.00    -0.000 C 
BRANCH  13  14
ATOM     14  C   UNL     1     121.933  51.558  42.257  1.00  0.00    -0.000 C 
BRANCH  14  15
ATOM     15  C   UNL     1     123.097  51.137  41.347  1.00  0.00    -0.000 C 
BRANCH  15  16
ATOM     16  C   UNL     1     124.117  50.236  42.062  1.00  0.00    -0.000 C 
BRANCH  16  17
ATOM     17  C   UNL     1     123.473  49.202  43.010  1.00  0.00    -0.003 C 
ATOM     18  C   UNL     1     124.318  48.957  44.261  1.00  0.00     0.004 C 
ENDBRANCH  16  17
ENDBRANCH  15  16
ENDBRANCH  14  15
ENDBRANCH  13  14
ENDBRANCH  12  13
ENDBRANCH  11  12
ENDBRANCH   1  11
TORSDOF 14
ENDMDL
MODEL 7
REMARK VINA RESULT:    -3.419      9.280     12.082
REMARK INTER + INTRA:          -8.125
REMARK INTER:                  -6.056
REMARK INTRA:                  -2.069
REMARK UNBOUND:                -1.908
REMARK SMILES CCCCCCCCCCCCCCCC(=O)[O-]
REMARK SMILES IDX 9 1 10 2 11 3 12 4 13 5 14 6 15 7 16 8 17 9 18 10 8 11 7 12
REMARK SMILES IDX 6 13 5 14 4 15 3 16 2 17 1 18
REMARK H PARENT
REMARK Flexibility Score: inf
ROOT
ATOM      1  C   UNL     1     116.606  50.932  51.955  1.00  0.00     0.000 C 
ENDROOT
BRANCH   1   2
ATOM      2  C   UNL     1     116.351  49.545  51.341  1.00  0.00     0.000 C 
BRANCH   2   3
ATOM      3  C   UNL     1     114.866  49.197  51.123  1.00  0.00     0.000 C 
BRANCH   3   4
ATOM      4  C   UNL     1     114.572  48.549  49.752  1.00  0.00     0.000 C 
BRANCH   4   5
ATOM      5  C   UNL     1     114.949  49.471  48.580  1.00  0.00     0.000 C 
BRANCH   5   6
ATOM      6  C   UNL     1     114.243  50.838  48.650  1.00  0.00     0.006 C 
BRANCH   6   7
ATOM      7  C   UNL     1     115.163  52.029  48.336  1.00  0.00     0.053 C 
BRANCH   7   8
ATOM      8  C   UNL     1     114.461  53.341  48.505  1.00  0.00     0.041 C 
ATOM      9  O   UNL     1     114.517  53.952  49.605  1.00  0.00    -0.550 OA
ATOM     10  O   UNL     1     113.729  53.882  47.456  1.00  0.00    -0.550 OA
ENDBRANCH   7   8
ENDBRANCH   6   7
ENDBRANCH   5   6
ENDBRANCH   4   5
ENDBRANCH   3   4
ENDBRANCH   2   3
ENDBRANCH   1   2
BRANCH   1  11
ATOM     11  C   UNL     1     115.316  51.738  52.164  1.00  0.00     0.000 C 
BRANCH  11  12
ATOM     12  C   UNL     1     115.416  52.613  53.422  1.00  0.00    -0.000 C 
BRANCH  12  13
ATOM     13  C   UNL     1     116.407  52.061  54.463  1.00  0.00    -0.000 C 
BRANCH  13  14
ATOM     14  C   UNL     1     117.380  53.097  55.057  1.00  0.00    -0.000 C 
BRANCH  14  15
ATOM     15  C   UNL     1     118.778  53.041  54.422  1.00  0.00    -0.000 C 
BRANCH  15  16
ATOM     16  C   UNL     1     119.056  54.231  53.489  1.00  0.00    -0.000 C 
BRANCH  16  17
ATOM     17  C   UNL     1     118.694  53.959  52.013  1.00  0.00    -0.003 C 
ATOM     18  C   UNL     1     117.582  54.881  51.510  1.00  0.00     0.004 C 
ENDBRANCH  16  17
ENDBRANCH  15  16
ENDBRANCH  14  15
ENDBRANCH  13  14
ENDBRANCH  12  13
ENDBRANCH  11  12
ENDBRANCH   1  11
TORSDOF 14
ENDMDL
MODEL 8
REMARK VINA RESULT:    -3.415      5.359      9.239
REMARK INTER + INTRA:          -8.118
REMARK INTER:                  -6.719
REMARK INTRA:                  -1.398
REMARK UNBOUND:                -1.908
REMARK SMILES CCCCCCCCCCCCCCCC(=O)[O-]
REMARK SMILES IDX 9 1 10 2 11 3 12 4 13 5 14 6 15 7 16 8 17 9 18 10 8 11 7 12
REMARK SMILES IDX 6 13 5 14 4 15 3 16 2 17 1 18
REMARK H PARENT
REMARK Flexibility Score: inf
ROOT
ATOM      1  C   UNL     1     122.522  54.275  54.585  1.00  0.00     0.000 C 
ENDROOT
BRANCH   1   2
ATOM      2  C   UNL     1     122.987  53.320  53.471  1.00  0.00     0.000 C 
BRANCH   2   3
ATOM      3  C   UNL     1     122.889  53.895  52.045  1.00  0.00     0.000 C 
BRANCH   3   4
ATOM      4  C   UNL     1     121.494  54.456  51.693  1.00  0.00     0.000 C 
BRANCH   4   5
ATOM      5  C   UNL     1     121.570  55.614  50.683  1.00  0.00     0.000 C 
BRANCH   5   6
ATOM      6  C   UNL     1     122.985  56.209  50.569  1.00  0.00     0.006 C 
BRANCH   6   7
ATOM      7  C   UNL     1     123.178  57.510  51.364  1.00  0.00     0.053 C 
BRANCH   7   8
ATOM      8  C   UNL     1     124.553  57.612  51.951  1.00  0.00     0.041 C 
ATOM      9  O   UNL     1     125.167  56.573  52.309  1.00  0.00    -0.550 OA
ATOM     10  O   UNL     1     125.149  58.855  52.122  1.00  0.00    -0.550 OA
ENDBRANCH   7   8
ENDBRANCH   6   7
ENDBRANCH   5   6
ENDBRANCH   4   5
ENDBRANCH   3   4
ENDBRANCH   2   3
ENDBRANCH   1   2
BRANCH   1  11
ATOM     11  C   UNL     1     121.887  53.538  55.774  1.00  0.00     0.000 C 
BRANCH  11  12
ATOM     12  C   UNL     1     120.411  53.933  55.935  1.00  0.00    -0.000 C 
BRANCH  12  13
ATOM     13  C   UNL     1     119.576  53.676  54.668  1.00  0.00    -0.000 C 
BRANCH  13  14
ATOM     14  C   UNL     1     119.412  52.195  54.279  1.00  0.00    -0.000 C 
BRANCH  14  15
ATOM     15  C   UNL     1     118.077  51.903  53.576  1.00  0.00    -0.000 C 
BRANCH  15  16
ATOM     16  C   UNL     1     116.858  52.268  54.439  1.00  0.00    -0.000 C 
BRANCH  16  17
ATOM     17  C   UNL     1     115.576  52.531  53.621  1.00  0.00    -0.003 C 
ATOM     18  C   UNL     1     115.778  53.610  52.556  1.00  0.00     0.004 C 
ENDBRANCH  16  17
ENDBRANCH  15  16
ENDBRANCH  14  15
ENDBRANCH  13  14
ENDBRANCH  12  13
ENDBRANCH  11  12
ENDBRANCH   1  11
TORSDOF 14
ENDMDL
MODEL 9
REMARK VINA RESULT:    -3.405      1.242      2.763
REMARK INTER + INTRA:          -8.100
REMARK INTER:                  -6.752
REMARK INTRA:                  -1.348
REMARK UNBOUND:                -1.908
REMARK SMILES CCCCCCCCCCCCCCCC(=O)[O-]
REMARK SMILES IDX 9 1 10 2 11 3 12 4 13 5 14 6 15 7 16 8 17 9 18 10 8 11 7 12
REMARK SMILES IDX 6 13 5 14 4 15 3 16 2 17 1 18
REMARK H PARENT
REMARK Flexibility Score: inf
ROOT
ATOM      1  C   UNL     1     125.317  54.804  47.311  1.00  0.00     0.000 C 
ENDROOT
BRANCH   1   2
ATOM      2  C   UNL     1     125.740  53.769  48.368  1.00  0.00     0.000 C 
BRANCH   2   3
ATOM      3  C   UNL     1     124.799  53.665  49.583  1.00  0.00     0.000 C 
BRANCH   3   4
ATOM      4  C   UNL     1     125.518  53.295  50.899  1.00  0.00     0.000 C 
BRANCH   4   5
ATOM      5  C   UNL     1     125.113  54.216  52.063  1.00  0.00     0.000 C 
BRANCH   5   6
ATOM      6  C   UNL     1     125.305  55.707  51.732  1.00  0.00     0.006 C 
BRANCH   6   7
ATOM      7  C   UNL     1     124.261  56.628  52.386  1.00  0.00     0.053 C 
BRANCH   7   8
ATOM      8  C   UNL     1     124.447  58.060  51.989  1.00  0.00     0.041 C 
ATOM      9  O   UNL     1     123.459  58.749  51.620  1.00  0.00    -0.550 OA
ATOM     10  O   UNL     1     125.713  58.631  52.006  1.00  0.00    -0.550 OA
ENDBRANCH   7   8
ENDBRANCH   6   7
ENDBRANCH   5   6
ENDBRANCH   4   5
ENDBRANCH   3   4
ENDBRANCH   2   3
ENDBRANCH   1   2
BRANCH   1  11
ATOM     11  C   UNL     1     124.008  55.523  47.671  1.00  0.00     0.000 C 
BRANCH  11  12
ATOM     12  C   UNL     1     123.490  56.342  46.479  1.00  0.00    -0.000 C 
BRANCH  12  13
ATOM     13  C   UNL     1     124.609  57.078  45.721  1.00  0.00    -0.000 C 
BRANCH  13  14
ATOM     14  C   UNL     1     124.437  57.139  44.192  1.00  0.00    -0.000 C 
BRANCH  14  15
ATOM     15  C   UNL     1     124.573  55.765  43.517  1.00  0.00    -0.000 C 
BRANCH  15  16
ATOM     16  C   UNL     1     126.003  55.481  43.029  1.00  0.00    -0.000 C 
BRANCH  16  17
ATOM     17  C   UNL     1     126.553  54.113  43.487  1.00  0.00    -0.003 C 
ATOM     18  C   UNL     1     125.443  53.163  43.937  1.00  0.00     0.004 C 
ENDBRANCH  16  17
ENDBRANCH  15  16
ENDBRANCH  14  15
ENDBRANCH  13  14
ENDBRANCH  12  13
ENDBRANCH  11  12
ENDBRANCH   1  11
TORSDOF 14
ENDMDL
