MODEL 1
REMARK VINA RESULT:    -4.975      0.000      0.000
REMARK INTER + INTRA:         -17.200
REMARK INTER:                 -13.119
REMARK INTRA:                  -4.081
REMARK UNBOUND:                -4.081
REMARK SMILES CCCCCCCCCCCCCCCCCCCCCCCCCCCCCC(=O)[O-]
REMARK SMILES IDX 16 1 17 2 18 3 19 4 20 5 21 6 22 7 23 8 24 9 25 10 26 11
REMARK SMILES IDX 27 12 28 13 29 14 30 15 31 16 32 17 15 18 14 19 13 20 12 21
REMARK SMILES IDX 11 22 10 23 9 24 8 25 7 26 6 27 5 28 4 29 3 30 2 31 1 32
REMARK H PARENT
REMARK Flexibility Score: inf
ROOT
ATOM      1  C   UNL     1     -24.934 -26.353  42.557  1.00  0.00     0.000 C 
ENDROOT
BRANCH   1   2
ATOM      2  C   UNL     1     -24.557 -27.707  41.931  1.00  0.00     0.000 C 
BRANCH   2   3
ATOM      3  C   UNL     1     -25.436 -28.064  40.721  1.00  0.00     0.000 C 
BRANCH   3   4
ATOM      4  C   UNL     1     -24.967 -29.335  39.987  1.00  0.00     0.000 C 
BRANCH   4   5
ATOM      5  C   UNL     1     -24.029 -29.099  38.787  1.00  0.00     0.000 C 
BRANCH   5   6
ATOM      6  C   UNL     1     -22.616 -28.661  39.201  1.00  0.00     0.000 C 
BRANCH   6   7
ATOM      7  C   UNL     1     -21.835 -28.006  38.048  1.00  0.00     0.000 C 
BRANCH   7   8
ATOM      8  C   UNL     1     -21.185 -26.659  38.425  1.00  0.00     0.000 C 
BRANCH   8   9
ATOM      9  C   UNL     1     -21.090 -26.464  39.946  1.00  0.00     0.000 C 
BRANCH   9  10
ATOM     10  C   UNL     1     -20.930 -24.976  40.298  1.00  0.00     0.000 C 
BRANCH  10  11
ATOM     11  C   UNL     1     -22.073 -24.451  41.182  1.00  0.00     0.000 C 
BRANCH  11  12
ATOM     12  C   UNL     1     -22.139 -22.914  41.205  1.00  0.00     0.000 C 
BRANCH  12  13
ATOM     13  C   UNL     1     -23.552 -22.369  40.933  1.00  0.00     0.006 C 
BRANCH  13  14
ATOM     14  C   UNL     1     -23.813 -22.012  39.458  1.00  0.00     0.053 C 
BRANCH  14  15
ATOM     15  C   UNL     1     -22.653 -21.311  38.819  1.00  0.00     0.041 C 
ATOM     16  O   UNL     1     -22.445 -20.090  39.041  1.00  0.00    -0.550 OA
ATOM     17  O   UNL     1     -21.827 -21.999  37.938  1.00  0.00    -0.550 OA
ENDBRANCH  14  15
ENDBRANCH  13  14
ENDBRANCH  12  13
ENDBRANCH  11  12
ENDBRANCH  10  11
ENDBRANCH   9  10
ENDBRANCH   8   9
ENDBRANCH   7   8
ENDBRANCH   6   7
ENDBRANCH   5   6
ENDBRANCH   4   5
ENDBRANCH   3   4
ENDBRANCH   2   3
ENDBRANCH   1   2
BRANCH   1  18
ATOM     18  C   UNL     1     -25.528 -25.370  41.533  1.00  0.00     0.000 C 
BRANCH  18  19
ATOM     19  C   UNL     1     -26.908 -24.830  41.955  1.00  0.00     0.000 C 
BRANCH  19  20
ATOM     20  C   UNL     1     -27.686 -25.718  42.945  1.00  0.00     0.000 C 
BRANCH  20  21
ATOM     21  C   UNL     1     -29.004 -26.251  42.359  1.00  0.00     0.000 C 
BRANCH  21  22
ATOM     22  C   UNL     1     -30.178 -26.150  43.349  1.00  0.00     0.000 C 
BRANCH  22  23
ATOM     23  C   UNL     1     -31.519 -25.861  42.653  1.00  0.00     0.000 C 
BRANCH  23  24
ATOM     24  C   UNL     1     -32.453 -24.973  43.498  1.00  0.00    -0.000 C 
BRANCH  24  25
ATOM     25  C   UNL     1     -31.746 -24.079  44.532  1.00  0.00    -0.000 C 
BRANCH  25  26
ATOM     26  C   UNL     1     -31.800 -22.587  44.170  1.00  0.00    -0.000 C 
BRANCH  26  27
ATOM     27  C   UNL     1     -30.431 -21.922  44.366  1.00  0.00    -0.000 C 
BRANCH  27  28
ATOM     28  C   UNL     1     -29.379 -22.547  43.437  1.00  0.00    -0.000 C 
BRANCH  28  29
ATOM     29  C   UNL     1     -29.756 -22.437  41.951  1.00  0.00    -0.000 C 
BRANCH  29  30
ATOM     30  C   UNL     1     -29.026 -21.290  41.237  1.00  0.00    -0.000 C 
BRANCH  30  31
ATOM     31  C   UNL     1     -27.520 -21.342  41.514  1.00  0.00    -0.003 C 
ATOM     32  C   UNL     1     -26.809 -20.118  40.944  1.00  0.00     0.004 C 
ENDBRANCH  30  31
ENDBRANCH  29  30
ENDBRANCH  28  29
ENDBRANCH  27  28
ENDBRANCH  26  27
ENDBRANCH  25  26
ENDBRANCH  24  25
ENDBRANCH  23  24
ENDBRANCH  22  23
ENDBRANCH  21  22
ENDBRANCH  20  21
ENDBRANCH  19  20
ENDBRANCH  18  19
ENDBRANCH   1  18
TORSDOF 28
ENDMDL
MODEL 2
REMARK VINA RESULT:    -4.974      2.567      4.626
REMARK INTER + INTRA:         -17.197
REMARK INTER:                 -13.176
REMARK INTRA:                  -4.020
REMARK UNBOUND:                -4.081
REMARK SMILES CCCCCCCCCCCCCCCCCCCCCCCCCCCCCC(=O)[O-]
REMARK SMILES IDX 16 1 17 2 18 3 19 4 20 5 21 6 22 7 23 8 24 9 25 10 26 11
REMARK SMILES IDX 27 12 28 13 29 14 30 15 31 16 32 17 15 18 14 19 13 20 12 21
REMARK SMILES IDX 11 22 10 23 9 24 8 25 7 26 6 27 5 28 4 29 3 30 2 31 1 32
REMARK H PARENT
REMARK Flexibility Score: inf
ROOT
ATOM      1  C   UNL     1     -26.198 -25.433  41.740  1.00  0.00     0.000 C 
ENDROOT
BRANCH   1   2
ATOM      2  C   UNL     1     -24.936 -26.159  42.237  1.00  0.00     0.000 C 
BRANCH   2   3
ATOM      3  C   UNL     1     -23.664 -25.698  41.508  1.00  0.00     0.000 C 
BRANCH   3   4
ATOM      4  C   UNL     1     -23.609 -24.172  41.294  1.00  0.00     0.000 C 
BRANCH   4   5
ATOM      5  C   UNL     1     -22.212 -23.535  41.420  1.00  0.00     0.000 C 
BRANCH   5   6
ATOM      6  C   UNL     1     -21.816 -22.700  40.192  1.00  0.00     0.000 C 
BRANCH   6   7
ATOM      7  C   UNL     1     -21.094 -23.529  39.117  1.00  0.00     0.000 C 
BRANCH   7   8
ATOM      8  C   UNL     1     -19.895 -24.336  39.656  1.00  0.00     0.000 C 
BRANCH   8   9
ATOM      9  C   UNL     1     -20.059 -25.846  39.425  1.00  0.00     0.000 C 
BRANCH   9  10
ATOM     10  C   UNL     1     -21.320 -26.138  38.594  1.00  0.00     0.000 C 
BRANCH  10  11
ATOM     11  C   UNL     1     -21.214 -27.451  37.801  1.00  0.00     0.000 C 
BRANCH  11  12
ATOM     12  C   UNL     1     -22.329 -28.447  38.163  1.00  0.00     0.000 C 
BRANCH  12  13
ATOM     13  C   UNL     1     -22.737 -28.380  39.646  1.00  0.00     0.006 C 
BRANCH  13  14
ATOM     14  C   UNL     1     -23.552 -29.596  40.126  1.00  0.00     0.053 C 
BRANCH  14  15
ATOM     15  C   UNL     1     -24.981 -29.546  39.682  1.00  0.00     0.041 C 
ATOM     16  O   UNL     1     -25.835 -28.907  40.352  1.00  0.00    -0.550 OA
ATOM     17  O   UNL     1     -25.381 -30.246  38.550  1.00  0.00    -0.550 OA
ENDBRANCH  14  15
ENDBRANCH  13  14
ENDBRANCH  12  13
ENDBRANCH  11  12
ENDBRANCH  10  11
ENDBRANCH   9  10
ENDBRANCH   8   9
ENDBRANCH   7   8
ENDBRANCH   6   7
ENDBRANCH   5   6
ENDBRANCH   4   5
ENDBRANCH   3   4
ENDBRANCH   2   3
ENDBRANCH   1   2
BRANCH   1  18
ATOM     18  C   UNL     1     -27.360 -25.504  42.746  1.00  0.00     0.000 C 
BRANCH  18  19
ATOM     19  C   UNL     1     -28.580 -26.268  42.196  1.00  0.00     0.000 C 
BRANCH  19  20
ATOM     20  C   UNL     1     -29.858 -26.165  43.050  1.00  0.00     0.000 C 
BRANCH  20  21
ATOM     21  C   UNL     1     -31.144 -26.327  42.222  1.00  0.00     0.000 C 
BRANCH  21  22
ATOM     22  C   UNL     1     -32.046 -25.082  42.274  1.00  0.00     0.000 C 
BRANCH  22  23
ATOM     23  C   UNL     1     -31.964 -24.235  40.992  1.00  0.00     0.000 C 
BRANCH  23  24
ATOM     24  C   UNL     1     -30.887 -23.135  41.068  1.00  0.00    -0.000 C 
BRANCH  24  25
ATOM     25  C   UNL     1     -30.484 -22.712  42.493  1.00  0.00    -0.000 C 
BRANCH  25  26
ATOM     26  C   UNL     1     -29.034 -22.214  42.581  1.00  0.00    -0.000 C 
BRANCH  26  27
ATOM     27  C   UNL     1     -28.906 -20.790  42.025  1.00  0.00    -0.000 C 
BRANCH  27  28
ATOM     28  C   UNL     1     -27.844 -20.726  40.916  1.00  0.00    -0.000 C 
BRANCH  28  29
ATOM     29  C   UNL     1     -26.753 -21.796  41.075  1.00  0.00    -0.000 C 
BRANCH  29  30
ATOM     30  C   UNL     1     -25.692 -21.731  39.966  1.00  0.00    -0.000 C 
BRANCH  30  31
ATOM     31  C   UNL     1     -25.074 -20.332  39.880  1.00  0.00    -0.003 C 
ATOM     32  C   UNL     1     -24.167 -20.054  41.075  1.00  0.00     0.004 C 
ENDBRANCH  30  31
ENDBRANCH  29  30
ENDBRANCH  28  29
ENDBRANCH  27  28
ENDBRANCH  26  27
ENDBRANCH  25  26
ENDBRANCH  24  25
ENDBRANCH  23  24
ENDBRANCH  22  23
ENDBRANCH  21  22
ENDBRANCH  20  21
ENDBRANCH  19  20
ENDBRANCH  18  19
ENDBRANCH   1  18
TORSDOF 28
ENDMDL
MODEL 3
REMARK VINA RESULT:    -4.968      4.790     11.409
REMARK INTER + INTRA:         -17.182
REMARK INTER:                 -13.929
REMARK INTRA:                  -3.253
REMARK UNBOUND:                -4.081
REMARK SMILES CCCCCCCCCCCCCCCCCCCCCCCCCCCCCC(=O)[O-]
REMARK SMILES IDX 16 1 17 2 18 3 19 4 20 5 21 6 22 7 23 8 24 9 25 10 26 11
REMARK SMILES IDX 27 12 28 13 29 14 30 15 31 16 32 17 15 18 14 19 13 20 12 21
REMARK SMILES IDX 11 22 10 23 9 24 8 25 7 26 6 27 5 28 4 29 3 30 2 31 1 32
REMARK H PARENT
REMARK Flexibility Score: inf
ROOT
ATOM      1  C   UNL     1     -18.189 -26.993  37.698  1.00  0.00     0.000 C 
ENDROOT
BRANCH   1   2
ATOM      2  C   UNL     1     -18.753 -26.181  38.878  1.00  0.00     0.000 C 
BRANCH   2   3
ATOM      3  C   UNL     1     -20.284 -26.275  38.980  1.00  0.00     0.000 C 
BRANCH   3   4
ATOM      4  C   UNL     1     -20.916 -27.112  37.850  1.00  0.00     0.000 C 
BRANCH   4   5
ATOM      5  C   UNL     1     -21.932 -28.177  38.304  1.00  0.00     0.000 C 
BRANCH   5   6
ATOM      6  C   UNL     1     -22.375 -28.006  39.766  1.00  0.00     0.000 C 
BRANCH   6   7
ATOM      7  C   UNL     1     -22.991 -29.287  40.354  1.00  0.00     0.000 C 
BRANCH   7   8
ATOM      8  C   UNL     1     -24.090 -29.023  41.403  1.00  0.00     0.000 C 
BRANCH   8   9
ATOM      9  C   UNL     1     -24.960 -27.810  41.042  1.00  0.00     0.000 C 
BRANCH   9  10
ATOM     10  C   UNL     1     -24.888 -26.738  42.142  1.00  0.00     0.000 C 
BRANCH  10  11
ATOM     11  C   UNL     1     -24.654 -25.327  41.580  1.00  0.00     0.000 C 
BRANCH  11  12
ATOM     12  C   UNL     1     -23.167 -25.043  41.307  1.00  0.00     0.000 C 
BRANCH  12  13
ATOM     13  C   UNL     1     -22.861 -23.543  41.145  1.00  0.00     0.006 C 
BRANCH  13  14
ATOM     14  C   UNL     1     -21.678 -23.243  40.206  1.00  0.00     0.053 C 
BRANCH  14  15
ATOM     15  C   UNL     1     -22.086 -22.472  38.989  1.00  0.00     0.041 C 
ATOM     16  O   UNL     1     -21.215 -22.009  38.207  1.00  0.00    -0.550 OA
ATOM     17  O   UNL     1     -23.431 -22.224  38.742  1.00  0.00    -0.550 OA
ENDBRANCH  14  15
ENDBRANCH  13  14
ENDBRANCH  12  13
ENDBRANCH  11  12
ENDBRANCH  10  11
ENDBRANCH   9  10
ENDBRANCH   8   9
ENDBRANCH   7   8
ENDBRANCH   6   7
ENDBRANCH   5   6
ENDBRANCH   4   5
ENDBRANCH   3   4
ENDBRANCH   2   3
ENDBRANCH   1   2
BRANCH   1  18
ATOM     18  C   UNL     1     -16.739 -27.451  37.932  1.00  0.00     0.000 C 
BRANCH  18  19
ATOM     19  C   UNL     1     -16.246 -28.440  36.858  1.00  0.00     0.000 C 
BRANCH  19  20
ATOM     20  C   UNL     1     -16.093 -29.899  37.330  1.00  0.00     0.000 C 
BRANCH  20  21
ATOM     21  C   UNL     1     -15.066 -30.690  36.502  1.00  0.00     0.000 C 
BRANCH  21  22
ATOM     22  C   UNL     1     -14.887 -30.126  35.082  1.00  0.00     0.000 C 
BRANCH  22  23
ATOM     23  C   UNL     1     -13.446 -29.666  34.803  1.00  0.00     0.000 C 
BRANCH  23  24
ATOM     24  C   UNL     1     -13.360 -28.187  34.379  1.00  0.00    -0.000 C 
BRANCH  24  25
ATOM     25  C   UNL     1     -14.712 -27.514  34.077  1.00  0.00    -0.000 C 
BRANCH  25  26
ATOM     26  C   UNL     1     -14.632 -25.980  34.087  1.00  0.00    -0.000 C 
BRANCH  26  27
ATOM     27  C   UNL     1     -15.772 -25.374  34.915  1.00  0.00    -0.000 C 
BRANCH  27  28
ATOM     28  C   UNL     1     -15.227 -24.660  36.162  1.00  0.00    -0.000 C 
BRANCH  28  29
ATOM     29  C   UNL     1     -16.257 -23.720  36.807  1.00  0.00    -0.000 C 
BRANCH  29  30
ATOM     30  C   UNL     1     -15.604 -22.617  37.654  1.00  0.00    -0.000 C 
BRANCH  30  31
ATOM     31  C   UNL     1     -16.314 -22.471  39.004  1.00  0.00    -0.003 C 
ATOM     32  C   UNL     1     -17.803 -22.776  38.882  1.00  0.00     0.004 C 
ENDBRANCH  30  31
ENDBRANCH  29  30
ENDBRANCH  28  29
ENDBRANCH  27  28
ENDBRANCH  26  27
ENDBRANCH  25  26
ENDBRANCH  24  25
ENDBRANCH  23  24
ENDBRANCH  22  23
ENDBRANCH  21  22
ENDBRANCH  20  21
ENDBRANCH  19  20
ENDBRANCH  18  19
ENDBRANCH   1  18
TORSDOF 28
ENDMDL
MODEL 4
REMARK VINA RESULT:    -4.914      4.474      7.823
REMARK INTER + INTRA:         -17.038
REMARK INTER:                 -13.351
REMARK INTRA:                  -3.687
REMARK UNBOUND:                -4.081
REMARK SMILES CCCCCCCCCCCCCCCCCCCCCCCCCCCCCC(=O)[O-]
REMARK SMILES IDX 16 1 17 2 18 3 19 4 20 5 21 6 22 7 23 8 24 9 25 10 26 11
REMARK SMILES IDX 27 12 28 13 29 14 30 15 31 16 32 17 15 18 14 19 13 20 12 21
REMARK SMILES IDX 11 22 10 23 9 24 8 25 7 26 6 27 5 28 4 29 3 30 2 31 1 32
REMARK H PARENT
REMARK Flexibility Score: inf
ROOT
ATOM      1  C   UNL     1     -18.281 -27.159  37.487  1.00  0.00     0.000 C 
ENDROOT
BRANCH   1   2
ATOM      2  C   UNL     1     -16.746 -27.260  37.489  1.00  0.00     0.000 C 
BRANCH   2   3
ATOM      3  C   UNL     1     -16.250 -28.710  37.363  1.00  0.00     0.000 C 
BRANCH   3   4
ATOM      4  C   UNL     1     -15.759 -29.060  35.944  1.00  0.00     0.000 C 
BRANCH   4   5
ATOM      5  C   UNL     1     -15.360 -27.858  35.067  1.00  0.00     0.000 C 
BRANCH   5   6
ATOM      6  C   UNL     1     -13.873 -27.859  34.679  1.00  0.00     0.000 C 
BRANCH   6   7
ATOM      7  C   UNL     1     -13.328 -26.445  34.411  1.00  0.00     0.000 C 
BRANCH   7   8
ATOM      8  C   UNL     1     -13.942 -25.360  35.319  1.00  0.00     0.000 C 
BRANCH   8   9
ATOM      9  C   UNL     1     -14.650 -24.260  34.514  1.00  0.00     0.000 C 
BRANCH   9  10
ATOM     10  C   UNL     1     -16.067 -24.012  35.055  1.00  0.00     0.000 C 
BRANCH  10  11
ATOM     11  C   UNL     1     -16.169 -24.239  36.572  1.00  0.00     0.000 C 
BRANCH  11  12
ATOM     12  C   UNL     1     -16.196 -22.920  37.363  1.00  0.00     0.000 C 
BRANCH  12  13
ATOM     13  C   UNL     1     -16.802 -23.074  38.770  1.00  0.00     0.006 C 
BRANCH  13  14
ATOM     14  C   UNL     1     -18.271 -22.623  38.871  1.00  0.00     0.053 C 
BRANCH  14  15
ATOM     15  C   UNL     1     -18.491 -21.242  38.334  1.00  0.00     0.041 C 
ATOM     16  O   UNL     1     -18.007 -20.243  38.927  1.00  0.00    -0.550 OA
ATOM     17  O   UNL     1     -19.271 -21.055  37.200  1.00  0.00    -0.550 OA
ENDBRANCH  14  15
ENDBRANCH  13  14
ENDBRANCH  12  13
ENDBRANCH  11  12
ENDBRANCH  10  11
ENDBRANCH   9  10
ENDBRANCH   8   9
ENDBRANCH   7   8
ENDBRANCH   6   7
ENDBRANCH   5   6
ENDBRANCH   4   5
ENDBRANCH   3   4
ENDBRANCH   2   3
ENDBRANCH   1   2
BRANCH   1  18
ATOM     18  C   UNL     1     -18.821 -26.281  38.629  1.00  0.00     0.000 C 
BRANCH  18  19
ATOM     19  C   UNL     1     -20.323 -26.499  38.892  1.00  0.00     0.000 C 
BRANCH  19  20
ATOM     20  C   UNL     1     -21.088 -27.224  37.767  1.00  0.00     0.000 C 
BRANCH  20  21
ATOM     21  C   UNL     1     -22.169 -28.179  38.300  1.00  0.00     0.000 C 
BRANCH  21  22
ATOM     22  C   UNL     1     -22.468 -27.963  39.794  1.00  0.00     0.000 C 
BRANCH  22  23
ATOM     23  C   UNL     1     -22.866 -29.263  40.514  1.00  0.00     0.000 C 
BRANCH  23  24
ATOM     24  C   UNL     1     -24.375 -29.342  40.817  1.00  0.00    -0.000 C 
BRANCH  24  25
ATOM     25  C   UNL     1     -25.217 -28.184  40.252  1.00  0.00    -0.000 C 
BRANCH  25  26
ATOM     26  C   UNL     1     -25.940 -27.381  41.343  1.00  0.00    -0.000 C 
BRANCH  26  27
ATOM     27  C   UNL     1     -24.949 -26.543  42.159  1.00  0.00    -0.000 C 
BRANCH  27  28
ATOM     28  C   UNL     1     -24.683 -25.190  41.480  1.00  0.00    -0.000 C 
BRANCH  28  29
ATOM     29  C   UNL     1     -23.195 -24.803  41.487  1.00  0.00    -0.000 C 
BRANCH  29  30
ATOM     30  C   UNL     1     -22.946 -23.396  40.924  1.00  0.00    -0.000 C 
BRANCH  30  31
ATOM     31  C   UNL     1     -21.649 -23.354  40.109  1.00  0.00    -0.003 C 
ATOM     32  C   UNL     1     -21.928 -23.039  38.642  1.00  0.00     0.004 C 
ENDBRANCH  30  31
ENDBRANCH  29  30
ENDBRANCH  28  29
ENDBRANCH  27  28
ENDBRANCH  26  27
ENDBRANCH  25  26
ENDBRANCH  24  25
ENDBRANCH  23  24
ENDBRANCH  22  23
ENDBRANCH  21  22
ENDBRANCH  20  21
ENDBRANCH  19  20
ENDBRANCH  18  19
ENDBRANCH   1  18
TORSDOF 28
ENDMDL
MODEL 5
REMARK VINA RESULT:    -4.820      2.990      6.058
REMARK INTER + INTRA:         -16.791
REMARK INTER:                 -12.785
REMARK INTRA:                  -4.006
REMARK UNBOUND:                -4.081
REMARK SMILES CCCCCCCCCCCCCCCCCCCCCCCCCCCCCC(=O)[O-]
REMARK SMILES IDX 16 1 17 2 18 3 19 4 20 5 21 6 22 7 23 8 24 9 25 10 26 11
REMARK SMILES IDX 27 12 28 13 29 14 30 15 31 16 32 17 15 18 14 19 13 20 12 21
REMARK SMILES IDX 11 22 10 23 9 24 8 25 7 26 6 27 5 28 4 29 3 30 2 31 1 32
REMARK H PARENT
REMARK Flexibility Score: inf
ROOT
ATOM      1  C   UNL     1     -20.245 -24.331  39.630  1.00  0.00     0.000 C 
ENDROOT
BRANCH   1   2
ATOM      2  C   UNL     1     -21.342 -25.132  40.354  1.00  0.00     0.000 C 
BRANCH   2   3
ATOM      3  C   UNL     1     -21.227 -26.646  40.108  1.00  0.00     0.000 C 
BRANCH   3   4
ATOM      4  C   UNL     1     -21.256 -27.020  38.613  1.00  0.00     0.000 C 
BRANCH   4   5
ATOM      5  C   UNL     1     -22.194 -28.184  38.241  1.00  0.00     0.000 C 
BRANCH   5   6
ATOM      6  C   UNL     1     -22.880 -28.822  39.459  1.00  0.00     0.000 C 
BRANCH   6   7
ATOM      7  C   UNL     1     -24.377 -29.087  39.227  1.00  0.00     0.000 C 
BRANCH   7   8
ATOM      8  C   UNL     1     -25.271 -28.684  40.417  1.00  0.00     0.000 C 
BRANCH   8   9
ATOM      9  C   UNL     1     -24.491 -27.920  41.498  1.00  0.00     0.000 C 
BRANCH   9  10
ATOM     10  C   UNL     1     -24.883 -26.434  41.508  1.00  0.00     0.000 C 
BRANCH  10  11
ATOM     11  C   UNL     1     -26.405 -26.223  41.441  1.00  0.00     0.000 C 
BRANCH  11  12
ATOM     12  C   UNL     1     -26.914 -25.267  42.532  1.00  0.00     0.000 C 
BRANCH  12  13
ATOM     13  C   UNL     1     -28.446 -25.115  42.531  1.00  0.00     0.006 C 
BRANCH  13  14
ATOM     14  C   UNL     1     -29.208 -26.451  42.474  1.00  0.00     0.053 C 
BRANCH  14  15
ATOM     15  C   UNL     1     -30.583 -26.310  41.897  1.00  0.00     0.041 C 
ATOM     16  O   UNL     1     -31.504 -27.094  42.247  1.00  0.00    -0.550 OA
ATOM     17  O   UNL     1     -30.837 -25.338  40.938  1.00  0.00    -0.550 OA
ENDBRANCH  14  15
ENDBRANCH  13  14
ENDBRANCH  12  13
ENDBRANCH  11  12
ENDBRANCH  10  11
ENDBRANCH   9  10
ENDBRANCH   8   9
ENDBRANCH   7   8
ENDBRANCH   6   7
ENDBRANCH   5   6
ENDBRANCH   4   5
ENDBRANCH   3   4
ENDBRANCH   2   3
ENDBRANCH   1   2
BRANCH   1  18
ATOM     18  C   UNL     1     -20.740 -22.963  39.130  1.00  0.00     0.000 C 
BRANCH  18  19
ATOM     19  C   UNL     1     -22.153 -23.026  38.519  1.00  0.00     0.000 C 
BRANCH  19  20
ATOM     20  C   UNL     1     -23.133 -21.948  39.020  1.00  0.00     0.000 C 
BRANCH  20  21
ATOM     21  C   UNL     1     -23.476 -22.100  40.512  1.00  0.00     0.000 C 
BRANCH  21  22
ATOM     22  C   UNL     1     -24.790 -22.865  40.744  1.00  0.00     0.000 C 
BRANCH  22  23
ATOM     23  C   UNL     1     -26.035 -22.012  40.440  1.00  0.00     0.000 C 
BRANCH  23  24
ATOM     24  C   UNL     1     -25.819 -20.514  40.725  1.00  0.00    -0.000 C 
BRANCH  24  25
ATOM     25  C   UNL     1     -26.986 -19.596  40.319  1.00  0.00    -0.000 C 
BRANCH  25  26
ATOM     26  C   UNL     1     -28.272 -20.372  39.996  1.00  0.00    -0.000 C 
BRANCH  26  27
ATOM     27  C   UNL     1     -29.356 -20.103  41.047  1.00  0.00    -0.000 C 
BRANCH  27  28
ATOM     28  C   UNL     1     -28.808 -19.239  42.194  1.00  0.00    -0.000 C 
BRANCH  28  29
ATOM     29  C   UNL     1     -28.770 -19.987  43.536  1.00  0.00    -0.000 C 
BRANCH  29  30
ATOM     30  C   UNL     1     -28.634 -21.507  43.365  1.00  0.00    -0.000 C 
BRANCH  30  31
ATOM     31  C   UNL     1     -29.673 -22.249  44.213  1.00  0.00    -0.003 C 
ATOM     32  C   UNL     1     -30.975 -22.447  43.444  1.00  0.00     0.004 C 
ENDBRANCH  30  31
ENDBRANCH  29  30
ENDBRANCH  28  29
ENDBRANCH  27  28
ENDBRANCH  26  27
ENDBRANCH  25  26
ENDBRANCH  24  25
ENDBRANCH  23  24
ENDBRANCH  22  23
ENDBRANCH  21  22
ENDBRANCH  20  21
ENDBRANCH  19  20
ENDBRANCH  18  19
ENDBRANCH   1  18
TORSDOF 28
ENDMDL
MODEL 6
REMARK VINA RESULT:    -4.801      3.209      7.663
REMARK INTER + INTRA:         -16.742
REMARK INTER:                 -12.184
REMARK INTRA:                  -4.558
REMARK UNBOUND:                -4.081
REMARK SMILES CCCCCCCCCCCCCCCCCCCCCCCCCCCCCC(=O)[O-]
REMARK SMILES IDX 16 1 17 2 18 3 19 4 20 5 21 6 22 7 23 8 24 9 25 10 26 11
REMARK SMILES IDX 27 12 28 13 29 14 30 15 31 16 32 17 15 18 14 19 13 20 12 21
REMARK SMILES IDX 11 22 10 23 9 24 8 25 7 26 6 27 5 28 4 29 3 30 2 31 1 32
REMARK H PARENT
REMARK Flexibility Score: inf
ROOT
ATOM      1  C   UNL     1     -22.984 -22.884  41.112  1.00  0.00     0.000 C 
ENDROOT
BRANCH   1   2
ATOM      2  C   UNL     1     -22.637 -24.376  40.962  1.00  0.00     0.000 C 
BRANCH   2   3
ATOM      3  C   UNL     1     -21.158 -24.606  40.608  1.00  0.00     0.000 C 
BRANCH   3   4
ATOM      4  C   UNL     1     -20.944 -24.995  39.132  1.00  0.00     0.000 C 
BRANCH   4   5
ATOM      5  C   UNL     1     -20.411 -26.420  38.894  1.00  0.00     0.000 C 
BRANCH   5   6
ATOM      6  C   UNL     1     -21.193 -27.186  37.816  1.00  0.00     0.000 C 
BRANCH   6   7
ATOM      7  C   UNL     1     -22.240 -28.145  38.409  1.00  0.00     0.000 C 
BRANCH   7   8
ATOM      8  C   UNL     1     -22.293 -28.129  39.950  1.00  0.00     0.000 C 
BRANCH   8   9
ATOM      9  C   UNL     1     -23.214 -29.222  40.512  1.00  0.00     0.000 C 
BRANCH   9  10
ATOM     10  C   UNL     1     -24.302 -29.598  39.493  1.00  0.00     0.000 C 
BRANCH  10  11
ATOM     11  C   UNL     1     -25.719 -29.276  39.995  1.00  0.00     0.000 C 
BRANCH  11  12
ATOM     12  C   UNL     1     -25.715 -28.281  41.168  1.00  0.00     0.000 C 
BRANCH  12  13
ATOM     13  C   UNL     1     -26.365 -26.931  40.814  1.00  0.00     0.006 C 
BRANCH  13  14
ATOM     14  C   UNL     1     -26.136 -25.831  41.867  1.00  0.00     0.053 C 
BRANCH  14  15
ATOM     15  C   UNL     1     -27.397 -25.427  42.567  1.00  0.00     0.041 C 
ATOM     16  O   UNL     1     -27.502 -24.283  43.080  1.00  0.00    -0.550 OA
ATOM     17  O   UNL     1     -28.442 -26.334  42.692  1.00  0.00    -0.550 OA
ENDBRANCH  14  15
ENDBRANCH  13  14
ENDBRANCH  12  13
ENDBRANCH  11  12
ENDBRANCH  10  11
ENDBRANCH   9  10
ENDBRANCH   8   9
ENDBRANCH   7   8
ENDBRANCH   6   7
ENDBRANCH   5   6
ENDBRANCH   4   5
ENDBRANCH   3   4
ENDBRANCH   2   3
ENDBRANCH   1   2
BRANCH   1  18
ATOM     18  C   UNL     1     -24.350 -22.528  40.504  1.00  0.00     0.000 C 
BRANCH  18  19
ATOM     19  C   UNL     1     -24.241 -21.532  39.333  1.00  0.00     0.000 C 
BRANCH  19  20
ATOM     20  C   UNL     1     -24.821 -20.131  39.606  1.00  0.00     0.000 C 
BRANCH  20  21
ATOM     21  C   UNL     1     -25.240 -19.935  41.074  1.00  0.00     0.000 C 
BRANCH  21  22
ATOM     22  C   UNL     1     -24.382 -18.885  41.800  1.00  0.00     0.000 C 
BRANCH  22  23
ATOM     23  C   UNL     1     -23.042 -19.453  42.298  1.00  0.00     0.000 C 
BRANCH  23  24
ATOM     24  C   UNL     1     -21.844 -18.999  41.442  1.00  0.00    -0.000 C 
BRANCH  24  25
ATOM     25  C   UNL     1     -22.019 -17.639  40.742  1.00  0.00    -0.000 C 
BRANCH  25  26
ATOM     26  C   UNL     1     -22.116 -17.762  39.214  1.00  0.00    -0.000 C 
BRANCH  26  27
ATOM     27  C   UNL     1     -21.001 -18.659  38.661  1.00  0.00    -0.000 C 
BRANCH  27  28
ATOM     28  C   UNL     1     -21.521 -19.536  37.511  1.00  0.00    -0.000 C 
BRANCH  28  29
ATOM     29  C   UNL     1     -21.039 -20.992  37.608  1.00  0.00    -0.000 C 
BRANCH  29  30
ATOM     30  C   UNL     1     -20.385 -21.311  38.961  1.00  0.00    -0.000 C 
BRANCH  30  31
ATOM     31  C   UNL     1     -18.911 -21.687  38.781  1.00  0.00    -0.003 C 
ATOM     32  C   UNL     1     -18.445 -21.432  37.351  1.00  0.00     0.004 C 
ENDBRANCH  30  31
ENDBRANCH  29  30
ENDBRANCH  28  29
ENDBRANCH  27  28
ENDBRANCH  26  27
ENDBRANCH  25  26
ENDBRANCH  24  25
ENDBRANCH  23  24
ENDBRANCH  22  23
ENDBRANCH  21  22
ENDBRANCH  20  21
ENDBRANCH  19  20
ENDBRANCH  18  19
ENDBRANCH   1  18
TORSDOF 28
ENDMDL
MODEL 7
REMARK VINA RESULT:    -4.796      2.850      8.575
REMARK INTER + INTRA:         -16.727
REMARK INTER:                 -12.813
REMARK INTRA:                  -3.915
REMARK UNBOUND:                -4.081
REMARK SMILES CCCCCCCCCCCCCCCCCCCCCCCCCCCCCC(=O)[O-]
REMARK SMILES IDX 16 1 17 2 18 3 19 4 20 5 21 6 22 7 23 8 24 9 25 10 26 11
REMARK SMILES IDX 27 12 28 13 29 14 30 15 31 16 32 17 15 18 14 19 13 20 12 21
REMARK SMILES IDX 11 22 10 23 9 24 8 25 7 26 6 27 5 28 4 29 3 30 2 31 1 32
REMARK H PARENT
REMARK Flexibility Score: inf
ROOT
ATOM      1  C   UNL     1     -26.346 -27.369  40.847  1.00  0.00     0.000 C 
ENDROOT
BRANCH   1   2
ATOM      2  C   UNL     1     -25.302 -26.451  41.506  1.00  0.00     0.000 C 
BRANCH   2   3
ATOM      3  C   UNL     1     -25.879 -25.075  41.881  1.00  0.00     0.000 C 
BRANCH   3   4
ATOM      4  C   UNL     1     -27.209 -25.167  42.653  1.00  0.00     0.000 C 
BRANCH   4   5
ATOM      5  C   UNL     1     -28.251 -24.086  42.308  1.00  0.00     0.000 C 
BRANCH   5   6
ATOM      6  C   UNL     1     -28.394 -23.013  43.398  1.00  0.00     0.000 C 
BRANCH   6   7
ATOM      7  C   UNL     1     -29.197 -21.789  42.926  1.00  0.00     0.000 C 
BRANCH   7   8
ATOM      8  C   UNL     1     -30.348 -21.397  43.875  1.00  0.00     0.000 C 
BRANCH   8   9
ATOM      9  C   UNL     1     -30.138 -21.937  45.298  1.00  0.00     0.000 C 
BRANCH   9  10
ATOM     10  C   UNL     1     -31.409 -22.632  45.813  1.00  0.00     0.000 C 
BRANCH  10  11
ATOM     11  C   UNL     1     -32.196 -23.330  44.693  1.00  0.00     0.000 C 
BRANCH  11  12
ATOM     12  C   UNL     1     -31.648 -24.732  44.375  1.00  0.00     0.000 C 
BRANCH  12  13
ATOM     13  C   UNL     1     -32.220 -25.321  43.073  1.00  0.00     0.006 C 
BRANCH  13  14
ATOM     14  C   UNL     1     -31.882 -24.502  41.814  1.00  0.00     0.053 C 
BRANCH  14  15
ATOM     15  C   UNL     1     -31.584 -25.363  40.626  1.00  0.00     0.041 C 
ATOM     16  O   UNL     1     -32.394 -25.425  39.664  1.00  0.00    -0.550 OA
ATOM     17  O   UNL     1     -30.429 -26.136  40.601  1.00  0.00    -0.550 OA
ENDBRANCH  14  15
ENDBRANCH  13  14
ENDBRANCH  12  13
ENDBRANCH  11  12
ENDBRANCH  10  11
ENDBRANCH   9  10
ENDBRANCH   8   9
ENDBRANCH   7   8
ENDBRANCH   6   7
ENDBRANCH   5   6
ENDBRANCH   4   5
ENDBRANCH   3   4
ENDBRANCH   2   3
ENDBRANCH   1   2
BRANCH   1  18
ATOM     18  C   UNL     1     -25.710 -28.569  40.124  1.00  0.00     0.000 C 
BRANCH  18  19
ATOM     19  C   UNL     1     -24.594 -29.239  40.948  1.00  0.00     0.000 C 
BRANCH  19  20
ATOM     20  C   UNL     1     -23.261 -29.445  40.203  1.00  0.00     0.000 C 
BRANCH  20  21
ATOM     21  C   UNL     1     -22.528 -28.123  39.915  1.00  0.00     0.000 C 
BRANCH  21  22
ATOM     22  C   UNL     1     -22.040 -28.020  38.460  1.00  0.00     0.000 C 
BRANCH  22  23
ATOM     23  C   UNL     1     -21.077 -26.841  38.238  1.00  0.00     0.000 C 
BRANCH  23  24
ATOM     24  C   UNL     1     -20.640 -26.169  39.554  1.00  0.00    -0.000 C 
BRANCH  24  25
ATOM     25  C   UNL     1     -21.160 -24.734  39.760  1.00  0.00    -0.000 C 
BRANCH  25  26
ATOM     26  C   UNL     1     -21.955 -24.567  41.063  1.00  0.00    -0.000 C 
BRANCH  26  27
ATOM     27  C   UNL     1     -22.494 -23.137  41.200  1.00  0.00    -0.000 C 
BRANCH  27  28
ATOM     28  C   UNL     1     -23.571 -22.851  40.143  1.00  0.00    -0.000 C 
BRANCH  28  29
ATOM     29  C   UNL     1     -24.407 -21.603  40.468  1.00  0.00    -0.000 C 
BRANCH  29  30
ATOM     30  C   UNL     1     -25.889 -21.768  40.096  1.00  0.00    -0.000 C 
BRANCH  30  31
ATOM     31  C   UNL     1     -26.716 -20.582  40.602  1.00  0.00    -0.003 C 
ATOM     32  C   UNL     1     -25.862 -19.624  41.426  1.00  0.00     0.004 C 
ENDBRANCH  30  31
ENDBRANCH  29  30
ENDBRANCH  28  29
ENDBRANCH  27  28
ENDBRANCH  26  27
ENDBRANCH  25  26
ENDBRANCH  24  25
ENDBRANCH  23  24
ENDBRANCH  22  23
ENDBRANCH  21  22
ENDBRANCH  20  21
ENDBRANCH  19  20
ENDBRANCH  18  19
ENDBRANCH   1  18
TORSDOF 28
ENDMDL
MODEL 8
REMARK VINA RESULT:    -4.771      2.022      7.869
REMARK INTER + INTRA:         -16.661
REMARK INTER:                 -12.640
REMARK INTRA:                  -4.021
REMARK UNBOUND:                -4.081
REMARK SMILES CCCCCCCCCCCCCCCCCCCCCCCCCCCCCC(=O)[O-]
REMARK SMILES IDX 16 1 17 2 18 3 19 4 20 5 21 6 22 7 23 8 24 9 25 10 26 11
REMARK SMILES IDX 27 12 28 13 29 14 30 15 31 16 32 17 15 18 14 19 13 20 12 21
REMARK SMILES IDX 11 22 10 23 9 24 8 25 7 26 6 27 5 28 4 29 3 30 2 31 1 32
REMARK H PARENT
REMARK Flexibility Score: inf
ROOT
ATOM      1  C   UNL     1     -25.148 -25.516  41.498  1.00  0.00     0.000 C 
ENDROOT
BRANCH   1   2
ATOM      2  C   UNL     1     -26.381 -24.673  41.864  1.00  0.00     0.000 C 
BRANCH   2   3
ATOM      3  C   UNL     1     -27.296 -25.374  42.882  1.00  0.00     0.000 C 
BRANCH   3   4
ATOM      4  C   UNL     1     -28.465 -26.131  42.222  1.00  0.00     0.000 C 
BRANCH   4   5
ATOM      5  C   UNL     1     -29.725 -26.293  43.094  1.00  0.00     0.000 C 
BRANCH   5   6
ATOM      6  C   UNL     1     -31.012 -26.461  42.272  1.00  0.00     0.000 C 
BRANCH   6   7
ATOM      7  C   UNL     1     -31.988 -25.285  42.447  1.00  0.00     0.000 C 
BRANCH   7   8
ATOM      8  C   UNL     1     -31.832 -24.543  43.790  1.00  0.00     0.000 C 
BRANCH   8   9
ATOM      9  C   UNL     1     -31.072 -23.217  43.638  1.00  0.00     0.000 C 
BRANCH   9  10
ATOM     10  C   UNL     1     -31.665 -22.374  42.498  1.00  0.00     0.000 C 
BRANCH  10  11
ATOM     11  C   UNL     1     -30.593 -21.848  41.531  1.00  0.00     0.000 C 
BRANCH  11  12
ATOM     12  C   UNL     1     -29.170 -22.242  41.962  1.00  0.00     0.000 C 
BRANCH  12  13
ATOM     13  C   UNL     1     -28.081 -21.371  41.308  1.00  0.00     0.006 C 
BRANCH  13  14
ATOM     14  C   UNL     1     -28.505 -20.739  39.970  1.00  0.00     0.053 C 
BRANCH  14  15
ATOM     15  C   UNL     1     -28.555 -19.243  40.026  1.00  0.00     0.041 C 
ATOM     16  O   UNL     1     -28.251 -18.635  41.085  1.00  0.00    -0.550 OA
ATOM     17  O   UNL     1     -28.982 -18.521  38.918  1.00  0.00    -0.550 OA
ENDBRANCH  14  15
ENDBRANCH  13  14
ENDBRANCH  12  13
ENDBRANCH  11  12
ENDBRANCH  10  11
ENDBRANCH   9  10
ENDBRANCH   8   9
ENDBRANCH   7   8
ENDBRANCH   6   7
ENDBRANCH   5   6
ENDBRANCH   4   5
ENDBRANCH   3   4
ENDBRANCH   2   3
ENDBRANCH   1   2
BRANCH   1  18
ATOM     18  C   UNL     1     -24.859 -26.624  42.525  1.00  0.00     0.000 C 
BRANCH  18  19
ATOM     19  C   UNL     1     -24.559 -27.985  41.868  1.00  0.00     0.000 C 
BRANCH  19  20
ATOM     20  C   UNL     1     -25.426 -28.326  40.640  1.00  0.00     0.000 C 
BRANCH  20  21
ATOM     21  C   UNL     1     -24.629 -29.019  39.522  1.00  0.00     0.000 C 
BRANCH  21  22
ATOM     22  C   UNL     1     -23.137 -29.175  39.864  1.00  0.00     0.000 C 
BRANCH  22  23
ATOM     23  C   UNL     1     -22.241 -28.213  39.064  1.00  0.00     0.000 C 
BRANCH  23  24
ATOM     24  C   UNL     1     -21.788 -26.992  39.887  1.00  0.00    -0.000 C 
BRANCH  24  25
ATOM     25  C   UNL     1     -20.593 -26.217  39.303  1.00  0.00    -0.000 C 
BRANCH  25  26
ATOM     26  C   UNL     1     -20.366 -24.862  39.989  1.00  0.00    -0.000 C 
BRANCH  26  27
ATOM     27  C   UNL     1     -21.619 -24.414  40.753  1.00  0.00    -0.000 C 
BRANCH  27  28
ATOM     28  C   UNL     1     -22.405 -23.364  39.953  1.00  0.00    -0.000 C 
BRANCH  28  29
ATOM     29  C   UNL     1     -22.897 -22.198  40.825  1.00  0.00    -0.000 C 
BRANCH  29  30
ATOM     30  C   UNL     1     -24.386 -21.886  40.613  1.00  0.00    -0.000 C 
BRANCH  30  31
ATOM     31  C   UNL     1     -24.576 -20.852  39.498  1.00  0.00    -0.003 C 
ATOM     32  C   UNL     1     -24.885 -19.472  40.071  1.00  0.00     0.004 C 
ENDBRANCH  30  31
ENDBRANCH  29  30
ENDBRANCH  28  29
ENDBRANCH  27  28
ENDBRANCH  26  27
ENDBRANCH  25  26
ENDBRANCH  24  25
ENDBRANCH  23  24
ENDBRANCH  22  23
ENDBRANCH  21  22
ENDBRANCH  20  21
ENDBRANCH  19  20
ENDBRANCH  18  19
ENDBRANCH   1  18
TORSDOF 28
ENDMDL
MODEL 9
REMARK VINA RESULT:    -4.758      2.946      6.472
REMARK INTER + INTRA:         -16.628
REMARK INTER:                 -12.359
REMARK INTRA:                  -4.270
REMARK UNBOUND:                -4.081
REMARK SMILES CCCCCCCCCCCCCCCCCCCCCCCCCCCCCC(=O)[O-]
REMARK SMILES IDX 16 1 17 2 18 3 19 4 20 5 21 6 22 7 23 8 24 9 25 10 26 11
REMARK SMILES IDX 27 12 28 13 29 14 30 15 31 16 32 17 15 18 14 19 13 20 12 21
REMARK SMILES IDX 11 22 10 23 9 24 8 25 7 26 6 27 5 28 4 29 3 30 2 31 1 32
REMARK H PARENT
REMARK Flexibility Score: inf
ROOT
ATOM      1  C   UNL     1     -22.913 -24.028  40.939  1.00  0.00     0.000 C 
ENDROOT
BRANCH   1   2
ATOM      2  C   UNL     1     -21.417 -24.334  40.753  1.00  0.00     0.000 C 
BRANCH   2   3
ATOM      3  C   UNL     1     -21.078 -24.773  39.319  1.00  0.00     0.000 C 
BRANCH   3   4
ATOM      4  C   UNL     1     -20.584 -26.230  39.233  1.00  0.00     0.000 C 
BRANCH   4   5
ATOM      5  C   UNL     1     -21.105 -27.037  38.029  1.00  0.00     0.000 C 
BRANCH   5   6
ATOM      6  C   UNL     1     -22.111 -28.130  38.423  1.00  0.00     0.000 C 
BRANCH   6   7
ATOM      7  C   UNL     1     -22.576 -28.011  39.884  1.00  0.00     0.000 C 
BRANCH   7   8
ATOM      8  C   UNL     1     -23.061 -29.343  40.492  1.00  0.00     0.000 C 
BRANCH   8   9
ATOM      9  C   UNL     1     -24.442 -29.212  41.153  1.00  0.00     0.000 C 
BRANCH   9  10
ATOM     10  C   UNL     1     -25.465 -28.622  40.170  1.00  0.00     0.000 C 
BRANCH  10  11
ATOM     11  C   UNL     1     -26.320 -27.511  40.802  1.00  0.00     0.000 C 
BRANCH  11  12
ATOM     12  C   UNL     1     -25.465 -26.404  41.441  1.00  0.00     0.000 C 
BRANCH  12  13
ATOM     13  C   UNL     1     -26.296 -25.193  41.903  1.00  0.00     0.006 C 
BRANCH  13  14
ATOM     14  C   UNL     1     -27.435 -25.551  42.875  1.00  0.00     0.053 C 
BRANCH  14  15
ATOM     15  C   UNL     1     -28.781 -25.132  42.369  1.00  0.00     0.041 C 
ATOM     16  O   UNL     1     -29.262 -24.013  42.689  1.00  0.00    -0.550 OA
ATOM     17  O   UNL     1     -29.526 -25.999  41.579  1.00  0.00    -0.550 OA
ENDBRANCH  14  15
ENDBRANCH  13  14
ENDBRANCH  12  13
ENDBRANCH  11  12
ENDBRANCH  10  11
ENDBRANCH   9  10
ENDBRANCH   8   9
ENDBRANCH   7   8
ENDBRANCH   6   7
ENDBRANCH   5   6
ENDBRANCH   4   5
ENDBRANCH   3   4
ENDBRANCH   2   3
ENDBRANCH   1   2
BRANCH   1  18
ATOM     18  C   UNL     1     -23.400 -22.873  40.048  1.00  0.00     0.000 C 
BRANCH  18  19
ATOM     19  C   UNL     1     -24.413 -21.956  40.759  1.00  0.00     0.000 C 
BRANCH  19  20
ATOM     20  C   UNL     1     -25.747 -21.751  40.017  1.00  0.00     0.000 C 
BRANCH  20  21
ATOM     21  C   UNL     1     -26.952 -21.660  40.969  1.00  0.00     0.000 C 
BRANCH  21  22
ATOM     22  C   UNL     1     -27.535 -20.239  41.055  1.00  0.00     0.000 C 
BRANCH  22  23
ATOM     23  C   UNL     1     -27.238 -19.556  42.401  1.00  0.00     0.000 C 
BRANCH  23  24
ATOM     24  C   UNL     1     -26.302 -18.339  42.262  1.00  0.00    -0.000 C 
BRANCH  24  25
ATOM     25  C   UNL     1     -24.798 -18.665  42.286  1.00  0.00    -0.000 C 
BRANCH  25  26
ATOM     26  C   UNL     1     -24.025 -18.014  41.129  1.00  0.00    -0.000 C 
BRANCH  26  27
ATOM     27  C   UNL     1     -24.846 -18.044  39.833  1.00  0.00    -0.000 C 
BRANCH  27  28
ATOM     28  C   UNL     1     -23.927 -18.109  38.603  1.00  0.00    -0.000 C 
BRANCH  28  29
ATOM     29  C   UNL     1     -22.488 -18.516  38.955  1.00  0.00    -0.000 C 
BRANCH  29  30
ATOM     30  C   UNL     1     -22.172 -19.970  38.573  1.00  0.00    -0.000 C 
BRANCH  30  31
ATOM     31  C   UNL     1     -20.811 -20.399  39.130  1.00  0.00    -0.003 C 
ATOM     32  C   UNL     1     -20.151 -21.443  38.234  1.00  0.00     0.004 C 
ENDBRANCH  30  31
ENDBRANCH  29  30
ENDBRANCH  28  29
ENDBRANCH  27  28
ENDBRANCH  26  27
ENDBRANCH  25  26
ENDBRANCH  24  25
ENDBRANCH  23  24
ENDBRANCH  22  23
ENDBRANCH  21  22
ENDBRANCH  20  21
ENDBRANCH  19  20
ENDBRANCH  18  19
ENDBRANCH   1  18
TORSDOF 28
ENDMDL
