MODEL 1
REMARK VINA RESULT:    -5.719      0.000      0.000
REMARK INTER + INTRA:          -7.306
REMARK INTER:                  -6.889
REMARK INTRA:                  -0.417
REMARK UNBOUND:                -0.417
REMARK SMILES O=c1c(O)c(-c2ccc(O)cc2O)oc2cc(O)cc(O)c12
REMARK SMILES IDX 5 1 3 2 2 3 1 4 22 5 20 6 19 7 17 8 16 9 15 10 14 11 6 12
REMARK SMILES IDX 8 13 7 14 9 15 11 16 12 17 10 18 13 20 4 22 21 24 18 26
REMARK H PARENT 10 19 13 21 4 23 21 25 18 27
REMARK Flexibility Score: inf
ROOT
ATOM      1  C   UNL     1      16.531  -6.008   8.320  1.00  0.00     0.184 A 
ATOM      2  C   UNL     1      17.471  -6.510   9.238  1.00  0.00     0.208 A 
ATOM      3  C   UNL     1      17.638  -7.898   9.345  1.00  0.00     0.238 A 
ATOM      4  O   UNL     1      18.476  -8.360  10.168  1.00  0.00    -0.285 OA
ATOM      5  C   UNL     1      16.873  -8.757   8.532  1.00  0.00     0.111 A 
ATOM      6  C   UNL     1      16.983 -10.168   8.575  1.00  0.00     0.134 A 
ATOM      7  C   UNL     1      16.187 -10.955   7.730  1.00  0.00     0.093 A 
ATOM      8  C   UNL     1      15.286 -10.362   6.843  1.00  0.00     0.123 A 
ATOM      9  C   UNL     1      15.172  -8.968   6.795  1.00  0.00     0.094 A 
ATOM     10  C   UNL     1      15.955  -8.167   7.629  1.00  0.00     0.146 A 
ATOM     11  O   UNL     1      15.827  -6.846   7.565  1.00  0.00    -0.451 OA
ENDROOT
BRANCH   1  12
ATOM     12  C   UNL     1      16.297  -4.556   8.175  1.00  0.00     0.063 A 
ATOM     13  C   UNL     1      15.020  -2.578   8.791  1.00  0.00     0.047 A 
ATOM     14  C   UNL     1      15.299  -3.937   8.948  1.00  0.00     0.020 A 
ATOM     15  C   UNL     1      15.726  -1.820   7.856  1.00  0.00     0.119 A 
ATOM     16  C   UNL     1      16.721  -2.424   7.078  1.00  0.00     0.093 A 
ATOM     17  C   UNL     1      17.017  -3.784   7.234  1.00  0.00     0.130 A 
BRANCH  15  18
ATOM     18  O   UNL     1      15.434  -0.465   7.707  1.00  0.00    -0.508 OA
ATOM     19  H   UNL     1      15.497   0.179   8.487  1.00  0.00     0.293 HD
ENDBRANCH  15  18
BRANCH  17  20
ATOM     20  O   UNL     1      18.043  -4.329   6.456  1.00  0.00    -0.507 OA
ATOM     21  H   UNL     1      18.735  -3.764   5.981  1.00  0.00     0.293 HD
ENDBRANCH  17  20
ENDBRANCH   1  12
BRANCH   2  22
ATOM     22  O   UNL     1      18.230  -5.630  10.013  1.00  0.00    -0.502 OA
ATOM     23  H   UNL     1      19.074  -5.191   9.663  1.00  0.00     0.293 HD
ENDBRANCH   2  22
BRANCH   6  24
ATOM     24  O   UNL     1      17.873 -10.792   9.449  1.00  0.00    -0.507 OA
ATOM     25  H   UNL     1      18.862 -10.872   9.238  1.00  0.00     0.293 HD
ENDBRANCH   6  24
BRANCH   8  26
ATOM     26  O   UNL     1      14.507 -11.165   6.013  1.00  0.00    -0.508 OA
ATOM     27  H   UNL     1      14.919 -11.720   5.273  1.00  0.00     0.293 HD
ENDBRANCH   8  26
TORSDOF 6
ENDMDL
MODEL 2
REMARK VINA RESULT:    -5.618      1.872      7.011
REMARK INTER + INTRA:          -7.185
REMARK INTER:                  -7.044
REMARK INTRA:                  -0.141
REMARK UNBOUND:                -0.417
REMARK SMILES O=c1c(O)c(-c2ccc(O)cc2O)oc2cc(O)cc(O)c12
REMARK SMILES IDX 5 1 3 2 2 3 1 4 22 5 20 6 19 7 17 8 16 9 15 10 14 11 6 12
REMARK SMILES IDX 8 13 7 14 9 15 11 16 12 17 10 18 13 20 4 22 21 24 18 26
REMARK H PARENT 10 19 13 21 4 23 21 25 18 27
REMARK Flexibility Score: inf
ROOT
ATOM      1  C   UNL     1      16.115  -6.953   7.982  1.00  0.00     0.184 A 
ATOM      2  C   UNL     1      14.906  -6.654   7.328  1.00  0.00     0.208 A 
ATOM      3  C   UNL     1      14.375  -5.361   7.444  1.00  0.00     0.238 A 
ATOM      4  O   UNL     1      13.290  -5.082   6.865  1.00  0.00    -0.285 OA
ATOM      5  C   UNL     1      15.062  -4.391   8.202  1.00  0.00     0.111 A 
ATOM      6  C   UNL     1      14.598  -3.064   8.367  1.00  0.00     0.134 A 
ATOM      7  C   UNL     1      15.341  -2.156   9.135  1.00  0.00     0.093 A 
ATOM      8  C   UNL     1      16.538  -2.547   9.739  1.00  0.00     0.123 A 
ATOM      9  C   UNL     1      17.003  -3.857   9.581  1.00  0.00     0.094 A 
ATOM     10  C   UNL     1      16.276  -4.777   8.820  1.00  0.00     0.146 A 
ATOM     11  O   UNL     1      16.739  -6.015   8.687  1.00  0.00    -0.451 OA
ENDROOT
BRANCH   1  12
ATOM     12  C   UNL     1      16.713  -8.303   7.912  1.00  0.00     0.063 A 
ATOM     13  C   UNL     1      17.348 -10.235   6.574  1.00  0.00     0.047 A 
ATOM     14  C   UNL     1      16.837  -8.938   6.664  1.00  0.00     0.020 A 
ATOM     15  C   UNL     1      17.734 -10.918   7.728  1.00  0.00     0.119 A 
ATOM     16  C   UNL     1      17.613 -10.298   8.978  1.00  0.00     0.093 A 
ATOM     17  C   UNL     1      17.113  -8.994   9.079  1.00  0.00     0.130 A 
BRANCH  15  18
ATOM     18  O   UNL     1      18.238 -12.214   7.624  1.00  0.00    -0.508 OA
ATOM     19  H   UNL     1      18.077 -12.904   8.348  1.00  0.00     0.293 HD
ENDBRANCH  15  18
BRANCH  17  20
ATOM     20  O   UNL     1      17.046  -8.410  10.347  1.00  0.00    -0.507 OA
ATOM     21  H   UNL     1      16.261  -8.536  10.972  1.00  0.00     0.293 HD
ENDBRANCH  17  20
ENDBRANCH   1  12
BRANCH   2  22
ATOM     22  O   UNL     1      14.263  -7.632   6.565  1.00  0.00    -0.502 OA
ATOM     23  H   UNL     1      14.768  -8.384   6.113  1.00  0.00     0.293 HD
ENDBRANCH   2  22
BRANCH   6  24
ATOM     24  O   UNL     1      13.406  -2.643   7.776  1.00  0.00    -0.507 OA
ATOM     25  H   UNL     1      12.538  -2.600   8.297  1.00  0.00     0.293 HD
ENDBRANCH   6  24
BRANCH   8  26
ATOM     26  O   UNL     1      17.258  -1.626  10.497  1.00  0.00    -0.508 OA
ATOM     27  H   UNL     1      17.100  -1.519  11.492  1.00  0.00     0.293 HD
ENDBRANCH   8  26
TORSDOF 6
ENDMDL
MODEL 3
REMARK VINA RESULT:    -5.591      1.767      6.417
REMARK INTER + INTRA:          -7.152
REMARK INTER:                  -7.134
REMARK INTRA:                  -0.018
REMARK UNBOUND:                -0.417
REMARK SMILES O=c1c(O)c(-c2ccc(O)cc2O)oc2cc(O)cc(O)c12
REMARK SMILES IDX 5 1 3 2 2 3 1 4 22 5 20 6 19 7 17 8 16 9 15 10 14 11 6 12
REMARK SMILES IDX 8 13 7 14 9 15 11 16 12 17 10 18 13 20 4 22 21 24 18 26
REMARK H PARENT 10 19 13 21 4 23 21 25 18 27
REMARK Flexibility Score: inf
ROOT
ATOM      1  C   UNL     1      16.421  -6.826   8.271  1.00  0.00     0.184 A 
ATOM      2  C   UNL     1      17.173  -5.925   9.046  1.00  0.00     0.208 A 
ATOM      3  C   UNL     1      16.737  -4.597   9.157  1.00  0.00     0.238 A 
ATOM      4  O   UNL     1      17.405  -3.779   9.846  1.00  0.00    -0.285 OA
ATOM      5  C   UNL     1      15.556  -4.195   8.500  1.00  0.00     0.111 A 
ATOM      6  C   UNL     1      15.045  -2.876   8.562  1.00  0.00     0.134 A 
ATOM      7  C   UNL     1      13.861  -2.556   7.882  1.00  0.00     0.093 A 
ATOM      8  C   UNL     1      13.178  -3.524   7.144  1.00  0.00     0.123 A 
ATOM      9  C   UNL     1      13.678  -4.829   7.077  1.00  0.00     0.094 A 
ATOM     10  C   UNL     1      14.856  -5.169   7.747  1.00  0.00     0.146 A 
ATOM     11  O   UNL     1      15.311  -6.415   7.667  1.00  0.00    -0.451 OA
ENDROOT
BRANCH   1  12
ATOM     12  C   UNL     1      16.841  -8.233   8.104  1.00  0.00     0.063 A 
ATOM     13  C   UNL     1      17.309 -10.107   6.623  1.00  0.00     0.047 A 
ATOM     14  C   UNL     1      16.968  -8.765   6.809  1.00  0.00     0.020 A 
ATOM     15  C   UNL     1      17.520 -10.937   7.725  1.00  0.00     0.119 A 
ATOM     16  C   UNL     1      17.394 -10.420   9.020  1.00  0.00     0.093 A 
ATOM     17  C   UNL     1      17.063  -9.074   9.219  1.00  0.00     0.130 A 
BRANCH  15  18
ATOM     18  O   UNL     1      17.856 -12.274   7.523  1.00  0.00    -0.508 OA
ATOM     19  H   UNL     1      17.257 -13.025   7.847  1.00  0.00     0.293 HD
ENDBRANCH  15  18
BRANCH  17  20
ATOM     20  O   UNL     1      16.984  -8.601  10.532  1.00  0.00    -0.507 OA
ATOM     21  H   UNL     1      16.403  -9.032  11.240  1.00  0.00     0.293 HD
ENDBRANCH  17  20
ENDBRANCH   1  12
BRANCH   2  22
ATOM     22  O   UNL     1      18.326  -6.362   9.704  1.00  0.00    -0.502 OA
ATOM     23  H   UNL     1      18.489  -7.338   9.920  1.00  0.00     0.293 HD
ENDBRANCH   2  22
BRANCH   6  24
ATOM     24  O   UNL     1      15.702  -1.885   9.291  1.00  0.00    -0.507 OA
ATOM     25  H   UNL     1      15.619  -0.903   9.052  1.00  0.00     0.293 HD
ENDBRANCH   6  24
BRANCH   8  26
ATOM     26  O   UNL     1      12.004  -3.181   6.477  1.00  0.00    -0.508 OA
ATOM     27  H   UNL     1      11.094  -3.436   6.841  1.00  0.00     0.293 HD
ENDBRANCH   8  26
TORSDOF 6
ENDMDL
MODEL 4
REMARK VINA RESULT:    -5.470      1.255      2.854
REMARK INTER + INTRA:          -7.007
REMARK INTER:                  -6.626
REMARK INTRA:                  -0.381
REMARK UNBOUND:                -0.417
REMARK SMILES O=c1c(O)c(-c2ccc(O)cc2O)oc2cc(O)cc(O)c12
REMARK SMILES IDX 5 1 3 2 2 3 1 4 22 5 20 6 19 7 17 8 16 9 15 10 14 11 6 12
REMARK SMILES IDX 8 13 7 14 9 15 11 16 12 17 10 18 13 20 4 22 21 24 18 26
REMARK H PARENT 10 19 13 21 4 23 21 25 18 27
REMARK Flexibility Score: inf
ROOT
ATOM      1  C   UNL     1      16.073  -5.634   7.956  1.00  0.00     0.184 A 
ATOM      2  C   UNL     1      15.539  -6.382   6.890  1.00  0.00     0.208 A 
ATOM      3  C   UNL     1      15.746  -7.769   6.865  1.00  0.00     0.238 A 
ATOM      4  O   UNL     1      15.276  -8.450   5.913  1.00  0.00    -0.285 OA
ATOM      5  C   UNL     1      16.474  -8.383   7.905  1.00  0.00     0.111 A 
ATOM      6  C   UNL     1      16.725  -9.776   7.957  1.00  0.00     0.134 A 
ATOM      7  C   UNL     1      17.456 -10.312   9.027  1.00  0.00     0.093 A 
ATOM      8  C   UNL     1      17.938  -9.486  10.045  1.00  0.00     0.123 A 
ATOM      9  C   UNL     1      17.694  -8.110  10.000  1.00  0.00     0.094 A 
ATOM     10  C   UNL     1      16.969  -7.556   8.941  1.00  0.00     0.146 A 
ATOM     11  O   UNL     1      16.752  -6.245   8.921  1.00  0.00    -0.451 OA
ENDROOT
BRANCH   1  12
ATOM     12  C   UNL     1      15.902  -4.168   8.027  1.00  0.00     0.063 A 
ATOM     13  C   UNL     1      14.648  -2.252   8.851  1.00  0.00     0.047 A 
ATOM     14  C   UNL     1      14.866  -3.631   8.810  1.00  0.00     0.020 A 
ATOM     15  C   UNL     1      15.454  -1.391   8.105  1.00  0.00     0.119 A 
ATOM     16  C   UNL     1      16.488  -1.913   7.318  1.00  0.00     0.093 A 
ATOM     17  C   UNL     1      16.724  -3.293   7.278  1.00  0.00     0.130 A 
BRANCH  15  18
ATOM     18  O   UNL     1      15.222  -0.018   8.153  1.00  0.00    -0.508 OA
ATOM     19  H   UNL     1      14.426   0.367   8.646  1.00  0.00     0.293 HD
ENDBRANCH  15  18
BRANCH  17  20
ATOM     20  O   UNL     1      17.790  -3.758   6.504  1.00  0.00    -0.507 OA
ATOM     21  H   UNL     1      18.115  -3.284   5.670  1.00  0.00     0.293 HD
ENDBRANCH  17  20
ENDBRANCH   1  12
BRANCH   2  22
ATOM     22  O   UNL     1      14.802  -5.745   5.889  1.00  0.00    -0.502 OA
ATOM     23  H   UNL     1      13.888  -5.344   6.061  1.00  0.00     0.293 HD
ENDBRANCH   2  22
BRANCH   6  24
ATOM     24  O   UNL     1      16.257 -10.627   6.956  1.00  0.00    -0.507 OA
ATOM     25  H   UNL     1      15.484 -11.264   7.115  1.00  0.00     0.293 HD
ENDBRANCH   6  24
BRANCH   8  26
ATOM     26  O   UNL     1      18.661 -10.043  11.098  1.00  0.00    -0.508 OA
ATOM     27  H   UNL     1      18.579 -11.024  11.337  1.00  0.00     0.293 HD
ENDBRANCH   8  26
TORSDOF 6
ENDMDL
MODEL 5
REMARK VINA RESULT:    -5.328     12.966     15.684
REMARK INTER + INTRA:          -6.835
REMARK INTER:                  -7.000
REMARK INTRA:                   0.164
REMARK UNBOUND:                -0.417
REMARK SMILES O=c1c(O)c(-c2ccc(O)cc2O)oc2cc(O)cc(O)c12
REMARK SMILES IDX 5 1 3 2 2 3 1 4 22 5 20 6 19 7 17 8 16 9 15 10 14 11 6 12
REMARK SMILES IDX 8 13 7 14 9 15 11 16 12 17 10 18 13 20 4 22 21 24 18 26
REMARK H PARENT 10 19 13 21 4 23 21 25 18 27
REMARK Flexibility Score: inf
ROOT
ATOM      1  C   UNL     1      12.846 -15.959  19.750  1.00  0.00     0.184 A 
ATOM      2  C   UNL     1      12.701 -17.233  19.172  1.00  0.00     0.208 A 
ATOM      3  C   UNL     1      12.673 -17.345  17.775  1.00  0.00     0.238 A 
ATOM      4  O   UNL     1      12.539 -18.482  17.245  1.00  0.00    -0.285 OA
ATOM      5  C   UNL     1      12.797 -16.186  16.981  1.00  0.00     0.111 A 
ATOM      6  C   UNL     1      12.782 -16.211  15.565  1.00  0.00     0.134 A 
ATOM      7  C   UNL     1      12.914 -15.013  14.847  1.00  0.00     0.093 A 
ATOM      8  C   UNL     1      13.063 -13.795  15.512  1.00  0.00     0.123 A 
ATOM      9  C   UNL     1      13.079 -13.763  16.911  1.00  0.00     0.094 A 
ATOM     10  C   UNL     1      12.947 -14.945  17.645  1.00  0.00     0.146 A 
ATOM     11  O   UNL     1      12.964 -14.887  18.973  1.00  0.00    -0.451 OA
ENDROOT
BRANCH   1  12
ATOM     12  C   UNL     1      12.865 -15.778  21.217  1.00  0.00     0.063 A 
ATOM     13  C   UNL     1      13.332 -16.689  23.424  1.00  0.00     0.047 A 
ATOM     14  C   UNL     1      13.354 -16.812  22.034  1.00  0.00     0.020 A 
ATOM     15  C   UNL     1      12.814 -15.537  24.019  1.00  0.00     0.119 A 
ATOM     16  C   UNL     1      12.321 -14.501  23.217  1.00  0.00     0.093 A 
ATOM     17  C   UNL     1      12.348 -14.608  21.821  1.00  0.00     0.130 A 
BRANCH  15  18
ATOM     18  O   UNL     1      12.794 -15.431  25.409  1.00  0.00    -0.508 OA
ATOM     19  H   UNL     1      11.977 -15.093  25.902  1.00  0.00     0.293 HD
ENDBRANCH  15  18
BRANCH  17  20
ATOM     20  O   UNL     1      11.875 -13.530  21.068  1.00  0.00    -0.507 OA
ATOM     21  H   UNL     1      11.337 -13.644  20.218  1.00  0.00     0.293 HD
ENDBRANCH  17  20
ENDBRANCH   1  12
BRANCH   2  22
ATOM     22  O   UNL     1      12.604 -18.364  19.987  1.00  0.00    -0.502 OA
ATOM     23  H   UNL     1      13.401 -18.741  20.486  1.00  0.00     0.293 HD
ENDBRANCH   2  22
BRANCH   6  24
ATOM     24  O   UNL     1      12.635 -17.411  14.870  1.00  0.00    -0.507 OA
ATOM     25  H   UNL     1      12.705 -17.455  13.859  1.00  0.00     0.293 HD
ENDBRANCH   6  24
BRANCH   8  26
ATOM     26  O   UNL     1      13.193 -12.620  14.776  1.00  0.00    -0.508 OA
ATOM     27  H   UNL     1      14.032 -12.417  14.246  1.00  0.00     0.293 HD
ENDBRANCH   8  26
TORSDOF 6
ENDMDL
MODEL 6
REMARK VINA RESULT:    -5.284      1.855      6.798
REMARK INTER + INTRA:          -6.783
REMARK INTER:                  -6.497
REMARK INTRA:                  -0.285
REMARK UNBOUND:                -0.417
REMARK SMILES O=c1c(O)c(-c2ccc(O)cc2O)oc2cc(O)cc(O)c12
REMARK SMILES IDX 5 1 3 2 2 3 1 4 22 5 20 6 19 7 17 8 16 9 15 10 14 11 6 12
REMARK SMILES IDX 8 13 7 14 9 15 11 16 12 17 10 18 13 20 4 22 21 24 18 26
REMARK H PARENT 10 19 13 21 4 23 21 25 18 27
REMARK Flexibility Score: inf
ROOT
ATOM      1  C   UNL     1      16.404  -9.608   7.793  1.00  0.00     0.184 A 
ATOM      2  C   UNL     1      17.239  -9.516   8.922  1.00  0.00     0.208 A 
ATOM      3  C   UNL     1      17.697  -8.253   9.325  1.00  0.00     0.238 A 
ATOM      4  O   UNL     1      18.449  -8.158  10.333  1.00  0.00    -0.285 OA
ATOM      5  C   UNL     1      17.309  -7.108   8.600  1.00  0.00     0.111 A 
ATOM      6  C   UNL     1      17.724  -5.798   8.941  1.00  0.00     0.134 A 
ATOM      7  C   UNL     1      17.292  -4.708   8.170  1.00  0.00     0.093 A 
ATOM      8  C   UNL     1      16.455  -4.900   7.070  1.00  0.00     0.123 A 
ATOM      9  C   UNL     1      16.041  -6.192   6.727  1.00  0.00     0.094 A 
ATOM     10  C   UNL     1      16.461  -7.291   7.482  1.00  0.00     0.146 A 
ATOM     11  O   UNL     1      16.055  -8.508   7.134  1.00  0.00    -0.451 OA
ENDROOT
BRANCH   1  12
ATOM     12  C   UNL     1      15.905 -10.913   7.311  1.00  0.00     0.063 A 
ATOM     13  C   UNL     1      14.044 -12.453   7.016  1.00  0.00     0.047 A 
ATOM     14  C   UNL     1      14.534 -11.207   7.413  1.00  0.00     0.020 A 
ATOM     15  C   UNL     1      14.915 -13.425   6.520  1.00  0.00     0.119 A 
ATOM     16  C   UNL     1      16.283 -13.145   6.416  1.00  0.00     0.093 A 
ATOM     17  C   UNL     1      16.785 -11.896   6.801  1.00  0.00     0.130 A 
BRANCH  15  18
ATOM     18  O   UNL     1      14.412 -14.665   6.132  1.00  0.00    -0.508 OA
ATOM     19  H   UNL     1      14.870 -15.529   6.397  1.00  0.00     0.293 HD
ENDBRANCH  15  18
BRANCH  17  20
ATOM     20  O   UNL     1      18.153 -11.658   6.643  1.00  0.00    -0.507 OA
ATOM     21  H   UNL     1      18.669 -11.929   5.816  1.00  0.00     0.293 HD
ENDBRANCH  17  20
ENDBRANCH   1  12
BRANCH   2  22
ATOM     22  O   UNL     1      17.585 -10.668   9.632  1.00  0.00    -0.502 OA
ATOM     23  H   UNL     1      16.919 -11.169  10.209  1.00  0.00     0.293 HD
ENDBRANCH   2  22
BRANCH   6  24
ATOM     24  O   UNL     1      18.560  -5.571  10.034  1.00  0.00    -0.507 OA
ATOM     25  H   UNL     1      19.517  -5.256   9.918  1.00  0.00     0.293 HD
ENDBRANCH   6  24
BRANCH   8  26
ATOM     26  O   UNL     1      16.039  -3.802   6.321  1.00  0.00    -0.508 OA
ATOM     27  H   UNL     1      15.286  -3.201   6.634  1.00  0.00     0.293 HD
ENDBRANCH   8  26
TORSDOF 6
ENDMDL
MODEL 7
REMARK VINA RESULT:    -5.038      3.087      5.879
REMARK INTER + INTRA:          -6.487
REMARK INTER:                  -6.089
REMARK INTRA:                  -0.397
REMARK UNBOUND:                -0.417
REMARK SMILES O=c1c(O)c(-c2ccc(O)cc2O)oc2cc(O)cc(O)c12
REMARK SMILES IDX 5 1 3 2 2 3 1 4 22 5 20 6 19 7 17 8 16 9 15 10 14 11 6 12
REMARK SMILES IDX 8 13 7 14 9 15 11 16 12 17 10 18 13 20 4 22 21 24 18 26
REMARK H PARENT 10 19 13 21 4 23 21 25 18 27
REMARK Flexibility Score: inf
ROOT
ATOM      1  C   UNL     1      17.142 -10.906   7.493  1.00  0.00     0.184 A 
ATOM      2  C   UNL     1      15.948 -11.624   7.303  1.00  0.00     0.208 A 
ATOM      3  C   UNL     1      16.019 -12.946   6.839  1.00  0.00     0.238 A 
ATOM      4  O   UNL     1      14.955 -13.600   6.661  1.00  0.00    -0.285 OA
ATOM      5  C   UNL     1      17.278 -13.527   6.580  1.00  0.00     0.111 A 
ATOM      6  C   UNL     1      17.438 -14.854   6.114  1.00  0.00     0.134 A 
ATOM      7  C   UNL     1      18.726 -15.360   5.884  1.00  0.00     0.093 A 
ATOM      8  C   UNL     1      19.854 -14.569   6.111  1.00  0.00     0.123 A 
ATOM      9  C   UNL     1      19.703 -13.257   6.572  1.00  0.00     0.094 A 
ATOM     10  C   UNL     1      18.428 -12.734   6.807  1.00  0.00     0.146 A 
ATOM     11  O   UNL     1      18.312 -11.484   7.243  1.00  0.00    -0.451 OA
ENDROOT
BRANCH   1  12
ATOM     12  C   UNL     1      17.129  -9.504   7.963  1.00  0.00     0.063 A 
ATOM     13  C   UNL     1      16.796  -7.144   7.472  1.00  0.00     0.047 A 
ATOM     14  C   UNL     1      16.763  -8.481   7.071  1.00  0.00     0.020 A 
ATOM     15  C   UNL     1      17.201  -6.809   8.765  1.00  0.00     0.119 A 
ATOM     16  C   UNL     1      17.571  -7.818   9.662  1.00  0.00     0.093 A 
ATOM     17  C   UNL     1      17.532  -9.163   9.275  1.00  0.00     0.130 A 
BRANCH  15  18
ATOM     18  O   UNL     1      17.233  -5.470   9.150  1.00  0.00    -0.508 OA
ATOM     19  H   UNL     1      17.515  -4.740   8.506  1.00  0.00     0.293 HD
ENDBRANCH  15  18
BRANCH  17  20
ATOM     20  O   UNL     1      17.877 -10.132  10.221  1.00  0.00    -0.507 OA
ATOM     21  H   UNL     1      18.805 -10.532  10.288  1.00  0.00     0.293 HD
ENDBRANCH  17  20
ENDBRANCH   1  12
BRANCH   2  22
ATOM     22  O   UNL     1      14.718 -11.027   7.590  1.00  0.00    -0.502 OA
ATOM     23  H   UNL     1      14.143 -10.601   6.874  1.00  0.00     0.293 HD
ENDBRANCH   2  22
BRANCH   6  24
ATOM     24  O   UNL     1      16.332 -15.670   5.877  1.00  0.00    -0.507 OA
ATOM     25  H   UNL     1      15.444 -15.514   6.342  1.00  0.00     0.293 HD
ENDBRANCH   6  24
BRANCH   8  26
ATOM     26  O   UNL     1      21.122 -15.095   5.875  1.00  0.00    -0.508 OA
ATOM     27  H   UNL     1      21.336 -15.603   5.025  1.00  0.00     0.293 HD
ENDBRANCH   8  26
TORSDOF 6
ENDMDL
MODEL 8
REMARK VINA RESULT:    -4.784     10.627     13.438
REMARK INTER + INTRA:          -6.180
REMARK INTER:                  -5.876
REMARK INTRA:                  -0.304
REMARK UNBOUND:                -0.417
REMARK SMILES O=c1c(O)c(-c2ccc(O)cc2O)oc2cc(O)cc(O)c12
REMARK SMILES IDX 5 1 3 2 2 3 1 4 22 5 20 6 19 7 17 8 16 9 15 10 14 11 6 12
REMARK SMILES IDX 8 13 7 14 9 15 11 16 12 17 10 18 13 20 4 22 21 24 18 26
REMARK H PARENT 10 19 13 21 4 23 21 25 18 27
REMARK Flexibility Score: inf
ROOT
ATOM      1  C   UNL     1      13.835 -16.564  14.462  1.00  0.00     0.184 A 
ATOM      2  C   UNL     1      13.623 -17.147  15.725  1.00  0.00     0.208 A 
ATOM      3  C   UNL     1      13.089 -16.357  16.754  1.00  0.00     0.238 A 
ATOM      4  O   UNL     1      12.897 -16.867  17.892  1.00  0.00    -0.285 OA
ATOM      5  C   UNL     1      12.772 -15.006  16.502  1.00  0.00     0.111 A 
ATOM      6  C   UNL     1      12.227 -14.143  17.483  1.00  0.00     0.134 A 
ATOM      7  C   UNL     1      11.935 -12.811  17.154  1.00  0.00     0.093 A 
ATOM      8  C   UNL     1      12.174 -12.327  15.866  1.00  0.00     0.123 A 
ATOM      9  C   UNL     1      12.712 -13.175  14.892  1.00  0.00     0.094 A 
ATOM     10  C   UNL     1      13.011 -14.505  15.201  1.00  0.00     0.146 A 
ATOM     11  O   UNL     1      13.523 -15.289  14.258  1.00  0.00    -0.451 OA
ENDROOT
BRANCH   1  12
ATOM     12  C   UNL     1      14.411 -17.341  13.345  1.00  0.00     0.063 A 
ATOM     13  C   UNL     1      16.208 -17.658  11.733  1.00  0.00     0.047 A 
ATOM     14  C   UNL     1      15.665 -16.976  12.825  1.00  0.00     0.020 A 
ATOM     15  C   UNL     1      15.503 -18.707  11.141  1.00  0.00     0.119 A 
ATOM     16  C   UNL     1      14.252 -19.079  11.647  1.00  0.00     0.093 A 
ATOM     17  C   UNL     1      13.703 -18.410  12.748  1.00  0.00     0.130 A 
BRANCH  15  18
ATOM     18  O   UNL     1      16.055 -19.376  10.049  1.00  0.00    -0.508 OA
ATOM     19  H   UNL     1      15.716 -19.221   9.107  1.00  0.00     0.293 HD
ENDBRANCH  15  18
BRANCH  17  20
ATOM     20  O   UNL     1      12.467 -18.844  13.234  1.00  0.00    -0.507 OA
ATOM     21  H   UNL     1      12.332 -19.747  13.671  1.00  0.00     0.293 HD
ENDBRANCH  17  20
ENDBRANCH   1  12
BRANCH   2  22
ATOM     22  O   UNL     1      13.926 -18.494  15.934  1.00  0.00    -0.502 OA
ATOM     23  H   UNL     1      13.251 -19.149  16.311  1.00  0.00     0.293 HD
ENDBRANCH   2  22
BRANCH   6  24
ATOM     24  O   UNL     1      11.976 -14.596  18.779  1.00  0.00    -0.507 OA
ATOM     25  H   UNL     1      11.307 -14.134  19.385  1.00  0.00     0.293 HD
ENDBRANCH   6  24
BRANCH   8  26
ATOM     26  O   UNL     1      11.875 -11.000  15.563  1.00  0.00    -0.508 OA
ATOM     27  H   UNL     1      12.400 -10.233  15.967  1.00  0.00     0.293 HD
ENDBRANCH   8  26
TORSDOF 6
ENDMDL
MODEL 9
REMARK VINA RESULT:    -2.959      1.763      7.209
REMARK INTER + INTRA:          -3.982
REMARK INTER:                  -4.143
REMARK INTRA:                   0.161
REMARK UNBOUND:                -0.417
REMARK SMILES O=c1c(O)c(-c2ccc(O)cc2O)oc2cc(O)cc(O)c12
REMARK SMILES IDX 5 1 3 2 2 3 1 4 22 5 20 6 19 7 17 8 16 9 15 10 14 11 6 12
REMARK SMILES IDX 8 13 7 14 9 15 11 16 12 17 10 18 13 20 4 22 21 24 18 26
REMARK H PARENT 10 19 13 21 4 23 21 25 18 27
REMARK Flexibility Score: inf
ROOT
ATOM      1  C   UNL     1      16.350  -5.323   8.353  1.00  0.00     0.184 A 
ATOM      2  C   UNL     1      15.673  -4.987   7.167  1.00  0.00     0.208 A 
ATOM      3  C   UNL     1      15.341  -3.645   6.934  1.00  0.00     0.238 A 
ATOM      4  O   UNL     1      14.730  -3.331   5.875  1.00  0.00    -0.285 OA
ATOM      5  C   UNL     1      15.696  -2.664   7.882  1.00  0.00     0.111 A 
ATOM      6  C   UNL     1      15.402  -1.288   7.723  1.00  0.00     0.134 A 
ATOM      7  C   UNL     1      15.792  -0.373   8.712  1.00  0.00     0.093 A 
ATOM      8  C   UNL     1      16.470  -0.804   9.853  1.00  0.00     0.123 A 
ATOM      9  C   UNL     1      16.764  -2.162  10.018  1.00  0.00     0.094 A 
ATOM     10  C   UNL     1      16.383  -3.090   9.045  1.00  0.00     0.146 A 
ATOM     11  O   UNL     1      16.673  -4.374   9.226  1.00  0.00    -0.451 OA
ENDROOT
BRANCH   1  12
ATOM     12  C   UNL     1      16.711  -6.723   8.662  1.00  0.00     0.063 A 
ATOM     13  C   UNL     1      16.199  -9.096   8.485  1.00  0.00     0.047 A 
ATOM     14  C   UNL     1      15.913  -7.767   8.163  1.00  0.00     0.020 A 
ATOM     15  C   UNL     1      17.278  -9.400   9.316  1.00  0.00     0.119 A 
ATOM     16  C   UNL     1      18.079  -8.369   9.822  1.00  0.00     0.093 A 
ATOM     17  C   UNL     1      17.809  -7.034   9.497  1.00  0.00     0.130 A 
BRANCH  15  18
ATOM     18  O   UNL     1      17.548 -10.730   9.633  1.00  0.00    -0.508 OA
ATOM     19  H   UNL     1      16.909 -11.281  10.193  1.00  0.00     0.293 HD
ENDBRANCH  15  18
BRANCH  17  20
ATOM     20  O   UNL     1      18.661  -6.047  10.001  1.00  0.00    -0.507 OA
ATOM     21  H   UNL     1      19.667  -6.084   9.904  1.00  0.00     0.293 HD
ENDBRANCH  17  20
ENDBRANCH   1  12
BRANCH   2  22
ATOM     22  O   UNL     1      15.357  -5.980   6.237  1.00  0.00    -0.502 OA
ATOM     23  H   UNL     1      15.854  -6.078   5.359  1.00  0.00     0.293 HD
ENDBRANCH   2  22
BRANCH   6  24
ATOM     24  O   UNL     1      14.726  -0.826   6.593  1.00  0.00    -0.507 OA
ATOM     25  H   UNL     1      14.409   0.135   6.517  1.00  0.00     0.293 HD
ENDBRANCH   6  24
BRANCH   8  26
ATOM     26  O   UNL     1      16.847   0.124  10.821  1.00  0.00    -0.508 OA
ATOM     27  H   UNL     1      16.899  -0.123  11.802  1.00  0.00     0.293 HD
ENDBRANCH   8  26
TORSDOF 6
ENDMDL
