MODEL 1
REMARK VINA RESULT:    -2.982      0.000      0.000
REMARK INTER + INTRA:         -10.616
REMARK INTER:                  -6.817
REMARK INTRA:                  -3.799
REMARK UNBOUND:                -3.799
REMARK SMILES CCCCCCCCCCCCCCCCCCCCCCCC(=O)[O-]
REMARK SMILES IDX 13 1 14 2 15 3 16 4 17 5 18 6 19 7 20 8 21 9 22 10 23 11
REMARK SMILES IDX 24 12 25 13 26 14 12 15 11 16 10 17 9 18 8 19 7 20 6 21 5 22
REMARK SMILES IDX 4 23 3 24 2 25 1 26
REMARK H PARENT
REMARK Flexibility Score: inf
ROOT
ATOM      1  C   UNL     1       3.146  -4.749  -3.459  1.00  0.00     0.000 C 
ENDROOT
BRANCH   1   2
ATOM      2  C   UNL     1       3.408  -4.813  -4.972  1.00  0.00     0.000 C 
BRANCH   2   3
ATOM      3  C   UNL     1       4.192  -3.593  -5.489  1.00  0.00     0.000 C 
BRANCH   3   4
ATOM      4  C   UNL     1       5.152  -3.024  -4.431  1.00  0.00     0.000 C 
BRANCH   4   5
ATOM      5  C   UNL     1       6.274  -2.176  -5.047  1.00  0.00     0.000 C 
BRANCH   5   6
ATOM      6  C   UNL     1       6.230  -2.244  -6.581  1.00  0.00     0.000 C 
BRANCH   6   7
ATOM      7  C   UNL     1       6.694  -0.940  -7.254  1.00  0.00     0.000 C 
BRANCH   7   8
ATOM      8  C   UNL     1       6.870   0.257  -6.301  1.00  0.00     0.000 C 
BRANCH   8   9
ATOM      9  C   UNL     1       6.029   1.477  -6.707  1.00  0.00     0.000 C 
BRANCH   9  10
ATOM     10  C   UNL     1       4.560   1.084  -6.929  1.00  0.00     0.006 C 
BRANCH  10  11
ATOM     11  C   UNL     1       3.891   0.586  -5.642  1.00  0.00     0.053 C 
BRANCH  11  12
ATOM     12  C   UNL     1       2.989   1.625  -5.048  1.00  0.00     0.041 C 
ATOM     13  O   UNL     1       2.242   2.315  -5.789  1.00  0.00    -0.550 OA
ATOM     14  O   UNL     1       3.006   1.859  -3.678  1.00  0.00    -0.550 OA
ENDBRANCH  11  12
ENDBRANCH  10  11
ENDBRANCH   9  10
ENDBRANCH   8   9
ENDBRANCH   7   8
ENDBRANCH   6   7
ENDBRANCH   5   6
ENDBRANCH   4   5
ENDBRANCH   3   4
ENDBRANCH   2   3
ENDBRANCH   1   2
BRANCH   1  15
ATOM     15  C   UNL     1       3.598  -6.021  -2.719  1.00  0.00     0.000 C 
BRANCH  15  16
ATOM     16  C   UNL     1       4.597  -6.860  -3.544  1.00  0.00     0.000 C 
BRANCH  16  17
ATOM     17  C   UNL     1       6.041  -6.817  -3.005  1.00  0.00     0.000 C 
BRANCH  17  18
ATOM     18  C   UNL     1       7.141  -6.912  -4.075  1.00  0.00    -0.000 C 
BRANCH  18  19
ATOM     19  C   UNL     1       7.794  -5.572  -4.463  1.00  0.00    -0.000 C 
BRANCH  19  20
ATOM     20  C   UNL     1       7.966  -5.375  -5.985  1.00  0.00    -0.000 C 
BRANCH  20  21
ATOM     21  C   UNL     1       9.178  -4.493  -6.333  1.00  0.00    -0.000 C 
BRANCH  21  22
ATOM     22  C   UNL     1      10.009  -4.101  -5.098  1.00  0.00    -0.000 C 
BRANCH  22  23
ATOM     23  C   UNL     1      10.614  -2.684  -5.139  1.00  0.00    -0.000 C 
BRANCH  23  24
ATOM     24  C   UNL     1       9.749  -1.585  -4.498  1.00  0.00    -0.000 C 
BRANCH  24  25
ATOM     25  C   UNL     1      10.261  -0.169  -4.799  1.00  0.00    -0.003 C 
ATOM     26  C   UNL     1      10.533   0.010  -6.290  1.00  0.00     0.004 C 
ENDBRANCH  24  25
ENDBRANCH  23  24
ENDBRANCH  22  23
ENDBRANCH  21  22
ENDBRANCH  20  21
ENDBRANCH  19  20
ENDBRANCH  18  19
ENDBRANCH  17  18
ENDBRANCH  16  17
ENDBRANCH  15  16
ENDBRANCH   1  15
TORSDOF 22
ENDMDL
MODEL 2
REMARK VINA RESULT:    -2.925     11.013     14.301
REMARK INTER + INTRA:         -10.485
REMARK INTER:                  -7.152
REMARK INTRA:                  -3.334
REMARK UNBOUND:                -3.799
REMARK SMILES CCCCCCCCCCCCCCCCCCCCCCCC(=O)[O-]
REMARK SMILES IDX 13 1 14 2 15 3 16 4 17 5 18 6 19 7 20 8 21 9 22 10 23 11
REMARK SMILES IDX 24 12 25 13 26 14 12 15 11 16 10 17 9 18 8 19 7 20 6 21 5 22
REMARK SMILES IDX 4 23 3 24 2 25 1 26
REMARK H PARENT
REMARK Flexibility Score: inf
ROOT
ATOM      1  C   UNL     1      -2.701   5.416   3.075  1.00  0.00     0.000 C 
ENDROOT
BRANCH   1   2
ATOM      2  C   UNL     1      -3.646   6.028   4.121  1.00  0.00     0.000 C 
BRANCH   2   3
ATOM      3  C   UNL     1      -3.749   5.174   5.398  1.00  0.00     0.000 C 
BRANCH   3   4
ATOM      4  C   UNL     1      -3.523   3.678   5.119  1.00  0.00     0.000 C 
BRANCH   4   5
ATOM      5  C   UNL     1      -2.901   2.942   6.314  1.00  0.00     0.000 C 
BRANCH   5   6
ATOM      6  C   UNL     1      -1.568   3.590   6.720  1.00  0.00     0.000 C 
BRANCH   6   7
ATOM      7  C   UNL     1      -0.359   2.662   6.506  1.00  0.00     0.000 C 
BRANCH   7   8
ATOM      8  C   UNL     1      -0.643   1.164   6.723  1.00  0.00     0.000 C 
BRANCH   8   9
ATOM      9  C   UNL     1       0.596   0.281   6.506  1.00  0.00     0.000 C 
BRANCH   9  10
ATOM     10  C   UNL     1       0.419  -0.627   5.279  1.00  0.00     0.006 C 
BRANCH  10  11
ATOM     11  C   UNL     1       0.472  -2.115   5.647  1.00  0.00     0.053 C 
BRANCH  11  12
ATOM     12  C   UNL     1      -0.025  -2.981   4.529  1.00  0.00     0.041 C 
ATOM     13  O   UNL     1       0.774  -3.718   3.894  1.00  0.00    -0.550 OA
ATOM     14  O   UNL     1      -1.364  -2.940   4.160  1.00  0.00    -0.550 OA
ENDBRANCH  11  12
ENDBRANCH  10  11
ENDBRANCH   9  10
ENDBRANCH   8   9
ENDBRANCH   7   8
ENDBRANCH   6   7
ENDBRANCH   5   6
ENDBRANCH   4   5
ENDBRANCH   3   4
ENDBRANCH   2   3
ENDBRANCH   1   2
BRANCH   1  15
ATOM     15  C   UNL     1      -1.346   6.142   2.998  1.00  0.00     0.000 C 
BRANCH  15  16
ATOM     16  C   UNL     1      -0.233   5.401   3.770  1.00  0.00     0.000 C 
BRANCH  16  17
ATOM     17  C   UNL     1       0.517   6.287   4.784  1.00  0.00     0.000 C 
BRANCH  17  18
ATOM     18  C   UNL     1       1.847   6.873   4.280  1.00  0.00    -0.000 C 
BRANCH  18  19
ATOM     19  C   UNL     1       2.414   6.211   3.009  1.00  0.00    -0.000 C 
BRANCH  19  20
ATOM     20  C   UNL     1       3.877   5.739   3.147  1.00  0.00    -0.000 C 
BRANCH  20  21
ATOM     21  C   UNL     1       4.028   4.220   2.947  1.00  0.00    -0.000 C 
BRANCH  21  22
ATOM     22  C   UNL     1       2.772   3.433   3.361  1.00  0.00    -0.000 C 
BRANCH  22  23
ATOM     23  C   UNL     1       2.865   2.723   4.727  1.00  0.00    -0.000 C 
BRANCH  23  24
ATOM     24  C   UNL     1       3.320   3.613   5.896  1.00  0.00    -0.000 C 
BRANCH  24  25
ATOM     25  C   UNL     1       4.364   2.933   6.794  1.00  0.00    -0.003 C 
ATOM     26  C   UNL     1       4.327   1.417   6.625  1.00  0.00     0.004 C 
ENDBRANCH  24  25
ENDBRANCH  23  24
ENDBRANCH  22  23
ENDBRANCH  21  22
ENDBRANCH  20  21
ENDBRANCH  19  20
ENDBRANCH  18  19
ENDBRANCH  17  18
ENDBRANCH  16  17
ENDBRANCH  15  16
ENDBRANCH   1  15
TORSDOF 22
ENDMDL
MODEL 3
REMARK VINA RESULT:    -2.919      9.967     12.682
REMARK INTER + INTRA:         -10.473
REMARK INTER:                  -8.123
REMARK INTRA:                  -2.350
REMARK UNBOUND:                -3.799
REMARK SMILES CCCCCCCCCCCCCCCCCCCCCCCC(=O)[O-]
REMARK SMILES IDX 13 1 14 2 15 3 16 4 17 5 18 6 19 7 20 8 21 9 22 10 23 11
REMARK SMILES IDX 24 12 25 13 26 14 12 15 11 16 10 17 9 18 8 19 7 20 6 21 5 22
REMARK SMILES IDX 4 23 3 24 2 25 1 26
REMARK H PARENT
REMARK Flexibility Score: inf
ROOT
ATOM      1  C   UNL     1       3.608   2.923   6.879  1.00  0.00     0.000 C 
ENDROOT
BRANCH   1   2
ATOM      2  C   UNL     1       4.564   1.891   6.260  1.00  0.00     0.000 C 
BRANCH   2   3
ATOM      3  C   UNL     1       4.464   0.512   6.938  1.00  0.00     0.000 C 
BRANCH   3   4
ATOM      4  C   UNL     1       3.337   0.455   7.983  1.00  0.00     0.000 C 
BRANCH   4   5
ATOM      5  C   UNL     1       2.232  -0.543   7.606  1.00  0.00     0.000 C 
BRANCH   5   6
ATOM      6  C   UNL     1       1.084   0.166   6.871  1.00  0.00     0.000 C 
BRANCH   6   7
ATOM      7  C   UNL     1       0.690  -0.534   5.558  1.00  0.00     0.000 C 
BRANCH   7   8
ATOM      8  C   UNL     1      -0.311  -1.694   5.715  1.00  0.00     0.000 C 
BRANCH   8   9
ATOM      9  C   UNL     1       0.254  -3.042   5.240  1.00  0.00     0.000 C 
BRANCH   9  10
ATOM     10  C   UNL     1      -0.254  -3.387   3.831  1.00  0.00     0.006 C 
BRANCH  10  11
ATOM     11  C   UNL     1      -1.778  -3.257   3.716  1.00  0.00     0.053 C 
BRANCH  11  12
ATOM     12  C   UNL     1      -2.444  -4.597   3.630  1.00  0.00     0.041 C 
ATOM     13  O   UNL     1      -3.244  -4.849   2.691  1.00  0.00    -0.550 OA
ATOM     14  O   UNL     1      -2.213  -5.552   4.612  1.00  0.00    -0.550 OA
ENDBRANCH  11  12
ENDBRANCH  10  11
ENDBRANCH   9  10
ENDBRANCH   8   9
ENDBRANCH   7   8
ENDBRANCH   6   7
ENDBRANCH   5   6
ENDBRANCH   4   5
ENDBRANCH   3   4
ENDBRANCH   2   3
ENDBRANCH   1   2
BRANCH   1  15
ATOM     15  C   UNL     1       2.661   3.556   5.844  1.00  0.00     0.000 C 
BRANCH  15  16
ATOM     16  C   UNL     1       2.430   2.645   4.619  1.00  0.00     0.000 C 
BRANCH  16  17
ATOM     17  C   UNL     1       2.948   3.240   3.294  1.00  0.00     0.000 C 
BRANCH  17  18
ATOM     18  C   UNL     1       3.437   4.695   3.379  1.00  0.00    -0.000 C 
BRANCH  18  19
ATOM     19  C   UNL     1       4.646   5.033   2.484  1.00  0.00    -0.000 C 
BRANCH  19  20
ATOM     20  C   UNL     1       4.404   6.217   1.524  1.00  0.00    -0.000 C 
BRANCH  20  21
ATOM     21  C   UNL     1       5.525   6.370   0.481  1.00  0.00    -0.000 C 
BRANCH  21  22
ATOM     22  C   UNL     1       6.160   5.025   0.082  1.00  0.00    -0.000 C 
BRANCH  22  23
ATOM     23  C   UNL     1       7.701   5.018   0.034  1.00  0.00    -0.000 C 
BRANCH  23  24
ATOM     24  C   UNL     1       8.386   6.123   0.857  1.00  0.00    -0.000 C 
BRANCH  24  25
ATOM     25  C   UNL     1       8.722   5.681   2.288  1.00  0.00    -0.003 C 
ATOM     26  C   UNL     1       8.346   6.761   3.297  1.00  0.00     0.004 C 
ENDBRANCH  24  25
ENDBRANCH  23  24
ENDBRANCH  22  23
ENDBRANCH  21  22
ENDBRANCH  20  21
ENDBRANCH  19  20
ENDBRANCH  18  19
ENDBRANCH  17  18
ENDBRANCH  16  17
ENDBRANCH  15  16
ENDBRANCH   1  15
TORSDOF 22
ENDMDL
MODEL 4
REMARK VINA RESULT:    -2.905      1.336      5.003
REMARK INTER + INTRA:         -10.441
REMARK INTER:                  -6.788
REMARK INTRA:                  -3.652
REMARK UNBOUND:                -3.799
REMARK SMILES CCCCCCCCCCCCCCCCCCCCCCCC(=O)[O-]
REMARK SMILES IDX 13 1 14 2 15 3 16 4 17 5 18 6 19 7 20 8 21 9 22 10 23 11
REMARK SMILES IDX 24 12 25 13 26 14 12 15 11 16 10 17 9 18 8 19 7 20 6 21 5 22
REMARK SMILES IDX 4 23 3 24 2 25 1 26
REMARK H PARENT
REMARK Flexibility Score: inf
ROOT
ATOM      1  C   UNL     1       7.608  -3.574  -5.100  1.00  0.00     0.000 C 
ENDROOT
BRANCH   1   2
ATOM      2  C   UNL     1       8.933  -2.825  -5.318  1.00  0.00     0.000 C 
BRANCH   2   3
ATOM      3  C   UNL     1       9.238  -1.822  -4.191  1.00  0.00     0.000 C 
BRANCH   3   4
ATOM      4  C   UNL     1      10.213  -0.719  -4.640  1.00  0.00     0.000 C 
BRANCH   4   5
ATOM      5  C   UNL     1       9.500   0.456  -5.325  1.00  0.00     0.000 C 
BRANCH   5   6
ATOM      6  C   UNL     1       9.481   0.269  -6.849  1.00  0.00     0.000 C 
BRANCH   6   7
ATOM      7  C   UNL     1       8.080   0.455  -7.460  1.00  0.00     0.000 C 
BRANCH   7   8
ATOM      8  C   UNL     1       6.910   0.084  -6.530  1.00  0.00     0.000 C 
BRANCH   8   9
ATOM      9  C   UNL     1       5.595  -0.155  -7.287  1.00  0.00     0.000 C 
BRANCH   9  10
ATOM     10  C   UNL     1       4.385  -0.010  -6.350  1.00  0.00     0.006 C 
BRANCH  10  11
ATOM     11  C   UNL     1       4.439   1.284  -5.529  1.00  0.00     0.053 C 
BRANCH  11  12
ATOM     12  C   UNL     1       3.089   1.662  -5.001  1.00  0.00     0.041 C 
ATOM     13  O   UNL     1       2.918   1.843  -3.767  1.00  0.00    -0.550 OA
ATOM     14  O   UNL     1       2.009   1.774  -5.868  1.00  0.00    -0.550 OA
ENDBRANCH  11  12
ENDBRANCH  10  11
ENDBRANCH   9  10
ENDBRANCH   8   9
ENDBRANCH   7   8
ENDBRANCH   6   7
ENDBRANCH   5   6
ENDBRANCH   4   5
ENDBRANCH   3   4
ENDBRANCH   2   3
ENDBRANCH   1   2
BRANCH   1  15
ATOM     15  C   UNL     1       6.627  -2.801  -4.200  1.00  0.00     0.000 C 
BRANCH  15  16
ATOM     16  C   UNL     1       5.152  -3.113  -4.529  1.00  0.00     0.000 C 
BRANCH  16  17
ATOM     17  C   UNL     1       4.926  -3.605  -5.973  1.00  0.00     0.000 C 
BRANCH  17  18
ATOM     18  C   UNL     1       3.638  -4.415  -6.193  1.00  0.00    -0.000 C 
BRANCH  18  19
ATOM     19  C   UNL     1       3.848  -5.859  -6.687  1.00  0.00    -0.000 C 
BRANCH  19  20
ATOM     20  C   UNL     1       5.309  -6.349  -6.587  1.00  0.00    -0.000 C 
BRANCH  20  21
ATOM     21  C   UNL     1       5.515  -7.359  -5.444  1.00  0.00    -0.000 C 
BRANCH  21  22
ATOM     22  C   UNL     1       6.343  -6.786  -4.280  1.00  0.00    -0.000 C 
BRANCH  22  23
ATOM     23  C   UNL     1       5.584  -6.642  -2.946  1.00  0.00    -0.000 C 
BRANCH  23  24
ATOM     24  C   UNL     1       4.062  -6.465  -3.076  1.00  0.00    -0.000 C 
BRANCH  24  25
ATOM     25  C   UNL     1       3.348  -6.412  -1.718  1.00  0.00    -0.003 C 
ATOM     26  C   UNL     1       4.174  -7.105  -0.638  1.00  0.00     0.004 C 
ENDBRANCH  24  25
ENDBRANCH  23  24
ENDBRANCH  22  23
ENDBRANCH  21  22
ENDBRANCH  20  21
ENDBRANCH  19  20
ENDBRANCH  18  19
ENDBRANCH  17  18
ENDBRANCH  16  17
ENDBRANCH  15  16
ENDBRANCH   1  15
TORSDOF 22
ENDMDL
MODEL 5
REMARK VINA RESULT:    -2.894     10.617     13.494
REMARK INTER + INTRA:         -10.416
REMARK INTER:                  -7.633
REMARK INTRA:                  -2.783
REMARK UNBOUND:                -3.799
REMARK SMILES CCCCCCCCCCCCCCCCCCCCCCCC(=O)[O-]
REMARK SMILES IDX 13 1 14 2 15 3 16 4 17 5 18 6 19 7 20 8 21 9 22 10 23 11
REMARK SMILES IDX 24 12 25 13 26 14 12 15 11 16 10 17 9 18 8 19 7 20 6 21 5 22
REMARK SMILES IDX 4 23 3 24 2 25 1 26
REMARK H PARENT
REMARK Flexibility Score: inf
ROOT
ATOM      1  C   UNL     1       4.547   1.934   6.366  1.00  0.00     0.000 C 
ENDROOT
BRANCH   1   2
ATOM      2  C   UNL     1       4.190   0.926   7.470  1.00  0.00     0.000 C 
BRANCH   2   3
ATOM      3  C   UNL     1       3.118  -0.086   7.024  1.00  0.00     0.000 C 
BRANCH   3   4
ATOM      4  C   UNL     1       1.935   0.593   6.314  1.00  0.00     0.000 C 
BRANCH   4   5
ATOM      5  C   UNL     1       0.821  -0.398   5.946  1.00  0.00     0.000 C 
BRANCH   5   6
ATOM      6  C   UNL     1       1.048  -1.754   6.631  1.00  0.00     0.000 C 
BRANCH   6   7
ATOM      7  C   UNL     1       0.328  -2.915   5.921  1.00  0.00     0.000 C 
BRANCH   7   8
ATOM      8  C   UNL     1      -0.308  -2.553   4.565  1.00  0.00     0.000 C 
BRANCH   8   9
ATOM      9  C   UNL     1      -0.720  -3.787   3.748  1.00  0.00     0.000 C 
BRANCH   9  10
ATOM     10  C   UNL     1      -2.228  -3.776   3.455  1.00  0.00     0.006 C 
BRANCH  10  11
ATOM     11  C   UNL     1      -3.045  -3.243   4.639  1.00  0.00     0.053 C 
BRANCH  11  12
ATOM     12  C   UNL     1      -4.515  -3.260   4.351  1.00  0.00     0.041 C 
ATOM     13  O   UNL     1      -4.952  -2.834   3.250  1.00  0.00    -0.550 OA
ATOM     14  O   UNL     1      -5.408  -3.708   5.318  1.00  0.00    -0.550 OA
ENDBRANCH  11  12
ENDBRANCH  10  11
ENDBRANCH   9  10
ENDBRANCH   8   9
ENDBRANCH   7   8
ENDBRANCH   6   7
ENDBRANCH   5   6
ENDBRANCH   4   5
ENDBRANCH   3   4
ENDBRANCH   2   3
ENDBRANCH   1   2
BRANCH   1  15
ATOM     15  C   UNL     1       4.457   3.395   6.840  1.00  0.00     0.000 C 
BRANCH  15  16
ATOM     16  C   UNL     1       3.657   3.543   8.151  1.00  0.00     0.000 C 
BRANCH  16  17
ATOM     17  C   UNL     1       2.196   3.990   7.943  1.00  0.00     0.000 C 
BRANCH  17  18
ATOM     18  C   UNL     1       1.954   4.878   6.710  1.00  0.00    -0.000 C 
BRANCH  18  19
ATOM     19  C   UNL     1       0.982   4.297   5.665  1.00  0.00    -0.000 C 
BRANCH  19  20
ATOM     20  C   UNL     1       1.465   4.449   4.207  1.00  0.00    -0.000 C 
BRANCH  20  21
ATOM     21  C   UNL     1       2.285   3.237   3.728  1.00  0.00    -0.000 C 
BRANCH  21  22
ATOM     22  C   UNL     1       3.632   3.636   3.098  1.00  0.00    -0.000 C 
BRANCH  22  23
ATOM     23  C   UNL     1       4.163   5.022   3.514  1.00  0.00    -0.000 C 
BRANCH  23  24
ATOM     24  C   UNL     1       5.350   5.542   2.684  1.00  0.00    -0.000 C 
BRANCH  24  25
ATOM     25  C   UNL     1       5.190   5.278   1.181  1.00  0.00    -0.003 C 
ATOM     26  C   UNL     1       6.549   5.189   0.492  1.00  0.00     0.004 C 
ENDBRANCH  24  25
ENDBRANCH  23  24
ENDBRANCH  22  23
ENDBRANCH  21  22
ENDBRANCH  20  21
ENDBRANCH  19  20
ENDBRANCH  18  19
ENDBRANCH  17  18
ENDBRANCH  16  17
ENDBRANCH  15  16
ENDBRANCH   1  15
TORSDOF 22
ENDMDL
MODEL 6
REMARK VINA RESULT:    -2.882     10.255     13.326
REMARK INTER + INTRA:         -10.387
REMARK INTER:                  -7.639
REMARK INTRA:                  -2.748
REMARK UNBOUND:                -3.799
REMARK SMILES CCCCCCCCCCCCCCCCCCCCCCCC(=O)[O-]
REMARK SMILES IDX 13 1 14 2 15 3 16 4 17 5 18 6 19 7 20 8 21 9 22 10 23 11
REMARK SMILES IDX 24 12 25 13 26 14 12 15 11 16 10 17 9 18 8 19 7 20 6 21 5 22
REMARK SMILES IDX 4 23 3 24 2 25 1 26
REMARK H PARENT
REMARK Flexibility Score: inf
ROOT
ATOM      1  C   UNL     1       0.374   6.067   4.761  1.00  0.00     0.000 C 
ENDROOT
BRANCH   1   2
ATOM      2  C   UNL     1       0.525   4.641   5.314  1.00  0.00     0.000 C 
BRANCH   2   3
ATOM      3  C   UNL     1       1.986   4.153   5.303  1.00  0.00     0.000 C 
BRANCH   3   4
ATOM      4  C   UNL     1       2.159   2.844   4.516  1.00  0.00     0.000 C 
BRANCH   4   5
ATOM      5  C   UNL     1       2.952   3.037   3.215  1.00  0.00     0.000 C 
BRANCH   5   6
ATOM      6  C   UNL     1       3.962   4.185   3.358  1.00  0.00     0.000 C 
BRANCH   6   7
ATOM      7  C   UNL     1       3.836   5.239   2.243  1.00  0.00     0.000 C 
BRANCH   7   8
ATOM      8  C   UNL     1       4.561   6.569   2.521  1.00  0.00     0.000 C 
BRANCH   8   9
ATOM      9  C   UNL     1       5.854   6.390   3.331  1.00  0.00     0.000 C 
BRANCH   9  10
ATOM     10  C   UNL     1       7.063   6.962   2.576  1.00  0.00     0.006 C 
BRANCH  10  11
ATOM     11  C   UNL     1       7.923   5.863   1.940  1.00  0.00     0.053 C 
BRANCH  11  12
ATOM     12  C   UNL     1       7.520   5.593   0.523  1.00  0.00     0.041 C 
ATOM     13  O   UNL     1       7.623   4.434   0.043  1.00  0.00    -0.550 OA
ATOM     14  O   UNL     1       7.070   6.633  -0.282  1.00  0.00    -0.550 OA
ENDBRANCH  11  12
ENDBRANCH  10  11
ENDBRANCH   9  10
ENDBRANCH   8   9
ENDBRANCH   7   8
ENDBRANCH   6   7
ENDBRANCH   5   6
ENDBRANCH   4   5
ENDBRANCH   3   4
ENDBRANCH   2   3
ENDBRANCH   1   2
BRANCH   1  15
ATOM     15  C   UNL     1      -0.356   6.109   3.406  1.00  0.00     0.000 C 
BRANCH  15  16
ATOM     16  C   UNL     1      -1.838   5.695   3.521  1.00  0.00     0.000 C 
BRANCH  16  17
ATOM     17  C   UNL     1      -2.789   6.538   2.649  1.00  0.00     0.000 C 
BRANCH  17  18
ATOM     18  C   UNL     1      -2.742   6.227   1.143  1.00  0.00    -0.000 C 
BRANCH  18  19
ATOM     19  C   UNL     1      -2.593   4.735   0.787  1.00  0.00    -0.000 C 
BRANCH  19  20
ATOM     20  C   UNL     1      -2.456   4.463  -0.727  1.00  0.00    -0.000 C 
BRANCH  20  21
ATOM     21  C   UNL     1      -3.124   5.553  -1.585  1.00  0.00    -0.000 C 
BRANCH  21  22
ATOM     22  C   UNL     1      -2.154   6.203  -2.589  1.00  0.00    -0.000 C 
BRANCH  22  23
ATOM     23  C   UNL     1      -0.700   6.345  -2.096  1.00  0.00    -0.000 C 
BRANCH  23  24
ATOM     24  C   UNL     1      -0.387   7.655  -1.352  1.00  0.00    -0.000 C 
BRANCH  24  25
ATOM     25  C   UNL     1       0.511   7.445  -0.125  1.00  0.00    -0.003 C 
ATOM     26  C   UNL     1       0.515   8.681   0.769  1.00  0.00     0.004 C 
ENDBRANCH  24  25
ENDBRANCH  23  24
ENDBRANCH  22  23
ENDBRANCH  21  22
ENDBRANCH  20  21
ENDBRANCH  19  20
ENDBRANCH  18  19
ENDBRANCH  17  18
ENDBRANCH  16  17
ENDBRANCH  15  16
ENDBRANCH   1  15
TORSDOF 22
ENDMDL
MODEL 7
REMARK VINA RESULT:    -2.842     11.090     13.929
REMARK INTER + INTRA:         -10.297
REMARK INTER:                  -7.085
REMARK INTRA:                  -3.212
REMARK UNBOUND:                -3.799
REMARK SMILES CCCCCCCCCCCCCCCCCCCCCCCC(=O)[O-]
REMARK SMILES IDX 13 1 14 2 15 3 16 4 17 5 18 6 19 7 20 8 21 9 22 10 23 11
REMARK SMILES IDX 24 12 25 13 26 14 12 15 11 16 10 17 9 18 8 19 7 20 6 21 5 22
REMARK SMILES IDX 4 23 3 24 2 25 1 26
REMARK H PARENT
REMARK Flexibility Score: inf
ROOT
ATOM      1  C   UNL     1       0.769   4.958   4.079  1.00  0.00     0.000 C 
ENDROOT
BRANCH   1   2
ATOM      2  C   UNL     1       1.385   4.186   5.257  1.00  0.00     0.000 C 
BRANCH   2   3
ATOM      3  C   UNL     1       2.471   3.190   4.808  1.00  0.00     0.000 C 
BRANCH   3   4
ATOM      4  C   UNL     1       2.943   3.452   3.368  1.00  0.00     0.000 C 
BRANCH   4   5
ATOM      5  C   UNL     1       4.220   4.302   3.311  1.00  0.00     0.000 C 
BRANCH   5   6
ATOM      6  C   UNL     1       4.212   5.219   2.078  1.00  0.00     0.000 C 
BRANCH   6   7
ATOM      7  C   UNL     1       3.620   6.610   2.367  1.00  0.00     0.000 C 
BRANCH   7   8
ATOM      8  C   UNL     1       3.122   7.375   1.127  1.00  0.00     0.000 C 
BRANCH   8   9
ATOM      9  C   UNL     1       1.608   7.638   1.152  1.00  0.00     0.000 C 
BRANCH   9  10
ATOM     10  C   UNL     1       1.076   7.937  -0.258  1.00  0.00     0.006 C 
BRANCH  10  11
ATOM     11  C   UNL     1      -0.455   8.018  -0.295  1.00  0.00     0.053 C 
BRANCH  11  12
ATOM     12  C   UNL     1      -1.051   6.889  -1.078  1.00  0.00     0.041 C 
ATOM     13  O   UNL     1      -0.373   6.299  -1.959  1.00  0.00    -0.550 OA
ATOM     14  O   UNL     1      -2.373   6.516  -0.865  1.00  0.00    -0.550 OA
ENDBRANCH  11  12
ENDBRANCH  10  11
ENDBRANCH   9  10
ENDBRANCH   8   9
ENDBRANCH   7   8
ENDBRANCH   6   7
ENDBRANCH   5   6
ENDBRANCH   4   5
ENDBRANCH   3   4
ENDBRANCH   2   3
ENDBRANCH   1   2
BRANCH   1  15
ATOM     15  C   UNL     1       0.398   6.407   4.444  1.00  0.00     0.000 C 
BRANCH  15  16
ATOM     16  C   UNL     1      -1.022   6.789   3.975  1.00  0.00     0.000 C 
BRANCH  16  17
ATOM     17  C   UNL     1      -1.470   6.065   2.691  1.00  0.00     0.000 C 
BRANCH  17  18
ATOM     18  C   UNL     1      -2.814   5.324   2.794  1.00  0.00    -0.000 C 
BRANCH  18  19
ATOM     19  C   UNL     1      -3.474   5.356   4.186  1.00  0.00    -0.000 C 
BRANCH  19  20
ATOM     20  C   UNL     1      -3.476   3.993   4.911  1.00  0.00    -0.000 C 
BRANCH  20  21
ATOM     21  C   UNL     1      -2.385   3.898   5.992  1.00  0.00    -0.000 C 
BRANCH  21  22
ATOM     22  C   UNL     1      -2.308   2.506   6.645  1.00  0.00    -0.000 C 
BRANCH  22  23
ATOM     23  C   UNL     1      -0.883   2.003   6.950  1.00  0.00    -0.000 C 
BRANCH  23  24
ATOM     24  C   UNL     1      -0.797   0.560   7.477  1.00  0.00    -0.000 C 
BRANCH  24  25
ATOM     25  C   UNL     1      -0.458  -0.457   6.378  1.00  0.00    -0.003 C 
ATOM     26  C   UNL     1       0.729   0.013   5.544  1.00  0.00     0.004 C 
ENDBRANCH  24  25
ENDBRANCH  23  24
ENDBRANCH  22  23
ENDBRANCH  21  22
ENDBRANCH  20  21
ENDBRANCH  19  20
ENDBRANCH  18  19
ENDBRANCH  17  18
ENDBRANCH  16  17
ENDBRANCH  15  16
ENDBRANCH   1  15
TORSDOF 22
ENDMDL
MODEL 8
REMARK VINA RESULT:    -2.813      1.286      4.785
REMARK INTER + INTRA:         -10.230
REMARK INTER:                  -7.192
REMARK INTRA:                  -3.038
REMARK UNBOUND:                -3.799
REMARK SMILES CCCCCCCCCCCCCCCCCCCCCCCC(=O)[O-]
REMARK SMILES IDX 13 1 14 2 15 3 16 4 17 5 18 6 19 7 20 8 21 9 22 10 23 11
REMARK SMILES IDX 24 12 25 13 26 14 12 15 11 16 10 17 9 18 8 19 7 20 6 21 5 22
REMARK SMILES IDX 4 23 3 24 2 25 1 26
REMARK H PARENT
REMARK Flexibility Score: inf
ROOT
ATOM      1  C   UNL     1       6.557  -2.950  -4.212  1.00  0.00     0.000 C 
ENDROOT
BRANCH   1   2
ATOM      2  C   UNL     1       7.910  -2.583  -4.844  1.00  0.00     0.000 C 
BRANCH   2   3
ATOM      3  C   UNL     1       8.828  -1.818  -3.873  1.00  0.00     0.000 C 
BRANCH   3   4
ATOM      4  C   UNL     1       9.953  -1.066  -4.603  1.00  0.00     0.000 C 
BRANCH   4   5
ATOM      5  C   UNL     1       9.445   0.180  -5.344  1.00  0.00     0.000 C 
BRANCH   5   6
ATOM      6  C   UNL     1       9.312  -0.095  -6.849  1.00  0.00     0.000 C 
BRANCH   6   7
ATOM      7  C   UNL     1       8.021   0.486  -7.455  1.00  0.00     0.000 C 
BRANCH   7   8
ATOM      8  C   UNL     1       6.898   0.771  -6.440  1.00  0.00     0.000 C 
BRANCH   8   9
ATOM      9  C   UNL     1       5.577   1.181  -7.108  1.00  0.00     0.000 C 
BRANCH   9  10
ATOM     10  C   UNL     1       4.407   1.094  -6.116  1.00  0.00     0.006 C 
BRANCH  10  11
ATOM     11  C   UNL     1       3.536   2.357  -6.133  1.00  0.00     0.053 C 
BRANCH  11  12
ATOM     12  C   UNL     1       2.853   2.577  -4.818  1.00  0.00     0.041 C 
ATOM     13  O   UNL     1       2.081   3.559  -4.660  1.00  0.00    -0.550 OA
ATOM     14  O   UNL     1       3.103   1.721  -3.752  1.00  0.00    -0.550 OA
ENDBRANCH  11  12
ENDBRANCH  10  11
ENDBRANCH   9  10
ENDBRANCH   8   9
ENDBRANCH   7   8
ENDBRANCH   6   7
ENDBRANCH   5   6
ENDBRANCH   4   5
ENDBRANCH   3   4
ENDBRANCH   2   3
ENDBRANCH   1   2
BRANCH   1  15
ATOM     15  C   UNL     1       5.369  -2.255  -4.900  1.00  0.00     0.000 C 
BRANCH  15  16
ATOM     16  C   UNL     1       5.110  -2.796  -6.322  1.00  0.00     0.000 C 
BRANCH  16  17
ATOM     17  C   UNL     1       3.700  -3.389  -6.516  1.00  0.00     0.000 C 
BRANCH  17  18
ATOM     18  C   UNL     1       3.491  -4.788  -5.914  1.00  0.00    -0.000 C 
BRANCH  18  19
ATOM     19  C   UNL     1       2.504  -4.853  -4.733  1.00  0.00    -0.000 C 
BRANCH  19  20
ATOM     20  C   UNL     1       3.179  -4.771  -3.347  1.00  0.00    -0.000 C 
BRANCH  20  21
ATOM     21  C   UNL     1       3.139  -6.112  -2.591  1.00  0.00    -0.000 C 
BRANCH  21  22
ATOM     22  C   UNL     1       4.539  -6.633  -2.221  1.00  0.00    -0.000 C 
BRANCH  22  23
ATOM     23  C   UNL     1       5.646  -6.322  -3.248  1.00  0.00    -0.000 C 
BRANCH  23  24
ATOM     24  C   UNL     1       5.760  -7.325  -4.410  1.00  0.00    -0.000 C 
BRANCH  24  25
ATOM     25  C   UNL     1       7.210  -7.558  -4.857  1.00  0.00    -0.003 C 
ATOM     26  C   UNL     1       8.091  -6.363  -4.505  1.00  0.00     0.004 C 
ENDBRANCH  24  25
ENDBRANCH  23  24
ENDBRANCH  22  23
ENDBRANCH  21  22
ENDBRANCH  20  21
ENDBRANCH  19  20
ENDBRANCH  18  19
ENDBRANCH  17  18
ENDBRANCH  16  17
ENDBRANCH  15  16
ENDBRANCH   1  15
TORSDOF 22
ENDMDL
MODEL 9
REMARK VINA RESULT:    -2.804     11.778     14.295
REMARK INTER + INTRA:         -10.209
REMARK INTER:                  -5.726
REMARK INTRA:                  -4.483
REMARK UNBOUND:                -3.799
REMARK SMILES CCCCCCCCCCCCCCCCCCCCCCCC(=O)[O-]
REMARK SMILES IDX 13 1 14 2 15 3 16 4 17 5 18 6 19 7 20 8 21 9 22 10 23 11
REMARK SMILES IDX 24 12 25 13 26 14 12 15 11 16 10 17 9 18 8 19 7 20 6 21 5 22
REMARK SMILES IDX 4 23 3 24 2 25 1 26
REMARK H PARENT
REMARK Flexibility Score: inf
ROOT
ATOM      1  C   UNL     1      -2.278  -6.946   5.125  1.00  0.00     0.000 C 
ENDROOT
BRANCH   1   2
ATOM      2  C   UNL     1      -1.709  -7.238   3.727  1.00  0.00     0.000 C 
BRANCH   2   3
ATOM      3  C   UNL     1      -2.344  -6.360   2.633  1.00  0.00     0.000 C 
BRANCH   3   4
ATOM      4  C   UNL     1      -2.818  -7.184   1.425  1.00  0.00     0.000 C 
BRANCH   4   5
ATOM      5  C   UNL     1      -4.067  -6.588   0.758  1.00  0.00     0.000 C 
BRANCH   5   6
ATOM      6  C   UNL     1      -4.759  -5.584   1.692  1.00  0.00     0.000 C 
BRANCH   6   7
ATOM      7  C   UNL     1      -6.102  -6.100   2.240  1.00  0.00     0.000 C 
BRANCH   7   8
ATOM      8  C   UNL     1      -7.197  -5.027   2.391  1.00  0.00     0.000 C 
BRANCH   8   9
ATOM      9  C   UNL     1      -6.802  -3.900   3.357  1.00  0.00     0.000 C 
BRANCH   9  10
ATOM     10  C   UNL     1      -7.589  -4.000   4.673  1.00  0.00     0.006 C 
BRANCH  10  11
ATOM     11  C   UNL     1      -7.832  -2.626   5.310  1.00  0.00     0.053 C 
BRANCH  11  12
ATOM     12  C   UNL     1      -6.669  -2.189   6.147  1.00  0.00     0.041 C 
ATOM     13  O   UNL     1      -5.934  -1.239   5.767  1.00  0.00    -0.550 OA
ATOM     14  O   UNL     1      -6.369  -2.860   7.326  1.00  0.00    -0.550 OA
ENDBRANCH  11  12
ENDBRANCH  10  11
ENDBRANCH   9  10
ENDBRANCH   8   9
ENDBRANCH   7   8
ENDBRANCH   6   7
ENDBRANCH   5   6
ENDBRANCH   4   5
ENDBRANCH   3   4
ENDBRANCH   2   3
ENDBRANCH   1   2
BRANCH   1  15
ATOM     15  C   UNL     1      -3.815  -7.002   5.167  1.00  0.00     0.000 C 
BRANCH  15  16
ATOM     16  C   UNL     1      -4.441  -5.683   5.668  1.00  0.00     0.000 C 
BRANCH  16  17
ATOM     17  C   UNL     1      -3.481  -4.816   6.505  1.00  0.00     0.000 C 
BRANCH  17  18
ATOM     18  C   UNL     1      -3.136  -3.447   5.895  1.00  0.00    -0.000 C 
BRANCH  18  19
ATOM     19  C   UNL     1      -3.448  -3.303   4.392  1.00  0.00    -0.000 C 
BRANCH  19  20
ATOM     20  C   UNL     1      -2.195  -3.131   3.506  1.00  0.00    -0.000 C 
BRANCH  20  21
ATOM     21  C   UNL     1      -0.899  -3.033   4.330  1.00  0.00    -0.000 C 
BRANCH  21  22
ATOM     22  C   UNL     1       0.269  -3.817   3.705  1.00  0.00    -0.000 C 
BRANCH  22  23
ATOM     23  C   UNL     1       0.997  -4.781   4.663  1.00  0.00    -0.000 C 
BRANCH  23  24
ATOM     24  C   UNL     1       0.542  -4.711   6.131  1.00  0.00    -0.000 C 
BRANCH  24  25
ATOM     25  C   UNL     1       1.709  -4.530   7.111  1.00  0.00    -0.003 C 
ATOM     26  C   UNL     1       2.923  -5.344   6.674  1.00  0.00     0.004 C 
ENDBRANCH  24  25
ENDBRANCH  23  24
ENDBRANCH  22  23
ENDBRANCH  21  22
ENDBRANCH  20  21
ENDBRANCH  19  20
ENDBRANCH  18  19
ENDBRANCH  17  18
ENDBRANCH  16  17
ENDBRANCH  15  16
ENDBRANCH   1  15
TORSDOF 22
ENDMDL
