MODEL 1
REMARK VINA RESULT:    -5.082      0.000      0.000
REMARK INTER + INTRA:         -12.311
REMARK INTER:                  -9.836
REMARK INTRA:                  -2.476
REMARK UNBOUND:                -2.476
REMARK SMILES CCCCCCCCCCCCCCCCCC(=O)[O-]
REMARK SMILES IDX 10 1 11 2 12 3 13 4 14 5 15 6 16 7 17 8 18 9 19 10 20 11
REMARK SMILES IDX 9 12 8 13 7 14 6 15 5 16 4 17 3 18 2 19 1 20
REMARK H PARENT
REMARK Flexibility Score: inf
ROOT
ATOM      1  C   UNL     1      12.874  16.869  71.259  1.00  0.00     0.000 C 
ENDROOT
BRANCH   1   2
ATOM      2  C   UNL     1      12.055  15.942  72.171  1.00  0.00     0.000 C 
BRANCH   2   3
ATOM      3  C   UNL     1      10.553  15.975  71.850  1.00  0.00     0.000 C 
BRANCH   3   4
ATOM      4  C   UNL     1      10.009  17.407  71.700  1.00  0.00     0.000 C 
BRANCH   4   5
ATOM      5  C   UNL     1       9.300  17.622  70.346  1.00  0.00     0.000 C 
BRANCH   5   6
ATOM      6  C   UNL     1       9.244  16.358  69.471  1.00  0.00     0.000 C 
BRANCH   6   7
ATOM      7  C   UNL     1      10.124  16.460  68.214  1.00  0.00     0.006 C 
BRANCH   7   8
ATOM      8  C   UNL     1      10.740  17.856  68.047  1.00  0.00     0.053 C 
BRANCH   8   9
ATOM      9  C   UNL     1      11.650  17.925  66.860  1.00  0.00     0.041 C 
ATOM     10  O   UNL     1      11.778  19.003  66.221  1.00  0.00    -0.550 OA
ATOM     11  O   UNL     1      12.383  16.808  66.477  1.00  0.00    -0.550 OA
ENDBRANCH   8   9
ENDBRANCH   7   8
ENDBRANCH   6   7
ENDBRANCH   5   6
ENDBRANCH   4   5
ENDBRANCH   3   4
ENDBRANCH   2   3
ENDBRANCH   1   2
BRANCH   1  12
ATOM     12  C   UNL     1      13.352  16.122  70.005  1.00  0.00     0.000 C 
BRANCH  12  13
ATOM     13  C   UNL     1      14.203  14.888  70.341  1.00  0.00    -0.000 C 
BRANCH  13  14
ATOM     14  C   UNL     1      13.605  13.586  69.783  1.00  0.00    -0.000 C 
BRANCH  14  15
ATOM     15  C   UNL     1      12.305  13.823  68.999  1.00  0.00    -0.000 C 
BRANCH  15  16
ATOM     16  C   UNL     1      11.096  13.121  69.636  1.00  0.00    -0.000 C 
BRANCH  16  17
ATOM     17  C   UNL     1       9.963  12.944  68.617  1.00  0.00    -0.000 C 
BRANCH  17  18
ATOM     18  C   UNL     1      10.020  11.554  67.965  1.00  0.00    -0.000 C 
BRANCH  18  19
ATOM     19  C   UNL     1       9.457  10.451  68.875  1.00  0.00    -0.003 C 
ATOM     20  C   UNL     1       8.479   9.529  68.148  1.00  0.00     0.004 C 
ENDBRANCH  18  19
ENDBRANCH  17  18
ENDBRANCH  16  17
ENDBRANCH  15  16
ENDBRANCH  14  15
ENDBRANCH  13  14
ENDBRANCH  12  13
ENDBRANCH   1  12
TORSDOF 16
ENDMDL
MODEL 2
REMARK VINA RESULT:    -5.041      3.788      5.347
REMARK INTER + INTRA:         -12.232
REMARK INTER:                  -9.746
REMARK INTRA:                  -2.486
REMARK UNBOUND:                -2.476
REMARK SMILES CCCCCCCCCCCCCCCCCC(=O)[O-]
REMARK SMILES IDX 10 1 11 2 12 3 13 4 14 5 15 6 16 7 17 8 18 9 19 10 20 11
REMARK SMILES IDX 9 12 8 13 7 14 6 15 5 16 4 17 3 18 2 19 1 20
REMARK H PARENT
REMARK Flexibility Score: inf
ROOT
ATOM      1  C   UNL     1      14.123  16.008  70.220  1.00  0.00     0.000 C 
ENDROOT
BRANCH   1   2
ATOM      2  C   UNL     1      13.013  16.823  70.903  1.00  0.00     0.000 C 
BRANCH   2   3
ATOM      3  C   UNL     1      12.444  16.120  72.145  1.00  0.00     0.000 C 
BRANCH   3   4
ATOM      4  C   UNL     1      10.907  16.050  72.135  1.00  0.00     0.000 C 
BRANCH   4   5
ATOM      5  C   UNL     1      10.271  17.314  71.519  1.00  0.00     0.000 C 
BRANCH   5   6
ATOM      6  C   UNL     1       8.995  17.778  72.241  1.00  0.00     0.000 C 
BRANCH   6   7
ATOM      7  C   UNL     1       8.737  17.016  73.552  1.00  0.00     0.006 C 
BRANCH   7   8
ATOM      8  C   UNL     1       7.688  17.712  74.431  1.00  0.00     0.053 C 
BRANCH   8   9
ATOM      9  C   UNL     1       6.728  16.733  75.035  1.00  0.00     0.041 C 
ATOM     10  O   UNL     1       5.598  16.546  74.510  1.00  0.00    -0.550 OA
ATOM     11  O   UNL     1       7.094  16.002  76.159  1.00  0.00    -0.550 OA
ENDBRANCH   8   9
ENDBRANCH   7   8
ENDBRANCH   6   7
ENDBRANCH   5   6
ENDBRANCH   4   5
ENDBRANCH   3   4
ENDBRANCH   2   3
ENDBRANCH   1   2
BRANCH   1  12
ATOM     12  C   UNL     1      14.053  14.531  70.634  1.00  0.00     0.000 C 
BRANCH  12  13
ATOM     13  C   UNL     1      13.509  13.629  69.515  1.00  0.00    -0.000 C 
BRANCH  13  14
ATOM     14  C   UNL     1      12.060  13.180  69.768  1.00  0.00    -0.000 C 
BRANCH  14  15
ATOM     15  C   UNL     1      11.319  12.820  68.471  1.00  0.00    -0.000 C 
BRANCH  15  16
ATOM     16  C   UNL     1       9.893  13.388  68.429  1.00  0.00    -0.000 C 
BRANCH  16  17
ATOM     17  C   UNL     1       9.836  14.781  69.067  1.00  0.00    -0.000 C 
BRANCH  17  18
ATOM     18  C   UNL     1       9.688  15.872  67.997  1.00  0.00    -0.000 C 
BRANCH  18  19
ATOM     19  C   UNL     1      10.908  16.804  67.931  1.00  0.00    -0.003 C 
ATOM     20  C   UNL     1      12.088  16.181  67.185  1.00  0.00     0.004 C 
ENDBRANCH  18  19
ENDBRANCH  17  18
ENDBRANCH  16  17
ENDBRANCH  15  16
ENDBRANCH  14  15
ENDBRANCH  13  14
ENDBRANCH  12  13
ENDBRANCH   1  12
TORSDOF 16
ENDMDL
MODEL 3
REMARK VINA RESULT:    -5.005      3.434      5.255
REMARK INTER + INTRA:         -12.162
REMARK INTER:                  -9.506
REMARK INTRA:                  -2.655
REMARK UNBOUND:                -2.476
REMARK SMILES CCCCCCCCCCCCCCCCCC(=O)[O-]
REMARK SMILES IDX 10 1 11 2 12 3 13 4 14 5 15 6 16 7 17 8 18 9 19 10 20 11
REMARK SMILES IDX 9 12 8 13 7 14 6 15 5 16 4 17 3 18 2 19 1 20
REMARK H PARENT
REMARK Flexibility Score: inf
ROOT
ATOM      1  C   UNL     1      13.985  14.681  70.671  1.00  0.00     0.000 C 
ENDROOT
BRANCH   1   2
ATOM      2  C   UNL     1      13.740  16.156  70.316  1.00  0.00     0.000 C 
BRANCH   2   3
ATOM      3  C   UNL     1      12.574  16.768  71.108  1.00  0.00     0.000 C 
BRANCH   3   4
ATOM      4  C   UNL     1      12.031  15.820  72.192  1.00  0.00     0.000 C 
BRANCH   4   5
ATOM      5  C   UNL     1      10.565  16.133  72.559  1.00  0.00     0.000 C 
BRANCH   5   6
ATOM      6  C   UNL     1       9.964  17.299  71.757  1.00  0.00     0.000 C 
BRANCH   6   7
ATOM      7  C   UNL     1       8.621  17.788  72.326  1.00  0.00     0.006 C 
BRANCH   7   8
ATOM      8  C   UNL     1       8.341  17.219  73.723  1.00  0.00     0.053 C 
BRANCH   8   9
ATOM      9  C   UNL     1       6.891  17.324  74.088  1.00  0.00     0.041 C 
ATOM     10  O   UNL     1       6.038  16.600  73.509  1.00  0.00    -0.550 OA
ATOM     11  O   UNL     1       6.486  18.198  75.088  1.00  0.00    -0.550 OA
ENDBRANCH   8   9
ENDBRANCH   7   8
ENDBRANCH   6   7
ENDBRANCH   5   6
ENDBRANCH   4   5
ENDBRANCH   3   4
ENDBRANCH   2   3
ENDBRANCH   1   2
BRANCH   1  12
ATOM     12  C   UNL     1      13.573  13.761  69.512  1.00  0.00     0.000 C 
BRANCH  12  13
ATOM     13  C   UNL     1      12.184  13.138  69.718  1.00  0.00    -0.000 C 
BRANCH  13  14
ATOM     14  C   UNL     1      11.484  12.800  68.391  1.00  0.00    -0.000 C 
BRANCH  14  15
ATOM     15  C   UNL     1      10.059  13.367  68.314  1.00  0.00    -0.000 C 
BRANCH  15  16
ATOM     16  C   UNL     1       9.853  14.575  69.239  1.00  0.00    -0.000 C 
BRANCH  16  17
ATOM     17  C   UNL     1       9.225  15.750  68.479  1.00  0.00    -0.000 C 
BRANCH  17  18
ATOM     18  C   UNL     1      10.225  16.906  68.326  1.00  0.00    -0.000 C 
BRANCH  18  19
ATOM     19  C   UNL     1      10.958  16.878  66.976  1.00  0.00    -0.003 C 
ATOM     20  C   UNL     1      12.324  16.197  67.059  1.00  0.00     0.004 C 
ENDBRANCH  18  19
ENDBRANCH  17  18
ENDBRANCH  16  17
ENDBRANCH  15  16
ENDBRANCH  14  15
ENDBRANCH  13  14
ENDBRANCH  12  13
ENDBRANCH   1  12
TORSDOF 16
ENDMDL
MODEL 4
REMARK VINA RESULT:    -4.983      2.923      5.371
REMARK INTER + INTRA:         -12.119
REMARK INTER:                  -9.643
REMARK INTRA:                  -2.476
REMARK UNBOUND:                -2.476
REMARK SMILES CCCCCCCCCCCCCCCCCC(=O)[O-]
REMARK SMILES IDX 10 1 11 2 12 3 13 4 14 5 15 6 16 7 17 8 18 9 19 10 20 11
REMARK SMILES IDX 9 12 8 13 7 14 6 15 5 16 4 17 3 18 2 19 1 20
REMARK H PARENT
REMARK Flexibility Score: inf
ROOT
ATOM      1  C   UNL     1       9.078  14.744  68.798  1.00  0.00     0.000 C 
ENDROOT
BRANCH   1   2
ATOM      2  C   UNL     1       9.312  16.082  68.079  1.00  0.00     0.000 C 
BRANCH   2   3
ATOM      3  C   UNL     1      10.739  16.211  67.522  1.00  0.00     0.000 C 
BRANCH   3   4
ATOM      4  C   UNL     1      11.356  17.595  67.788  1.00  0.00     0.000 C 
BRANCH   4   5
ATOM      5  C   UNL     1      10.955  18.157  69.168  1.00  0.00     0.000 C 
BRANCH   5   6
ATOM      6  C   UNL     1      11.536  17.364  70.350  1.00  0.00     0.000 C 
BRANCH   6   7
ATOM      7  C   UNL     1      10.507  17.110  71.465  1.00  0.00     0.006 C 
BRANCH   7   8
ATOM      8  C   UNL     1       9.225  17.931  71.271  1.00  0.00     0.053 C 
BRANCH   8   9
ATOM      9  C   UNL     1       8.263  17.741  72.404  1.00  0.00     0.041 C 
ATOM     10  O   UNL     1       8.645  17.199  73.475  1.00  0.00    -0.550 OA
ATOM     11  O   UNL     1       6.954  18.190  72.288  1.00  0.00    -0.550 OA
ENDBRANCH   8   9
ENDBRANCH   7   8
ENDBRANCH   6   7
ENDBRANCH   5   6
ENDBRANCH   4   5
ENDBRANCH   3   4
ENDBRANCH   2   3
ENDBRANCH   1   2
BRANCH   1  12
ATOM     12  C   UNL     1       9.974  13.642  68.214  1.00  0.00     0.000 C 
BRANCH  12  13
ATOM     13  C   UNL     1      10.593  12.747  69.299  1.00  0.00    -0.000 C 
BRANCH  13  14
ATOM     14  C   UNL     1      10.997  13.535  70.557  1.00  0.00    -0.000 C 
BRANCH  14  15
ATOM     15  C   UNL     1      12.482  13.928  70.554  1.00  0.00    -0.000 C 
BRANCH  15  16
ATOM     16  C   UNL     1      13.121  13.815  69.162  1.00  0.00    -0.000 C 
BRANCH  16  17
ATOM     17  C   UNL     1      14.045  15.006  68.882  1.00  0.00    -0.000 C 
BRANCH  17  18
ATOM     18  C   UNL     1      14.921  15.324  70.103  1.00  0.00    -0.000 C 
BRANCH  18  19
ATOM     19  C   UNL     1      16.050  14.300  70.303  1.00  0.00    -0.003 C 
ATOM     20  C   UNL     1      17.283  14.608  69.454  1.00  0.00     0.004 C 
ENDBRANCH  18  19
ENDBRANCH  17  18
ENDBRANCH  16  17
ENDBRANCH  15  16
ENDBRANCH  14  15
ENDBRANCH  13  14
ENDBRANCH  12  13
ENDBRANCH   1  12
TORSDOF 16
ENDMDL
MODEL 5
REMARK VINA RESULT:    -4.944      2.492      5.293
REMARK INTER + INTRA:         -12.043
REMARK INTER:                  -9.894
REMARK INTRA:                  -2.149
REMARK UNBOUND:                -2.476
REMARK SMILES CCCCCCCCCCCCCCCCCC(=O)[O-]
REMARK SMILES IDX 10 1 11 2 12 3 13 4 14 5 15 6 16 7 17 8 18 9 19 10 20 11
REMARK SMILES IDX 9 12 8 13 7 14 6 15 5 16 4 17 3 18 2 19 1 20
REMARK H PARENT
REMARK Flexibility Score: inf
ROOT
ATOM      1  C   UNL     1      11.226  17.887  69.260  1.00  0.00     0.000 C 
ENDROOT
BRANCH   1   2
ATOM      2  C   UNL     1       9.892  17.620  69.976  1.00  0.00     0.000 C 
BRANCH   2   3
ATOM      3  C   UNL     1      10.078  16.891  71.317  1.00  0.00     0.000 C 
BRANCH   3   4
ATOM      4  C   UNL     1      11.323  15.986  71.333  1.00  0.00     0.000 C 
BRANCH   4   5
ATOM      5  C   UNL     1      11.132  14.749  72.234  1.00  0.00     0.000 C 
BRANCH   5   6
ATOM      6  C   UNL     1      11.170  13.415  71.469  1.00  0.00     0.000 C 
BRANCH   6   7
ATOM      7  C   UNL     1      11.082  13.597  69.944  1.00  0.00     0.006 C 
BRANCH   7   8
ATOM      8  C   UNL     1       9.745  13.101  69.376  1.00  0.00     0.053 C 
BRANCH   8   9
ATOM      9  C   UNL     1       9.941  12.085  68.292  1.00  0.00     0.041 C 
ATOM     10  O   UNL     1      10.624  12.370  67.273  1.00  0.00    -0.550 OA
ATOM     11  O   UNL     1       9.398  10.813  68.423  1.00  0.00    -0.550 OA
ENDBRANCH   8   9
ENDBRANCH   7   8
ENDBRANCH   6   7
ENDBRANCH   5   6
ENDBRANCH   4   5
ENDBRANCH   3   4
ENDBRANCH   2   3
ENDBRANCH   1   2
BRANCH   1  12
ATOM     12  C   UNL     1      11.092  17.657  67.747  1.00  0.00     0.000 C 
BRANCH  12  13
ATOM     13  C   UNL     1      11.306  16.188  67.352  1.00  0.00    -0.000 C 
BRANCH  13  14
ATOM     14  C   UNL     1      12.782  15.862  67.062  1.00  0.00    -0.000 C 
BRANCH  14  15
ATOM     15  C   UNL     1      13.342  14.781  67.998  1.00  0.00    -0.000 C 
BRANCH  15  16
ATOM     16  C   UNL     1      14.256  15.360  69.088  1.00  0.00    -0.000 C 
BRANCH  16  17
ATOM     17  C   UNL     1      14.445  14.360  70.236  1.00  0.00    -0.000 C 
BRANCH  17  18
ATOM     18  C   UNL     1      15.932  14.190  70.579  1.00  0.00    -0.000 C 
BRANCH  18  19
ATOM     19  C   UNL     1      16.856  14.857  69.550  1.00  0.00    -0.003 C 
ATOM     20  C   UNL     1      18.276  14.293  69.578  1.00  0.00     0.004 C 
ENDBRANCH  18  19
ENDBRANCH  17  18
ENDBRANCH  16  17
ENDBRANCH  15  16
ENDBRANCH  14  15
ENDBRANCH  13  14
ENDBRANCH  12  13
ENDBRANCH   1  12
TORSDOF 16
ENDMDL
MODEL 6
REMARK VINA RESULT:    -4.869      3.726      5.877
REMARK INTER + INTRA:         -11.899
REMARK INTER:                  -9.616
REMARK INTRA:                  -2.283
REMARK UNBOUND:                -2.476
REMARK SMILES CCCCCCCCCCCCCCCCCC(=O)[O-]
REMARK SMILES IDX 10 1 11 2 12 3 13 4 14 5 15 6 16 7 17 8 18 9 19 10 20 11
REMARK SMILES IDX 9 12 8 13 7 14 6 15 5 16 4 17 3 18 2 19 1 20
REMARK H PARENT
REMARK Flexibility Score: inf
ROOT
ATOM      1  C   UNL     1      10.485  16.163  67.958  1.00  0.00     0.000 C 
ENDROOT
BRANCH   1   2
ATOM      2  C   UNL     1      11.123  17.516  68.312  1.00  0.00     0.000 C 
BRANCH   2   3
ATOM      3  C   UNL     1      10.527  18.133  69.588  1.00  0.00     0.000 C 
BRANCH   3   4
ATOM      4  C   UNL     1       9.599  17.161  70.339  1.00  0.00     0.000 C 
BRANCH   4   5
ATOM      5  C   UNL     1       9.442  17.539  71.827  1.00  0.00     0.000 C 
BRANCH   5   6
ATOM      6  C   UNL     1       8.466  18.703  72.069  1.00  0.00     0.000 C 
BRANCH   6   7
ATOM      7  C   UNL     1       7.423  18.394  73.156  1.00  0.00     0.006 C 
BRANCH   7   8
ATOM      8  C   UNL     1       8.010  17.564  74.305  1.00  0.00     0.053 C 
BRANCH   8   9
ATOM      9  C   UNL     1       7.058  16.505  74.772  1.00  0.00     0.041 C 
ATOM     10  O   UNL     1       7.337  15.801  75.779  1.00  0.00    -0.550 OA
ATOM     11  O   UNL     1       5.848  16.318  74.115  1.00  0.00    -0.550 OA
ENDBRANCH   8   9
ENDBRANCH   7   8
ENDBRANCH   6   7
ENDBRANCH   5   6
ENDBRANCH   4   5
ENDBRANCH   3   4
ENDBRANCH   2   3
ENDBRANCH   1   2
BRANCH   1  12
ATOM     12  C   UNL     1      11.555  15.148  67.529  1.00  0.00     0.000 C 
BRANCH  12  13
ATOM     13  C   UNL     1      11.284  13.738  68.076  1.00  0.00    -0.000 C 
BRANCH  13  14
ATOM     14  C   UNL     1      10.309  13.742  69.266  1.00  0.00    -0.000 C 
BRANCH  14  15
ATOM     15  C   UNL     1      11.013  13.485  70.606  1.00  0.00    -0.000 C 
BRANCH  15  16
ATOM     16  C   UNL     1      12.479  13.942  70.600  1.00  0.00    -0.000 C 
BRANCH  16  17
ATOM     17  C   UNL     1      12.622  15.343  71.210  1.00  0.00    -0.000 C 
BRANCH  17  18
ATOM     18  C   UNL     1      13.767  16.120  70.544  1.00  0.00    -0.000 C 
BRANCH  18  19
ATOM     19  C   UNL     1      14.546  15.270  69.529  1.00  0.00    -0.003 C 
ATOM     20  C   UNL     1      15.781  14.607  70.137  1.00  0.00     0.004 C 
ENDBRANCH  18  19
ENDBRANCH  17  18
ENDBRANCH  16  17
ENDBRANCH  15  16
ENDBRANCH  14  15
ENDBRANCH  13  14
ENDBRANCH  12  13
ENDBRANCH   1  12
TORSDOF 16
ENDMDL
MODEL 7
REMARK VINA RESULT:    -4.866      3.734      4.901
REMARK INTER + INTRA:         -11.892
REMARK INTER:                  -9.875
REMARK INTRA:                  -2.018
REMARK UNBOUND:                -2.476
REMARK SMILES CCCCCCCCCCCCCCCCCC(=O)[O-]
REMARK SMILES IDX 10 1 11 2 12 3 13 4 14 5 15 6 16 7 17 8 18 9 19 10 20 11
REMARK SMILES IDX 9 12 8 13 7 14 6 15 5 16 4 17 3 18 2 19 1 20
REMARK H PARENT
REMARK Flexibility Score: inf
ROOT
ATOM      1  C   UNL     1      10.844  16.403  67.647  1.00  0.00     0.000 C 
ENDROOT
BRANCH   1   2
ATOM      2  C   UNL     1      10.544  17.580  68.589  1.00  0.00     0.000 C 
BRANCH   2   3
ATOM      3  C   UNL     1      11.174  17.398  69.979  1.00  0.00     0.000 C 
BRANCH   3   4
ATOM      4  C   UNL     1      10.292  16.563  70.925  1.00  0.00     0.000 C 
BRANCH   4   5
ATOM      5  C   UNL     1       9.743  17.400  72.099  1.00  0.00     0.000 C 
BRANCH   5   6
ATOM      6  C   UNL     1       8.470  18.189  71.753  1.00  0.00     0.000 C 
BRANCH   6   7
ATOM      7  C   UNL     1       7.359  18.027  72.805  1.00  0.00     0.006 C 
BRANCH   7   8
ATOM      8  C   UNL     1       7.900  17.509  74.145  1.00  0.00     0.053 C 
BRANCH   8   9
ATOM      9  C   UNL     1       6.966  16.524  74.780  1.00  0.00     0.041 C 
ATOM     10  O   UNL     1       5.805  16.363  74.319  1.00  0.00    -0.550 OA
ATOM     11  O   UNL     1       7.390  15.760  75.861  1.00  0.00    -0.550 OA
ENDBRANCH   8   9
ENDBRANCH   7   8
ENDBRANCH   6   7
ENDBRANCH   5   6
ENDBRANCH   4   5
ENDBRANCH   3   4
ENDBRANCH   2   3
ENDBRANCH   1   2
BRANCH   1  12
ATOM     12  C   UNL     1      12.275  16.492  67.096  1.00  0.00     0.000 C 
BRANCH  12  13
ATOM     13  C   UNL     1      13.106  15.237  67.406  1.00  0.00    -0.000 C 
BRANCH  13  14
ATOM     14  C   UNL     1      13.850  15.337  68.749  1.00  0.00    -0.000 C 
BRANCH  14  15
ATOM     15  C   UNL     1      13.396  14.270  69.755  1.00  0.00    -0.000 C 
BRANCH  15  16
ATOM     16  C   UNL     1      12.369  13.295  69.160  1.00  0.00    -0.000 C 
BRANCH  16  17
ATOM     17  C   UNL     1      11.050  13.340  69.942  1.00  0.00    -0.000 C 
BRANCH  17  18
ATOM     18  C   UNL     1       9.849  13.121  69.011  1.00  0.00    -0.000 C 
BRANCH  18  19
ATOM     19  C   UNL     1      10.075  11.973  68.014  1.00  0.00    -0.003 C 
ATOM     20  C   UNL     1       9.310  10.705  68.390  1.00  0.00     0.004 C 
ENDBRANCH  18  19
ENDBRANCH  17  18
ENDBRANCH  16  17
ENDBRANCH  15  16
ENDBRANCH  14  15
ENDBRANCH  13  14
ENDBRANCH  12  13
ENDBRANCH   1  12
TORSDOF 16
ENDMDL
MODEL 8
REMARK VINA RESULT:    -4.832      3.557      4.895
REMARK INTER + INTRA:         -11.827
REMARK INTER:                  -9.013
REMARK INTRA:                  -2.815
REMARK UNBOUND:                -2.476
REMARK SMILES CCCCCCCCCCCCCCCCCC(=O)[O-]
REMARK SMILES IDX 10 1 11 2 12 3 13 4 14 5 15 6 16 7 17 8 18 9 19 10 20 11
REMARK SMILES IDX 9 12 8 13 7 14 6 15 5 16 4 17 3 18 2 19 1 20
REMARK H PARENT
REMARK Flexibility Score: inf
ROOT
ATOM      1  C   UNL     1      13.910  14.791  70.518  1.00  0.00     0.000 C 
ENDROOT
BRANCH   1   2
ATOM      2  C   UNL     1      13.801  16.322  70.607  1.00  0.00     0.000 C 
BRANCH   2   3
ATOM      3  C   UNL     1      12.485  16.782  71.255  1.00  0.00     0.000 C 
BRANCH   3   4
ATOM      4  C   UNL     1      11.837  15.690  72.124  1.00  0.00     0.000 C 
BRANCH   4   5
ATOM      5  C   UNL     1      10.495  16.149  72.731  1.00  0.00     0.000 C 
BRANCH   5   6
ATOM      6  C   UNL     1       9.798  17.256  71.922  1.00  0.00     0.000 C 
BRANCH   6   7
ATOM      7  C   UNL     1       8.445  17.674  72.522  1.00  0.00     0.006 C 
BRANCH   7   8
ATOM      8  C   UNL     1       8.309  17.261  73.994  1.00  0.00     0.053 C 
BRANCH   8   9
ATOM      9  C   UNL     1       6.913  16.829  74.325  1.00  0.00     0.041 C 
ATOM     10  O   UNL     1       6.622  16.466  75.496  1.00  0.00    -0.550 OA
ATOM     11  O   UNL     1       5.925  16.856  73.348  1.00  0.00    -0.550 OA
ENDBRANCH   8   9
ENDBRANCH   7   8
ENDBRANCH   6   7
ENDBRANCH   5   6
ENDBRANCH   4   5
ENDBRANCH   3   4
ENDBRANCH   2   3
ENDBRANCH   1   2
BRANCH   1  12
ATOM     12  C   UNL     1      13.477  14.290  69.132  1.00  0.00     0.000 C 
BRANCH  12  13
ATOM     13  C   UNL     1      13.668  15.348  68.035  1.00  0.00    -0.000 C 
BRANCH  13  14
ATOM     14  C   UNL     1      12.406  15.548  67.178  1.00  0.00    -0.000 C 
BRANCH  14  15
ATOM     15  C   UNL     1      11.709  16.888  67.457  1.00  0.00    -0.000 C 
BRANCH  15  16
ATOM     16  C   UNL     1      10.428  16.726  68.288  1.00  0.00    -0.000 C 
BRANCH  16  17
ATOM     17  C   UNL     1       9.780  15.358  68.040  1.00  0.00    -0.000 C 
BRANCH  17  18
ATOM     18  C   UNL     1       9.564  14.604  69.360  1.00  0.00    -0.000 C 
BRANCH  18  19
ATOM     19  C   UNL     1      10.245  13.226  69.372  1.00  0.00    -0.003 C 
ATOM     20  C   UNL     1      10.296  12.580  67.988  1.00  0.00     0.004 C 
ENDBRANCH  18  19
ENDBRANCH  17  18
ENDBRANCH  16  17
ENDBRANCH  15  16
ENDBRANCH  14  15
ENDBRANCH  13  14
ENDBRANCH  12  13
ENDBRANCH   1  12
TORSDOF 16
ENDMDL
MODEL 9
REMARK VINA RESULT:    -4.813      3.664      5.751
REMARK INTER + INTRA:         -11.790
REMARK INTER:                  -8.797
REMARK INTRA:                  -2.992
REMARK UNBOUND:                -2.476
REMARK SMILES CCCCCCCCCCCCCCCCCC(=O)[O-]
REMARK SMILES IDX 10 1 11 2 12 3 13 4 14 5 15 6 16 7 17 8 18 9 19 10 20 11
REMARK SMILES IDX 9 12 8 13 7 14 6 15 5 16 4 17 3 18 2 19 1 20
REMARK H PARENT
REMARK Flexibility Score: inf
ROOT
ATOM      1  C   UNL     1      10.364  15.059  67.820  1.00  0.00     0.000 C 
ENDROOT
BRANCH   1   2
ATOM      2  C   UNL     1      10.500  16.564  68.105  1.00  0.00     0.000 C 
BRANCH   2   3
ATOM      3  C   UNL     1       9.722  16.999  69.358  1.00  0.00     0.000 C 
BRANCH   3   4
ATOM      4  C   UNL     1      10.143  18.390  69.864  1.00  0.00     0.000 C 
BRANCH   4   5
ATOM      5  C   UNL     1       9.345  18.822  71.112  1.00  0.00     0.000 C 
BRANCH   5   6
ATOM      6  C   UNL     1       8.295  17.791  71.561  1.00  0.00     0.000 C 
BRANCH   6   7
ATOM      7  C   UNL     1       7.686  18.116  72.935  1.00  0.00     0.006 C 
BRANCH   7   8
ATOM      8  C   UNL     1       8.187  17.166  74.031  1.00  0.00     0.053 C 
BRANCH   8   9
ATOM      9  C   UNL     1       7.059  16.442  74.701  1.00  0.00     0.041 C 
ATOM     10  O   UNL     1       7.215  15.949  75.849  1.00  0.00    -0.550 OA
ATOM     11  O   UNL     1       5.825  16.340  74.070  1.00  0.00    -0.550 OA
ENDBRANCH   8   9
ENDBRANCH   7   8
ENDBRANCH   6   7
ENDBRANCH   5   6
ENDBRANCH   4   5
ENDBRANCH   3   4
ENDBRANCH   2   3
ENDBRANCH   1   2
BRANCH   1  12
ATOM     12  C   UNL     1       9.859  14.308  69.061  1.00  0.00     0.000 C 
BRANCH  12  13
ATOM     13  C   UNL     1      10.782  13.149  69.465  1.00  0.00    -0.000 C 
BRANCH  13  14
ATOM     14  C   UNL     1      12.087  13.119  68.651  1.00  0.00    -0.000 C 
BRANCH  14  15
ATOM     15  C   UNL     1      13.299  13.604  69.460  1.00  0.00    -0.000 C 
BRANCH  15  16
ATOM     16  C   UNL     1      13.815  14.971  68.988  1.00  0.00    -0.000 C 
BRANCH  16  17
ATOM     17  C   UNL     1      13.565  16.050  70.048  1.00  0.00    -0.000 C 
BRANCH  17  18
ATOM     18  C   UNL     1      13.151  15.422  71.387  1.00  0.00    -0.000 C 
BRANCH  18  19
ATOM     19  C   UNL     1      12.002  16.183  72.066  1.00  0.00    -0.003 C 
ATOM     20  C   UNL     1      10.888  15.256  72.555  1.00  0.00     0.004 C 
ENDBRANCH  18  19
ENDBRANCH  17  18
ENDBRANCH  16  17
ENDBRANCH  15  16
ENDBRANCH  14  15
ENDBRANCH  13  14
ENDBRANCH  12  13
ENDBRANCH   1  12
TORSDOF 16
ENDMDL
