MODEL 1
REMARK VINA RESULT:    -5.884      0.000      0.000
REMARK INTER + INTRA:          -6.166
REMARK INTER:                  -6.400
REMARK INTRA:                   0.235
REMARK UNBOUND:                 0.235
REMARK SMILES C[C@@H]1[C@H](C)CC[C@@]2(C(=O)[O-])CC[C@@]3(C)C(=CC[C@@H]4[C@]5(C)CC[C@@H](O)C(C)(C)[C@H]5CC[C@]43C)[C@H]12
REMARK SMILES IDX 7 1 6 2 11 3 33 4 5 5 12 6 15 7 2 8 3 9 13 10 16 11 1 12
REMARK SMILES IDX 4 13 14 14 31 15 17 16 18 17 30 18 32 19 19 20 29 21 28 22
REMARK SMILES IDX 21 23 20 24 25 25 22 26 23 27 26 28 27 29 8 30 9 31 10 32
REMARK SMILES IDX 24 33
REMARK H PARENT 24 34
REMARK Flexibility Score: inf
ROOT
ATOM      1  C   UNL     1      41.839  17.592  -4.934  1.00  0.00     0.017 C 
ATOM      2  C   UNL     1      40.832  18.789  -4.995  1.00  0.00     0.014 C 
ATOM      3  C   UNL     1      42.425  17.368  -6.368  1.00  0.00     0.014 C 
ATOM      4  C   UNL     1      43.027  18.057  -3.949  1.00  0.00     0.030 C 
ATOM      5  C   UNL     1      40.376  19.481  -3.685  1.00  0.00     0.004 C 
ATOM      6  C   UNL     1      43.693  16.472  -6.403  1.00  0.00     0.013 C 
ATOM      7  C   UNL     1      44.232  17.138  -4.089  1.00  0.00    -0.063 C 
ATOM      8  C   UNL     1      42.463  18.428  -2.501  1.00  0.00    -0.003 C 
ATOM      9  C   UNL     1      41.591  19.677  -2.696  1.00  0.00    -0.011 C 
ATOM     10  C   UNL     1      44.871  16.985  -5.501  1.00  0.00    -0.006 C 
ATOM     11  C   UNL     1      44.768  16.515  -2.980  1.00  0.00    -0.027 C 
ATOM     12  C   UNL     1      41.712  17.261  -1.826  1.00  0.00     0.008 C 
ATOM     13  C   UNL     1      41.059  20.257  -1.376  1.00  0.00     0.008 C 
ATOM     14  C   UNL     1      45.346  18.410  -6.034  1.00  0.00     0.017 C 
ATOM     15  C   UNL     1      46.129  15.964  -5.450  1.00  0.00    -0.020 C 
ATOM     16  C   UNL     1      45.737  15.314  -3.087  1.00  0.00     0.032 C 
ATOM     17  C   UNL     1      45.753  14.784  -4.521  1.00  0.00     0.006 C 
ATOM     18  C   UNL     1      46.382  15.343  -6.863  1.00  0.00     0.008 C 
ATOM     19  C   UNL     1      47.415  16.755  -4.985  1.00  0.00     0.012 C 
ATOM     20  C   UNL     1      46.439  13.338  -4.859  1.00  0.00    -0.025 C 
ATOM     21  C   UNL     1      47.628  14.412  -6.967  1.00  0.00     0.005 C 
ATOM     22  C   UNL     1      47.791  13.538  -5.676  1.00  0.00     0.003 C 
ATOM     23  C   UNL     1      46.748  12.466  -3.583  1.00  0.00     0.010 C 
ATOM     24  C   UNL     1      45.478  12.540  -5.821  1.00  0.00     0.012 C 
ATOM     25  C   UNL     1      48.738  12.244  -5.734  1.00  0.00    -0.006 C 
ATOM     26  C   UNL     1      48.249  12.355  -3.133  1.00  0.00     0.033 C 
ATOM     27  C   UNL     1      49.314  12.130  -4.244  1.00  0.00     0.120 C 
ATOM     28  C   UNL     1      49.943  12.565  -6.671  1.00  0.00     0.014 C 
ATOM     29  C   UNL     1      48.078  10.875  -6.202  1.00  0.00     0.014 C 
ENDROOT
BRANCH   1  30
ATOM     30  C   UNL     1      41.136  16.272  -4.583  1.00  0.00     0.048 C 
ATOM     31  O   UNL     1      39.879  16.195  -4.483  1.00  0.00    -0.550 OA
ATOM     32  O   UNL     1      41.916  15.084  -4.527  1.00  0.00    -0.550 OA
ENDBRANCH   1  30
BRANCH  27  33
ATOM     33  O   UNL     1      49.992  10.914  -3.974  1.00  0.00    -0.393 OA
ATOM     34  H   UNL     1      50.297  10.976  -3.001  1.00  0.00     0.210 HD
ENDBRANCH  27  33
TORSDOF 2
ENDMDL
MODEL 2
REMARK VINA RESULT:    -5.584      1.856      2.993
REMARK INTER + INTRA:          -5.838
REMARK INTER:                  -6.056
REMARK INTRA:                   0.217
REMARK UNBOUND:                 0.235
REMARK SMILES C[C@@H]1[C@H](C)CC[C@@]2(C(=O)[O-])CC[C@@]3(C)C(=CC[C@@H]4[C@]5(C)CC[C@@H](O)C(C)(C)[C@H]5CC[C@]43C)[C@H]12
REMARK SMILES IDX 7 1 6 2 11 3 33 4 5 5 12 6 15 7 2 8 3 9 13 10 16 11 1 12
REMARK SMILES IDX 4 13 14 14 31 15 17 16 18 17 30 18 32 19 19 20 29 21 28 22
REMARK SMILES IDX 21 23 20 24 25 25 22 26 23 27 26 28 27 29 8 30 9 31 10 32
REMARK SMILES IDX 24 33
REMARK H PARENT 24 34
REMARK Flexibility Score: inf
ROOT
ATOM      1  C   UNL     1      41.819  18.134  -4.112  1.00  0.00     0.017 C 
ATOM      2  C   UNL     1      40.472  18.914  -4.284  1.00  0.00     0.014 C 
ATOM      3  C   UNL     1      41.487  16.617  -3.918  1.00  0.00     0.014 C 
ATOM      4  C   UNL     1      42.624  18.322  -5.497  1.00  0.00     0.030 C 
ATOM      5  C   UNL     1      40.484  20.355  -4.855  1.00  0.00     0.004 C 
ATOM      6  C   UNL     1      42.707  15.673  -4.100  1.00  0.00     0.013 C 
ATOM      7  C   UNL     1      43.771  17.327  -5.591  1.00  0.00    -0.063 C 
ATOM      8  C   UNL     1      42.873  19.869  -5.812  1.00  0.00    -0.003 C 
ATOM      9  C   UNL     1      41.486  20.475  -6.068  1.00  0.00    -0.011 C 
ATOM     10  C   UNL     1      43.430  15.811  -5.487  1.00  0.00    -0.006 C 
ATOM     11  C   UNL     1      45.059  17.765  -5.822  1.00  0.00    -0.027 C 
ATOM     12  C   UNL     1      43.659  20.595  -4.699  1.00  0.00     0.008 C 
ATOM     13  C   UNL     1      41.541  21.945  -6.515  1.00  0.00     0.008 C 
ATOM     14  C   UNL     1      42.408  15.409  -6.643  1.00  0.00     0.017 C 
ATOM     15  C   UNL     1      44.776  14.914  -5.600  1.00  0.00    -0.020 C 
ATOM     16  C   UNL     1      46.299  16.874  -5.574  1.00  0.00     0.032 C 
ATOM     17  C   UNL     1      45.893  15.622  -4.795  1.00  0.00     0.006 C 
ATOM     18  C   UNL     1      44.561  13.523  -4.916  1.00  0.00     0.008 C 
ATOM     19  C   UNL     1      45.127  14.702  -7.125  1.00  0.00     0.012 C 
ATOM     20  C   UNL     1      47.034  14.662  -4.125  1.00  0.00    -0.025 C 
ATOM     21  C   UNL     1      45.756  12.531  -5.039  1.00  0.00     0.005 C 
ATOM     22  C   UNL     1      47.128  13.276  -4.905  1.00  0.00     0.003 C 
ATOM     23  C   UNL     1      48.469  15.311  -4.082  1.00  0.00     0.010 C 
ATOM     24  C   UNL     1      46.582  14.291  -2.661  1.00  0.00     0.012 C 
ATOM     25  C   UNL     1      48.446  12.417  -4.592  1.00  0.00    -0.006 C 
ATOM     26  C   UNL     1      49.533  14.777  -5.109  1.00  0.00     0.033 C 
ATOM     27  C   UNL     1      49.613  13.238  -5.318  1.00  0.00     0.120 C 
ATOM     28  C   UNL     1      48.319  11.047  -5.327  1.00  0.00     0.014 C 
ATOM     29  C   UNL     1      48.797  12.146  -3.065  1.00  0.00     0.014 C 
ENDROOT
BRANCH   1  30
ATOM     30  C   UNL     1      42.558  18.546  -2.830  1.00  0.00     0.048 C 
ATOM     31  O   UNL     1      41.985  19.201  -1.914  1.00  0.00    -0.550 OA
ATOM     32  O   UNL     1      43.867  18.036  -2.610  1.00  0.00    -0.550 OA
ENDBRANCH   1  30
BRANCH  27  33
ATOM     33  O   UNL     1      50.923  12.810  -4.981  1.00  0.00    -0.393 OA
ATOM     34  H   UNL     1      51.519  13.632  -5.083  1.00  0.00     0.210 HD
ENDBRANCH  27  33
TORSDOF 2
ENDMDL
MODEL 3
REMARK VINA RESULT:    -5.267      2.221      7.749
REMARK INTER + INTRA:          -5.495
REMARK INTER:                  -5.706
REMARK INTRA:                   0.212
REMARK UNBOUND:                 0.235
REMARK SMILES C[C@@H]1[C@H](C)CC[C@@]2(C(=O)[O-])CC[C@@]3(C)C(=CC[C@@H]4[C@]5(C)CC[C@@H](O)C(C)(C)[C@H]5CC[C@]43C)[C@H]12
REMARK SMILES IDX 7 1 6 2 11 3 33 4 5 5 12 6 15 7 2 8 3 9 13 10 16 11 1 12
REMARK SMILES IDX 4 13 14 14 31 15 17 16 18 17 30 18 32 19 19 20 29 21 28 22
REMARK SMILES IDX 21 23 20 24 25 25 22 26 23 27 26 28 27 29 8 30 9 31 10 32
REMARK SMILES IDX 24 33
REMARK H PARENT 24 34
REMARK Flexibility Score: inf
ROOT
ATOM      1  C   UNL     1      47.212  12.945  -4.762  1.00  0.00     0.017 C 
ATOM      2  C   UNL     1      47.840  11.518  -4.623  1.00  0.00     0.014 C 
ATOM      3  C   UNL     1      46.562  13.059  -6.181  1.00  0.00     0.014 C 
ATOM      4  C   UNL     1      46.053  13.034  -3.645  1.00  0.00     0.030 C 
ATOM      5  C   UNL     1      48.226  10.979  -3.221  1.00  0.00     0.004 C 
ATOM      6  C   UNL     1      45.591  14.261  -6.339  1.00  0.00     0.013 C 
ATOM      7  C   UNL     1      45.138  14.220  -3.914  1.00  0.00    -0.063 C 
ATOM      8  C   UNL     1      46.645  12.791  -2.181  1.00  0.00    -0.003 C 
ATOM      9  C   UNL     1      47.116  11.330  -2.155  1.00  0.00    -0.011 C 
ATOM     10  C   UNL     1      44.421  14.288  -5.293  1.00  0.00    -0.006 C 
ATOM     11  C   UNL     1      44.914  15.166  -2.933  1.00  0.00    -0.027 C 
ATOM     12  C   UNL     1      47.755  13.795  -1.801  1.00  0.00     0.008 C 
ATOM     13  C   UNL     1      47.606  10.875  -0.771  1.00  0.00     0.008 C 
ATOM     14  C   UNL     1      43.520  12.989  -5.495  1.00  0.00     0.017 C 
ATOM     15  C   UNL     1      43.502  15.621  -5.395  1.00  0.00    -0.020 C 
ATOM     16  C   UNL     1      44.306  16.555  -3.239  1.00  0.00     0.032 C 
ATOM     17  C   UNL     1      44.284  16.791  -4.750  1.00  0.00     0.006 C 
ATOM     18  C   UNL     1      43.281  16.016  -6.892  1.00  0.00     0.008 C 
ATOM     19  C   UNL     1      42.106  15.336  -4.713  1.00  0.00     0.012 C 
ATOM     20  C   UNL     1      43.988  18.286  -5.347  1.00  0.00    -0.025 C 
ATOM     21  C   UNL     1      42.334  17.232  -7.125  1.00  0.00     0.005 C 
ATOM     22  C   UNL     1      42.554  18.338  -6.037  1.00  0.00     0.003 C 
ATOM     23  C   UNL     1      44.067  19.431  -4.267  1.00  0.00     0.010 C 
ATOM     24  C   UNL     1      45.023  18.580  -6.499  1.00  0.00     0.012 C 
ATOM     25  C   UNL     1      41.997  19.817  -6.316  1.00  0.00    -0.006 C 
ATOM     26  C   UNL     1      42.709  20.052  -3.776  1.00  0.00     0.033 C 
ATOM     27  C   UNL     1      41.636  20.366  -4.856  1.00  0.00     0.120 C 
ATOM     28  C   UNL     1      40.658  19.691  -7.107  1.00  0.00     0.014 C 
ATOM     29  C   UNL     1      42.953  20.825  -7.090  1.00  0.00     0.014 C 
ENDROOT
BRANCH   1  30
ATOM     30  C   UNL     1      48.283  14.046  -4.727  1.00  0.00     0.048 C 
ATOM     31  O   UNL     1      49.513  13.781  -4.843  1.00  0.00    -0.550 OA
ATOM     32  O   UNL     1      47.858  15.404  -4.723  1.00  0.00    -0.550 OA
ENDBRANCH   1  30
BRANCH  27  33
ATOM     33  O   UNL     1      41.349  21.755  -4.811  1.00  0.00    -0.393 OA
ATOM     34  H   UNL     1      42.097  22.175  -4.257  1.00  0.00     0.210 HD
ENDBRANCH  27  33
TORSDOF 2
ENDMDL
MODEL 4
REMARK VINA RESULT:    -4.876      1.891      7.954
REMARK INTER + INTRA:          -5.069
REMARK INTER:                  -5.345
REMARK INTRA:                   0.276
REMARK UNBOUND:                 0.235
REMARK SMILES C[C@@H]1[C@H](C)CC[C@@]2(C(=O)[O-])CC[C@@]3(C)C(=CC[C@@H]4[C@]5(C)CC[C@@H](O)C(C)(C)[C@H]5CC[C@]43C)[C@H]12
REMARK SMILES IDX 7 1 6 2 11 3 33 4 5 5 12 6 15 7 2 8 3 9 13 10 16 11 1 12
REMARK SMILES IDX 4 13 14 14 31 15 17 16 18 17 30 18 32 19 19 20 29 21 28 22
REMARK SMILES IDX 21 23 20 24 25 25 22 26 23 27 26 28 27 29 8 30 9 31 10 32
REMARK SMILES IDX 24 33
REMARK H PARENT 24 34
REMARK Flexibility Score: inf
ROOT
ATOM      1  C   UNL     1      48.387  14.577  -5.887  1.00  0.00     0.017 C 
ATOM      2  C   UNL     1      49.465  13.569  -6.409  1.00  0.00     0.014 C 
ATOM      3  C   UNL     1      47.710  15.256  -7.125  1.00  0.00     0.014 C 
ATOM      4  C   UNL     1      47.287  13.692  -5.108  1.00  0.00     0.030 C 
ATOM      5  C   UNL     1      50.037  12.490  -5.453  1.00  0.00     0.004 C 
ATOM      6  C   UNL     1      46.386  15.998  -6.796  1.00  0.00     0.013 C 
ATOM      7  C   UNL     1      46.019  14.499  -4.871  1.00  0.00    -0.063 C 
ATOM      8  C   UNL     1      47.954  12.870  -3.911  1.00  0.00    -0.003 C 
ATOM      9  C   UNL     1      48.894  11.852  -4.572  1.00  0.00    -0.011 C 
ATOM     10  C   UNL     1      45.295  15.099  -6.111  1.00  0.00    -0.006 C 
ATOM     11  C   UNL     1      45.505  14.633  -3.597  1.00  0.00    -0.027 C 
ATOM     12  C   UNL     1      48.662  13.772  -2.877  1.00  0.00     0.008 C 
ATOM     13  C   UNL     1      49.534  10.879  -3.569  1.00  0.00     0.008 C 
ATOM     14  C   UNL     1      44.886  13.930  -7.114  1.00  0.00     0.017 C 
ATOM     15  C   UNL     1      43.977  15.928  -5.658  1.00  0.00    -0.020 C 
ATOM     16  C   UNL     1      44.455  15.709  -3.231  1.00  0.00     0.032 C 
ATOM     17  C   UNL     1      44.325  16.718  -4.373  1.00  0.00     0.006 C 
ATOM     18  C   UNL     1      43.607  16.995  -6.740  1.00  0.00     0.008 C 
ATOM     19  C   UNL     1      42.774  14.921  -5.478  1.00  0.00     0.012 C 
ATOM     20  C   UNL     1      43.529  18.128  -4.141  1.00  0.00    -0.025 C 
ATOM     21  C   UNL     1      42.299  17.796  -6.463  1.00  0.00     0.005 C 
ATOM     22  C   UNL     1      42.149  18.127  -4.938  1.00  0.00     0.003 C 
ATOM     23  C   UNL     1      43.233  18.452  -2.628  1.00  0.00     0.010 C 
ATOM     24  C   UNL     1      44.380  19.295  -4.772  1.00  0.00     0.012 C 
ATOM     25  C   UNL     1      41.118  19.273  -4.495  1.00  0.00    -0.006 C 
ATOM     26  C   UNL     1      41.754  18.270  -2.127  1.00  0.00     0.033 C 
ATOM     27  C   UNL     1      40.618  18.794  -3.051  1.00  0.00     0.120 C 
ATOM     28  C   UNL     1      39.887  19.217  -5.452  1.00  0.00     0.014 C 
ATOM     29  C   UNL     1      41.660  20.768  -4.449  1.00  0.00     0.014 C 
ENDROOT
BRANCH   1  30
ATOM     30  C   UNL     1      49.020  15.733  -5.098  1.00  0.00     0.048 C 
ATOM     31  O   UNL     1      48.315  16.587  -4.490  1.00  0.00    -0.550 OA
ATOM     32  O   UNL     1      50.431  15.740  -4.923  1.00  0.00    -0.550 OA
ENDBRANCH   1  30
BRANCH  27  33
ATOM     33  O   UNL     1      39.877  19.771  -2.337  1.00  0.00    -0.393 OA
ATOM     34  H   UNL     1      39.491  19.288  -1.525  1.00  0.00     0.210 HD
ENDBRANCH  27  33
TORSDOF 2
ENDMDL
MODEL 5
REMARK VINA RESULT:    -4.075      1.986      7.993
REMARK INTER + INTRA:          -4.197
REMARK INTER:                  -4.486
REMARK INTRA:                   0.288
REMARK UNBOUND:                 0.235
REMARK SMILES C[C@@H]1[C@H](C)CC[C@@]2(C(=O)[O-])CC[C@@]3(C)C(=CC[C@@H]4[C@]5(C)CC[C@@H](O)C(C)(C)[C@H]5CC[C@]43C)[C@H]12
REMARK SMILES IDX 7 1 6 2 11 3 33 4 5 5 12 6 15 7 2 8 3 9 13 10 16 11 1 12
REMARK SMILES IDX 4 13 14 14 31 15 17 16 18 17 30 18 32 19 19 20 29 21 28 22
REMARK SMILES IDX 21 23 20 24 25 25 22 26 23 27 26 28 27 29 8 30 9 31 10 32
REMARK SMILES IDX 24 33
REMARK H PARENT 24 34
REMARK Flexibility Score: inf
ROOT
ATOM      1  C   UNL     1      48.613  12.934  -5.097  1.00  0.00     0.017 C 
ATOM      2  C   UNL     1      49.993  12.277  -4.756  1.00  0.00     0.014 C 
ATOM      3  C   UNL     1      47.527  12.312  -4.158  1.00  0.00     0.014 C 
ATOM      4  C   UNL     1      48.768  14.502  -4.754  1.00  0.00     0.030 C 
ATOM      5  C   UNL     1      51.305  12.939  -5.250  1.00  0.00     0.004 C 
ATOM      6  C   UNL     1      46.194  13.108  -4.117  1.00  0.00     0.013 C 
ATOM      7  C   UNL     1      47.406  15.177  -4.700  1.00  0.00    -0.063 C 
ATOM      8  C   UNL     1      49.959  15.160  -5.592  1.00  0.00    -0.003 C 
ATOM      9  C   UNL     1      51.249  14.506  -5.075  1.00  0.00    -0.011 C 
ATOM     10  C   UNL     1      46.354  14.613  -3.700  1.00  0.00    -0.006 C 
ATOM     11  C   UNL     1      47.146  16.290  -5.473  1.00  0.00    -0.027 C 
ATOM     12  C   UNL     1      49.775  15.020  -7.118  1.00  0.00     0.008 C 
ATOM     13  C   UNL     1      52.522  15.113  -5.686  1.00  0.00     0.008 C 
ATOM     14  C   UNL     1      46.931  14.679  -2.216  1.00  0.00     0.017 C 
ATOM     15  C   UNL     1      44.969  15.453  -3.794  1.00  0.00    -0.020 C 
ATOM     16  C   UNL     1      45.712  16.802  -5.742  1.00  0.00     0.032 C 
ATOM     17  C   UNL     1      44.693  15.756  -5.287  1.00  0.00     0.006 C 
ATOM     18  C   UNL     1      43.770  14.582  -3.296  1.00  0.00     0.008 C 
ATOM     19  C   UNL     1      45.091  16.746  -2.895  1.00  0.00     0.012 C 
ATOM     20  C   UNL     1      43.123  15.886  -5.730  1.00  0.00    -0.025 C 
ATOM     21  C   UNL     1      42.393  15.311  -3.251  1.00  0.00     0.005 C 
ATOM     22  C   UNL     1      42.219  16.272  -4.476  1.00  0.00     0.003 C 
ATOM     23  C   UNL     1      42.869  16.939  -6.874  1.00  0.00     0.010 C 
ATOM     24  C   UNL     1      42.614  14.469  -6.197  1.00  0.00     0.012 C 
ATOM     25  C   UNL     1      40.748  16.795  -4.845  1.00  0.00    -0.006 C 
ATOM     26  C   UNL     1      42.205  18.303  -6.464  1.00  0.00     0.033 C 
ATOM     27  C   UNL     1      41.009  18.245  -5.471  1.00  0.00     0.120 C 
ATOM     28  C   UNL     1      39.958  17.002  -3.516  1.00  0.00     0.014 C 
ATOM     29  C   UNL     1      39.875  15.895  -5.822  1.00  0.00     0.014 C 
ENDROOT
BRANCH   1  30
ATOM     30  C   UNL     1      48.153  12.588  -6.521  1.00  0.00     0.048 C 
ATOM     31  O   UNL     1      48.574  11.561  -7.125  1.00  0.00    -0.550 OA
ATOM     32  O   UNL     1      47.109  13.360  -7.101  1.00  0.00    -0.550 OA
ENDBRANCH   1  30
BRANCH  27  33
ATOM     33  O   UNL     1      39.876  18.819  -6.103  1.00  0.00    -0.393 OA
ATOM     34  H   UNL     1      39.425  19.398  -5.394  1.00  0.00     0.210 HD
ENDBRANCH  27  33
TORSDOF 2
ENDMDL
MODEL 6
REMARK VINA RESULT:    -3.577      2.774      4.928
REMARK INTER + INTRA:          -3.656
REMARK INTER:                  -3.931
REMARK INTRA:                   0.275
REMARK UNBOUND:                 0.235
REMARK SMILES C[C@@H]1[C@H](C)CC[C@@]2(C(=O)[O-])CC[C@@]3(C)C(=CC[C@@H]4[C@]5(C)CC[C@@H](O)C(C)(C)[C@H]5CC[C@]43C)[C@H]12
REMARK SMILES IDX 7 1 6 2 11 3 33 4 5 5 12 6 15 7 2 8 3 9 13 10 16 11 1 12
REMARK SMILES IDX 4 13 14 14 31 15 17 16 18 17 30 18 32 19 19 20 29 21 28 22
REMARK SMILES IDX 21 23 20 24 25 25 22 26 23 27 26 28 27 29 8 30 9 31 10 32
REMARK SMILES IDX 24 33
REMARK H PARENT 24 34
REMARK Flexibility Score: inf
ROOT
ATOM      1  C   UNL     1      43.271  13.748  -3.899  1.00  0.00     0.017 C 
ATOM      2  C   UNL     1      41.841  13.147  -3.686  1.00  0.00     0.014 C 
ATOM      3  C   UNL     1      44.314  12.778  -3.250  1.00  0.00     0.014 C 
ATOM      4  C   UNL     1      43.508  13.783  -5.493  1.00  0.00     0.030 C 
ATOM      5  C   UNL     1      40.649  13.678  -4.524  1.00  0.00     0.004 C 
ATOM      6  C   UNL     1      45.780  13.038  -3.688  1.00  0.00     0.013 C 
ATOM      7  C   UNL     1      44.980  14.004  -5.812  1.00  0.00    -0.063 C 
ATOM      8  C   UNL     1      42.387  14.655  -6.223  1.00  0.00    -0.003 C 
ATOM      9  C   UNL     1      41.068  13.893  -6.030  1.00  0.00    -0.011 C 
ATOM     10  C   UNL     1      46.010  12.987  -5.240  1.00  0.00    -0.006 C 
ATOM     11  C   UNL     1      45.367  15.042  -6.635  1.00  0.00    -0.027 C 
ATOM     12  C   UNL     1      42.327  16.113  -5.717  1.00  0.00     0.008 C 
ATOM     13  C   UNL     1      39.886  14.527  -6.781  1.00  0.00     0.008 C 
ATOM     14  C   UNL     1      45.667  11.521  -5.764  1.00  0.00     0.017 C 
ATOM     15  C   UNL     1      47.518  13.393  -5.678  1.00  0.00    -0.020 C 
ATOM     16  C   UNL     1      46.829  15.543  -6.712  1.00  0.00     0.032 C 
ATOM     17  C   UNL     1      47.648  14.932  -5.574  1.00  0.00     0.006 C 
ATOM     18  C   UNL     1      48.555  12.798  -4.670  1.00  0.00     0.008 C 
ATOM     19  C   UNL     1      47.803  12.827  -7.124  1.00  0.00     0.012 C 
ATOM     20  C   UNL     1      49.134  15.519  -5.221  1.00  0.00    -0.025 C 
ATOM     21  C   UNL     1      50.050  13.042  -5.035  1.00  0.00     0.005 C 
ATOM     22  C   UNL     1      50.261  14.474  -5.637  1.00  0.00     0.003 C 
ATOM     23  C   UNL     1      49.454  16.901  -5.907  1.00  0.00     0.010 C 
ATOM     24  C   UNL     1      49.255  15.669  -3.656  1.00  0.00     0.012 C 
ATOM     25  C   UNL     1      51.747  15.076  -5.695  1.00  0.00    -0.006 C 
ATOM     26  C   UNL     1      50.447  16.888  -7.125  1.00  0.00     0.033 C 
ATOM     27  C   UNL     1      51.725  16.012  -6.994  1.00  0.00     0.120 C 
ATOM     28  C   UNL     1      52.735  13.905  -5.986  1.00  0.00     0.014 C 
ATOM     29  C   UNL     1      52.263  15.874  -4.420  1.00  0.00     0.014 C 
ENDROOT
BRANCH   1  30
ATOM     30  C   UNL     1      43.448  15.078  -3.151  1.00  0.00     0.048 C 
ATOM     31  O   UNL     1      44.488  15.784  -3.287  1.00  0.00    -0.550 OA
ATOM     32  O   UNL     1      42.345  15.595  -2.418  1.00  0.00    -0.550 OA
ENDBRANCH   1  30
BRANCH  27  33
ATOM     33  O   UNL     1      52.859  16.854  -7.125  1.00  0.00    -0.393 OA
ATOM     34  H   UNL     1      53.418  16.452  -7.879  1.00  0.00     0.210 HD
ENDBRANCH  27  33
TORSDOF 2
ENDMDL
MODEL 7
REMARK VINA RESULT:    -3.298      2.540      4.363
REMARK INTER + INTRA:          -3.353
REMARK INTER:                  -3.572
REMARK INTRA:                   0.219
REMARK UNBOUND:                 0.235
REMARK SMILES C[C@@H]1[C@H](C)CC[C@@]2(C(=O)[O-])CC[C@@]3(C)C(=CC[C@@H]4[C@]5(C)CC[C@@H](O)C(C)(C)[C@H]5CC[C@]43C)[C@H]12
REMARK SMILES IDX 7 1 6 2 11 3 33 4 5 5 12 6 15 7 2 8 3 9 13 10 16 11 1 12
REMARK SMILES IDX 4 13 14 14 31 15 17 16 18 17 30 18 32 19 19 20 29 21 28 22
REMARK SMILES IDX 21 23 20 24 25 25 22 26 23 27 26 28 27 29 8 30 9 31 10 32
REMARK SMILES IDX 24 33
REMARK H PARENT 24 34
REMARK Flexibility Score: inf
ROOT
ATOM      1  C   UNL     1      42.324  14.575  -4.836  1.00  0.00     0.017 C 
ATOM      2  C   UNL     1      40.844  14.693  -4.339  1.00  0.00     0.014 C 
ATOM      3  C   UNL     1      43.048  15.933  -4.548  1.00  0.00     0.014 C 
ATOM      4  C   UNL     1      43.004  13.418  -3.944  1.00  0.00     0.030 C 
ATOM      5  C   UNL     1      39.991  13.412  -4.149  1.00  0.00     0.004 C 
ATOM      6  C   UNL     1      44.596  15.858  -4.643  1.00  0.00     0.013 C 
ATOM      7  C   UNL     1      44.520  13.457  -4.079  1.00  0.00    -0.063 C 
ATOM      8  C   UNL     1      42.219  12.035  -4.098  1.00  0.00    -0.003 C 
ATOM      9  C   UNL     1      40.836  12.264  -3.472  1.00  0.00    -0.011 C 
ATOM     10  C   UNL     1      45.250  14.780  -3.706  1.00  0.00    -0.006 C 
ATOM     11  C   UNL     1      45.216  12.328  -4.461  1.00  0.00    -0.027 C 
ATOM     12  C   UNL     1      42.150  11.537  -5.558  1.00  0.00     0.008 C 
ATOM     13  C   UNL     1      39.977  10.991  -3.416  1.00  0.00     0.008 C 
ATOM     14  C   UNL     1      44.938  15.158  -2.190  1.00  0.00     0.017 C 
ATOM     15  C   UNL     1      46.850  14.630  -3.923  1.00  0.00    -0.020 C 
ATOM     16  C   UNL     1      46.679  12.382  -4.962  1.00  0.00     0.032 C 
ATOM     17  C   UNL     1      47.085  13.832  -5.228  1.00  0.00     0.006 C 
ATOM     18  C   UNL     1      47.502  16.034  -4.146  1.00  0.00     0.008 C 
ATOM     19  C   UNL     1      47.481  13.954  -2.642  1.00  0.00     0.012 C 
ATOM     20  C   UNL     1      48.456  14.167  -6.055  1.00  0.00    -0.025 C 
ATOM     21  C   UNL     1      49.055  16.032  -4.274  1.00  0.00     0.005 C 
ATOM     22  C   UNL     1      49.556  14.787  -5.084  1.00  0.00     0.003 C 
ATOM     23  C   UNL     1      49.080  12.918  -6.786  1.00  0.00     0.010 C 
ATOM     24  C   UNL     1      48.143  15.293  -7.113  1.00  0.00     0.012 C 
ATOM     25  C   UNL     1      51.045  14.802  -5.680  1.00  0.00    -0.006 C 
ATOM     26  C   UNL     1      50.372  12.284  -6.154  1.00  0.00     0.033 C 
ATOM     27  C   UNL     1      51.476  13.260  -5.657  1.00  0.00     0.120 C 
ATOM     28  C   UNL     1      51.966  15.554  -4.670  1.00  0.00     0.014 C 
ATOM     29  C   UNL     1      51.250  15.436  -7.124  1.00  0.00     0.014 C 
ENDROOT
BRANCH   1  30
ATOM     30  C   UNL     1      42.402  14.400  -6.360  1.00  0.00     0.048 C 
ATOM     31  O   UNL     1      41.412  14.640  -7.108  1.00  0.00    -0.550 OA
ATOM     32  O   UNL     1      43.666  14.114  -6.945  1.00  0.00    -0.550 OA
ENDBRANCH   1  30
BRANCH  27  33
ATOM     33  O   UNL     1      52.673  12.979  -6.367  1.00  0.00    -0.393 OA
ATOM     34  H   UNL     1      52.404  12.353  -7.127  1.00  0.00     0.210 HD
ENDBRANCH  27  33
TORSDOF 2
ENDMDL
MODEL 8
REMARK VINA RESULT:    -3.251      1.987      7.999
REMARK INTER + INTRA:          -3.302
REMARK INTER:                  -3.540
REMARK INTRA:                   0.238
REMARK UNBOUND:                 0.235
REMARK SMILES C[C@@H]1[C@H](C)CC[C@@]2(C(=O)[O-])CC[C@@]3(C)C(=CC[C@@H]4[C@]5(C)CC[C@@H](O)C(C)(C)[C@H]5CC[C@]43C)[C@H]12
REMARK SMILES IDX 7 1 6 2 11 3 33 4 5 5 12 6 15 7 2 8 3 9 13 10 16 11 1 12
REMARK SMILES IDX 4 13 14 14 31 15 17 16 18 17 30 18 32 19 19 20 29 21 28 22
REMARK SMILES IDX 21 23 20 24 25 25 22 26 23 27 26 28 27 29 8 30 9 31 10 32
REMARK SMILES IDX 24 33
REMARK H PARENT 24 34
REMARK Flexibility Score: inf
ROOT
ATOM      1  C   UNL     1      46.520  12.525  -5.045  1.00  0.00     0.017 C 
ATOM      2  C   UNL     1      47.473  11.354  -4.627  1.00  0.00     0.014 C 
ATOM      3  C   UNL     1      45.212  12.421  -4.191  1.00  0.00     0.014 C 
ATOM      4  C   UNL     1      47.292  13.887  -4.660  1.00  0.00     0.030 C 
ATOM      5  C   UNL     1      48.972  11.403  -5.021  1.00  0.00     0.004 C 
ATOM      6  C   UNL     1      44.334  13.701  -4.220  1.00  0.00     0.013 C 
ATOM      7  C   UNL     1      46.335  15.070  -4.681  1.00  0.00    -0.063 C 
ATOM      8  C   UNL     1      48.702  13.980  -5.405  1.00  0.00    -0.003 C 
ATOM      9  C   UNL     1      49.563  12.853  -4.819  1.00  0.00    -0.011 C 
ATOM     10  C   UNL     1      45.078  15.006  -3.764  1.00  0.00    -0.006 C 
ATOM     11  C   UNL     1      46.616  16.183  -5.447  1.00  0.00    -0.027 C 
ATOM     12  C   UNL     1      48.580  13.917  -6.943  1.00  0.00     0.008 C 
ATOM     13  C   UNL     1      51.012  12.867  -5.333  1.00  0.00     0.008 C 
ATOM     14  C   UNL     1      45.529  14.838  -2.245  1.00  0.00     0.017 C 
ATOM     15  C   UNL     1      44.180  16.347  -3.931  1.00  0.00    -0.020 C 
ATOM     16  C   UNL     1      45.548  17.245  -5.799  1.00  0.00     0.032 C 
ATOM     17  C   UNL     1      44.157  16.724  -5.432  1.00  0.00     0.006 C 
ATOM     18  C   UNL     1      42.696  16.060  -3.530  1.00  0.00     0.008 C 
ATOM     19  C   UNL     1      44.769  17.479  -3.000  1.00  0.00     0.012 C 
ATOM     20  C   UNL     1      42.819  17.494  -5.974  1.00  0.00    -0.025 C 
ATOM     21  C   UNL     1      41.749  17.298  -3.559  1.00  0.00     0.005 C 
ATOM     22  C   UNL     1      42.076  18.233  -4.774  1.00  0.00     0.003 C 
ATOM     23  C   UNL     1      43.105  18.546  -7.111  1.00  0.00     0.010 C 
ATOM     24  C   UNL     1      41.798  16.415  -6.501  1.00  0.00     0.012 C 
ATOM     25  C   UNL     1      40.986  19.319  -5.227  1.00  0.00    -0.006 C 
ATOM     26  C   UNL     1      43.045  20.067  -6.717  1.00  0.00     0.033 C 
ATOM     27  C   UNL     1      41.870  20.522  -5.806  1.00  0.00     0.120 C 
ATOM     28  C   UNL     1      40.266  19.848  -3.948  1.00  0.00     0.014 C 
ATOM     29  C   UNL     1      39.885  18.857  -6.277  1.00  0.00     0.014 C 
ENDROOT
BRANCH   1  30
ATOM     30  C   UNL     1      46.055  12.390  -6.502  1.00  0.00     0.048 C 
ATOM     31  O   UNL     1      46.127  11.292  -7.125  1.00  0.00    -0.550 OA
ATOM     32  O   UNL     1      45.382  13.490  -7.103  1.00  0.00    -0.550 OA
ENDBRANCH   1  30
BRANCH  27  33
ATOM     33  O   UNL     1      41.125  21.511  -6.499  1.00  0.00    -0.393 OA
ATOM     34  H   UNL     1      40.194  21.113  -6.635  1.00  0.00     0.210 HD
ENDBRANCH  27  33
TORSDOF 2
ENDMDL
