MODEL 1
REMARK VINA RESULT:    -5.242      0.000      0.000
REMARK INTER + INTRA:          -6.449
REMARK INTER:                  -6.161
REMARK INTRA:                  -0.288
REMARK UNBOUND:                -0.288
REMARK SMILES O=c1c(O)c(-c2ccc(O)cc2)oc2cc(O)cc(O)c12
REMARK SMILES IDX 5 1 3 2 2 3 1 4 21 5 19 6 18 7 16 8 15 9 14 10 13 11 6 12
REMARK SMILES IDX 7 13 8 14 9 15 12 16 11 17 10 18 4 20 20 22 17 24
REMARK H PARENT 10 19 4 21 20 23 17 25
REMARK Flexibility Score: inf
ROOT
ATOM      1  C   UNL     1       9.642  16.401  12.097  1.00  0.00     0.180 A 
ATOM      2  C   UNL     1      10.762  16.158  11.284  1.00  0.00     0.208 A 
ATOM      3  C   UNL     1      11.772  15.302  11.753  1.00  0.00     0.238 A 
ATOM      4  O   UNL     1      12.735  15.030  10.991  1.00  0.00    -0.285 OA
ATOM      5  C   UNL     1      11.676  14.745  13.052  1.00  0.00     0.111 A 
ATOM      6  C   UNL     1      12.662  13.900  13.648  1.00  0.00     0.134 A 
ATOM      7  C   UNL     1      12.409  13.321  14.898  1.00  0.00     0.093 A 
ATOM      8  C   UNL     1      11.237  13.607  15.602  1.00  0.00     0.123 A 
ATOM      9  C   UNL     1      10.295  14.473  15.053  1.00  0.00     0.094 A 
ATOM     10  C   UNL     1      10.499  15.036  13.791  1.00  0.00     0.146 A 
ATOM     11  O   UNL     1       9.565  15.839  13.298  1.00  0.00    -0.452 OA
ENDROOT
BRANCH   1  12
ATOM     12  C   UNL     1       8.531  17.280  11.666  1.00  0.00     0.021 A 
ATOM     13  C   UNL     1       7.490  16.800  10.850  1.00  0.00     0.016 A 
ATOM     14  C   UNL     1       6.439  17.644  10.477  1.00  0.00     0.047 A 
ATOM     15  C   UNL     1       6.408  18.971  10.924  1.00  0.00     0.115 A 
ATOM     16  C   UNL     1       8.481  18.607  12.127  1.00  0.00     0.016 A 
ATOM     17  C   UNL     1       7.429  19.447  11.752  1.00  0.00     0.047 A 
BRANCH  15  18
ATOM     18  O   UNL     1       5.366  19.819  10.558  1.00  0.00    -0.508 OA
ATOM     19  H   UNL     1       4.969  19.798   9.626  1.00  0.00     0.293 HD
ENDBRANCH  15  18
ENDBRANCH   1  12
BRANCH   2  20
ATOM     20  O   UNL     1      10.875  16.778  10.037  1.00  0.00    -0.502 OA
ATOM     21  H   UNL     1      11.675  16.642   9.432  1.00  0.00     0.293 HD
ENDBRANCH   2  20
BRANCH   6  22
ATOM     22  O   UNL     1      13.905  13.620  13.072  1.00  0.00    -0.507 OA
ATOM     23  H   UNL     1      14.495  12.842  13.322  1.00  0.00     0.293 HD
ENDBRANCH   6  22
BRANCH   8  24
ATOM     24  O   UNL     1      11.004  13.039  16.853  1.00  0.00    -0.508 OA
ATOM     25  H   UNL     1      10.880  13.611  17.679  1.00  0.00     0.293 HD
ENDBRANCH   8  24
TORSDOF 5
ENDMDL
MODEL 2
REMARK VINA RESULT:    -5.218      3.487      6.097
REMARK INTER + INTRA:          -6.421
REMARK INTER:                  -6.140
REMARK INTRA:                  -0.281
REMARK UNBOUND:                -0.288
REMARK SMILES O=c1c(O)c(-c2ccc(O)cc2)oc2cc(O)cc(O)c12
REMARK SMILES IDX 5 1 3 2 2 3 1 4 21 5 19 6 18 7 16 8 15 9 14 10 13 11 6 12
REMARK SMILES IDX 7 13 8 14 9 15 12 16 11 17 10 18 4 20 20 22 17 24
REMARK H PARENT 10 19 4 21 20 23 17 25
REMARK Flexibility Score: inf
ROOT
ATOM      1  C   UNL     1      13.615  16.430  13.460  1.00  0.00     0.180 A 
ATOM      2  C   UNL     1      13.811  15.054  13.671  1.00  0.00     0.208 A 
ATOM      3  C   UNL     1      12.733  14.272  14.116  1.00  0.00     0.238 A 
ATOM      4  O   UNL     1      12.896  13.030  14.232  1.00  0.00    -0.285 OA
ATOM      5  C   UNL     1      11.488  14.885  14.398  1.00  0.00     0.111 A 
ATOM      6  C   UNL     1      10.339  14.197  14.896  1.00  0.00     0.134 A 
ATOM      7  C   UNL     1       9.128  14.888  15.035  1.00  0.00     0.093 A 
ATOM      8  C   UNL     1       9.041  16.253  14.757  1.00  0.00     0.123 A 
ATOM      9  C   UNL     1      10.169  16.944  14.324  1.00  0.00     0.094 A 
ATOM     10  C   UNL     1      11.382  16.276  14.137  1.00  0.00     0.146 A 
ATOM     11  O   UNL     1      12.426  16.970  13.701  1.00  0.00    -0.452 OA
ENDROOT
BRANCH   1  12
ATOM     12  C   UNL     1      14.699  17.316  12.978  1.00  0.00     0.021 A 
ATOM     13  C   UNL     1      14.813  17.665  11.620  1.00  0.00     0.016 A 
ATOM     14  C   UNL     1      15.832  18.523  11.194  1.00  0.00     0.047 A 
ATOM     15  C   UNL     1      16.738  19.055  12.121  1.00  0.00     0.115 A 
ATOM     16  C   UNL     1      15.600  17.870  13.903  1.00  0.00     0.016 A 
ATOM     17  C   UNL     1      16.617  18.728  13.475  1.00  0.00     0.047 A 
BRANCH  15  18
ATOM     18  O   UNL     1      17.757  19.910  11.707  1.00  0.00    -0.508 OA
ATOM     19  H   UNL     1      18.497  20.195  12.337  1.00  0.00     0.293 HD
ENDBRANCH  15  18
ENDBRANCH   1  12
BRANCH   2  20
ATOM     20  O   UNL     1      15.069  14.483  13.461  1.00  0.00    -0.502 OA
ATOM     21  H   UNL     1      15.873  14.711  14.034  1.00  0.00     0.293 HD
ENDBRANCH   2  20
BRANCH   6  22
ATOM     22  O   UNL     1      10.338  12.855  15.288  1.00  0.00    -0.507 OA
ATOM     23  H   UNL     1      11.162  12.284  15.396  1.00  0.00     0.293 HD
ENDBRANCH   6  22
BRANCH   8  24
ATOM     24  O   UNL     1       7.836  16.935  14.917  1.00  0.00    -0.508 OA
ATOM     25  H   UNL     1       7.612  17.421  15.776  1.00  0.00     0.293 HD
ENDBRANCH   8  24
TORSDOF 5
ENDMDL
MODEL 3
REMARK VINA RESULT:    -5.185      4.615      7.073
REMARK INTER + INTRA:          -6.383
REMARK INTER:                  -6.104
REMARK INTRA:                  -0.278
REMARK UNBOUND:                -0.288
REMARK SMILES O=c1c(O)c(-c2ccc(O)cc2)oc2cc(O)cc(O)c12
REMARK SMILES IDX 5 1 3 2 2 3 1 4 21 5 19 6 18 7 16 8 15 9 14 10 13 11 6 12
REMARK SMILES IDX 7 13 8 14 9 15 12 16 11 17 10 18 4 20 20 22 17 24
REMARK H PARENT 10 19 4 21 20 23 17 25
REMARK Flexibility Score: inf
ROOT
ATOM      1  C   UNL     1      14.041  16.573  13.969  1.00  0.00     0.180 A 
ATOM      2  C   UNL     1      14.248  17.795  14.631  1.00  0.00     0.208 A 
ATOM      3  C   UNL     1      15.299  18.627  14.215  1.00  0.00     0.238 A 
ATOM      4  O   UNL     1      15.432  19.752  14.761  1.00  0.00    -0.285 OA
ATOM      5  C   UNL     1      16.166  18.201  13.179  1.00  0.00     0.111 A 
ATOM      6  C   UNL     1      17.292  18.943  12.706  1.00  0.00     0.134 A 
ATOM      7  C   UNL     1      18.015  18.470  11.603  1.00  0.00     0.093 A 
ATOM      8  C   UNL     1      17.694  17.253  10.998  1.00  0.00     0.123 A 
ATOM      9  C   UNL     1      16.633  16.497  11.487  1.00  0.00     0.094 A 
ATOM     10  C   UNL     1      15.867  16.959  12.561  1.00  0.00     0.146 A 
ATOM     11  O   UNL     1      14.851  16.215  12.980  1.00  0.00    -0.452 OA
ENDROOT
BRANCH   1  12
ATOM     12  C   UNL     1      12.945  15.650  14.342  1.00  0.00     0.021 A 
ATOM     13  C   UNL     1      11.629  15.853  13.889  1.00  0.00     0.016 A 
ATOM     14  C   UNL     1      10.616  14.952  14.235  1.00  0.00     0.047 A 
ATOM     15  C   UNL     1      10.908  13.833  15.025  1.00  0.00     0.115 A 
ATOM     16  C   UNL     1      13.233  14.513  15.117  1.00  0.00     0.016 A 
ATOM     17  C   UNL     1      12.218  13.615  15.461  1.00  0.00     0.047 A 
BRANCH  15  18
ATOM     18  O   UNL     1       9.907  12.931  15.376  1.00  0.00    -0.508 OA
ATOM     19  H   UNL     1      10.052  11.930  15.319  1.00  0.00     0.293 HD
ENDBRANCH  15  18
ENDBRANCH   1  12
BRANCH   2  20
ATOM     20  O   UNL     1      13.428  18.163  15.702  1.00  0.00    -0.502 OA
ATOM     21  H   UNL     1      12.545  17.705  15.893  1.00  0.00     0.293 HD
ENDBRANCH   2  20
BRANCH   6  22
ATOM     22  O   UNL     1      17.754  20.125  13.292  1.00  0.00    -0.507 OA
ATOM     23  H   UNL     1      18.680  20.261  13.665  1.00  0.00     0.293 HD
ENDBRANCH   6  22
BRANCH   8  24
ATOM     24  O   UNL     1      18.431  16.784   9.913  1.00  0.00    -0.508 OA
ATOM     25  H   UNL     1      18.547  17.336   9.072  1.00  0.00     0.293 HD
ENDBRANCH   8  24
TORSDOF 5
ENDMDL
MODEL 4
REMARK VINA RESULT:    -5.151      1.887      3.532
REMARK INTER + INTRA:          -6.342
REMARK INTER:                  -6.087
REMARK INTRA:                  -0.254
REMARK UNBOUND:                -0.288
REMARK SMILES O=c1c(O)c(-c2ccc(O)cc2)oc2cc(O)cc(O)c12
REMARK SMILES IDX 5 1 3 2 2 3 1 4 21 5 19 6 18 7 16 8 15 9 14 10 13 11 6 12
REMARK SMILES IDX 7 13 8 14 9 15 12 16 11 17 10 18 4 20 20 22 17 24
REMARK H PARENT 10 19 4 21 20 23 17 25
REMARK Flexibility Score: inf
ROOT
ATOM      1  C   UNL     1       9.985  16.403  13.466  1.00  0.00     0.180 A 
ATOM      2  C   UNL     1      10.102  15.376  14.418  1.00  0.00     0.208 A 
ATOM      3  C   UNL     1      11.353  14.769  14.615  1.00  0.00     0.238 A 
ATOM      4  O   UNL     1      11.467  13.903  15.520  1.00  0.00    -0.285 OA
ATOM      5  C   UNL     1      12.457  15.156  13.818  1.00  0.00     0.111 A 
ATOM      6  C   UNL     1      13.761  14.578  13.900  1.00  0.00     0.134 A 
ATOM      7  C   UNL     1      14.804  15.116  13.135  1.00  0.00     0.093 A 
ATOM      8  C   UNL     1      14.577  16.167  12.245  1.00  0.00     0.123 A 
ATOM      9  C   UNL     1      13.298  16.702  12.118  1.00  0.00     0.094 A 
ATOM     10  C   UNL     1      12.244  16.214  12.895  1.00  0.00     0.146 A 
ATOM     11  O   UNL     1      11.046  16.768  12.757  1.00  0.00    -0.452 OA
ENDROOT
BRANCH   1  12
ATOM     12  C   UNL     1       8.704  17.101  13.213  1.00  0.00     0.021 A 
ATOM     13  C   UNL     1       8.211  18.075  14.100  1.00  0.00     0.016 A 
ATOM     14  C   UNL     1       7.009  18.737  13.825  1.00  0.00     0.047 A 
ATOM     15  C   UNL     1       6.295  18.445  12.656  1.00  0.00     0.115 A 
ATOM     16  C   UNL     1       7.991  16.829  12.032  1.00  0.00     0.016 A 
ATOM     17  C   UNL     1       6.791  17.493  11.761  1.00  0.00     0.047 A 
BRANCH  15  18
ATOM     18  O   UNL     1       5.098  19.098  12.373  1.00  0.00    -0.508 OA
ATOM     19  H   UNL     1       4.203  18.700  12.634  1.00  0.00     0.293 HD
ENDBRANCH  15  18
ENDBRANCH   1  12
BRANCH   2  20
ATOM     20  O   UNL     1       8.982  14.955  15.141  1.00  0.00    -0.502 OA
ATOM     21  H   UNL     1       8.591  14.026  15.045  1.00  0.00     0.293 HD
ENDBRANCH   2  20
BRANCH   6  22
ATOM     22  O   UNL     1      14.077  13.468  14.690  1.00  0.00    -0.507 OA
ATOM     23  H   UNL     1      13.898  13.393  15.679  1.00  0.00     0.293 HD
ENDBRANCH   6  22
BRANCH   8  24
ATOM     24  O   UNL     1      15.618  16.683  11.476  1.00  0.00    -0.508 OA
ATOM     25  H   UNL     1      16.091  17.541  11.731  1.00  0.00     0.293 HD
ENDBRANCH   8  24
TORSDOF 5
ENDMDL
MODEL 5
REMARK VINA RESULT:    -5.091      3.467      6.345
REMARK INTER + INTRA:          -6.272
REMARK INTER:                  -5.984
REMARK INTRA:                  -0.288
REMARK UNBOUND:                -0.288
REMARK SMILES O=c1c(O)c(-c2ccc(O)cc2)oc2cc(O)cc(O)c12
REMARK SMILES IDX 5 1 3 2 2 3 1 4 21 5 19 6 18 7 16 8 15 9 14 10 13 11 6 12
REMARK SMILES IDX 7 13 8 14 9 15 12 16 11 17 10 18 4 20 20 22 17 24
REMARK H PARENT 10 19 4 21 20 23 17 25
REMARK Flexibility Score: inf
ROOT
ATOM      1  C   UNL     1      13.831  16.475  12.904  1.00  0.00     0.180 A 
ATOM      2  C   UNL     1      12.740  17.244  12.464  1.00  0.00     0.208 A 
ATOM      3  C   UNL     1      11.454  16.938  12.938  1.00  0.00     0.238 A 
ATOM      4  O   UNL     1      10.494  17.675  12.599  1.00  0.00    -0.285 OA
ATOM      5  C   UNL     1      11.268  15.831  13.802  1.00  0.00     0.111 A 
ATOM      6  C   UNL     1      10.003  15.400  14.309  1.00  0.00     0.134 A 
ATOM      7  C   UNL     1       9.953  14.357  15.242  1.00  0.00     0.093 A 
ATOM      8  C   UNL     1      11.113  13.687  15.637  1.00  0.00     0.123 A 
ATOM      9  C   UNL     1      12.343  14.063  15.107  1.00  0.00     0.094 A 
ATOM     10  C   UNL     1      12.432  15.125  14.204  1.00  0.00     0.146 A 
ATOM     11  O   UNL     1      13.629  15.464  13.740  1.00  0.00    -0.452 OA
ENDROOT
BRANCH   1  12
ATOM     12  C   UNL     1      15.217  16.747  12.460  1.00  0.00     0.021 A 
ATOM     13  C   UNL     1      15.752  16.136  11.311  1.00  0.00     0.016 A 
ATOM     14  C   UNL     1      17.057  16.429  10.898  1.00  0.00     0.047 A 
ATOM     15  C   UNL     1      17.835  17.344  11.619  1.00  0.00     0.115 A 
ATOM     16  C   UNL     1      15.998  17.679  13.165  1.00  0.00     0.016 A 
ATOM     17  C   UNL     1      17.300  17.969  12.749  1.00  0.00     0.047 A 
BRANCH  15  18
ATOM     18  O   UNL     1      19.135  17.641  11.217  1.00  0.00    -0.508 OA
ATOM     19  H   UNL     1      19.720  16.950  10.763  1.00  0.00     0.293 HD
ENDBRANCH  15  18
ENDBRANCH   1  12
BRANCH   2  20
ATOM     20  O   UNL     1      12.935  18.284  11.550  1.00  0.00    -0.502 OA
ATOM     21  H   UNL     1      12.165  18.757  11.092  1.00  0.00     0.293 HD
ENDBRANCH   2  20
BRANCH   6  22
ATOM     22  O   UNL     1       8.776  15.941  13.914  1.00  0.00    -0.507 OA
ATOM     23  H   UNL     1       8.320  15.759  13.034  1.00  0.00     0.293 HD
ENDBRANCH   6  22
BRANCH   8  24
ATOM     24  O   UNL     1      11.050  12.638  16.553  1.00  0.00    -0.508 OA
ATOM     25  H   UNL     1      11.735  12.537  17.292  1.00  0.00     0.293 HD
ENDBRANCH   8  24
TORSDOF 5
ENDMDL
MODEL 6
REMARK VINA RESULT:    -5.073      1.587      6.560
REMARK INTER + INTRA:          -6.251
REMARK INTER:                  -5.986
REMARK INTRA:                  -0.264
REMARK UNBOUND:                -0.288
REMARK SMILES O=c1c(O)c(-c2ccc(O)cc2)oc2cc(O)cc(O)c12
REMARK SMILES IDX 5 1 3 2 2 3 1 4 21 5 19 6 18 7 16 8 15 9 14 10 13 11 6 12
REMARK SMILES IDX 7 13 8 14 9 15 12 16 11 17 10 18 4 20 20 22 17 24
REMARK H PARENT 10 19 4 21 20 23 17 25
REMARK Flexibility Score: inf
ROOT
ATOM      1  C   UNL     1       9.747  15.831  12.144  1.00  0.00     0.180 A 
ATOM      2  C   UNL     1       9.584  15.622  10.764  1.00  0.00     0.208 A 
ATOM      3  C   UNL     1       8.536  16.276  10.095  1.00  0.00     0.238 A 
ATOM      4  O   UNL     1       8.440  16.143   8.848  1.00  0.00    -0.285 OA
ATOM      5  C   UNL     1       7.631  17.084  10.825  1.00  0.00     0.111 A 
ATOM      6  C   UNL     1       6.506  17.758  10.258  1.00  0.00     0.134 A 
ATOM      7  C   UNL     1       5.742  18.618  11.058  1.00  0.00     0.093 A 
ATOM      8  C   UNL     1       6.022  18.777  12.417  1.00  0.00     0.123 A 
ATOM      9  C   UNL     1       7.083  18.082  12.991  1.00  0.00     0.094 A 
ATOM     10  C   UNL     1       7.888  17.247  12.211  1.00  0.00     0.146 A 
ATOM     11  O   UNL     1       8.902  16.621  12.796  1.00  0.00    -0.452 OA
ENDROOT
BRANCH   1  12
ATOM     12  C   UNL     1      10.836  15.189  12.915  1.00  0.00     0.021 A 
ATOM     13  C   UNL     1      10.621  14.003  13.640  1.00  0.00     0.016 A 
ATOM     14  C   UNL     1      11.673  13.402  14.341  1.00  0.00     0.047 A 
ATOM     15  C   UNL     1      12.953  13.970  14.312  1.00  0.00     0.115 A 
ATOM     16  C   UNL     1      12.129  15.740  12.875  1.00  0.00     0.016 A 
ATOM     17  C   UNL     1      13.177  15.137  13.576  1.00  0.00     0.047 A 
BRANCH  15  18
ATOM     18  O   UNL     1      14.007  13.381  15.006  1.00  0.00    -0.508 OA
ATOM     19  H   UNL     1      14.535  13.894  15.702  1.00  0.00     0.293 HD
ENDBRANCH  15  18
ENDBRANCH   1  12
BRANCH   2  20
ATOM     20  O   UNL     1      10.441  14.759  10.076  1.00  0.00    -0.502 OA
ATOM     21  H   UNL     1      11.432  14.943   9.977  1.00  0.00     0.293 HD
ENDBRANCH   2  20
BRANCH   6  22
ATOM     22  O   UNL     1       6.084  17.601   8.935  1.00  0.00    -0.507 OA
ATOM     23  H   UNL     1       5.295  17.046   8.642  1.00  0.00     0.293 HD
ENDBRANCH   6  22
BRANCH   8  24
ATOM     24  O   UNL     1       5.245  19.621  13.208  1.00  0.00    -0.508 OA
ATOM     25  H   UNL     1       4.245  19.492  13.297  1.00  0.00     0.293 HD
ENDBRANCH   8  24
TORSDOF 5
ENDMDL
MODEL 7
REMARK VINA RESULT:    -5.058      1.256      3.129
REMARK INTER + INTRA:          -6.233
REMARK INTER:                  -5.937
REMARK INTRA:                  -0.296
REMARK UNBOUND:                -0.288
REMARK SMILES O=c1c(O)c(-c2ccc(O)cc2)oc2cc(O)cc(O)c12
REMARK SMILES IDX 5 1 3 2 2 3 1 4 21 5 19 6 18 7 16 8 15 9 14 10 13 11 6 12
REMARK SMILES IDX 7 13 8 14 9 15 12 16 11 17 10 18 4 20 20 22 17 24
REMARK H PARENT 10 19 4 21 20 23 17 25
REMARK Flexibility Score: inf
ROOT
ATOM      1  C   UNL     1       8.951  16.624  12.818  1.00  0.00     0.180 A 
ATOM      2  C   UNL     1       8.504  16.287  14.107  1.00  0.00     0.208 A 
ATOM      3  C   UNL     1       9.272  15.407  14.886  1.00  0.00     0.238 A 
ATOM      4  O   UNL     1       8.905  15.169  16.065  1.00  0.00    -0.285 OA
ATOM      5  C   UNL     1      10.447  14.830  14.346  1.00  0.00     0.111 A 
ATOM      6  C   UNL     1      11.279  13.891  15.030  1.00  0.00     0.134 A 
ATOM      7  C   UNL     1      12.476  13.470  14.436  1.00  0.00     0.093 A 
ATOM      8  C   UNL     1      12.839  13.903  13.159  1.00  0.00     0.123 A 
ATOM      9  C   UNL     1      12.008  14.775  12.462  1.00  0.00     0.094 A 
ATOM     10  C   UNL     1      10.826  15.245  13.042  1.00  0.00     0.146 A 
ATOM     11  O   UNL     1      10.075  16.092  12.351  1.00  0.00    -0.452 OA
ENDROOT
BRANCH   1  12
ATOM     12  C   UNL     1       8.204  17.556  11.943  1.00  0.00     0.021 A 
ATOM     13  C   UNL     1       8.438  18.943  11.979  1.00  0.00     0.016 A 
ATOM     14  C   UNL     1       7.736  19.799  11.124  1.00  0.00     0.047 A 
ATOM     15  C   UNL     1       6.805  19.280  10.215  1.00  0.00     0.115 A 
ATOM     16  C   UNL     1       7.283  17.042  11.013  1.00  0.00     0.016 A 
ATOM     17  C   UNL     1       6.584  17.901  10.161  1.00  0.00     0.047 A 
BRANCH  15  18
ATOM     18  O   UNL     1       6.100  20.125   9.361  1.00  0.00    -0.508 OA
ATOM     19  H   UNL     1       5.712  19.790   8.487  1.00  0.00     0.293 HD
ENDBRANCH  15  18
ENDBRANCH   1  12
BRANCH   2  20
ATOM     20  O   UNL     1       7.301  16.807  14.593  1.00  0.00    -0.502 OA
ATOM     21  H   UNL     1       6.861  16.462  15.437  1.00  0.00     0.293 HD
ENDBRANCH   2  20
BRANCH   6  22
ATOM     22  O   UNL     1      10.967  13.326  16.270  1.00  0.00    -0.507 OA
ATOM     23  H   UNL     1      10.152  12.766  16.462  1.00  0.00     0.293 HD
ENDBRANCH   6  22
BRANCH   8  24
ATOM     24  O   UNL     1      14.023  13.463  12.570  1.00  0.00    -0.508 OA
ATOM     25  H   UNL     1      14.916  13.882  12.799  1.00  0.00     0.293 HD
ENDBRANCH   8  24
TORSDOF 5
ENDMDL
MODEL 8
REMARK VINA RESULT:    -4.923     15.777     19.485
REMARK INTER + INTRA:          -6.074
REMARK INTER:                  -5.775
REMARK INTRA:                  -0.299
REMARK UNBOUND:                -0.288
REMARK SMILES O=c1c(O)c(-c2ccc(O)cc2)oc2cc(O)cc(O)c12
REMARK SMILES IDX 5 1 3 2 2 3 1 4 21 5 19 6 18 7 16 8 15 9 14 10 13 11 6 12
REMARK SMILES IDX 7 13 8 14 9 15 12 16 11 17 10 18 4 20 20 22 17 24
REMARK H PARENT 10 19 4 21 20 23 17 25
REMARK Flexibility Score: inf
ROOT
ATOM      1  C   UNL     1      11.263   3.142  26.077  1.00  0.00     0.180 A 
ATOM      2  C   UNL     1      10.368   2.269  26.720  1.00  0.00     0.208 A 
ATOM      3  C   UNL     1       8.990   2.522  26.635  1.00  0.00     0.238 A 
ATOM      4  O   UNL     1       8.192   1.697  27.149  1.00  0.00    -0.285 OA
ATOM      5  C   UNL     1       8.526   3.675  25.957  1.00  0.00     0.111 A 
ATOM      6  C   UNL     1       7.153   4.055  25.847  1.00  0.00     0.134 A 
ATOM      7  C   UNL     1       6.804   5.161  25.060  1.00  0.00     0.093 A 
ATOM      8  C   UNL     1       7.782   5.937  24.433  1.00  0.00     0.123 A 
ATOM      9  C   UNL     1       9.126   5.607  24.580  1.00  0.00     0.094 A 
ATOM     10  C   UNL     1       9.504   4.487  25.326  1.00  0.00     0.146 A 
ATOM     11  O   UNL     1      10.796   4.198  25.421  1.00  0.00    -0.452 OA
ENDROOT
BRANCH   1  12
ATOM     12  C   UNL     1      12.728   2.933  26.110  1.00  0.00     0.021 A 
ATOM     13  C   UNL     1      13.377   2.133  25.151  1.00  0.00     0.016 A 
ATOM     14  C   UNL     1      14.766   1.972  25.189  1.00  0.00     0.047 A 
ATOM     15  C   UNL     1      15.524   2.617  26.174  1.00  0.00     0.115 A 
ATOM     16  C   UNL     1      13.499   3.593  27.082  1.00  0.00     0.016 A 
ATOM     17  C   UNL     1      14.887   3.429  27.117  1.00  0.00     0.047 A 
BRANCH  15  18
ATOM     18  O   UNL     1      16.907   2.462  26.221  1.00  0.00    -0.508 OA
ATOM     19  H   UNL     1      17.473   2.961  26.897  1.00  0.00     0.293 HD
ENDBRANCH  15  18
ENDBRANCH   1  12
BRANCH   2  20
ATOM     20  O   UNL     1      10.851   1.178  27.449  1.00  0.00    -0.502 OA
ATOM     21  H   UNL     1      11.809   0.859  27.379  1.00  0.00     0.293 HD
ENDBRANCH   2  20
BRANCH   6  22
ATOM     22  O   UNL     1       6.105   3.403  26.503  1.00  0.00    -0.507 OA
ATOM     23  H   UNL     1       5.129   3.495  26.267  1.00  0.00     0.293 HD
ENDBRANCH   6  22
BRANCH   8  24
ATOM     24  O   UNL     1       7.425   7.045  23.668  1.00  0.00    -0.508 OA
ATOM     25  H   UNL     1       6.491   7.434  23.701  1.00  0.00     0.293 HD
ENDBRANCH   8  24
TORSDOF 5
ENDMDL
MODEL 9
REMARK VINA RESULT:    -4.774      1.817      7.089
REMARK INTER + INTRA:          -5.899
REMARK INTER:                  -5.611
REMARK INTRA:                  -0.288
REMARK UNBOUND:                -0.288
REMARK SMILES O=c1c(O)c(-c2ccc(O)cc2)oc2cc(O)cc(O)c12
REMARK SMILES IDX 5 1 3 2 2 3 1 4 21 5 19 6 18 7 16 8 15 9 14 10 13 11 6 12
REMARK SMILES IDX 7 13 8 14 9 15 12 16 11 17 10 18 4 20 20 22 17 24
REMARK H PARENT 10 19 4 21 20 23 17 25
REMARK Flexibility Score: inf
ROOT
ATOM      1  C   UNL     1       9.722  16.156  13.090  1.00  0.00     0.180 A 
ATOM      2  C   UNL     1       8.839  16.803  13.972  1.00  0.00     0.208 A 
ATOM      3  C   UNL     1       7.692  17.426  13.453  1.00  0.00     0.238 A 
ATOM      4  O   UNL     1       6.869  17.938  14.253  1.00  0.00    -0.285 OA
ATOM      5  C   UNL     1       7.472  17.442  12.054  1.00  0.00     0.111 A 
ATOM      6  C   UNL     1       6.367  18.082  11.413  1.00  0.00     0.134 A 
ATOM      7  C   UNL     1       6.195  17.941  10.030  1.00  0.00     0.093 A 
ATOM      8  C   UNL     1       7.122  17.239   9.256  1.00  0.00     0.123 A 
ATOM      9  C   UNL     1       8.232  16.658   9.864  1.00  0.00     0.094 A 
ATOM     10  C   UNL     1       8.411  16.748  11.247  1.00  0.00     0.146 A 
ATOM     11  O   UNL     1       9.472  16.160  11.786  1.00  0.00    -0.452 OA
ENDROOT
BRANCH   1  12
ATOM     12  C   UNL     1      10.943  15.466  13.564  1.00  0.00     0.021 A 
ATOM     13  C   UNL     1      12.158  16.156  13.731  1.00  0.00     0.016 A 
ATOM     14  C   UNL     1      13.292  15.486  14.204  1.00  0.00     0.047 A 
ATOM     15  C   UNL     1      13.222  14.125  14.528  1.00  0.00     0.115 A 
ATOM     16  C   UNL     1      10.877  14.106  13.912  1.00  0.00     0.016 A 
ATOM     17  C   UNL     1      12.012  13.440  14.384  1.00  0.00     0.047 A 
BRANCH  15  18
ATOM     18  O   UNL     1      14.344  13.449  14.999  1.00  0.00    -0.508 OA
ATOM     19  H   UNL     1      15.101  13.937  15.462  1.00  0.00     0.293 HD
ENDBRANCH  15  18
ENDBRANCH   1  12
BRANCH   2  20
ATOM     20  O   UNL     1       9.114  16.842  15.341  1.00  0.00    -0.502 OA
ATOM     21  H   UNL     1       9.748  17.519  15.750  1.00  0.00     0.293 HD
ENDBRANCH   2  20
BRANCH   6  22
ATOM     22  O   UNL     1       5.432  18.881  12.078  1.00  0.00    -0.507 OA
ATOM     23  H   UNL     1       4.493  18.599  12.312  1.00  0.00     0.293 HD
ENDBRANCH   6  22
BRANCH   8  24
ATOM     24  O   UNL     1       6.951  17.120   7.879  1.00  0.00    -0.508 OA
ATOM     25  H   UNL     1       7.587  17.560   7.225  1.00  0.00     0.293 HD
ENDBRANCH   8  24
TORSDOF 5
ENDMDL
