MODEL 1
REMARK VINA RESULT:    -7.761      0.000      0.000
REMARK INTER + INTRA:          -8.047
REMARK INTER:                  -8.441
REMARK INTRA:                   0.394
REMARK UNBOUND:                 0.394
REMARK SMILES C[C@@H]1[C@H](C)CC[C@]2(C(=O)[O-])CC[C@@]3(C)C(=CC[C@@H]4[C@@]5(C)CC[C@@H](O)C(C)(C)[C@@H]5CC[C@]43C)[C@@H]12
REMARK SMILES IDX 7 1 6 2 11 3 33 4 5 5 12 6 15 7 2 8 3 9 13 10 16 11 1 12
REMARK SMILES IDX 4 13 14 14 31 15 17 16 18 17 30 18 32 19 19 20 29 21 28 22
REMARK SMILES IDX 21 23 20 24 25 25 22 26 23 27 26 28 27 29 8 30 9 31 10 32
REMARK SMILES IDX 24 33
REMARK H PARENT 24 34
REMARK Flexibility Score: inf
ROOT
ATOM      1  C   UNL     1      -7.564 -31.408 -48.841  1.00  0.00     0.017 C 
ATOM      2  C   UNL     1      -7.454 -30.336 -47.726  1.00  0.00     0.014 C 
ATOM      3  C   UNL     1      -7.226 -32.822 -48.300  1.00  0.00     0.014 C 
ATOM      4  C   UNL     1      -6.447 -31.074 -49.892  1.00  0.00     0.030 C 
ATOM      5  C   UNL     1      -7.667 -28.914 -48.298  1.00  0.00     0.004 C 
ATOM      6  C   UNL     1      -7.295 -33.937 -49.391  1.00  0.00     0.013 C 
ATOM      7  C   UNL     1      -6.009 -32.273 -50.769  1.00  0.00    -0.063 C 
ATOM      8  C   UNL     1      -6.631 -29.678 -50.561  1.00  0.00    -0.003 C 
ATOM      9  C   UNL     1      -6.703 -28.553 -49.464  1.00  0.00    -0.011 C 
ATOM     10  C   UNL     1      -6.927 -33.517 -50.884  1.00  0.00    -0.006 C 
ATOM     11  C   UNL     1      -4.671 -32.359 -51.017  1.00  0.00    -0.027 C 
ATOM     12  C   UNL     1      -5.579 -29.360 -51.639  1.00  0.00     0.008 C 
ATOM     13  C   UNL     1      -5.329 -28.129 -48.902  1.00  0.00     0.008 C 
ATOM     14  C   UNL     1      -8.248 -33.115 -51.636  1.00  0.00     0.017 C 
ATOM     15  C   UNL     1      -6.208 -34.716 -51.712  1.00  0.00    -0.020 C 
ATOM     16  C   UNL     1      -3.948 -33.575 -51.510  1.00  0.00     0.032 C 
ATOM     17  C   UNL     1      -4.724 -34.869 -51.187  1.00  0.00     0.006 C 
ATOM     18  C   UNL     1      -7.007 -36.053 -51.538  1.00  0.00     0.008 C 
ATOM     19  C   UNL     1      -6.187 -34.372 -53.246  1.00  0.00     0.012 C 
ATOM     20  C   UNL     1      -3.944 -36.226 -51.520  1.00  0.00    -0.025 C 
ATOM     21  C   UNL     1      -6.239 -37.300 -51.976  1.00  0.00     0.005 C 
ATOM     22  C   UNL     1      -4.917 -37.415 -51.177  1.00  0.00     0.003 C 
ATOM     23  C   UNL     1      -2.705 -36.333 -50.569  1.00  0.00     0.010 C 
ATOM     24  C   UNL     1      -3.416 -36.269 -52.995  1.00  0.00     0.012 C 
ATOM     25  C   UNL     1      -4.282 -38.861 -51.135  1.00  0.00    -0.006 C 
ATOM     26  C   UNL     1      -2.039 -37.722 -50.550  1.00  0.00     0.033 C 
ATOM     27  C   UNL     1      -3.026 -38.843 -50.200  1.00  0.00     0.120 C 
ATOM     28  C   UNL     1      -5.299 -39.876 -50.536  1.00  0.00     0.014 C 
ATOM     29  C   UNL     1      -3.904 -39.405 -52.537  1.00  0.00     0.014 C 
ENDROOT
BRANCH   1  30
ATOM     30  C   UNL     1      -9.032 -31.392 -49.285  1.00  0.00     0.048 C 
ATOM     31  O   UNL     1      -9.917 -31.857 -48.517  1.00  0.00    -0.550 OA
ATOM     32  O   UNL     1      -9.452 -30.786 -50.461  1.00  0.00    -0.550 OA
ENDBRANCH   1  30
BRANCH  27  33
ATOM     33  O   UNL     1      -3.411 -38.680 -48.854  1.00  0.00    -0.393 OA
ATOM     34  H   UNL     1      -3.242 -37.733 -48.607  1.00  0.00     0.210 HD
ENDBRANCH  27  33
TORSDOF 2
ENDMDL
MODEL 2
REMARK VINA RESULT:    -7.689      1.792      8.019
REMARK INTER + INTRA:          -7.970
REMARK INTER:                  -8.345
REMARK INTRA:                   0.375
REMARK UNBOUND:                 0.394
REMARK SMILES C[C@@H]1[C@H](C)CC[C@]2(C(=O)[O-])CC[C@@]3(C)C(=CC[C@@H]4[C@@]5(C)CC[C@@H](O)C(C)(C)[C@@H]5CC[C@]43C)[C@@H]12
REMARK SMILES IDX 7 1 6 2 11 3 33 4 5 5 12 6 15 7 2 8 3 9 13 10 16 11 1 12
REMARK SMILES IDX 4 13 14 14 31 15 17 16 18 17 30 18 32 19 19 20 29 21 28 22
REMARK SMILES IDX 21 23 20 24 25 25 22 26 23 27 26 28 27 29 8 30 9 31 10 32
REMARK SMILES IDX 24 33
REMARK H PARENT 24 34
REMARK Flexibility Score: inf
ROOT
ATOM      1  C   UNL     1      -3.862 -35.694 -49.544  1.00  0.00     0.017 C 
ATOM      2  C   UNL     1      -3.934 -37.095 -48.881  1.00  0.00     0.014 C 
ATOM      3  C   UNL     1      -4.226 -34.573 -48.536  1.00  0.00     0.014 C 
ATOM      4  C   UNL     1      -4.985 -35.662 -50.642  1.00  0.00     0.030 C 
ATOM      5  C   UNL     1      -3.696 -38.215 -49.921  1.00  0.00     0.004 C 
ATOM      6  C   UNL     1      -4.196 -33.143 -49.161  1.00  0.00     0.013 C 
ATOM      7  C   UNL     1      -5.460 -34.243 -51.035  1.00  0.00    -0.063 C 
ATOM      8  C   UNL     1      -4.776 -36.726 -51.763  1.00  0.00    -0.003 C 
ATOM      9  C   UNL     1      -4.665 -38.165 -51.136  1.00  0.00    -0.011 C 
ATOM     10  C   UNL     1      -4.572 -33.015 -50.704  1.00  0.00    -0.006 C 
ATOM     11  C   UNL     1      -6.803 -34.109 -51.232  1.00  0.00    -0.027 C 
ATOM     12  C   UNL     1      -5.834 -36.668 -52.880  1.00  0.00     0.008 C 
ATOM     13  C   UNL     1      -6.023 -38.795 -50.756  1.00  0.00     0.008 C 
ATOM     14  C   UNL     1      -3.252 -33.091 -51.555  1.00  0.00     0.017 C 
ATOM     15  C   UNL     1      -5.328 -31.620 -51.051  1.00  0.00    -0.020 C 
ATOM     16  C   UNL     1      -7.559 -32.816 -51.259  1.00  0.00     0.032 C 
ATOM     17  C   UNL     1      -6.809 -31.701 -50.501  1.00  0.00     0.006 C 
ATOM     18  C   UNL     1      -4.557 -30.411 -50.417  1.00  0.00     0.008 C 
ATOM     19  C   UNL     1      -5.360 -31.398 -52.607  1.00  0.00     0.012 C 
ATOM     20  C   UNL     1      -7.624 -30.334 -50.329  1.00  0.00    -0.025 C 
ATOM     21  C   UNL     1      -5.359 -29.109 -50.382  1.00  0.00     0.005 C 
ATOM     22  C   UNL     1      -6.674 -29.319 -49.589  1.00  0.00     0.003 C 
ATOM     23  C   UNL     1      -8.853 -30.602 -49.398  1.00  0.00     0.010 C 
ATOM     24  C   UNL     1      -8.170 -29.784 -51.691  1.00  0.00     0.012 C 
ATOM     25  C   UNL     1      -7.341 -27.999 -49.036  1.00  0.00    -0.006 C 
ATOM     26  C   UNL     1      -9.550 -29.328 -48.886  1.00  0.00     0.033 C 
ATOM     27  C   UNL     1      -8.585 -28.379 -48.164  1.00  0.00     0.120 C 
ATOM     28  C   UNL     1      -6.341 -27.237 -48.119  1.00  0.00     0.014 C 
ATOM     29  C   UNL     1      -7.749 -27.003 -50.152  1.00  0.00     0.014 C 
ENDROOT
BRANCH   1  30
ATOM     30  C   UNL     1      -2.400 -35.514 -49.969  1.00  0.00     0.048 C 
ATOM     31  O   UNL     1      -1.522 -35.293 -49.093  1.00  0.00    -0.550 OA
ATOM     32  O   UNL     1      -1.974 -35.691 -51.279  1.00  0.00    -0.550 OA
ENDBRANCH   1  30
BRANCH  27  33
ATOM     33  O   UNL     1      -8.180 -28.999 -46.965  1.00  0.00    -0.393 OA
ATOM     34  H   UNL     1      -8.022 -28.283 -46.296  1.00  0.00     0.210 HD
ENDBRANCH  27  33
TORSDOF 2
ENDMDL
MODEL 3
REMARK VINA RESULT:    -7.258      2.390      4.123
REMARK INTER + INTRA:          -7.501
REMARK INTER:                  -7.898
REMARK INTRA:                   0.397
REMARK UNBOUND:                 0.394
REMARK SMILES C[C@@H]1[C@H](C)CC[C@]2(C(=O)[O-])CC[C@@]3(C)C(=CC[C@@H]4[C@@]5(C)CC[C@@H](O)C(C)(C)[C@@H]5CC[C@]43C)[C@@H]12
REMARK SMILES IDX 7 1 6 2 11 3 33 4 5 5 12 6 15 7 2 8 3 9 13 10 16 11 1 12
REMARK SMILES IDX 4 13 14 14 31 15 17 16 18 17 30 18 32 19 19 20 29 21 28 22
REMARK SMILES IDX 21 23 20 24 25 25 22 26 23 27 26 28 27 29 8 30 9 31 10 32
REMARK SMILES IDX 24 33
REMARK H PARENT 24 34
REMARK Flexibility Score: inf
ROOT
ATOM      1  C   UNL     1      -4.991 -31.329 -51.686  1.00  0.00     0.017 C 
ATOM      2  C   UNL     1      -6.010 -30.438 -52.442  1.00  0.00     0.014 C 
ATOM      3  C   UNL     1      -4.591 -32.568 -52.528  1.00  0.00     0.014 C 
ATOM      4  C   UNL     1      -5.740 -31.893 -50.426  1.00  0.00     0.030 C 
ATOM      5  C   UNL     1      -6.502 -29.274 -51.548  1.00  0.00     0.004 C 
ATOM      6  C   UNL     1      -3.586 -33.516 -51.801  1.00  0.00     0.013 C 
ATOM      7  C   UNL     1      -5.136 -33.196 -49.848  1.00  0.00    -0.063 C 
ATOM      8  C   UNL     1      -6.211 -30.778 -49.443  1.00  0.00    -0.003 C 
ATOM      9  C   UNL     1      -7.116 -29.734 -50.195  1.00  0.00    -0.011 C 
ATOM     10  C   UNL     1      -3.683 -33.598 -50.213  1.00  0.00    -0.006 C 
ATOM     11  C   UNL     1      -6.042 -34.126 -49.431  1.00  0.00    -0.027 C 
ATOM     12  C   UNL     1      -6.892 -31.317 -48.172  1.00  0.00     0.008 C 
ATOM     13  C   UNL     1      -8.573 -30.198 -50.406  1.00  0.00     0.008 C 
ATOM     14  C   UNL     1      -2.688 -32.553 -49.590  1.00  0.00     0.017 C 
ATOM     15  C   UNL     1      -3.309 -35.070 -49.638  1.00  0.00    -0.020 C 
ATOM     16  C   UNL     1      -5.756 -35.575 -49.179  1.00  0.00     0.032 C 
ATOM     17  C   UNL     1      -4.508 -36.052 -49.952  1.00  0.00     0.006 C 
ATOM     18  C   UNL     1      -1.976 -35.585 -50.284  1.00  0.00     0.008 C 
ATOM     19  C   UNL     1      -3.086 -35.000 -48.083  1.00  0.00     0.012 C 
ATOM     20  C   UNL     1      -4.231 -37.627 -49.881  1.00  0.00    -0.025 C 
ATOM     21  C   UNL     1      -1.723 -37.079 -50.085  1.00  0.00     0.005 C 
ATOM     22  C   UNL     1      -2.899 -37.898 -50.675  1.00  0.00     0.003 C 
ATOM     23  C   UNL     1      -5.390 -38.370 -50.625  1.00  0.00     0.010 C 
ATOM     24  C   UNL     1      -4.190 -38.165 -48.409  1.00  0.00     0.012 C 
ATOM     25  C   UNL     1      -2.565 -39.406 -51.007  1.00  0.00    -0.006 C 
ATOM     26  C   UNL     1      -5.107 -39.856 -50.915  1.00  0.00     0.033 C 
ATOM     27  C   UNL     1      -3.805 -40.065 -51.700  1.00  0.00     0.120 C 
ATOM     28  C   UNL     1      -1.374 -39.485 -52.004  1.00  0.00     0.014 C 
ATOM     29  C   UNL     1      -2.143 -40.229 -49.762  1.00  0.00     0.014 C 
ENDROOT
BRANCH   1  30
ATOM     30  C   UNL     1      -3.748 -30.454 -51.483  1.00  0.00     0.048 C 
ATOM     31  O   UNL     1      -3.022 -30.169 -52.473  1.00  0.00    -0.550 OA
ATOM     32  O   UNL     1      -3.438 -29.865 -50.265  1.00  0.00    -0.550 OA
ENDBRANCH   1  30
BRANCH  27  33
ATOM     33  O   UNL     1      -3.989 -39.540 -52.994  1.00  0.00    -0.393 OA
ATOM     34  H   UNL     1      -4.836 -39.913 -53.352  1.00  0.00     0.210 HD
ENDBRANCH  27  33
TORSDOF 2
ENDMDL
MODEL 4
REMARK VINA RESULT:    -7.206      1.008      1.092
REMARK INTER + INTRA:          -7.444
REMARK INTER:                  -7.801
REMARK INTRA:                   0.356
REMARK UNBOUND:                 0.394
REMARK SMILES C[C@@H]1[C@H](C)CC[C@]2(C(=O)[O-])CC[C@@]3(C)C(=CC[C@@H]4[C@@]5(C)CC[C@@H](O)C(C)(C)[C@@H]5CC[C@]43C)[C@@H]12
REMARK SMILES IDX 7 1 6 2 11 3 33 4 5 5 12 6 15 7 2 8 3 9 13 10 16 11 1 12
REMARK SMILES IDX 4 13 14 14 31 15 17 16 18 17 30 18 32 19 19 20 29 21 28 22
REMARK SMILES IDX 21 23 20 24 25 25 22 26 23 27 26 28 27 29 8 30 9 31 10 32
REMARK SMILES IDX 24 33
REMARK H PARENT 24 34
REMARK Flexibility Score: inf
ROOT
ATOM      1  C   UNL     1      -6.972 -32.160 -49.067  1.00  0.00     0.017 C 
ATOM      2  C   UNL     1      -6.711 -30.975 -48.101  1.00  0.00     0.014 C 
ATOM      3  C   UNL     1      -6.569 -33.512 -48.424  1.00  0.00     0.014 C 
ATOM      4  C   UNL     1      -6.003 -31.962 -50.287  1.00  0.00     0.030 C 
ATOM      5  C   UNL     1      -6.994 -29.620 -48.793  1.00  0.00     0.004 C 
ATOM      6  C   UNL     1      -6.786 -34.738 -49.367  1.00  0.00     0.013 C 
ATOM      7  C   UNL     1      -5.690 -33.256 -51.077  1.00  0.00    -0.063 C 
ATOM      8  C   UNL     1      -6.271 -30.643 -51.075  1.00  0.00    -0.003 C 
ATOM      9  C   UNL     1      -6.193 -29.405 -50.108  1.00  0.00    -0.011 C 
ATOM     10  C   UNL     1      -6.619 -34.489 -50.932  1.00  0.00    -0.006 C 
ATOM     11  C   UNL     1      -4.397 -33.392 -51.489  1.00  0.00    -0.027 C 
ATOM     12  C   UNL     1      -5.372 -30.463 -52.311  1.00  0.00     0.008 C 
ATOM     13  C   UNL     1      -4.754 -28.947 -49.783  1.00  0.00     0.008 C 
ATOM     14  C   UNL     1      -8.027 -34.147 -51.543  1.00  0.00     0.017 C 
ATOM     15  C   UNL     1      -6.021 -35.783 -51.711  1.00  0.00    -0.020 C 
ATOM     16  C   UNL     1      -3.751 -34.667 -51.936  1.00  0.00     0.032 C 
ATOM     17  C   UNL     1      -4.481 -35.904 -51.374  1.00  0.00     0.006 C 
ATOM     18  C   UNL     1      -6.794 -37.079 -51.288  1.00  0.00     0.008 C 
ATOM     19  C   UNL     1      -6.203 -35.608 -53.263  1.00  0.00     0.012 C 
ATOM     20  C   UNL     1      -3.756 -37.303 -51.656  1.00  0.00    -0.025 C 
ATOM     21  C   UNL     1      -6.095 -38.380 -51.684  1.00  0.00     0.005 C 
ATOM     22  C   UNL     1      -4.679 -38.431 -51.058  1.00  0.00     0.003 C 
ATOM     23  C   UNL     1      -2.402 -37.329 -50.872  1.00  0.00     0.010 C 
ATOM     24  C   UNL     1      -3.430 -37.516 -53.174  1.00  0.00     0.012 C 
ATOM     25  C   UNL     1      -4.048 -39.875 -50.943  1.00  0.00    -0.006 C 
ATOM     26  C   UNL     1      -1.744 -38.719 -50.788  1.00  0.00     0.033 C 
ATOM     27  C   UNL     1      -2.679 -39.778 -50.190  1.00  0.00     0.120 C 
ATOM     28  C   UNL     1      -4.979 -40.800 -50.106  1.00  0.00     0.014 C 
ATOM     29  C   UNL     1      -3.862 -40.574 -52.314  1.00  0.00     0.014 C 
ENDROOT
BRANCH   1  30
ATOM     30  C   UNL     1      -8.486 -32.166 -49.312  1.00  0.00     0.048 C 
ATOM     31  O   UNL     1      -9.255 -32.638 -48.431  1.00  0.00    -0.550 OA
ATOM     32  O   UNL     1      -9.066 -31.574 -50.425  1.00  0.00    -0.550 OA
ENDBRANCH   1  30
BRANCH  27  33
ATOM     33  O   UNL     1      -2.880 -39.462 -48.831  1.00  0.00    -0.393 OA
ATOM     34  H   UNL     1      -2.254 -40.019 -48.298  1.00  0.00     0.210 HD
ENDBRANCH  27  33
TORSDOF 2
ENDMDL
MODEL 5
REMARK VINA RESULT:    -7.080      1.882      8.597
REMARK INTER + INTRA:          -7.307
REMARK INTER:                  -7.688
REMARK INTRA:                   0.381
REMARK UNBOUND:                 0.394
REMARK SMILES C[C@@H]1[C@H](C)CC[C@]2(C(=O)[O-])CC[C@@]3(C)C(=CC[C@@H]4[C@@]5(C)CC[C@@H](O)C(C)(C)[C@@H]5CC[C@]43C)[C@@H]12
REMARK SMILES IDX 7 1 6 2 11 3 33 4 5 5 12 6 15 7 2 8 3 9 13 10 16 11 1 12
REMARK SMILES IDX 4 13 14 14 31 15 17 16 18 17 30 18 32 19 19 20 29 21 28 22
REMARK SMILES IDX 21 23 20 24 25 25 22 26 23 27 26 28 27 29 8 30 9 31 10 32
REMARK SMILES IDX 24 33
REMARK H PARENT 24 34
REMARK Flexibility Score: inf
ROOT
ATOM      1  C   UNL     1      -3.571 -40.442 -50.505  1.00  0.00     0.017 C 
ATOM      2  C   UNL     1      -3.968 -41.934 -50.658  1.00  0.00     0.014 C 
ATOM      3  C   UNL     1      -4.605 -39.668 -49.646  1.00  0.00     0.014 C 
ATOM      4  C   UNL     1      -3.651 -39.810 -51.940  1.00  0.00     0.030 C 
ATOM      5  C   UNL     1      -3.005 -42.670 -51.619  1.00  0.00     0.004 C 
ATOM      6  C   UNL     1      -4.267 -38.153 -49.484  1.00  0.00     0.013 C 
ATOM      7  C   UNL     1      -3.840 -38.274 -51.958  1.00  0.00    -0.063 C 
ATOM      8  C   UNL     1      -2.660 -40.461 -52.952  1.00  0.00    -0.003 C 
ATOM      9  C   UNL     1      -2.895 -42.015 -53.025  1.00  0.00    -0.011 C 
ATOM     10  C   UNL     1      -3.506 -37.444 -50.691  1.00  0.00    -0.006 C 
ATOM     11  C   UNL     1      -4.698 -37.800 -52.905  1.00  0.00    -0.027 C 
ATOM     12  C   UNL     1      -2.681 -39.812 -54.348  1.00  0.00     0.008 C 
ATOM     13  C   UNL     1      -4.098 -42.431 -53.899  1.00  0.00     0.008 C 
ATOM     14  C   UNL     1      -1.958 -37.513 -50.424  1.00  0.00     0.017 C 
ATOM     15  C   UNL     1      -3.929 -35.886 -50.869  1.00  0.00    -0.020 C 
ATOM     16  C   UNL     1      -5.330 -36.442 -52.913  1.00  0.00     0.032 C 
ATOM     17  C   UNL     1      -5.378 -35.828 -51.499  1.00  0.00     0.006 C 
ATOM     18  C   UNL     1      -3.885 -35.148 -49.486  1.00  0.00     0.008 C 
ATOM     19  C   UNL     1      -2.914 -35.159 -51.826  1.00  0.00     0.012 C 
ATOM     20  C   UNL     1      -6.195 -34.455 -51.385  1.00  0.00    -0.025 C 
ATOM     21  C   UNL     1      -4.593 -33.793 -49.480  1.00  0.00     0.005 C 
ATOM     22  C   UNL     1      -6.076 -33.969 -49.892  1.00  0.00     0.003 C 
ATOM     23  C   UNL     1      -7.704 -34.749 -51.673  1.00  0.00     0.010 C 
ATOM     24  C   UNL     1      -5.713 -33.382 -52.421  1.00  0.00     0.012 C 
ATOM     25  C   UNL     1      -7.039 -32.797 -49.450  1.00  0.00    -0.006 C 
ATOM     26  C   UNL     1      -8.657 -33.599 -51.296  1.00  0.00     0.033 C 
ATOM     27  C   UNL     1      -8.511 -33.171 -49.830  1.00  0.00     0.120 C 
ATOM     28  C   UNL     1      -6.985 -32.613 -47.906  1.00  0.00     0.014 C 
ATOM     29  C   UNL     1      -6.655 -31.425 -50.062  1.00  0.00     0.014 C 
ENDROOT
BRANCH   1  30
ATOM     30  C   UNL     1      -2.227 -40.447 -49.768  1.00  0.00     0.048 C 
ATOM     31  O   UNL     1      -2.194 -40.728 -48.539  1.00  0.00    -0.550 OA
ATOM     32  O   UNL     1      -1.016 -40.258 -50.418  1.00  0.00    -0.550 OA
ENDBRANCH   1  30
BRANCH  27  33
ATOM     33  O   UNL     1      -8.981 -34.224 -49.021  1.00  0.00    -0.393 OA
ATOM     34  H   UNL     1      -9.746 -33.878 -48.492  1.00  0.00     0.210 HD
ENDBRANCH  27  33
TORSDOF 2
ENDMDL
MODEL 6
REMARK VINA RESULT:    -6.794      2.373      3.976
REMARK INTER + INTRA:          -6.996
REMARK INTER:                  -7.386
REMARK INTRA:                   0.390
REMARK UNBOUND:                 0.394
REMARK SMILES C[C@@H]1[C@H](C)CC[C@]2(C(=O)[O-])CC[C@@]3(C)C(=CC[C@@H]4[C@@]5(C)CC[C@@H](O)C(C)(C)[C@@H]5CC[C@]43C)[C@@H]12
REMARK SMILES IDX 7 1 6 2 11 3 33 4 5 5 12 6 15 7 2 8 3 9 13 10 16 11 1 12
REMARK SMILES IDX 4 13 14 14 31 15 17 16 18 17 30 18 32 19 19 20 29 21 28 22
REMARK SMILES IDX 21 23 20 24 25 25 22 26 23 27 26 28 27 29 8 30 9 31 10 32
REMARK SMILES IDX 24 33
REMARK H PARENT 24 34
REMARK Flexibility Score: inf
ROOT
ATOM      1  C   UNL     1      -7.911 -34.836 -51.080  1.00  0.00     0.017 C 
ATOM      2  C   UNL     1      -9.166 -34.368 -50.299  1.00  0.00     0.014 C 
ATOM      3  C   UNL     1      -7.900 -36.376 -51.261  1.00  0.00     0.014 C 
ATOM      4  C   UNL     1      -6.672 -34.503 -50.174  1.00  0.00     0.030 C 
ATOM      5  C   UNL     1      -9.108 -32.849 -50.010  1.00  0.00     0.004 C 
ATOM      6  C   UNL     1      -6.641 -36.903 -52.019  1.00  0.00     0.013 C 
ATOM      7  C   UNL     1      -5.410 -35.348 -50.474  1.00  0.00    -0.063 C 
ATOM      8  C   UNL     1      -6.510 -32.979 -49.892  1.00  0.00    -0.003 C 
ATOM      9  C   UNL     1      -7.826 -32.399 -49.253  1.00  0.00    -0.011 C 
ATOM     10  C   UNL     1      -5.285 -36.088 -51.832  1.00  0.00    -0.006 C 
ATOM     11  C   UNL     1      -4.705 -35.757 -49.381  1.00  0.00    -0.027 C 
ATOM     12  C   UNL     1      -5.266 -32.629 -49.056  1.00  0.00     0.008 C 
ATOM     13  C   UNL     1      -7.975 -32.688 -47.743  1.00  0.00     0.008 C 
ATOM     14  C   UNL     1      -5.169 -35.028 -52.987  1.00  0.00     0.017 C 
ATOM     15  C   UNL     1      -3.970 -37.040 -51.874  1.00  0.00    -0.020 C 
ATOM     16  C   UNL     1      -3.686 -36.854 -49.357  1.00  0.00     0.032 C 
ATOM     17  C   UNL     1      -3.893 -37.850 -50.517  1.00  0.00     0.006 C 
ATOM     18  C   UNL     1      -4.039 -38.010 -53.104  1.00  0.00     0.008 C 
ATOM     19  C   UNL     1      -2.675 -36.163 -52.033  1.00  0.00     0.012 C 
ATOM     20  C   UNL     1      -2.960 -39.149 -50.468  1.00  0.00    -0.025 C 
ATOM     21  C   UNL     1      -3.045 -39.169 -53.042  1.00  0.00     0.005 C 
ATOM     22  C   UNL     1      -3.281 -39.999 -51.754  1.00  0.00     0.003 C 
ATOM     23  C   UNL     1      -3.362 -40.003 -49.219  1.00  0.00     0.010 C 
ATOM     24  C   UNL     1      -1.440 -38.793 -50.330  1.00  0.00     0.012 C 
ATOM     25  C   UNL     1      -2.711 -41.471 -51.792  1.00  0.00    -0.006 C 
ATOM     26  C   UNL     1      -2.776 -41.427 -49.210  1.00  0.00     0.033 C 
ATOM     27  C   UNL     1      -3.126 -42.216 -50.478  1.00  0.00     0.120 C 
ATOM     28  C   UNL     1      -3.324 -42.253 -52.989  1.00  0.00     0.014 C 
ATOM     29  C   UNL     1      -1.172 -41.529 -51.980  1.00  0.00     0.014 C 
ENDROOT
BRANCH   1  30
ATOM     30  C   UNL     1      -8.018 -34.181 -52.463  1.00  0.00     0.048 C 
ATOM     31  O   UNL     1      -8.663 -34.764 -53.376  1.00  0.00    -0.550 OA
ATOM     32  O   UNL     1      -7.524 -32.912 -52.731  1.00  0.00    -0.550 OA
ENDBRANCH   1  30
BRANCH  27  33
ATOM     33  O   UNL     1      -4.513 -42.465 -50.466  1.00  0.00    -0.393 OA
ATOM     34  H   UNL     1      -4.646 -43.412 -50.201  1.00  0.00     0.210 HD
ENDBRANCH  27  33
TORSDOF 2
ENDMDL
MODEL 7
REMARK VINA RESULT:    -6.780      3.460      9.193
REMARK INTER + INTRA:          -6.981
REMARK INTER:                  -7.376
REMARK INTRA:                   0.395
REMARK UNBOUND:                 0.394
REMARK SMILES C[C@@H]1[C@H](C)CC[C@]2(C(=O)[O-])CC[C@@]3(C)C(=CC[C@@H]4[C@@]5(C)CC[C@@H](O)C(C)(C)[C@@H]5CC[C@]43C)[C@@H]12
REMARK SMILES IDX 7 1 6 2 11 3 33 4 5 5 12 6 15 7 2 8 3 9 13 10 16 11 1 12
REMARK SMILES IDX 4 13 14 14 31 15 17 16 18 17 30 18 32 19 19 20 29 21 28 22
REMARK SMILES IDX 21 23 20 24 25 25 22 26 23 27 26 28 27 29 8 30 9 31 10 32
REMARK SMILES IDX 24 33
REMARK H PARENT 24 34
REMARK Flexibility Score: inf
ROOT
ATOM      1  C   UNL     1      -3.806 -31.336 -50.288  1.00  0.00     0.017 C 
ATOM      2  C   UNL     1      -2.572 -32.101 -49.740  1.00  0.00     0.014 C 
ATOM      3  C   UNL     1      -3.796 -29.853 -49.836  1.00  0.00     0.014 C 
ATOM      4  C   UNL     1      -5.067 -31.981 -49.610  1.00  0.00     0.030 C 
ATOM      5  C   UNL     1      -2.653 -33.607 -50.086  1.00  0.00     0.004 C 
ATOM      6  C   UNL     1      -5.033 -29.043 -50.337  1.00  0.00     0.013 C 
ATOM      7  C   UNL     1      -6.313 -31.065 -49.566  1.00  0.00    -0.063 C 
ATOM      8  C   UNL     1      -5.250 -33.488 -49.966  1.00  0.00    -0.003 C 
ATOM      9  C   UNL     1      -3.955 -34.299 -49.593  1.00  0.00    -0.011 C 
ATOM     10  C   UNL     1      -6.402 -29.840 -50.515  1.00  0.00    -0.006 C 
ATOM     11  C   UNL     1      -7.037 -31.116 -48.412  1.00  0.00    -0.027 C 
ATOM     12  C   UNL     1      -6.516 -34.121 -49.360  1.00  0.00     0.008 C 
ATOM     13  C   UNL     1      -3.835 -34.642 -48.092  1.00  0.00     0.008 C 
ATOM     14  C   UNL     1      -6.504 -30.346 -52.000  1.00  0.00     0.017 C 
ATOM     15  C   UNL     1      -7.705 -28.927 -50.191  1.00  0.00    -0.020 C 
ATOM     16  C   UNL     1      -8.045 -30.102 -47.966  1.00  0.00     0.032 C 
ATOM     17  C   UNL     1      -7.803 -28.728 -48.626  1.00  0.00     0.006 C 
ATOM     18  C   UNL     1      -7.600 -27.547 -50.929  1.00  0.00     0.008 C 
ATOM     19  C   UNL     1      -9.005 -29.643 -50.709  1.00  0.00     0.012 C 
ATOM     20  C   UNL     1      -8.723 -27.541 -48.073  1.00  0.00    -0.025 C 
ATOM     21  C   UNL     1      -8.583 -26.492 -50.421  1.00  0.00     0.005 C 
ATOM     22  C   UNL     1      -8.366 -26.253 -48.906  1.00  0.00     0.003 C 
ATOM     23  C   UNL     1      -8.340 -27.267 -46.581  1.00  0.00     0.010 C 
ATOM     24  C   UNL     1     -10.250 -27.895 -48.113  1.00  0.00     0.012 C 
ATOM     25  C   UNL     1      -8.920 -24.879 -48.358  1.00  0.00    -0.006 C 
ATOM     26  C   UNL     1      -8.911 -25.955 -46.010  1.00  0.00     0.033 C 
ATOM     27  C   UNL     1      -8.525 -24.731 -46.850  1.00  0.00     0.120 C 
ATOM     28  C   UNL     1      -8.273 -23.694 -49.131  1.00  0.00     0.014 C 
ATOM     29  C   UNL     1     -10.453 -24.722 -48.532  1.00  0.00     0.014 C 
ENDROOT
BRANCH   1  30
ATOM     30  C   UNL     1      -3.675 -31.383 -51.815  1.00  0.00     0.048 C 
ATOM     31  O   UNL     1      -3.023 -30.483 -52.410  1.00  0.00    -0.550 OA
ATOM     32  O   UNL     1      -4.157 -32.440 -52.575  1.00  0.00    -0.550 OA
ENDBRANCH   1  30
BRANCH  27  33
ATOM     33  O   UNL     1      -7.136 -24.532 -46.718  1.00  0.00    -0.393 OA
ATOM     34  H   UNL     1      -6.906 -24.654 -45.760  1.00  0.00     0.210 HD
ENDBRANCH  27  33
TORSDOF 2
ENDMDL
MODEL 8
REMARK VINA RESULT:    -6.777      2.494      8.226
REMARK INTER + INTRA:          -6.977
REMARK INTER:                  -7.368
REMARK INTRA:                   0.390
REMARK UNBOUND:                 0.394
REMARK SMILES C[C@@H]1[C@H](C)CC[C@]2(C(=O)[O-])CC[C@@]3(C)C(=CC[C@@H]4[C@@]5(C)CC[C@@H](O)C(C)(C)[C@@H]5CC[C@]43C)[C@@H]12
REMARK SMILES IDX 7 1 6 2 11 3 33 4 5 5 12 6 15 7 2 8 3 9 13 10 16 11 1 12
REMARK SMILES IDX 4 13 14 14 31 15 17 16 18 17 30 18 32 19 19 20 29 21 28 22
REMARK SMILES IDX 21 23 20 24 25 25 22 26 23 27 26 28 27 29 8 30 9 31 10 32
REMARK SMILES IDX 24 33
REMARK H PARENT 24 34
REMARK Flexibility Score: inf
ROOT
ATOM      1  C   UNL     1      -6.676 -34.085 -52.367  1.00  0.00     0.017 C 
ATOM      2  C   UNL     1      -5.650 -34.551 -53.434  1.00  0.00     0.014 C 
ATOM      3  C   UNL     1      -7.116 -32.618 -52.611  1.00  0.00     0.014 C 
ATOM      4  C   UNL     1      -5.918 -34.081 -50.992  1.00  0.00     0.030 C 
ATOM      5  C   UNL     1      -5.120 -35.968 -53.113  1.00  0.00     0.004 C 
ATOM      6  C   UNL     1      -8.128 -32.089 -51.547  1.00  0.00     0.013 C 
ATOM      7  C   UNL     1      -6.540 -33.157 -49.917  1.00  0.00    -0.063 C 
ATOM      8  C   UNL     1      -5.408 -35.492 -50.570  1.00  0.00    -0.003 C 
ATOM      9  C   UNL     1      -4.493 -36.101 -51.696  1.00  0.00    -0.011 C 
ATOM     10  C   UNL     1      -8.007 -32.677 -50.071  1.00  0.00    -0.006 C 
ATOM     11  C   UNL     1      -5.648 -32.463 -49.154  1.00  0.00    -0.027 C 
ATOM     12  C   UNL     1      -4.717 -35.518 -49.195  1.00  0.00     0.008 C 
ATOM     13  C   UNL     1      -3.049 -35.554 -51.702  1.00  0.00     0.008 C 
ATOM     14  C   UNL     1      -8.969 -33.913 -49.938  1.00  0.00     0.017 C 
ATOM     15  C   UNL     1      -8.403 -31.591 -48.930  1.00  0.00    -0.020 C 
ATOM     16  C   UNL     1      -5.961 -31.262 -48.317  1.00  0.00     0.032 C 
ATOM     17  C   UNL     1      -7.230 -30.537 -48.811  1.00  0.00     0.006 C 
ATOM     18  C   UNL     1      -9.757 -30.889 -49.292  1.00  0.00     0.008 C 
ATOM     19  C   UNL     1      -8.599 -32.313 -47.546  1.00  0.00     0.012 C 
ATOM     20  C   UNL     1      -7.540 -29.144 -48.085  1.00  0.00    -0.025 C 
ATOM     21  C   UNL     1     -10.039 -29.622 -48.484  1.00  0.00     0.005 C 
ATOM     22  C   UNL     1      -8.891 -28.601 -48.684  1.00  0.00     0.003 C 
ATOM     23  C   UNL     1      -6.410 -28.128 -48.456  1.00  0.00     0.010 C 
ATOM     24  C   UNL     1      -7.568 -29.274 -46.523  1.00  0.00     0.012 C 
ATOM     25  C   UNL     1      -9.261 -27.102 -48.350  1.00  0.00    -0.006 C 
ATOM     26  C   UNL     1      -6.728 -26.665 -48.094  1.00  0.00     0.033 C 
ATOM     27  C   UNL     1      -8.047 -26.181 -48.711  1.00  0.00     0.120 C 
ATOM     28  C   UNL     1     -10.471 -26.644 -49.215  1.00  0.00     0.014 C 
ATOM     29  C   UNL     1      -9.681 -26.888 -46.873  1.00  0.00     0.014 C 
ENDROOT
BRANCH   1  30
ATOM     30  C   UNL     1      -7.896 -34.997 -52.543  1.00  0.00     0.048 C 
ATOM     31  O   UNL     1      -8.637 -34.855 -53.553  1.00  0.00    -0.550 OA
ATOM     32  O   UNL     1      -8.169 -36.055 -51.687  1.00  0.00    -0.550 OA
ENDBRANCH   1  30
BRANCH  27  33
ATOM     33  O   UNL     1      -7.874 -26.111 -50.108  1.00  0.00    -0.393 OA
ATOM     34  H   UNL     1      -6.927 -26.332 -50.304  1.00  0.00     0.210 HD
ENDBRANCH  27  33
TORSDOF 2
ENDMDL
MODEL 9
REMARK VINA RESULT:    -6.753      2.236      8.372
REMARK INTER + INTRA:          -6.952
REMARK INTER:                  -7.314
REMARK INTRA:                   0.363
REMARK UNBOUND:                 0.394
REMARK SMILES C[C@@H]1[C@H](C)CC[C@]2(C(=O)[O-])CC[C@@]3(C)C(=CC[C@@H]4[C@@]5(C)CC[C@@H](O)C(C)(C)[C@@H]5CC[C@]43C)[C@@H]12
REMARK SMILES IDX 7 1 6 2 11 3 33 4 5 5 12 6 15 7 2 8 3 9 13 10 16 11 1 12
REMARK SMILES IDX 4 13 14 14 31 15 17 16 18 17 30 18 32 19 19 20 29 21 28 22
REMARK SMILES IDX 21 23 20 24 25 25 22 26 23 27 26 28 27 29 8 30 9 31 10 32
REMARK SMILES IDX 24 33
REMARK H PARENT 24 34
REMARK Flexibility Score: inf
ROOT
ATOM      1  C   UNL     1      -4.908 -34.480 -49.570  1.00  0.00     0.017 C 
ATOM      2  C   UNL     1      -5.166 -35.953 -49.156  1.00  0.00     0.014 C 
ATOM      3  C   UNL     1      -5.271 -33.500 -48.425  1.00  0.00     0.014 C 
ATOM      4  C   UNL     1      -5.911 -34.164 -50.737  1.00  0.00     0.030 C 
ATOM      5  C   UNL     1      -4.925 -36.915 -50.344  1.00  0.00     0.004 C 
ATOM      6  C   UNL     1      -5.057 -32.000 -48.800  1.00  0.00     0.013 C 
ATOM      7  C   UNL     1      -6.222 -32.660 -50.928  1.00  0.00    -0.063 C 
ATOM      8  C   UNL     1      -5.687 -35.055 -51.997  1.00  0.00    -0.003 C 
ATOM      9  C   UNL     1      -5.762 -36.578 -51.609  1.00  0.00    -0.011 C 
ATOM     10  C   UNL     1      -5.268 -31.595 -50.327  1.00  0.00    -0.006 C 
ATOM     11  C   UNL     1      -7.522 -32.362 -51.211  1.00  0.00    -0.027 C 
ATOM     12  C   UNL     1      -6.621 -34.716 -53.172  1.00  0.00     0.008 C 
ATOM     13  C   UNL     1      -7.200 -37.119 -51.452  1.00  0.00     0.008 C 
ATOM     14  C   UNL     1      -3.882 -31.670 -51.066  1.00  0.00     0.017 C 
ATOM     15  C   UNL     1      -5.863 -30.094 -50.500  1.00  0.00    -0.020 C 
ATOM     16  C   UNL     1      -8.157 -31.011 -51.086  1.00  0.00     0.032 C 
ATOM     17  C   UNL     1      -7.391 -30.110 -50.095  1.00  0.00     0.006 C 
ATOM     18  C   UNL     1      -5.056 -29.083 -49.613  1.00  0.00     0.008 C 
ATOM     19  C   UNL     1      -5.723 -29.629 -51.995  1.00  0.00     0.012 C 
ATOM     20  C   UNL     1      -8.099 -28.712 -49.767  1.00  0.00    -0.025 C 
ATOM     21  C   UNL     1      -5.742 -27.729 -49.430  1.00  0.00     0.005 C 
ATOM     22  C   UNL     1      -7.141 -27.926 -48.794  1.00  0.00     0.003 C 
ATOM     23  C   UNL     1      -9.431 -28.997 -48.998  1.00  0.00     0.010 C 
ATOM     24  C   UNL     1      -8.460 -27.903 -51.060  1.00  0.00     0.012 C 
ATOM     25  C   UNL     1      -7.743 -26.648 -48.087  1.00  0.00    -0.006 C 
ATOM     26  C   UNL     1     -10.063 -27.755 -48.342  1.00  0.00     0.033 C 
ATOM     27  C   UNL     1      -9.094 -27.033 -47.396  1.00  0.00     0.120 C 
ATOM     28  C   UNL     1      -6.775 -26.144 -46.978  1.00  0.00     0.014 C 
ATOM     29  C   UNL     1      -7.952 -25.454 -49.054  1.00  0.00     0.014 C 
ENDROOT
BRANCH   1  30
ATOM     30  C   UNL     1      -3.402 -34.385 -49.838  1.00  0.00     0.048 C 
ATOM     31  O   UNL     1      -2.600 -34.346 -48.866  1.00  0.00    -0.550 OA
ATOM     32  O   UNL     1      -2.863 -34.447 -51.116  1.00  0.00    -0.550 OA
ENDBRANCH   1  30
BRANCH  27  33
ATOM     33  O   UNL     1      -8.864 -27.870 -46.286  1.00  0.00    -0.393 OA
ATOM     34  H   UNL     1      -9.645 -27.785 -45.680  1.00  0.00     0.210 HD
ENDBRANCH  27  33
TORSDOF 2
ENDMDL
