MODEL 1
REMARK VINA RESULT:    -5.953      0.000      0.000
REMARK INTER + INTRA:          -7.374
REMARK INTER:                  -7.170
REMARK INTRA:                  -0.204
REMARK UNBOUND:                -0.204
REMARK SMILES O=c1c(O)c(-c2ccc(O)c(O)c2)oc2cc(O)cc(O)c12
REMARK SMILES IDX 5 1 3 2 2 3 1 4 22 5 20 6 19 7 17 8 16 9 15 10 14 11 6 12
REMARK SMILES IDX 7 13 8 14 9 15 13 16 11 17 10 18 12 20 4 22 21 24 18 26
REMARK H PARENT 10 19 12 21 4 23 21 25 18 27
REMARK Flexibility Score: inf
ROOT
ATOM      1  C   UNL     1      60.256 146.952 -17.604  1.00  0.00     0.180 A 
ATOM      2  C   UNL     1      60.934 147.017 -18.833  1.00  0.00     0.208 A 
ATOM      3  C   UNL     1      61.378 145.825 -19.430  1.00  0.00     0.238 A 
ATOM      4  O   UNL     1      61.937 145.885 -20.557  1.00  0.00    -0.285 OA
ATOM      5  C   UNL     1      61.154 144.588 -18.782  1.00  0.00     0.111 A 
ATOM      6  C   UNL     1      61.596 143.323 -19.275  1.00  0.00     0.134 A 
ATOM      7  C   UNL     1      61.204 142.150 -18.618  1.00  0.00     0.093 A 
ATOM      8  C   UNL     1      60.441 142.200 -17.449  1.00  0.00     0.123 A 
ATOM      9  C   UNL     1      60.056 143.432 -16.927  1.00  0.00     0.094 A 
ATOM     10  C   UNL     1      60.401 144.618 -17.580  1.00  0.00     0.146 A 
ATOM     11  O   UNL     1      60.003 145.771 -17.054  1.00  0.00    -0.452 OA
ENDROOT
BRANCH   1  12
ATOM     12  C   UNL     1      59.780 148.166 -16.902  1.00  0.00     0.025 A 
ATOM     13  C   UNL     1      60.428 148.586 -15.732  1.00  0.00     0.016 A 
ATOM     14  C   UNL     1      60.008 149.740 -15.065  1.00  0.00     0.051 A 
ATOM     15  C   UNL     1      58.946 150.498 -15.565  1.00  0.00     0.157 A 
ATOM     16  C   UNL     1      58.724 148.942 -17.416  1.00  0.00     0.062 A 
ATOM     17  C   UNL     1      58.302 150.101 -16.749  1.00  0.00     0.158 A 
BRANCH  15  18
ATOM     18  O   UNL     1      58.546 151.643 -14.876  1.00  0.00    -0.504 OA
ATOM     19  H   UNL     1      58.918 152.560 -15.095  1.00  0.00     0.293 HD
ENDBRANCH  15  18
BRANCH  17  20
ATOM     20  O   UNL     1      57.251 150.860 -17.261  1.00  0.00    -0.504 OA
ATOM     21  H   UNL     1      57.410 151.759 -17.701  1.00  0.00     0.293 HD
ENDBRANCH  17  20
ENDBRANCH   1  12
BRANCH   2  22
ATOM     22  O   UNL     1      61.126 148.248 -19.467  1.00  0.00    -0.502 OA
ATOM     23  H   UNL     1      61.110 149.127 -18.965  1.00  0.00     0.293 HD
ENDBRANCH   2  22
BRANCH   6  24
ATOM     24  O   UNL     1      62.437 143.168 -20.382  1.00  0.00    -0.507 OA
ATOM     25  H   UNL     1      63.438 143.289 -20.364  1.00  0.00     0.293 HD
ENDBRANCH   6  24
BRANCH   8  26
ATOM     26  O   UNL     1      60.070 141.029 -16.792  1.00  0.00    -0.508 OA
ATOM     27  H   UNL     1      60.688 140.227 -16.747  1.00  0.00     0.293 HD
ENDBRANCH   8  26
TORSDOF 6
ENDMDL
MODEL 2
REMARK VINA RESULT:    -5.921     11.316     13.932
REMARK INTER + INTRA:          -7.336
REMARK INTER:                  -7.027
REMARK INTRA:                  -0.309
REMARK UNBOUND:                -0.204
REMARK SMILES O=c1c(O)c(-c2ccc(O)c(O)c2)oc2cc(O)cc(O)c12
REMARK SMILES IDX 5 1 3 2 2 3 1 4 22 5 20 6 19 7 17 8 16 9 15 10 14 11 6 12
REMARK SMILES IDX 7 13 8 14 9 15 13 16 11 17 10 18 12 20 4 22 21 24 18 26
REMARK H PARENT 10 19 12 21 4 23 21 25 18 27
REMARK Flexibility Score: inf
ROOT
ATOM      1  C   UNL     1      60.738 155.719 -25.863  1.00  0.00     0.180 A 
ATOM      2  C   UNL     1      59.558 156.267 -26.395  1.00  0.00     0.208 A 
ATOM      3  C   UNL     1      58.802 157.150 -25.607  1.00  0.00     0.238 A 
ATOM      4  O   UNL     1      57.775 157.679 -26.108  1.00  0.00    -0.285 OA
ATOM      5  C   UNL     1      59.226 157.460 -24.293  1.00  0.00     0.111 A 
ATOM      6  C   UNL     1      58.516 158.311 -23.392  1.00  0.00     0.134 A 
ATOM      7  C   UNL     1      59.095 158.652 -22.163  1.00  0.00     0.093 A 
ATOM      8  C   UNL     1      60.328 158.122 -21.776  1.00  0.00     0.123 A 
ATOM      9  C   UNL     1      61.000 157.244 -22.623  1.00  0.00     0.094 A 
ATOM     10  C   UNL     1      60.464 156.914 -23.871  1.00  0.00     0.146 A 
ATOM     11  O   UNL     1      61.144 156.082 -24.652  1.00  0.00    -0.452 OA
ENDROOT
BRANCH   1  12
ATOM     12  C   UNL     1      61.575 154.763 -26.623  1.00  0.00     0.025 A 
ATOM     13  C   UNL     1      62.767 155.207 -27.214  1.00  0.00     0.016 A 
ATOM     14  C   UNL     1      63.583 154.316 -27.918  1.00  0.00     0.051 A 
ATOM     15  C   UNL     1      63.228 152.969 -28.027  1.00  0.00     0.157 A 
ATOM     16  C   UNL     1      61.231 153.402 -26.716  1.00  0.00     0.062 A 
ATOM     17  C   UNL     1      62.049 152.507 -27.420  1.00  0.00     0.158 A 
BRANCH  15  18
ATOM     18  O   UNL     1      64.060 152.104 -28.738  1.00  0.00    -0.504 OA
ATOM     19  H   UNL     1      65.059 152.063 -28.575  1.00  0.00     0.293 HD
ENDBRANCH  15  18
BRANCH  17  20
ATOM     20  O   UNL     1      61.696 151.161 -27.514  1.00  0.00    -0.504 OA
ATOM     21  H   UNL     1      62.397 150.431 -27.576  1.00  0.00     0.293 HD
ENDBRANCH  17  20
ENDBRANCH   1  12
BRANCH   2  22
ATOM     22  O   UNL     1      59.169 155.963 -27.702  1.00  0.00    -0.502 OA
ATOM     23  H   UNL     1      58.235 156.146 -28.048  1.00  0.00     0.293 HD
ENDBRANCH   2  22
BRANCH   6  24
ATOM     24  O   UNL     1      57.238 158.820 -23.643  1.00  0.00    -0.507 OA
ATOM     25  H   UNL     1      56.510 158.326 -24.136  1.00  0.00     0.293 HD
ENDBRANCH   6  24
BRANCH   8  26
ATOM     26  O   UNL     1      60.889 158.455 -20.545  1.00  0.00    -0.508 OA
ATOM     27  H   UNL     1      60.365 158.367 -19.682  1.00  0.00     0.293 HD
ENDBRANCH   8  26
TORSDOF 6
ENDMDL
MODEL 3
REMARK VINA RESULT:    -5.892     11.593     14.631
REMARK INTER + INTRA:          -7.302
REMARK INTER:                  -6.983
REMARK INTRA:                  -0.319
REMARK UNBOUND:                -0.204
REMARK SMILES O=c1c(O)c(-c2ccc(O)c(O)c2)oc2cc(O)cc(O)c12
REMARK SMILES IDX 5 1 3 2 2 3 1 4 22 5 20 6 19 7 17 8 16 9 15 10 14 11 6 12
REMARK SMILES IDX 7 13 8 14 9 15 13 16 11 17 10 18 12 20 4 22 21 24 18 26
REMARK H PARENT 10 19 12 21 4 23 21 25 18 27
REMARK Flexibility Score: inf
ROOT
ATOM      1  C   UNL     1      60.238 155.594 -26.432  1.00  0.00     0.180 A 
ATOM      2  C   UNL     1      60.230 155.943 -25.072  1.00  0.00     0.208 A 
ATOM      3  C   UNL     1      59.278 156.868 -24.611  1.00  0.00     0.238 A 
ATOM      4  O   UNL     1      59.242 157.136 -23.382  1.00  0.00    -0.285 OA
ATOM      5  C   UNL     1      58.360 157.444 -25.520  1.00  0.00     0.111 A 
ATOM      6  C   UNL     1      57.380 158.422 -25.172  1.00  0.00     0.134 A 
ATOM      7  C   UNL     1      56.436 158.826 -26.125  1.00  0.00     0.093 A 
ATOM      8  C   UNL     1      56.479 158.335 -27.433  1.00  0.00     0.123 A 
ATOM      9  C   UNL     1      57.469 157.426 -27.798  1.00  0.00     0.094 A 
ATOM     10  C   UNL     1      58.401 156.977 -26.859  1.00  0.00     0.146 A 
ATOM     11  O   UNL     1      59.321 156.101 -27.247  1.00  0.00    -0.452 OA
ENDROOT
BRANCH   1  12
ATOM     12  C   UNL     1      61.225 154.645 -26.997  1.00  0.00     0.025 A 
ATOM     13  C   UNL     1      62.488 155.114 -27.388  1.00  0.00     0.016 A 
ATOM     14  C   UNL     1      63.442 154.232 -27.904  1.00  0.00     0.051 A 
ATOM     15  C   UNL     1      63.155 152.870 -28.021  1.00  0.00     0.157 A 
ATOM     16  C   UNL     1      60.946 153.270 -27.096  1.00  0.00     0.062 A 
ATOM     17  C   UNL     1      61.902 152.384 -27.612  1.00  0.00     0.158 A 
BRANCH  15  18
ATOM     18  O   UNL     1      64.125 152.014 -28.542  1.00  0.00    -0.504 OA
ATOM     19  H   UNL     1      65.107 152.114 -28.317  1.00  0.00     0.293 HD
ENDBRANCH  15  18
BRANCH  17  20
ATOM     20  O   UNL     1      61.613 151.024 -27.713  1.00  0.00    -0.504 OA
ATOM     21  H   UNL     1      62.063 150.435 -28.406  1.00  0.00     0.293 HD
ENDBRANCH  17  20
ENDBRANCH   1  12
BRANCH   2  22
ATOM     22  O   UNL     1      61.133 155.347 -24.187  1.00  0.00    -0.502 OA
ATOM     23  H   UNL     1      61.622 155.871 -23.473  1.00  0.00     0.293 HD
ENDBRANCH   2  22
BRANCH   6  24
ATOM     24  O   UNL     1      57.308 159.043 -23.921  1.00  0.00    -0.507 OA
ATOM     25  H   UNL     1      56.911 159.955 -23.754  1.00  0.00     0.293 HD
ENDBRANCH   6  24
BRANCH   8  26
ATOM     26  O   UNL     1      55.547 158.754 -28.379  1.00  0.00    -0.508 OA
ATOM     27  H   UNL     1      55.507 158.341 -29.304  1.00  0.00     0.293 HD
ENDBRANCH   8  26
TORSDOF 6
ENDMDL
MODEL 4
REMARK VINA RESULT:    -5.723      2.168      3.556
REMARK INTER + INTRA:          -7.098
REMARK INTER:                  -6.784
REMARK INTRA:                  -0.314
REMARK UNBOUND:                -0.204
REMARK SMILES O=c1c(O)c(-c2ccc(O)c(O)c2)oc2cc(O)cc(O)c12
REMARK SMILES IDX 5 1 3 2 2 3 1 4 22 5 20 6 19 7 17 8 16 9 15 10 14 11 6 12
REMARK SMILES IDX 7 13 8 14 9 15 13 16 11 17 10 18 12 20 4 22 21 24 18 26
REMARK H PARENT 10 19 12 21 4 23 21 25 18 27
REMARK Flexibility Score: inf
ROOT
ATOM      1  C   UNL     1      60.158 145.872 -18.674  1.00  0.00     0.180 A 
ATOM      2  C   UNL     1      59.338 144.736 -18.572  1.00  0.00     0.208 A 
ATOM      3  C   UNL     1      59.433 143.736 -19.554  1.00  0.00     0.238 A 
ATOM      4  O   UNL     1      58.734 142.697 -19.427  1.00  0.00    -0.285 OA
ATOM      5  C   UNL     1      60.334 143.893 -20.633  1.00  0.00     0.111 A 
ATOM      6  C   UNL     1      60.484 142.963 -21.706  1.00  0.00     0.134 A 
ATOM      7  C   UNL     1      61.499 143.156 -22.651  1.00  0.00     0.093 A 
ATOM      8  C   UNL     1      62.327 144.280 -22.599  1.00  0.00     0.123 A 
ATOM      9  C   UNL     1      62.149 145.224 -21.591  1.00  0.00     0.094 A 
ATOM     10  C   UNL     1      61.169 145.040 -20.612  1.00  0.00     0.146 A 
ATOM     11  O   UNL     1      61.041 145.959 -19.662  1.00  0.00    -0.452 OA
ENDROOT
BRANCH   1  12
ATOM     12  C   UNL     1      60.099 146.979 -17.692  1.00  0.00     0.025 A 
ATOM     13  C   UNL     1      60.861 146.901 -16.517  1.00  0.00     0.016 A 
ATOM     14  C   UNL     1      60.835 147.943 -15.586  1.00  0.00     0.051 A 
ATOM     15  C   UNL     1      60.062 149.083 -15.823  1.00  0.00     0.157 A 
ATOM     16  C   UNL     1      59.338 148.136 -17.938  1.00  0.00     0.062 A 
ATOM     17  C   UNL     1      59.312 149.184 -17.006  1.00  0.00     0.158 A 
BRANCH  15  18
ATOM     18  O   UNL     1      60.054 150.106 -14.875  1.00  0.00    -0.504 OA
ATOM     19  H   UNL     1      60.149 149.922 -13.884  1.00  0.00     0.293 HD
ENDBRANCH  15  18
BRANCH  17  20
ATOM     20  O   UNL     1      58.549 150.324 -17.255  1.00  0.00    -0.504 OA
ATOM     21  H   UNL     1      57.537 150.291 -17.280  1.00  0.00     0.293 HD
ENDBRANCH  17  20
ENDBRANCH   1  12
BRANCH   2  22
ATOM     22  O   UNL     1      58.469 144.591 -17.486  1.00  0.00    -0.502 OA
ATOM     23  H   UNL     1      58.194 145.370 -16.902  1.00  0.00     0.293 HD
ENDBRANCH   2  22
BRANCH   6  24
ATOM     24  O   UNL     1      59.650 141.858 -21.902  1.00  0.00    -0.507 OA
ATOM     25  H   UNL     1      59.610 141.054 -21.294  1.00  0.00     0.293 HD
ENDBRANCH   6  24
BRANCH   8  26
ATOM     26  O   UNL     1      63.324 144.472 -23.552  1.00  0.00    -0.508 OA
ATOM     27  H   UNL     1      63.612 145.400 -23.840  1.00  0.00     0.293 HD
ENDBRANCH   8  26
TORSDOF 6
ENDMDL
MODEL 5
REMARK VINA RESULT:    -5.699     11.588     14.264
REMARK INTER + INTRA:          -7.069
REMARK INTER:                  -6.748
REMARK INTRA:                  -0.320
REMARK UNBOUND:                -0.204
REMARK SMILES O=c1c(O)c(-c2ccc(O)c(O)c2)oc2cc(O)cc(O)c12
REMARK SMILES IDX 5 1 3 2 2 3 1 4 22 5 20 6 19 7 17 8 16 9 15 10 14 11 6 12
REMARK SMILES IDX 7 13 8 14 9 15 13 16 11 17 10 18 12 20 4 22 21 24 18 26
REMARK H PARENT 10 19 12 21 4 23 21 25 18 27
REMARK Flexibility Score: inf
ROOT
ATOM      1  C   UNL     1      59.422 156.193 -26.139  1.00  0.00     0.180 A 
ATOM      2  C   UNL     1      58.385 156.636 -26.976  1.00  0.00     0.208 A 
ATOM      3  C   UNL     1      57.261 157.252 -26.400  1.00  0.00     0.238 A 
ATOM      4  O   UNL     1      56.360 157.695 -27.159  1.00  0.00    -0.285 OA
ATOM      5  C   UNL     1      57.182 157.401 -24.995  1.00  0.00     0.111 A 
ATOM      6  C   UNL     1      56.074 157.972 -24.301  1.00  0.00     0.134 A 
ATOM      7  C   UNL     1      56.160 158.189 -22.920  1.00  0.00     0.093 A 
ATOM      8  C   UNL     1      57.289 157.795 -22.199  1.00  0.00     0.123 A 
ATOM      9  C   UNL     1      58.351 157.181 -22.858  1.00  0.00     0.094 A 
ATOM     10  C   UNL     1      58.309 156.985 -24.241  1.00  0.00     0.146 A 
ATOM     11  O   UNL     1      59.349 156.407 -24.831  1.00  0.00    -0.452 OA
ENDROOT
BRANCH   1  12
ATOM     12  C   UNL     1      60.626 155.513 -26.669  1.00  0.00     0.025 A 
ATOM     13  C   UNL     1      61.728 156.279 -27.078  1.00  0.00     0.016 A 
ATOM     14  C   UNL     1      62.883 155.658 -27.562  1.00  0.00     0.051 A 
ATOM     15  C   UNL     1      62.959 154.264 -27.630  1.00  0.00     0.157 A 
ATOM     16  C   UNL     1      60.714 154.110 -26.718  1.00  0.00     0.062 A 
ATOM     17  C   UNL     1      61.872 153.484 -27.202  1.00  0.00     0.158 A 
BRANCH  15  18
ATOM     18  O   UNL     1      64.123 153.672 -28.120  1.00  0.00    -0.504 OA
ATOM     19  H   UNL     1      64.805 153.238 -27.509  1.00  0.00     0.293 HD
ENDBRANCH  15  18
BRANCH  17  20
ATOM     20  O   UNL     1      61.946 152.093 -27.255  1.00  0.00    -0.504 OA
ATOM     21  H   UNL     1      62.157 151.541 -26.431  1.00  0.00     0.293 HD
ENDBRANCH  17  20
ENDBRANCH   1  12
BRANCH   2  22
ATOM     22  O   UNL     1      58.492 156.499 -28.363  1.00  0.00    -0.502 OA
ATOM     23  H   UNL     1      58.027 157.124 -29.009  1.00  0.00     0.293 HD
ENDBRANCH   2  22
BRANCH   6  24
ATOM     24  O   UNL     1      54.864 158.317 -24.913  1.00  0.00    -0.507 OA
ATOM     25  H   UNL     1      54.750 158.499 -25.898  1.00  0.00     0.293 HD
ENDBRANCH   6  24
BRANCH   8  26
ATOM     26  O   UNL     1      57.360 157.999 -20.823  1.00  0.00    -0.508 OA
ATOM     27  H   UNL     1      58.076 157.560 -20.257  1.00  0.00     0.293 HD
ENDBRANCH   8  26
TORSDOF 6
ENDMDL
MODEL 6
REMARK VINA RESULT:    -5.629      4.963      8.331
REMARK INTER + INTRA:          -6.984
REMARK INTER:                  -6.818
REMARK INTRA:                  -0.167
REMARK UNBOUND:                -0.204
REMARK SMILES O=c1c(O)c(-c2ccc(O)c(O)c2)oc2cc(O)cc(O)c12
REMARK SMILES IDX 5 1 3 2 2 3 1 4 22 5 20 6 19 7 17 8 16 9 15 10 14 11 6 12
REMARK SMILES IDX 7 13 8 14 9 15 13 16 11 17 10 18 12 20 4 22 21 24 18 26
REMARK H PARENT 10 19 12 21 4 23 21 25 18 27
REMARK Flexibility Score: inf
ROOT
ATOM      1  C   UNL     1      58.176 142.002 -21.386  1.00  0.00     0.180 A 
ATOM      2  C   UNL     1      58.482 143.373 -21.403  1.00  0.00     0.208 A 
ATOM      3  C   UNL     1      58.821 144.011 -20.198  1.00  0.00     0.238 A 
ATOM      4  O   UNL     1      59.145 145.226 -20.228  1.00  0.00    -0.285 OA
ATOM      5  C   UNL     1      58.834 143.272 -18.991  1.00  0.00     0.111 A 
ATOM      6  C   UNL     1      59.123 143.825 -17.707  1.00  0.00     0.134 A 
ATOM      7  C   UNL     1      59.236 142.975 -16.599  1.00  0.00     0.093 A 
ATOM      8  C   UNL     1      59.006 141.603 -16.718  1.00  0.00     0.123 A 
ATOM      9  C   UNL     1      58.664 141.063 -17.955  1.00  0.00     0.094 A 
ATOM     10  C   UNL     1      58.580 141.880 -19.086  1.00  0.00     0.146 A 
ATOM     11  O   UNL     1      58.262 141.323 -20.248  1.00  0.00    -0.452 OA
ENDROOT
BRANCH   1  12
ATOM     12  C   UNL     1      57.786 141.266 -22.611  1.00  0.00     0.025 A 
ATOM     13  C   UNL     1      58.559 140.175 -23.037  1.00  0.00     0.016 A 
ATOM     14  C   UNL     1      58.198 139.454 -24.178  1.00  0.00     0.051 A 
ATOM     15  C   UNL     1      57.052 139.800 -24.899  1.00  0.00     0.157 A 
ATOM     16  C   UNL     1      56.622 141.600 -23.326  1.00  0.00     0.062 A 
ATOM     17  C   UNL     1      56.257 140.876 -24.471  1.00  0.00     0.158 A 
BRANCH  15  18
ATOM     18  O   UNL     1      56.718 139.064 -26.036  1.00  0.00    -0.504 OA
ATOM     19  H   UNL     1      57.420 138.622 -26.616  1.00  0.00     0.293 HD
ENDBRANCH  15  18
BRANCH  17  20
ATOM     20  O   UNL     1      55.106 141.219 -25.178  1.00  0.00    -0.504 OA
ATOM     21  H   UNL     1      55.144 141.809 -26.001  1.00  0.00     0.293 HD
ENDBRANCH  17  20
ENDBRANCH   1  12
BRANCH   2  22
ATOM     22  O   UNL     1      58.483 144.078 -22.610  1.00  0.00    -0.502 OA
ATOM     23  H   UNL     1      57.918 144.905 -22.758  1.00  0.00     0.293 HD
ENDBRANCH   2  22
BRANCH   6  24
ATOM     24  O   UNL     1      59.279 145.193 -17.463  1.00  0.00    -0.507 OA
ATOM     25  H   UNL     1      59.148 145.917 -18.152  1.00  0.00     0.293 HD
ENDBRANCH   6  24
BRANCH   8  26
ATOM     26  O   UNL     1      59.105 140.767 -15.607  1.00  0.00    -0.508 OA
ATOM     27  H   UNL     1      59.454 139.820 -15.686  1.00  0.00     0.293 HD
ENDBRANCH   8  26
TORSDOF 6
ENDMDL
MODEL 7
REMARK VINA RESULT:    -5.518      5.206      6.971
REMARK INTER + INTRA:          -6.851
REMARK INTER:                  -6.536
REMARK INTRA:                  -0.315
REMARK UNBOUND:                -0.204
REMARK SMILES O=c1c(O)c(-c2ccc(O)c(O)c2)oc2cc(O)cc(O)c12
REMARK SMILES IDX 5 1 3 2 2 3 1 4 22 5 20 6 19 7 17 8 16 9 15 10 14 11 6 12
REMARK SMILES IDX 7 13 8 14 9 15 13 16 11 17 10 18 12 20 4 22 21 24 18 26
REMARK H PARENT 10 19 12 21 4 23 21 25 18 27
REMARK Flexibility Score: inf
ROOT
ATOM      1  C   UNL     1      58.573 143.225 -21.259  1.00  0.00     0.180 A 
ATOM      2  C   UNL     1      58.533 141.865 -20.911  1.00  0.00     0.208 A 
ATOM      3  C   UNL     1      57.691 141.001 -21.632  1.00  0.00     0.238 A 
ATOM      4  O   UNL     1      57.700 139.775 -21.350  1.00  0.00    -0.285 OA
ATOM      5  C   UNL     1      56.889 141.513 -22.680  1.00  0.00     0.111 A 
ATOM      6  C   UNL     1      55.971 140.738 -23.450  1.00  0.00     0.134 A 
ATOM      7  C   UNL     1      55.326 141.320 -24.548  1.00  0.00     0.093 A 
ATOM      8  C   UNL     1      55.517 142.667 -24.864  1.00  0.00     0.123 A 
ATOM      9  C   UNL     1      56.365 143.447 -24.082  1.00  0.00     0.094 A 
ATOM     10  C   UNL     1      57.051 142.885 -23.002  1.00  0.00     0.146 A 
ATOM     11  O   UNL     1      57.859 143.662 -22.290  1.00  0.00    -0.452 OA
ENDROOT
BRANCH   1  12
ATOM     12  C   UNL     1      59.416 144.201 -20.531  1.00  0.00     0.025 A 
ATOM     13  C   UNL     1      60.632 144.618 -21.093  1.00  0.00     0.016 A 
ATOM     14  C   UNL     1      61.434 145.553 -20.433  1.00  0.00     0.051 A 
ATOM     15  C   UNL     1      61.025 146.097 -19.212  1.00  0.00     0.157 A 
ATOM     16  C   UNL     1      58.997 144.765 -19.313  1.00  0.00     0.062 A 
ATOM     17  C   UNL     1      59.799 145.705 -18.649  1.00  0.00     0.158 A 
BRANCH  15  18
ATOM     18  O   UNL     1      61.847 147.026 -18.574  1.00  0.00    -0.504 OA
ATOM     19  H   UNL     1      62.757 147.280 -18.940  1.00  0.00     0.293 HD
ENDBRANCH  15  18
BRANCH  17  20
ATOM     20  O   UNL     1      59.379 146.253 -17.438  1.00  0.00    -0.504 OA
ATOM     21  H   UNL     1      59.615 145.825 -16.551  1.00  0.00     0.293 HD
ENDBRANCH  17  20
ENDBRANCH   1  12
BRANCH   2  22
ATOM     22  O   UNL     1      59.349 141.377 -19.887  1.00  0.00    -0.502 OA
ATOM     23  H   UNL     1      60.184 140.834 -20.068  1.00  0.00     0.293 HD
ENDBRANCH   2  22
BRANCH   6  24
ATOM     24  O   UNL     1      55.639 139.410 -23.162  1.00  0.00    -0.507 OA
ATOM     25  H   UNL     1      55.347 139.074 -22.257  1.00  0.00     0.293 HD
ENDBRANCH   6  24
BRANCH   8  26
ATOM     26  O   UNL     1      54.859 143.242 -25.949  1.00  0.00    -0.508 OA
ATOM     27  H   UNL     1      54.992 144.216 -26.195  1.00  0.00     0.293 HD
ENDBRANCH   8  26
TORSDOF 6
ENDMDL
MODEL 8
REMARK VINA RESULT:    -5.482     12.592     14.650
REMARK INTER + INTRA:          -6.808
REMARK INTER:                  -6.507
REMARK INTRA:                  -0.302
REMARK UNBOUND:                -0.204
REMARK SMILES O=c1c(O)c(-c2ccc(O)c(O)c2)oc2cc(O)cc(O)c12
REMARK SMILES IDX 5 1 3 2 2 3 1 4 22 5 20 6 19 7 17 8 16 9 15 10 14 11 6 12
REMARK SMILES IDX 7 13 8 14 9 15 13 16 11 17 10 18 12 20 4 22 21 24 18 26
REMARK H PARENT 10 19 12 21 4 23 21 25 18 27
REMARK Flexibility Score: inf
ROOT
ATOM      1  C   UNL     1      55.064 156.509 -25.453  1.00  0.00     0.180 A 
ATOM      2  C   UNL     1      55.820 156.249 -24.298  1.00  0.00     0.208 A 
ATOM      3  C   UNL     1      57.220 156.345 -24.363  1.00  0.00     0.238 A 
ATOM      4  O   UNL     1      57.887 156.164 -23.312  1.00  0.00    -0.285 OA
ATOM      5  C   UNL     1      57.845 156.682 -25.587  1.00  0.00     0.111 A 
ATOM      6  C   UNL     1      59.257 156.768 -25.778  1.00  0.00     0.134 A 
ATOM      7  C   UNL     1      59.763 157.238 -26.997  1.00  0.00     0.093 A 
ATOM      8  C   UNL     1      58.908 157.563 -28.053  1.00  0.00     0.123 A 
ATOM      9  C   UNL     1      57.531 157.426 -27.895  1.00  0.00     0.094 A 
ATOM     10  C   UNL     1      56.996 156.994 -26.679  1.00  0.00     0.146 A 
ATOM     11  O   UNL     1      55.677 156.888 -26.569  1.00  0.00    -0.452 OA
ENDROOT
BRANCH   1  12
ATOM     12  C   UNL     1      53.587 156.405 -25.469  1.00  0.00     0.025 A 
ATOM     13  C   UNL     1      52.812 157.574 -25.465  1.00  0.00     0.016 A 
ATOM     14  C   UNL     1      51.417 157.499 -25.500  1.00  0.00     0.051 A 
ATOM     15  C   UNL     1      50.777 156.258 -25.557  1.00  0.00     0.157 A 
ATOM     16  C   UNL     1      52.941 155.157 -25.548  1.00  0.00     0.062 A 
ATOM     17  C   UNL     1      51.542 155.080 -25.585  1.00  0.00     0.158 A 
BRANCH  15  18
ATOM     18  O   UNL     1      49.384 156.214 -25.589  1.00  0.00    -0.504 OA
ATOM     19  H   UNL     1      48.828 156.146 -24.745  1.00  0.00     0.293 HD
ENDBRANCH  15  18
BRANCH  17  20
ATOM     20  O   UNL     1      50.910 153.839 -25.655  1.00  0.00    -0.504 OA
ATOM     21  H   UNL     1      50.560 153.373 -24.826  1.00  0.00     0.293 HD
ENDBRANCH  17  20
ENDBRANCH   1  12
BRANCH   2  22
ATOM     22  O   UNL     1      55.180 155.938 -23.094  1.00  0.00    -0.502 OA
ATOM     23  H   UNL     1      54.799 155.020 -22.902  1.00  0.00     0.293 HD
ENDBRANCH   2  22
BRANCH   6  24
ATOM     24  O   UNL     1      60.199 156.380 -24.820  1.00  0.00    -0.507 OA
ATOM     25  H   UNL     1      59.975 155.968 -23.927  1.00  0.00     0.293 HD
ENDBRANCH   6  24
BRANCH   8  26
ATOM     26  O   UNL     1      59.419 158.015 -29.267  1.00  0.00    -0.508 OA
ATOM     27  H   UNL     1      59.319 157.475 -30.119  1.00  0.00     0.293 HD
ENDBRANCH   8  26
TORSDOF 6
ENDMDL
MODEL 9
REMARK VINA RESULT:    -5.456      4.889      7.537
REMARK INTER + INTRA:          -6.776
REMARK INTER:                  -6.475
REMARK INTRA:                  -0.302
REMARK UNBOUND:                -0.204
REMARK SMILES O=c1c(O)c(-c2ccc(O)c(O)c2)oc2cc(O)cc(O)c12
REMARK SMILES IDX 5 1 3 2 2 3 1 4 22 5 20 6 19 7 17 8 16 9 15 10 14 11 6 12
REMARK SMILES IDX 7 13 8 14 9 15 13 16 11 17 10 18 12 20 4 22 21 24 18 26
REMARK H PARENT 10 19 12 21 4 23 21 25 18 27
REMARK Flexibility Score: inf
ROOT
ATOM      1  C   UNL     1      58.602 143.413 -21.894  1.00  0.00     0.180 A 
ATOM      2  C   UNL     1      59.662 144.194 -22.383  1.00  0.00     0.208 A 
ATOM      3  C   UNL     1      60.499 144.856 -21.470  1.00  0.00     0.238 A 
ATOM      4  O   UNL     1      61.478 145.510 -21.913  1.00  0.00    -0.285 OA
ATOM      5  C   UNL     1      60.255 144.741 -20.081  1.00  0.00     0.111 A 
ATOM      6  C   UNL     1      61.014 145.400 -19.067  1.00  0.00     0.134 A 
ATOM      7  C   UNL     1      60.766 145.111 -17.720  1.00  0.00     0.093 A 
ATOM      8  C   UNL     1      59.743 144.235 -17.348  1.00  0.00     0.123 A 
ATOM      9  C   UNL     1      58.958 143.634 -18.328  1.00  0.00     0.094 A 
ATOM     10  C   UNL     1      59.205 143.875 -19.682  1.00  0.00     0.146 A 
ATOM     11  O   UNL     1      58.440 143.271 -20.583  1.00  0.00    -0.452 OA
ENDROOT
BRANCH   1  12
ATOM     12  C   UNL     1      57.663 142.705 -22.794  1.00  0.00     0.025 A 
ATOM     13  C   UNL     1      57.777 141.317 -22.958  1.00  0.00     0.016 A 
ATOM     14  C   UNL     1      56.888 140.626 -23.786  1.00  0.00     0.051 A 
ATOM     15  C   UNL     1      55.864 141.308 -24.449  1.00  0.00     0.157 A 
ATOM     16  C   UNL     1      56.619 143.387 -23.445  1.00  0.00     0.062 A 
ATOM     17  C   UNL     1      55.725 142.695 -24.276  1.00  0.00     0.158 A 
BRANCH  15  18
ATOM     18  O   UNL     1      54.995 140.593 -25.272  1.00  0.00    -0.504 OA
ATOM     19  H   UNL     1      54.858 139.595 -25.172  1.00  0.00     0.293 HD
ENDBRANCH  15  18
BRANCH  17  20
ATOM     20  O   UNL     1      54.698 143.380 -24.923  1.00  0.00    -0.504 OA
ATOM     21  H   UNL     1      53.794 142.952 -25.087  1.00  0.00     0.293 HD
ENDBRANCH  17  20
ENDBRANCH   1  12
BRANCH   2  22
ATOM     22  O   UNL     1      59.898 144.277 -23.758  1.00  0.00    -0.502 OA
ATOM     23  H   UNL     1      59.173 144.522 -24.421  1.00  0.00     0.293 HD
ENDBRANCH   2  22
BRANCH   6  24
ATOM     24  O   UNL     1      61.996 146.361 -19.329  1.00  0.00    -0.507 OA
ATOM     25  H   UNL     1      61.810 147.308 -19.622  1.00  0.00     0.293 HD
ENDBRANCH   6  24
BRANCH   8  26
ATOM     26  O   UNL     1      59.493 143.966 -16.005  1.00  0.00    -0.508 OA
ATOM     27  H   UNL     1      60.089 143.346 -15.468  1.00  0.00     0.293 HD
ENDBRANCH   8  26
TORSDOF 6
ENDMDL
