MODEL 1
REMARK VINA RESULT:    -4.571      0.000      0.000
REMARK INTER + INTRA:         -12.555
REMARK INTER:                  -9.916
REMARK INTRA:                  -2.640
REMARK UNBOUND:                -2.640
REMARK SMILES CCCCCCCCCCCCCCCCCCCCCC(=O)[O-]
REMARK SMILES IDX 12 1 11 2 10 3 9 4 8 5 7 6 6 7 5 8 4 9 3 10 2 11 1 12 13 13
REMARK SMILES IDX 14 14 15 15 16 16 17 17 18 18 19 19 20 20 21 21 22 22 23 23
REMARK SMILES IDX 24 24
REMARK H PARENT
REMARK Flexibility Score: inf
ROOT
ATOM      1  C   UNL     1     100.873 317.848 188.166  1.00  0.00     0.000 C 
ENDROOT
BRANCH   1   2
ATOM      2  C   UNL     1      99.966 316.728 187.633  1.00  0.00     0.000 C 
BRANCH   2   3
ATOM      3  C   UNL     1     100.759 315.505 187.139  1.00  0.00     0.000 C 
BRANCH   3   4
ATOM      4  C   UNL     1     100.578 314.282 188.054  1.00  0.00    -0.000 C 
BRANCH   4   5
ATOM      5  C   UNL     1      99.662 314.578 189.256  1.00  0.00    -0.000 C 
BRANCH   5   6
ATOM      6  C   UNL     1     100.364 314.348 190.603  1.00  0.00    -0.000 C 
BRANCH   6   7
ATOM      7  C   UNL     1     101.817 314.854 190.611  1.00  0.00    -0.000 C 
BRANCH   7   8
ATOM      8  C   UNL     1     102.820 313.753 191.019  1.00  0.00    -0.000 C 
BRANCH   8   9
ATOM      9  C   UNL     1     104.029 313.633 190.072  1.00  0.00    -0.000 C 
BRANCH   9  10
ATOM     10  C   UNL     1     104.290 314.868 189.189  1.00  0.00    -0.000 C 
BRANCH  10  11
ATOM     11  C   UNL     1     104.323 314.586 187.676  1.00  0.00    -0.003 C 
ATOM     12  C   UNL     1     104.088 313.114 187.339  1.00  0.00     0.004 C 
ENDBRANCH  10  11
ENDBRANCH   9  10
ENDBRANCH   8   9
ENDBRANCH   7   8
ENDBRANCH   6   7
ENDBRANCH   5   6
ENDBRANCH   4   5
ENDBRANCH   3   4
ENDBRANCH   2   3
ENDBRANCH   1   2
BRANCH   1  13
ATOM     13  C   UNL     1     100.116 318.860 189.042  1.00  0.00     0.000 C 
BRANCH  13  14
ATOM     14  C   UNL     1      98.828 318.269 189.639  1.00  0.00     0.000 C 
BRANCH  14  15
ATOM     15  C   UNL     1      98.986 317.893 191.123  1.00  0.00     0.000 C 
BRANCH  15  16
ATOM     16  C   UNL     1      97.635 317.734 191.844  1.00  0.00     0.000 C 
BRANCH  16  17
ATOM     17  C   UNL     1      96.395 317.962 190.956  1.00  0.00     0.000 C 
BRANCH  17  18
ATOM     18  C   UNL     1      95.044 317.907 191.694  1.00  0.00     0.000 C 
BRANCH  18  19
ATOM     19  C   UNL     1      94.060 319.040 191.336  1.00  0.00     0.000 C 
BRANCH  19  20
ATOM     20  C   UNL     1      92.825 318.597 190.524  1.00  0.00     0.006 C 
BRANCH  20  21
ATOM     21  C   UNL     1      92.892 317.153 190.002  1.00  0.00     0.053 C 
BRANCH  21  22
ATOM     22  C   UNL     1      91.606 316.728 189.364  1.00  0.00     0.041 C 
ATOM     23  O   UNL     1      91.051 317.464 188.506  1.00  0.00    -0.550 OA
ATOM     24  O   UNL     1      91.004 315.533 189.739  1.00  0.00    -0.550 OA
ENDBRANCH  21  22
ENDBRANCH  20  21
ENDBRANCH  19  20
ENDBRANCH  18  19
ENDBRANCH  17  18
ENDBRANCH  16  17
ENDBRANCH  15  16
ENDBRANCH  14  15
ENDBRANCH  13  14
ENDBRANCH   1  13
TORSDOF 20
ENDMDL
MODEL 2
REMARK VINA RESULT:    -4.318      3.758      8.502
REMARK INTER + INTRA:         -12.007
REMARK INTER:                  -9.564
REMARK INTRA:                  -2.444
REMARK UNBOUND:                -2.640
REMARK SMILES CCCCCCCCCCCCCCCCCCCCCC(=O)[O-]
REMARK SMILES IDX 12 1 11 2 10 3 9 4 8 5 7 6 6 7 5 8 4 9 3 10 2 11 1 12 13 13
REMARK SMILES IDX 14 14 15 15 16 16 17 17 18 18 19 19 20 20 21 21 22 22 23 23
REMARK SMILES IDX 24 24
REMARK H PARENT
REMARK Flexibility Score: inf
ROOT
ATOM      1  C   UNL     1     102.152 315.301 187.986  1.00  0.00     0.000 C 
ENDROOT
BRANCH   1   2
ATOM      2  C   UNL     1     100.680 314.866 188.084  1.00  0.00     0.000 C 
BRANCH   2   3
ATOM      3  C   UNL     1      99.872 315.722 189.076  1.00  0.00     0.000 C 
BRANCH   3   4
ATOM      4  C   UNL     1     100.649 316.965 189.542  1.00  0.00    -0.000 C 
BRANCH   4   5
ATOM      5  C   UNL     1      99.974 318.278 189.106  1.00  0.00    -0.000 C 
BRANCH   5   6
ATOM      6  C   UNL     1      98.843 318.051 188.090  1.00  0.00    -0.000 C 
BRANCH   6   7
ATOM      7  C   UNL     1      97.446 318.270 188.696  1.00  0.00    -0.000 C 
BRANCH   7   8
ATOM      8  C   UNL     1      96.524 317.047 188.503  1.00  0.00    -0.000 C 
BRANCH   8   9
ATOM      9  C   UNL     1      95.871 316.548 189.806  1.00  0.00    -0.000 C 
BRANCH   9  10
ATOM     10  C   UNL     1      95.462 317.656 190.794  1.00  0.00    -0.000 C 
BRANCH  10  11
ATOM     11  C   UNL     1      94.073 318.268 190.541  1.00  0.00    -0.003 C 
ATOM     12  C   UNL     1      93.567 319.106 191.714  1.00  0.00     0.004 C 
ENDBRANCH  10  11
ENDBRANCH   9  10
ENDBRANCH   8   9
ENDBRANCH   7   8
ENDBRANCH   6   7
ENDBRANCH   5   6
ENDBRANCH   4   5
ENDBRANCH   3   4
ENDBRANCH   2   3
ENDBRANCH   1   2
BRANCH   1  13
ATOM     13  C   UNL     1     102.975 314.404 187.045  1.00  0.00     0.000 C 
BRANCH  13  14
ATOM     14  C   UNL     1     104.400 314.160 187.567  1.00  0.00     0.000 C 
BRANCH  14  15
ATOM     15  C   UNL     1     104.778 312.669 187.573  1.00  0.00     0.000 C 
BRANCH  15  16
ATOM     16  C   UNL     1     104.750 312.054 188.984  1.00  0.00     0.000 C 
BRANCH  16  17
ATOM     17  C   UNL     1     104.511 313.061 190.127  1.00  0.00     0.000 C 
BRANCH  17  18
ATOM     18  C   UNL     1     103.117 312.989 190.780  1.00  0.00     0.000 C 
BRANCH  18  19
ATOM     19  C   UNL     1     102.646 314.293 191.454  1.00  0.00     0.000 C 
BRANCH  19  20
ATOM     20  C   UNL     1     101.395 314.151 192.346  1.00  0.00     0.006 C 
BRANCH  20  21
ATOM     21  C   UNL     1     101.517 314.821 193.723  1.00  0.00     0.053 C 
BRANCH  21  22
ATOM     22  C   UNL     1     101.839 316.279 193.611  1.00  0.00     0.041 C 
ATOM     23  O   UNL     1     101.000 317.077 193.116  1.00  0.00    -0.550 OA
ATOM     24  O   UNL     1     103.078 316.753 194.025  1.00  0.00    -0.550 OA
ENDBRANCH  21  22
ENDBRANCH  20  21
ENDBRANCH  19  20
ENDBRANCH  18  19
ENDBRANCH  17  18
ENDBRANCH  16  17
ENDBRANCH  15  16
ENDBRANCH  14  15
ENDBRANCH  13  14
ENDBRANCH   1  13
TORSDOF 20
ENDMDL
MODEL 3
REMARK VINA RESULT:    -4.288      2.465      7.878
REMARK INTER + INTRA:         -11.941
REMARK INTER:                  -9.346
REMARK INTRA:                  -2.594
REMARK UNBOUND:                -2.640
REMARK SMILES CCCCCCCCCCCCCCCCCCCCCC(=O)[O-]
REMARK SMILES IDX 12 1 11 2 10 3 9 4 8 5 7 6 6 7 5 8 4 9 3 10 2 11 1 12 13 13
REMARK SMILES IDX 14 14 15 15 16 16 17 17 18 18 19 19 20 20 21 21 22 22 23 23
REMARK SMILES IDX 24 24
REMARK H PARENT
REMARK Flexibility Score: inf
ROOT
ATOM      1  C   UNL     1     100.713 314.327 187.696  1.00  0.00     0.000 C 
ENDROOT
BRANCH   1   2
ATOM      2  C   UNL     1     101.113 315.758 188.089  1.00  0.00     0.000 C 
BRANCH   2   3
ATOM      3  C   UNL     1     100.278 316.829 187.365  1.00  0.00     0.000 C 
BRANCH   3   4
ATOM      4  C   UNL     1      98.771 316.524 187.410  1.00  0.00    -0.000 C 
BRANCH   4   5
ATOM      5  C   UNL     1      97.930 317.771 187.740  1.00  0.00    -0.000 C 
BRANCH   5   6
ATOM      6  C   UNL     1      98.394 318.474 189.025  1.00  0.00    -0.000 C 
BRANCH   6   7
ATOM      7  C   UNL     1      97.739 317.893 190.291  1.00  0.00    -0.000 C 
BRANCH   7   8
ATOM      8  C   UNL     1      96.284 318.375 190.472  1.00  0.00    -0.000 C 
BRANCH   8   9
ATOM      9  C   UNL     1      95.420 317.433 191.333  1.00  0.00    -0.000 C 
BRANCH   9  10
ATOM     10  C   UNL     1      94.325 318.130 192.162  1.00  0.00    -0.000 C 
BRANCH  10  11
ATOM     11  C   UNL     1      93.407 319.070 191.361  1.00  0.00    -0.003 C 
ATOM     12  C   UNL     1      92.606 318.344 190.282  1.00  0.00     0.004 C 
ENDBRANCH  10  11
ENDBRANCH   9  10
ENDBRANCH   8   9
ENDBRANCH   7   8
ENDBRANCH   6   7
ENDBRANCH   5   6
ENDBRANCH   4   5
ENDBRANCH   3   4
ENDBRANCH   2   3
ENDBRANCH   1   2
BRANCH   1  13
ATOM     13  C   UNL     1     101.899 313.500 187.171  1.00  0.00     0.000 C 
BRANCH  13  14
ATOM     14  C   UNL     1     103.145 314.364 186.911  1.00  0.00     0.000 C 
BRANCH  14  15
ATOM     15  C   UNL     1     104.408 313.789 187.574  1.00  0.00     0.000 C 
BRANCH  15  16
ATOM     16  C   UNL     1     104.135 313.214 188.976  1.00  0.00     0.000 C 
BRANCH  16  17
ATOM     17  C   UNL     1     104.210 314.241 190.124  1.00  0.00     0.000 C 
BRANCH  17  18
ATOM     18  C   UNL     1     102.979 314.276 191.050  1.00  0.00     0.000 C 
BRANCH  18  19
ATOM     19  C   UNL     1     102.116 312.998 191.035  1.00  0.00     0.000 C 
BRANCH  19  20
ATOM     20  C   UNL     1     100.840 313.064 191.899  1.00  0.00     0.006 C 
BRANCH  20  21
ATOM     21  C   UNL     1      99.844 314.156 191.480  1.00  0.00     0.053 C 
BRANCH  21  22
ATOM     22  C   UNL     1      98.691 313.598 190.705  1.00  0.00     0.041 C 
ATOM     23  O   UNL     1      97.889 314.371 190.118  1.00  0.00    -0.550 OA
ATOM     24  O   UNL     1      98.482 312.225 190.658  1.00  0.00    -0.550 OA
ENDBRANCH  21  22
ENDBRANCH  20  21
ENDBRANCH  19  20
ENDBRANCH  18  19
ENDBRANCH  17  18
ENDBRANCH  16  17
ENDBRANCH  15  16
ENDBRANCH  14  15
ENDBRANCH  13  14
ENDBRANCH   1  13
TORSDOF 20
ENDMDL
MODEL 4
REMARK VINA RESULT:    -4.285      4.081      6.925
REMARK INTER + INTRA:         -11.935
REMARK INTER:                  -9.436
REMARK INTRA:                  -2.500
REMARK UNBOUND:                -2.640
REMARK SMILES CCCCCCCCCCCCCCCCCCCCCC(=O)[O-]
REMARK SMILES IDX 12 1 11 2 10 3 9 4 8 5 7 6 6 7 5 8 4 9 3 10 2 11 1 12 13 13
REMARK SMILES IDX 14 14 15 15 16 16 17 17 18 18 19 19 20 20 21 21 22 22 23 23
REMARK SMILES IDX 24 24
REMARK H PARENT
REMARK Flexibility Score: inf
ROOT
ATOM      1  C   UNL     1     102.761 314.051 191.122  1.00  0.00     0.000 C 
ENDROOT
BRANCH   1   2
ATOM      2  C   UNL     1     104.023 314.078 190.244  1.00  0.00     0.000 C 
BRANCH   2   3
ATOM      3  C   UNL     1     104.028 312.967 189.178  1.00  0.00     0.000 C 
BRANCH   3   4
ATOM      4  C   UNL     1     104.498 313.476 187.805  1.00  0.00    -0.000 C 
BRANCH   4   5
ATOM      5  C   UNL     1     103.552 314.540 187.218  1.00  0.00    -0.000 C 
BRANCH   5   6
ATOM      6  C   UNL     1     102.125 314.010 187.011  1.00  0.00    -0.000 C 
BRANCH   6   7
ATOM      7  C   UNL     1     101.083 315.137 186.896  1.00  0.00    -0.000 C 
BRANCH   7   8
ATOM      8  C   UNL     1     100.373 315.419 188.237  1.00  0.00    -0.000 C 
BRANCH   8   9
ATOM      9  C   UNL     1     100.928 316.643 188.989  1.00  0.00    -0.000 C 
BRANCH   9  10
ATOM     10  C   UNL     1     100.620 318.003 188.337  1.00  0.00    -0.000 C 
BRANCH  10  11
ATOM     11  C   UNL     1      99.325 318.675 188.823  1.00  0.00    -0.003 C 
ATOM     12  C   UNL     1      98.085 318.200 188.065  1.00  0.00     0.004 C 
ENDBRANCH  10  11
ENDBRANCH   9  10
ENDBRANCH   8   9
ENDBRANCH   7   8
ENDBRANCH   6   7
ENDBRANCH   5   6
ENDBRANCH   4   5
ENDBRANCH   3   4
ENDBRANCH   2   3
ENDBRANCH   1   2
BRANCH   1  13
ATOM     13  C   UNL     1     101.736 313.003 190.659  1.00  0.00     0.000 C 
BRANCH  13  14
ATOM     14  C   UNL     1     100.537 312.893 191.615  1.00  0.00     0.000 C 
BRANCH  14  15
ATOM     15  C   UNL     1      99.193 312.818 190.869  1.00  0.00     0.000 C 
BRANCH  15  16
ATOM     16  C   UNL     1      99.185 311.747 189.764  1.00  0.00     0.000 C 
BRANCH  16  17
ATOM     17  C   UNL     1      98.592 312.207 188.418  1.00  0.00     0.000 C 
BRANCH  17  18
ATOM     18  C   UNL     1      97.358 311.416 187.942  1.00  0.00     0.000 C 
BRANCH  18  19
ATOM     19  C   UNL     1      97.433 309.893 188.174  1.00  0.00     0.000 C 
BRANCH  19  20
ATOM     20  C   UNL     1      96.091 309.223 188.536  1.00  0.00     0.006 C 
BRANCH  20  21
ATOM     21  C   UNL     1      96.228 307.915 189.330  1.00  0.00     0.053 C 
BRANCH  21  22
ATOM     22  C   UNL     1      95.342 307.894 190.536  1.00  0.00     0.041 C 
ATOM     23  O   UNL     1      94.639 306.880 190.789  1.00  0.00    -0.550 OA
ATOM     24  O   UNL     1      95.266 309.008 191.365  1.00  0.00    -0.550 OA
ENDBRANCH  21  22
ENDBRANCH  20  21
ENDBRANCH  19  20
ENDBRANCH  18  19
ENDBRANCH  17  18
ENDBRANCH  16  17
ENDBRANCH  15  16
ENDBRANCH  14  15
ENDBRANCH  13  14
ENDBRANCH   1  13
TORSDOF 20
ENDMDL
MODEL 5
REMARK VINA RESULT:    -4.273     11.272     13.941
REMARK INTER + INTRA:         -11.910
REMARK INTER:                  -9.861
REMARK INTRA:                  -2.048
REMARK UNBOUND:                -2.640
REMARK SMILES CCCCCCCCCCCCCCCCCCCCCC(=O)[O-]
REMARK SMILES IDX 12 1 11 2 10 3 9 4 8 5 7 6 6 7 5 8 4 9 3 10 2 11 1 12 13 13
REMARK SMILES IDX 14 14 15 15 16 16 17 17 18 18 19 19 20 20 21 21 22 22 23 23
REMARK SMILES IDX 24 24
REMARK H PARENT
REMARK Flexibility Score: inf
ROOT
ATOM      1  C   UNL     1      93.952 307.619 192.798  1.00  0.00     0.000 C 
ENDROOT
BRANCH   1   2
ATOM      2  C   UNL     1      94.965 306.793 191.988  1.00  0.00     0.000 C 
BRANCH   2   3
ATOM      3  C   UNL     1      95.353 307.465 190.659  1.00  0.00     0.000 C 
BRANCH   3   4
ATOM      4  C   UNL     1      95.083 308.979 190.668  1.00  0.00    -0.000 C 
BRANCH   4   5
ATOM      5  C   UNL     1      94.551 309.489 189.317  1.00  0.00    -0.000 C 
BRANCH   5   6
ATOM      6  C   UNL     1      93.044 309.244 189.145  1.00  0.00    -0.000 C 
BRANCH   6   7
ATOM      7  C   UNL     1      92.184 310.249 189.932  1.00  0.00    -0.000 C 
BRANCH   7   8
ATOM      8  C   UNL     1      91.461 309.593 191.128  1.00  0.00    -0.000 C 
BRANCH   8   9
ATOM      9  C   UNL     1      91.103 308.112 190.900  1.00  0.00    -0.000 C 
BRANCH   9  10
ATOM     10  C   UNL     1      89.637 307.849 190.509  1.00  0.00    -0.000 C 
BRANCH  10  11
ATOM     11  C   UNL     1      88.601 308.259 191.571  1.00  0.00    -0.003 C 
ATOM     12  C   UNL     1      88.846 307.601 192.928  1.00  0.00     0.004 C 
ENDBRANCH  10  11
ENDBRANCH   9  10
ENDBRANCH   8   9
ENDBRANCH   7   8
ENDBRANCH   6   7
ENDBRANCH   5   6
ENDBRANCH   4   5
ENDBRANCH   3   4
ENDBRANCH   2   3
ENDBRANCH   1   2
BRANCH   1  13
ATOM     13  C   UNL     1      94.272 307.643 194.302  1.00  0.00     0.000 C 
BRANCH  13  14
ATOM     14  C   UNL     1      93.559 306.518 195.070  1.00  0.00     0.000 C 
BRANCH  14  15
ATOM     15  C   UNL     1      92.026 306.633 194.994  1.00  0.00     0.000 C 
BRANCH  15  16
ATOM     16  C   UNL     1      91.316 305.879 196.134  1.00  0.00     0.000 C 
BRANCH  16  17
ATOM     17  C   UNL     1      89.902 305.368 195.791  1.00  0.00     0.000 C 
BRANCH  17  18
ATOM     18  C   UNL     1      89.681 303.860 196.016  1.00  0.00     0.000 C 
BRANCH  18  19
ATOM     19  C   UNL     1      88.569 303.229 195.155  1.00  0.00     0.000 C 
BRANCH  19  20
ATOM     20  C   UNL     1      87.535 304.228 194.593  1.00  0.00     0.006 C 
BRANCH  20  21
ATOM     21  C   UNL     1      86.080 303.737 194.652  1.00  0.00     0.053 C 
BRANCH  21  22
ATOM     22  C   UNL     1      85.303 304.417 195.736  1.00  0.00     0.041 C 
ATOM     23  O   UNL     1      84.953 305.620 195.607  1.00  0.00    -0.550 OA
ATOM     24  O   UNL     1      84.992 303.732 196.905  1.00  0.00    -0.550 OA
ENDBRANCH  21  22
ENDBRANCH  20  21
ENDBRANCH  19  20
ENDBRANCH  18  19
ENDBRANCH  17  18
ENDBRANCH  16  17
ENDBRANCH  15  16
ENDBRANCH  14  15
ENDBRANCH  13  14
ENDBRANCH   1  13
TORSDOF 20
ENDMDL
MODEL 6
REMARK VINA RESULT:    -4.252     11.653     14.686
REMARK INTER + INTRA:         -11.864
REMARK INTER:                  -9.187
REMARK INTRA:                  -2.677
REMARK UNBOUND:                -2.640
REMARK SMILES CCCCCCCCCCCCCCCCCCCCCC(=O)[O-]
REMARK SMILES IDX 12 1 11 2 10 3 9 4 8 5 7 6 6 7 5 8 4 9 3 10 2 11 1 12 13 13
REMARK SMILES IDX 14 14 15 15 16 16 17 17 18 18 19 19 20 20 21 21 22 22 23 23
REMARK SMILES IDX 24 24
REMARK H PARENT
REMARK Flexibility Score: inf
ROOT
ATOM      1  C   UNL     1      92.595 308.079 190.326  1.00  0.00     0.000 C 
ENDROOT
BRANCH   1   2
ATOM      2  C   UNL     1      91.380 308.421 191.204  1.00  0.00     0.000 C 
BRANCH   2   3
ATOM      3  C   UNL     1      90.067 307.830 190.657  1.00  0.00     0.000 C 
BRANCH   3   4
ATOM      4  C   UNL     1      88.932 307.872 191.694  1.00  0.00    -0.000 C 
BRANCH   4   5
ATOM      5  C   UNL     1      89.454 307.806 193.140  1.00  0.00    -0.000 C 
BRANCH   5   6
ATOM      6  C   UNL     1      88.345 307.485 194.154  1.00  0.00    -0.000 C 
BRANCH   6   7
ATOM      7  C   UNL     1      88.631 306.208 194.964  1.00  0.00    -0.000 C 
BRANCH   7   8
ATOM      8  C   UNL     1      87.602 305.092 194.681  1.00  0.00    -0.000 C 
BRANCH   8   9
ATOM      9  C   UNL     1      88.060 303.694 195.139  1.00  0.00    -0.000 C 
BRANCH   9  10
ATOM     10  C   UNL     1      89.446 303.650 195.809  1.00  0.00    -0.000 C 
BRANCH  10  11
ATOM     11  C   UNL     1      89.420 303.556 197.344  1.00  0.00    -0.003 C 
ATOM     12  C   UNL     1      88.066 303.103 197.891  1.00  0.00     0.004 C 
ENDBRANCH  10  11
ENDBRANCH   9  10
ENDBRANCH   8   9
ENDBRANCH   7   8
ENDBRANCH   6   7
ENDBRANCH   5   6
ENDBRANCH   4   5
ENDBRANCH   3   4
ENDBRANCH   2   3
ENDBRANCH   1   2
BRANCH   1  13
ATOM     13  C   UNL     1      93.710 309.135 190.418  1.00  0.00     0.000 C 
BRANCH  13  14
ATOM     14  C   UNL     1      94.976 308.593 191.101  1.00  0.00     0.000 C 
BRANCH  14  15
ATOM     15  C   UNL     1      94.948 307.063 191.263  1.00  0.00     0.000 C 
BRANCH  15  16
ATOM     16  C   UNL     1      94.834 306.622 192.733  1.00  0.00     0.000 C 
BRANCH  16  17
ATOM     17  C   UNL     1      94.575 307.765 193.735  1.00  0.00     0.000 C 
BRANCH  17  18
ATOM     18  C   UNL     1      93.160 307.792 194.343  1.00  0.00     0.000 C 
BRANCH  18  19
ATOM     19  C   UNL     1      92.602 306.415 194.756  1.00  0.00     0.000 C 
BRANCH  19  20
ATOM     20  C   UNL     1      91.968 306.363 196.161  1.00  0.00     0.006 C 
BRANCH  20  21
ATOM     21  C   UNL     1      92.743 307.140 197.237  1.00  0.00     0.053 C 
BRANCH  21  22
ATOM     22  C   UNL     1      93.859 306.330 197.820  1.00  0.00     0.041 C 
ATOM     23  O   UNL     1      93.782 305.904 199.003  1.00  0.00    -0.550 OA
ATOM     24  O   UNL     1      94.999 306.071 197.068  1.00  0.00    -0.550 OA
ENDBRANCH  21  22
ENDBRANCH  20  21
ENDBRANCH  19  20
ENDBRANCH  18  19
ENDBRANCH  17  18
ENDBRANCH  16  17
ENDBRANCH  15  16
ENDBRANCH  14  15
ENDBRANCH  13  14
ENDBRANCH   1  13
TORSDOF 20
ENDMDL
MODEL 7
REMARK VINA RESULT:    -4.228     13.711     17.596
REMARK INTER + INTRA:         -11.811
REMARK INTER:                  -9.044
REMARK INTRA:                  -2.767
REMARK UNBOUND:                -2.640
REMARK SMILES CCCCCCCCCCCCCCCCCCCCCC(=O)[O-]
REMARK SMILES IDX 12 1 11 2 10 3 9 4 8 5 7 6 6 7 5 8 4 9 3 10 2 11 1 12 13 13
REMARK SMILES IDX 14 14 15 15 16 16 17 17 18 18 19 19 20 20 21 21 22 22 23 23
REMARK SMILES IDX 24 24
REMARK H PARENT
REMARK Flexibility Score: inf
ROOT
ATOM      1  C   UNL     1      87.246 315.147 207.038  1.00  0.00     0.000 C 
ENDROOT
BRANCH   1   2
ATOM      2  C   UNL     1      88.540 314.318 206.994  1.00  0.00     0.000 C 
BRANCH   2   3
ATOM      3  C   UNL     1      89.599 314.916 206.051  1.00  0.00     0.000 C 
BRANCH   3   4
ATOM      4  C   UNL     1      89.269 316.363 205.646  1.00  0.00    -0.000 C 
BRANCH   4   5
ATOM      5  C   UNL     1      89.073 316.517 204.127  1.00  0.00    -0.000 C 
BRANCH   5   6
ATOM      6  C   UNL     1      89.950 315.550 203.317  1.00  0.00    -0.000 C 
BRANCH   6   7
ATOM      7  C   UNL     1      90.099 315.973 201.844  1.00  0.00    -0.000 C 
BRANCH   7   8
ATOM      8  C   UNL     1      91.459 315.553 201.248  1.00  0.00    -0.000 C 
BRANCH   8   9
ATOM      9  C   UNL     1      91.471 315.495 199.709  1.00  0.00    -0.000 C 
BRANCH   9  10
ATOM     10  C   UNL     1      91.249 316.846 199.004  1.00  0.00    -0.000 C 
BRANCH  10  11
ATOM     11  C   UNL     1      90.893 316.747 197.511  1.00  0.00    -0.003 C 
ATOM     12  C   UNL     1      89.905 315.621 197.207  1.00  0.00     0.004 C 
ENDBRANCH  10  11
ENDBRANCH   9  10
ENDBRANCH   8   9
ENDBRANCH   7   8
ENDBRANCH   6   7
ENDBRANCH   5   6
ENDBRANCH   4   5
ENDBRANCH   3   4
ENDBRANCH   2   3
ENDBRANCH   1   2
BRANCH   1  13
ATOM     13  C   UNL     1      86.137 314.566 206.146  1.00  0.00     0.000 C 
BRANCH  13  14
ATOM     14  C   UNL     1      85.261 315.660 205.513  1.00  0.00     0.000 C 
BRANCH  14  15
ATOM     15  C   UNL     1      85.713 317.077 205.906  1.00  0.00     0.000 C 
BRANCH  15  16
ATOM     16  C   UNL     1      85.193 318.157 204.940  1.00  0.00     0.000 C 
BRANCH  16  17
ATOM     17  C   UNL     1      85.929 318.226 203.587  1.00  0.00     0.000 C 
BRANCH  17  18
ATOM     18  C   UNL     1      85.038 318.017 202.347  1.00  0.00     0.000 C 
BRANCH  18  19
ATOM     19  C   UNL     1      84.903 316.552 201.883  1.00  0.00     0.000 C 
BRANCH  19  20
ATOM     20  C   UNL     1      86.192 315.712 201.993  1.00  0.00     0.006 C 
BRANCH  20  21
ATOM     21  C   UNL     1      86.496 314.849 200.759  1.00  0.00     0.053 C 
BRANCH  21  22
ATOM     22  C   UNL     1      87.060 313.514 201.134  1.00  0.00     0.041 C 
ATOM     23  O   UNL     1      88.233 313.204 200.794  1.00  0.00    -0.550 OA
ATOM     24  O   UNL     1      86.281 312.598 201.831  1.00  0.00    -0.550 OA
ENDBRANCH  21  22
ENDBRANCH  20  21
ENDBRANCH  19  20
ENDBRANCH  18  19
ENDBRANCH  17  18
ENDBRANCH  16  17
ENDBRANCH  15  16
ENDBRANCH  14  15
ENDBRANCH  13  14
ENDBRANCH   1  13
TORSDOF 20
ENDMDL
MODEL 8
REMARK VINA RESULT:    -4.201     13.839     16.648
REMARK INTER + INTRA:         -11.753
REMARK INTER:                  -8.091
REMARK INTRA:                  -3.662
REMARK UNBOUND:                -2.640
REMARK SMILES CCCCCCCCCCCCCCCCCCCCCC(=O)[O-]
REMARK SMILES IDX 12 1 11 2 10 3 9 4 8 5 7 6 6 7 5 8 4 9 3 10 2 11 1 12 13 13
REMARK SMILES IDX 14 14 15 15 16 16 17 17 18 18 19 19 20 20 21 21 22 22 23 23
REMARK SMILES IDX 24 24
REMARK H PARENT
REMARK Flexibility Score: inf
ROOT
ATOM      1  C   UNL     1     103.788 307.954 202.147  1.00  0.00     0.000 C 
ENDROOT
BRANCH   1   2
ATOM      2  C   UNL     1     104.839 308.072 201.032  1.00  0.00     0.000 C 
BRANCH   2   3
ATOM      3  C   UNL     1     104.939 309.497 200.458  1.00  0.00     0.000 C 
BRANCH   3   4
ATOM      4  C   UNL     1     104.739 310.576 201.536  1.00  0.00    -0.000 C 
BRANCH   4   5
ATOM      5  C   UNL     1     103.703 311.636 201.121  1.00  0.00    -0.000 C 
BRANCH   5   6
ATOM      6  C   UNL     1     102.441 311.017 200.500  1.00  0.00    -0.000 C 
BRANCH   6   7
ATOM      7  C   UNL     1     101.148 311.481 201.194  1.00  0.00    -0.000 C 
BRANCH   7   8
ATOM      8  C   UNL     1     100.231 310.300 201.577  1.00  0.00    -0.000 C 
BRANCH   8   9
ATOM      9  C   UNL     1     100.781 309.432 202.725  1.00  0.00    -0.000 C 
BRANCH   9  10
ATOM     10  C   UNL     1     100.194 309.741 204.114  1.00  0.00    -0.000 C 
BRANCH  10  11
ATOM     11  C   UNL     1      98.779 310.346 204.098  1.00  0.00    -0.003 C 
ATOM     12  C   UNL     1      98.733 311.772 204.644  1.00  0.00     0.004 C 
ENDBRANCH  10  11
ENDBRANCH   9  10
ENDBRANCH   8   9
ENDBRANCH   7   8
ENDBRANCH   6   7
ENDBRANCH   5   6
ENDBRANCH   4   5
ENDBRANCH   3   4
ENDBRANCH   2   3
ENDBRANCH   1   2
BRANCH   1  13
ATOM     13  C   UNL     1     104.323 307.228 203.394  1.00  0.00     0.000 C 
BRANCH  13  14
ATOM     14  C   UNL     1     104.764 308.205 204.496  1.00  0.00     0.000 C 
BRANCH  14  15
ATOM     15  C   UNL     1     103.717 309.299 204.767  1.00  0.00     0.000 C 
BRANCH  15  16
ATOM     16  C   UNL     1     103.968 310.049 206.087  1.00  0.00     0.000 C 
BRANCH  16  17
ATOM     17  C   UNL     1     103.562 311.537 206.076  1.00  0.00     0.000 C 
BRANCH  17  18
ATOM     18  C   UNL     1     103.537 312.196 204.684  1.00  0.00     0.000 C 
BRANCH  18  19
ATOM     19  C   UNL     1     102.252 312.983 204.359  1.00  0.00     0.000 C 
BRANCH  19  20
ATOM     20  C   UNL     1     102.469 314.288 203.565  1.00  0.00     0.006 C 
BRANCH  20  21
ATOM     21  C   UNL     1     103.942 314.696 203.405  1.00  0.00     0.053 C 
BRANCH  21  22
ATOM     22  C   UNL     1     104.306 315.846 204.291  1.00  0.00     0.041 C 
ATOM     23  O   UNL     1     104.479 316.993 203.802  1.00  0.00    -0.550 OA
ATOM     24  O   UNL     1     104.485 315.646 205.655  1.00  0.00    -0.550 OA
ENDBRANCH  21  22
ENDBRANCH  20  21
ENDBRANCH  19  20
ENDBRANCH  18  19
ENDBRANCH  17  18
ENDBRANCH  16  17
ENDBRANCH  15  16
ENDBRANCH  14  15
ENDBRANCH  13  14
ENDBRANCH   1  13
TORSDOF 20
ENDMDL
MODEL 9
REMARK VINA RESULT:    -4.190      8.865     11.418
REMARK INTER + INTRA:         -11.729
REMARK INTER:                  -8.655
REMARK INTRA:                  -3.074
REMARK UNBOUND:                -2.640
REMARK SMILES CCCCCCCCCCCCCCCCCCCCCC(=O)[O-]
REMARK SMILES IDX 12 1 11 2 10 3 9 4 8 5 7 6 6 7 5 8 4 9 3 10 2 11 1 12 13 13
REMARK SMILES IDX 14 14 15 15 16 16 17 17 18 18 19 19 20 20 21 21 22 22 23 23
REMARK SMILES IDX 24 24
REMARK H PARENT
REMARK Flexibility Score: inf
ROOT
ATOM      1  C   UNL     1      93.407 310.208 189.154  1.00  0.00     0.000 C 
ENDROOT
BRANCH   1   2
ATOM      2  C   UNL     1      94.582 309.764 190.040  1.00  0.00     0.000 C 
BRANCH   2   3
ATOM      3  C   UNL     1      95.328 308.544 189.471  1.00  0.00     0.000 C 
BRANCH   3   4
ATOM      4  C   UNL     1      95.406 307.384 190.478  1.00  0.00    -0.000 C 
BRANCH   4   5
ATOM      5  C   UNL     1      95.030 307.820 191.906  1.00  0.00    -0.000 C 
BRANCH   5   6
ATOM      6  C   UNL     1      94.706 306.629 192.821  1.00  0.00    -0.000 C 
BRANCH   6   7
ATOM      7  C   UNL     1      94.687 307.012 194.312  1.00  0.00    -0.000 C 
BRANCH   7   8
ATOM      8  C   UNL     1      93.351 306.647 194.994  1.00  0.00    -0.000 C 
BRANCH   8   9
ATOM      9  C   UNL     1      92.323 307.794 195.001  1.00  0.00    -0.000 C 
BRANCH   9  10
ATOM     10  C   UNL     1      91.271 307.734 193.877  1.00  0.00    -0.000 C 
BRANCH  10  11
ATOM     11  C   UNL     1      91.538 308.676 192.691  1.00  0.00    -0.003 C 
ATOM     12  C   UNL     1      92.275 309.952 193.096  1.00  0.00     0.004 C 
ENDBRANCH  10  11
ENDBRANCH   9  10
ENDBRANCH   8   9
ENDBRANCH   7   8
ENDBRANCH   6   7
ENDBRANCH   5   6
ENDBRANCH   4   5
ENDBRANCH   3   4
ENDBRANCH   2   3
ENDBRANCH   1   2
BRANCH   1  13
ATOM     13  C   UNL     1      92.278 309.165 189.097  1.00  0.00     0.000 C 
BRANCH  13  14
ATOM     14  C   UNL     1      91.190 309.536 188.076  1.00  0.00     0.000 C 
BRANCH  14  15
ATOM     15  C   UNL     1      90.557 308.299 187.414  1.00  0.00     0.000 C 
BRANCH  15  16
ATOM     16  C   UNL     1      89.099 308.536 186.980  1.00  0.00     0.000 C 
BRANCH  16  17
ATOM     17  C   UNL     1      88.079 308.589 188.135  1.00  0.00     0.000 C 
BRANCH  17  18
ATOM     18  C   UNL     1      88.222 307.470 189.185  1.00  0.00     0.000 C 
BRANCH  18  19
ATOM     19  C   UNL     1      88.441 307.958 190.631  1.00  0.00     0.000 C 
BRANCH  19  20
ATOM     20  C   UNL     1      88.734 309.466 190.772  1.00  0.00     0.006 C 
BRANCH  20  21
ATOM     21  C   UNL     1      87.873 310.186 191.822  1.00  0.00     0.053 C 
BRANCH  21  22
ATOM     22  C   UNL     1      86.898 311.133 191.194  1.00  0.00     0.041 C 
ATOM     23  O   UNL     1      85.891 311.526 191.840  1.00  0.00    -0.550 OA
ATOM     24  O   UNL     1      87.084 311.558 189.884  1.00  0.00    -0.550 OA
ENDBRANCH  21  22
ENDBRANCH  20  21
ENDBRANCH  19  20
ENDBRANCH  18  19
ENDBRANCH  17  18
ENDBRANCH  16  17
ENDBRANCH  15  16
ENDBRANCH  14  15
ENDBRANCH  13  14
ENDBRANCH   1  13
TORSDOF 20
ENDMDL
