MODEL 1
REMARK VINA RESULT:    -6.865      0.000      0.000
REMARK INTER + INTRA:          -8.412
REMARK INTER:                  -8.269
REMARK INTRA:                  -0.142
REMARK UNBOUND:                -0.142
REMARK SMILES O=c1c(O)c(-c2ccc(O)c(O)c2)oc2cc(O)cc(O)c12
REMARK SMILES IDX 5 1 3 2 2 3 1 4 22 5 20 6 19 7 17 8 16 9 15 10 14 11 6 12
REMARK SMILES IDX 7 13 8 14 9 15 13 16 11 17 10 18 12 20 4 22 21 24 18 26
REMARK H PARENT 10 19 12 21 4 23 21 25 18 27
REMARK Flexibility Score: inf
ROOT
ATOM      1  C   UNL     1     -16.279  14.689  -8.377  1.00  0.00     0.180 A 
ATOM      2  C   UNL     1     -15.016  15.228  -8.676  1.00  0.00     0.208 A 
ATOM      3  C   UNL     1     -14.351  15.989  -7.700  1.00  0.00     0.238 A 
ATOM      4  O   UNL     1     -13.246  16.513  -7.992  1.00  0.00    -0.285 OA
ATOM      5  C   UNL     1     -14.951  16.189  -6.433  1.00  0.00     0.111 A 
ATOM      6  C   UNL     1     -14.351  16.908  -5.356  1.00  0.00     0.134 A 
ATOM      7  C   UNL     1     -15.091  17.154  -4.192  1.00  0.00     0.093 A 
ATOM      8  C   UNL     1     -16.384  16.650  -4.042  1.00  0.00     0.123 A 
ATOM      9  C   UNL     1     -16.957  15.895  -5.063  1.00  0.00     0.094 A 
ATOM     10  C   UNL     1     -16.258  15.665  -6.250  1.00  0.00     0.146 A 
ATOM     11  O   UNL     1     -16.844  14.949  -7.203  1.00  0.00    -0.452 OA
ENDROOT
BRANCH   1  12
ATOM     12  C   UNL     1     -17.029  13.857  -9.345  1.00  0.00     0.025 A 
ATOM     13  C   UNL     1     -18.252  14.289  -9.889  1.00  0.00     0.016 A 
ATOM     14  C   UNL     1     -18.930  13.497 -10.819  1.00  0.00     0.051 A 
ATOM     15  C   UNL     1     -18.390  12.272 -11.230  1.00  0.00     0.157 A 
ATOM     16  C   UNL     1     -16.483  12.637  -9.776  1.00  0.00     0.062 A 
ATOM     17  C   UNL     1     -17.163  11.842 -10.710  1.00  0.00     0.158 A 
BRANCH  15  18
ATOM     18  O   UNL     1     -19.065  11.478 -12.157  1.00  0.00    -0.504 OA
ATOM     19  H   UNL     1     -18.585  10.763 -12.691  1.00  0.00     0.293 HD
ENDBRANCH  15  18
BRANCH  17  20
ATOM     20  O   UNL     1     -16.625  10.625 -11.125  1.00  0.00    -0.504 OA
ATOM     21  H   UNL     1     -17.117  10.021 -11.774  1.00  0.00     0.293 HD
ENDBRANCH  17  20
ENDBRANCH   1  12
BRANCH   2  22
ATOM     22  O   UNL     1     -14.451  15.037  -9.939  1.00  0.00    -0.502 OA
ATOM     23  H   UNL     1     -13.590  15.487 -10.225  1.00  0.00     0.293 HD
ENDBRANCH   2  22
BRANCH   6  24
ATOM     24  O   UNL     1     -13.033  17.375  -5.369  1.00  0.00    -0.507 OA
ATOM     25  H   UNL     1     -12.768  18.348  -5.408  1.00  0.00     0.293 HD
ENDBRANCH   6  24
BRANCH   8  26
ATOM     26  O   UNL     1     -17.107  16.886  -2.875  1.00  0.00    -0.508 OA
ATOM     27  H   UNL     1     -17.917  17.495  -2.867  1.00  0.00     0.293 HD
ENDBRANCH   8  26
TORSDOF 6
ENDMDL
MODEL 2
REMARK VINA RESULT:    -6.516      2.240      3.771
REMARK INTER + INTRA:          -7.992
REMARK INTER:                  -7.732
REMARK INTRA:                  -0.260
REMARK UNBOUND:                -0.142
REMARK SMILES O=c1c(O)c(-c2ccc(O)c(O)c2)oc2cc(O)cc(O)c12
REMARK SMILES IDX 5 1 3 2 2 3 1 4 22 5 20 6 19 7 17 8 16 9 15 10 14 11 6 12
REMARK SMILES IDX 7 13 8 14 9 15 13 16 11 17 10 18 12 20 4 22 21 24 18 26
REMARK H PARENT 10 19 12 21 4 23 21 25 18 27
REMARK Flexibility Score: inf
ROOT
ATOM      1  C   UNL     1     -17.740  13.659  -7.969  1.00  0.00     0.180 A 
ATOM      2  C   UNL     1     -17.903  14.205  -6.684  1.00  0.00     0.208 A 
ATOM      3  C   UNL     1     -17.022  15.211  -6.253  1.00  0.00     0.238 A 
ATOM      4  O   UNL     1     -17.139  15.657  -5.083  1.00  0.00    -0.285 OA
ATOM      5  C   UNL     1     -15.998  15.667  -7.119  1.00  0.00     0.111 A 
ATOM      6  C   UNL     1     -15.074  16.708  -6.803  1.00  0.00     0.134 A 
ATOM      7  C   UNL     1     -14.022  16.988  -7.683  1.00  0.00     0.093 A 
ATOM      8  C   UNL     1     -13.899  16.310  -8.897  1.00  0.00     0.123 A 
ATOM      9  C   UNL     1     -14.831  15.334  -9.243  1.00  0.00     0.094 A 
ATOM     10  C   UNL     1     -15.870  15.006  -8.369  1.00  0.00     0.146 A 
ATOM     11  O   UNL     1     -16.731  14.063  -8.732  1.00  0.00    -0.452 OA
ENDROOT
BRANCH   1  12
ATOM     12  C   UNL     1     -18.645  12.615  -8.502  1.00  0.00     0.025 A 
ATOM     13  C   UNL     1     -19.606  12.911  -9.484  1.00  0.00     0.016 A 
ATOM     14  C   UNL     1     -20.433  11.904  -9.990  1.00  0.00     0.051 A 
ATOM     15  C   UNL     1     -20.301  10.587  -9.532  1.00  0.00     0.157 A 
ATOM     16  C   UNL     1     -18.503  11.288  -8.062  1.00  0.00     0.062 A 
ATOM     17  C   UNL     1     -19.333  10.278  -8.569  1.00  0.00     0.158 A 
BRANCH  15  18
ATOM     18  O   UNL     1     -21.125   9.580 -10.034  1.00  0.00    -0.504 OA
ATOM     19  H   UNL     1     -22.076   9.460  -9.704  1.00  0.00     0.293 HD
ENDBRANCH  15  18
BRANCH  17  20
ATOM     20  O   UNL     1     -19.200   8.964  -8.120  1.00  0.00    -0.504 OA
ATOM     21  H   UNL     1     -18.295   8.574  -7.883  1.00  0.00     0.293 HD
ENDBRANCH  17  20
ENDBRANCH   1  12
BRANCH   2  22
ATOM     22  O   UNL     1     -18.907  13.725  -5.838  1.00  0.00    -0.502 OA
ATOM     23  H   UNL     1     -19.436  12.887  -6.042  1.00  0.00     0.293 HD
ENDBRANCH   2  22
BRANCH   6  24
ATOM     24  O   UNL     1     -15.162  17.508  -5.659  1.00  0.00    -0.507 OA
ATOM     25  H   UNL     1     -15.222  17.156  -4.715  1.00  0.00     0.293 HD
ENDBRANCH   6  24
BRANCH   8  26
ATOM     26  O   UNL     1     -12.858  16.606  -9.774  1.00  0.00    -0.508 OA
ATOM     27  H   UNL     1     -12.548  15.941 -10.473  1.00  0.00     0.293 HD
ENDBRANCH   8  26
TORSDOF 6
ENDMDL
MODEL 3
REMARK VINA RESULT:    -6.417      2.002      7.344
REMARK INTER + INTRA:          -7.872
REMARK INTER:                  -7.551
REMARK INTRA:                  -0.321
REMARK UNBOUND:                -0.142
REMARK SMILES O=c1c(O)c(-c2ccc(O)c(O)c2)oc2cc(O)cc(O)c12
REMARK SMILES IDX 5 1 3 2 2 3 1 4 22 5 20 6 19 7 17 8 16 9 15 10 14 11 6 12
REMARK SMILES IDX 7 13 8 14 9 15 13 16 11 17 10 18 12 20 4 22 21 24 18 26
REMARK H PARENT 10 19 12 21 4 23 21 25 18 27
REMARK Flexibility Score: inf
ROOT
ATOM      1  C   UNL     1     -16.905  14.566  -6.908  1.00  0.00     0.180 A 
ATOM      2  C   UNL     1     -18.207  14.051  -6.780  1.00  0.00     0.208 A 
ATOM      3  C   UNL     1     -18.655  13.091  -7.703  1.00  0.00     0.238 A 
ATOM      4  O   UNL     1     -19.838  12.674  -7.615  1.00  0.00    -0.285 OA
ATOM      5  C   UNL     1     -17.789  12.648  -8.733  1.00  0.00     0.111 A 
ATOM      6  C   UNL     1     -18.123  11.651  -9.698  1.00  0.00     0.134 A 
ATOM      7  C   UNL     1     -17.238  11.384 -10.750  1.00  0.00     0.093 A 
ATOM      8  C   UNL     1     -16.004  12.032 -10.834  1.00  0.00     0.123 A 
ATOM      9  C   UNL     1     -15.643  12.964  -9.863  1.00  0.00     0.094 A 
ATOM     10  C   UNL     1     -16.520  13.277  -8.822  1.00  0.00     0.146 A 
ATOM     11  O   UNL     1     -16.142  14.178  -7.923  1.00  0.00    -0.452 OA
ENDROOT
BRANCH   1  12
ATOM     12  C   UNL     1     -16.355  15.561  -5.960  1.00  0.00     0.025 A 
ATOM     13  C   UNL     1     -15.578  15.168  -4.856  1.00  0.00     0.016 A 
ATOM     14  C   UNL     1     -15.048  16.127  -3.988  1.00  0.00     0.051 A 
ATOM     15  C   UNL     1     -15.276  17.490  -4.218  1.00  0.00     0.157 A 
ATOM     16  C   UNL     1     -16.562  16.930  -6.197  1.00  0.00     0.062 A 
ATOM     17  C   UNL     1     -16.031  17.892  -5.326  1.00  0.00     0.158 A 
BRANCH  15  18
ATOM     18  O   UNL     1     -14.750  18.449  -3.353  1.00  0.00    -0.504 OA
ATOM     19  H   UNL     1     -14.450  19.357  -3.688  1.00  0.00     0.293 HD
ENDBRANCH  15  18
BRANCH  17  20
ATOM     20  O   UNL     1     -16.250  19.250  -5.556  1.00  0.00    -0.504 OA
ATOM     21  H   UNL     1     -16.438  19.893  -4.796  1.00  0.00     0.293 HD
ENDBRANCH  17  20
ENDBRANCH   1  12
BRANCH   2  22
ATOM     22  O   UNL     1     -19.052  14.518  -5.769  1.00  0.00    -0.502 OA
ATOM     23  H   UNL     1     -19.125  15.499  -5.531  1.00  0.00     0.293 HD
ENDBRANCH   2  22
BRANCH   6  24
ATOM     24  O   UNL     1     -19.290  10.881  -9.653  1.00  0.00    -0.507 OA
ATOM     25  H   UNL     1     -19.892  10.704 -10.443  1.00  0.00     0.293 HD
ENDBRANCH   6  24
BRANCH   8  26
ATOM     26  O   UNL     1     -15.123  11.750 -11.875  1.00  0.00    -0.508 OA
ATOM     27  H   UNL     1     -14.146  12.016 -11.830  1.00  0.00     0.293 HD
ENDBRANCH   8  26
TORSDOF 6
ENDMDL
MODEL 4
REMARK VINA RESULT:    -6.400      0.600      1.451
REMARK INTER + INTRA:          -7.851
REMARK INTER:                  -7.697
REMARK INTRA:                  -0.154
REMARK UNBOUND:                -0.142
REMARK SMILES O=c1c(O)c(-c2ccc(O)c(O)c2)oc2cc(O)cc(O)c12
REMARK SMILES IDX 5 1 3 2 2 3 1 4 22 5 20 6 19 7 17 8 16 9 15 10 14 11 6 12
REMARK SMILES IDX 7 13 8 14 9 15 13 16 11 17 10 18 12 20 4 22 21 24 18 26
REMARK H PARENT 10 19 12 21 4 23 21 25 18 27
REMARK Flexibility Score: inf
ROOT
ATOM      1  C   UNL     1     -16.213  14.631  -8.409  1.00  0.00     0.180 A 
ATOM      2  C   UNL     1     -14.966  15.212  -8.701  1.00  0.00     0.208 A 
ATOM      3  C   UNL     1     -14.323  15.977  -7.714  1.00  0.00     0.238 A 
ATOM      4  O   UNL     1     -13.234  16.538  -7.999  1.00  0.00    -0.285 OA
ATOM      5  C   UNL     1     -14.928  16.140  -6.444  1.00  0.00     0.111 A 
ATOM      6  C   UNL     1     -14.348  16.860  -5.357  1.00  0.00     0.134 A 
ATOM      7  C   UNL     1     -15.094  17.067  -4.189  1.00  0.00     0.093 A 
ATOM      8  C   UNL     1     -16.372  16.523  -4.046  1.00  0.00     0.123 A 
ATOM      9  C   UNL     1     -16.923  15.767  -5.078  1.00  0.00     0.094 A 
ATOM     10  C   UNL     1     -16.218  15.575  -6.269  1.00  0.00     0.146 A 
ATOM     11  O   UNL     1     -16.784  14.857  -7.232  1.00  0.00    -0.452 OA
ENDROOT
BRANCH   1  12
ATOM     12  C   UNL     1     -16.939  13.791  -9.389  1.00  0.00     0.025 A 
ATOM     13  C   UNL     1     -16.382  12.599  -9.885  1.00  0.00     0.016 A 
ATOM     14  C   UNL     1     -17.096  11.810 -10.791  1.00  0.00     0.051 A 
ATOM     15  C   UNL     1     -18.380  12.193 -11.202  1.00  0.00     0.157 A 
ATOM     16  C   UNL     1     -18.234  14.159  -9.789  1.00  0.00     0.062 A 
ATOM     17  C   UNL     1     -18.951  13.367 -10.698  1.00  0.00     0.158 A 
BRANCH  15  18
ATOM     18  O   UNL     1     -19.094  11.408 -12.107  1.00  0.00    -0.504 OA
ATOM     19  H   UNL     1     -20.085  11.229 -11.986  1.00  0.00     0.293 HD
ENDBRANCH  15  18
BRANCH  17  20
ATOM     20  O   UNL     1     -20.231  13.742 -11.104  1.00  0.00    -0.504 OA
ATOM     21  H   UNL     1     -20.949  13.054 -11.298  1.00  0.00     0.293 HD
ENDBRANCH  17  20
ENDBRANCH   1  12
BRANCH   2  22
ATOM     22  O   UNL     1     -14.396  15.057  -9.968  1.00  0.00    -0.502 OA
ATOM     23  H   UNL     1     -13.645  15.646 -10.303  1.00  0.00     0.293 HD
ENDBRANCH   2  22
BRANCH   6  24
ATOM     24  O   UNL     1     -13.045  17.366  -5.363  1.00  0.00    -0.507 OA
ATOM     25  H   UNL     1     -12.790  18.302  -5.085  1.00  0.00     0.293 HD
ENDBRANCH   6  24
BRANCH   8  26
ATOM     26  O   UNL     1     -17.100  16.719  -2.875  1.00  0.00    -0.508 OA
ATOM     27  H   UNL     1     -18.090  16.508  -2.824  1.00  0.00     0.293 HD
ENDBRANCH   8  26
TORSDOF 6
ENDMDL
MODEL 5
REMARK VINA RESULT:    -6.343      1.199      1.204
REMARK INTER + INTRA:          -7.783
REMARK INTER:                  -7.462
REMARK INTRA:                  -0.321
REMARK UNBOUND:                -0.142
REMARK SMILES O=c1c(O)c(-c2ccc(O)c(O)c2)oc2cc(O)cc(O)c12
REMARK SMILES IDX 5 1 3 2 2 3 1 4 22 5 20 6 19 7 17 8 16 9 15 10 14 11 6 12
REMARK SMILES IDX 7 13 8 14 9 15 13 16 11 17 10 18 12 20 4 22 21 24 18 26
REMARK H PARENT 10 19 12 21 4 23 21 25 18 27
REMARK Flexibility Score: inf
ROOT
ATOM      1  C   UNL     1     -16.934  14.426  -7.999  1.00  0.00     0.180 A 
ATOM      2  C   UNL     1     -15.625  14.721  -8.421  1.00  0.00     0.208 A 
ATOM      3  C   UNL     1     -14.830  15.569  -7.633  1.00  0.00     0.238 A 
ATOM      4  O   UNL     1     -13.680  15.872  -8.043  1.00  0.00    -0.285 OA
ATOM      5  C   UNL     1     -15.348  16.099  -6.426  1.00  0.00     0.111 A 
ATOM      6  C   UNL     1     -14.617  16.936  -5.530  1.00  0.00     0.134 A 
ATOM      7  C   UNL     1     -15.271  17.508  -4.432  1.00  0.00     0.093 A 
ATOM      8  C   UNL     1     -16.611  17.221  -4.162  1.00  0.00     0.123 A 
ATOM      9  C   UNL     1     -17.316  16.358  -4.997  1.00  0.00     0.094 A 
ATOM     10  C   UNL     1     -16.701  15.801  -6.121  1.00  0.00     0.146 A 
ATOM     11  O   UNL     1     -17.412  14.991  -6.897  1.00  0.00    -0.452 OA
ENDROOT
BRANCH   1  12
ATOM     12  C   UNL     1     -17.823  13.521  -8.764  1.00  0.00     0.025 A 
ATOM     13  C   UNL     1     -18.628  14.000  -9.812  1.00  0.00     0.016 A 
ATOM     14  C   UNL     1     -19.440  13.124 -10.536  1.00  0.00     0.051 A 
ATOM     15  C   UNL     1     -19.449  11.756 -10.232  1.00  0.00     0.157 A 
ATOM     16  C   UNL     1     -17.820  12.146  -8.478  1.00  0.00     0.062 A 
ATOM     17  C   UNL     1     -18.636  11.266  -9.204  1.00  0.00     0.158 A 
BRANCH  15  18
ATOM     18  O   UNL     1     -20.260  10.879 -10.951  1.00  0.00    -0.504 OA
ATOM     19  H   UNL     1     -21.207  10.671 -10.657  1.00  0.00     0.293 HD
ENDBRANCH  15  18
BRANCH  17  20
ATOM     20  O   UNL     1     -18.642   9.904  -8.908  1.00  0.00    -0.504 OA
ATOM     21  H   UNL     1     -18.012   9.507  -8.220  1.00  0.00     0.293 HD
ENDBRANCH  17  20
ENDBRANCH   1  12
BRANCH   2  22
ATOM     22  O   UNL     1     -15.142  14.204  -9.626  1.00  0.00    -0.502 OA
ATOM     23  H   UNL     1     -15.552  13.395 -10.075  1.00  0.00     0.293 HD
ENDBRANCH   2  22
BRANCH   6  24
ATOM     24  O   UNL     1     -13.252  17.212  -5.657  1.00  0.00    -0.507 OA
ATOM     25  H   UNL     1     -12.519  16.519  -5.620  1.00  0.00     0.293 HD
ENDBRANCH   6  24
BRANCH   8  26
ATOM     26  O   UNL     1     -17.249  17.783  -3.058  1.00  0.00    -0.508 OA
ATOM     27  H   UNL     1     -17.994  18.461  -3.165  1.00  0.00     0.293 HD
ENDBRANCH   8  26
TORSDOF 6
ENDMDL
MODEL 6
REMARK VINA RESULT:    -6.198      2.087      7.285
REMARK INTER + INTRA:          -7.608
REMARK INTER:                  -7.308
REMARK INTRA:                  -0.300
REMARK UNBOUND:                -0.142
REMARK SMILES O=c1c(O)c(-c2ccc(O)c(O)c2)oc2cc(O)cc(O)c12
REMARK SMILES IDX 5 1 3 2 2 3 1 4 22 5 20 6 19 7 17 8 16 9 15 10 14 11 6 12
REMARK SMILES IDX 7 13 8 14 9 15 13 16 11 17 10 18 12 20 4 22 21 24 18 26
REMARK H PARENT 10 19 12 21 4 23 21 25 18 27
REMARK Flexibility Score: inf
ROOT
ATOM      1  C   UNL     1     -16.975  14.243  -7.172  1.00  0.00     0.180 A 
ATOM      2  C   UNL     1     -17.854  13.470  -6.394  1.00  0.00     0.208 A 
ATOM      3  C   UNL     1     -18.859  12.726  -7.036  1.00  0.00     0.238 A 
ATOM      4  O   UNL     1     -19.676  12.080  -6.331  1.00  0.00    -0.285 OA
ATOM      5  C   UNL     1     -18.961  12.753  -8.449  1.00  0.00     0.111 A 
ATOM      6  C   UNL     1     -19.913  12.008  -9.206  1.00  0.00     0.134 A 
ATOM      7  C   UNL     1     -20.008  12.212 -10.588  1.00  0.00     0.093 A 
ATOM      8  C   UNL     1     -19.141  13.085 -11.248  1.00  0.00     0.123 A 
ATOM      9  C   UNL     1     -18.168  13.772 -10.526  1.00  0.00     0.094 A 
ATOM     10  C   UNL     1     -18.073  13.617  -9.141  1.00  0.00     0.146 A 
ATOM     11  O   UNL     1     -17.138  14.298  -8.489  1.00  0.00    -0.452 OA
ENDROOT
BRANCH   1  12
ATOM     12  C   UNL     1     -15.877  15.033  -6.570  1.00  0.00     0.025 A 
ATOM     13  C   UNL     1     -14.551  14.564  -6.573  1.00  0.00     0.016 A 
ATOM     14  C   UNL     1     -13.527  15.337  -6.020  1.00  0.00     0.051 A 
ATOM     15  C   UNL     1     -13.810  16.594  -5.471  1.00  0.00     0.157 A 
ATOM     16  C   UNL     1     -16.151  16.303  -6.037  1.00  0.00     0.062 A 
ATOM     17  C   UNL     1     -15.124  17.079  -5.482  1.00  0.00     0.158 A 
BRANCH  15  18
ATOM     18  O   UNL     1     -12.791  17.369  -4.917  1.00  0.00    -0.504 OA
ATOM     19  H   UNL     1     -12.849  18.380  -4.891  1.00  0.00     0.293 HD
ENDBRANCH  15  18
BRANCH  17  20
ATOM     20  O   UNL     1     -15.401  18.334  -4.940  1.00  0.00    -0.504 OA
ATOM     21  H   UNL     1     -15.437  19.165  -5.519  1.00  0.00     0.293 HD
ENDBRANCH  17  20
ENDBRANCH   1  12
BRANCH   2  22
ATOM     22  O   UNL     1     -17.750  13.474  -5.001  1.00  0.00    -0.502 OA
ATOM     23  H   UNL     1     -16.918  13.792  -4.518  1.00  0.00     0.293 HD
ENDBRANCH   2  22
BRANCH   6  24
ATOM     24  O   UNL     1     -20.765  11.044  -8.657  1.00  0.00    -0.507 OA
ATOM     25  H   UNL     1     -21.248  11.138  -7.776  1.00  0.00     0.293 HD
ENDBRANCH   6  24
BRANCH   8  26
ATOM     26  O   UNL     1     -19.231  13.270 -12.626  1.00  0.00    -0.508 OA
ATOM     27  H   UNL     1     -18.661  13.955 -13.108  1.00  0.00     0.293 HD
ENDBRANCH   8  26
TORSDOF 6
ENDMDL
MODEL 7
REMARK VINA RESULT:    -6.141      2.138      6.807
REMARK INTER + INTRA:          -7.540
REMARK INTER:                  -7.222
REMARK INTRA:                  -0.317
REMARK UNBOUND:                -0.142
REMARK SMILES O=c1c(O)c(-c2ccc(O)c(O)c2)oc2cc(O)cc(O)c12
REMARK SMILES IDX 5 1 3 2 2 3 1 4 22 5 20 6 19 7 17 8 16 9 15 10 14 11 6 12
REMARK SMILES IDX 7 13 8 14 9 15 13 16 11 17 10 18 12 20 4 22 21 24 18 26
REMARK H PARENT 10 19 12 21 4 23 21 25 18 27
REMARK Flexibility Score: inf
ROOT
ATOM      1  C   UNL     1     -16.594  14.278  -7.562  1.00  0.00     0.180 A 
ATOM      2  C   UNL     1     -15.953  14.031  -8.788  1.00  0.00     0.208 A 
ATOM      3  C   UNL     1     -16.515  13.099  -9.676  1.00  0.00     0.238 A 
ATOM      4  O   UNL     1     -15.908  12.842 -10.747  1.00  0.00    -0.285 OA
ATOM      5  C   UNL     1     -17.720  12.437  -9.332  1.00  0.00     0.111 A 
ATOM      6  C   UNL     1     -18.399  11.505 -10.171  1.00  0.00     0.134 A 
ATOM      7  C   UNL     1     -19.512  10.813  -9.676  1.00  0.00     0.093 A 
ATOM      8  C   UNL     1     -20.008  11.070  -8.396  1.00  0.00     0.123 A 
ATOM      9  C   UNL     1     -19.387  12.023  -7.591  1.00  0.00     0.094 A 
ATOM     10  C   UNL     1     -18.253  12.701  -8.043  1.00  0.00     0.146 A 
ATOM     11  O   UNL     1     -17.686  13.594  -7.241  1.00  0.00    -0.452 OA
ENDROOT
BRANCH   1  12
ATOM     12  C   UNL     1     -16.075  15.264  -6.586  1.00  0.00     0.025 A 
ATOM     13  C   UNL     1     -15.210  14.879  -5.547  1.00  0.00     0.016 A 
ATOM     14  C   UNL     1     -14.713  15.831  -4.652  1.00  0.00     0.051 A 
ATOM     15  C   UNL     1     -15.061  17.181  -4.793  1.00  0.00     0.157 A 
ATOM     16  C   UNL     1     -16.403  16.622  -6.735  1.00  0.00     0.062 A 
ATOM     17  C   UNL     1     -15.904  17.577  -5.837  1.00  0.00     0.158 A 
BRANCH  15  18
ATOM     18  O   UNL     1     -14.568  18.133  -3.902  1.00  0.00    -0.504 OA
ATOM     19  H   UNL     1     -14.218  19.029  -4.223  1.00  0.00     0.293 HD
ENDBRANCH  15  18
BRANCH  17  20
ATOM     20  O   UNL     1     -16.243  18.922  -5.978  1.00  0.00    -0.504 OA
ATOM     21  H   UNL     1     -17.091  19.301  -5.572  1.00  0.00     0.293 HD
ENDBRANCH  17  20
ENDBRANCH   1  12
BRANCH   2  22
ATOM     22  O   UNL     1     -14.754  14.678  -9.098  1.00  0.00    -0.502 OA
ATOM     23  H   UNL     1     -14.284  15.295  -8.447  1.00  0.00     0.293 HD
ENDBRANCH   2  22
BRANCH   6  24
ATOM     24  O   UNL     1     -18.041  11.243 -11.497  1.00  0.00    -0.507 OA
ATOM     25  H   UNL     1     -18.430  11.711 -12.302  1.00  0.00     0.293 HD
ENDBRANCH   6  24
BRANCH   8  26
ATOM     26  O   UNL     1     -21.125  10.389  -7.917  1.00  0.00    -0.508 OA
ATOM     27  H   UNL     1     -21.094   9.862  -7.053  1.00  0.00     0.293 HD
ENDBRANCH   8  26
TORSDOF 6
ENDMDL
MODEL 8
REMARK VINA RESULT:    -6.030      1.798      2.844
REMARK INTER + INTRA:          -7.406
REMARK INTER:                  -7.160
REMARK INTRA:                  -0.246
REMARK UNBOUND:                -0.142
REMARK SMILES O=c1c(O)c(-c2ccc(O)c(O)c2)oc2cc(O)cc(O)c12
REMARK SMILES IDX 5 1 3 2 2 3 1 4 22 5 20 6 19 7 17 8 16 9 15 10 14 11 6 12
REMARK SMILES IDX 7 13 8 14 9 15 13 16 11 17 10 18 12 20 4 22 21 24 18 26
REMARK H PARENT 10 19 12 21 4 23 21 25 18 27
REMARK Flexibility Score: inf
ROOT
ATOM      1  C   UNL     1     -17.373  14.543  -7.930  1.00  0.00     0.180 A 
ATOM      2  C   UNL     1     -18.082  15.594  -7.322  1.00  0.00     0.208 A 
ATOM      3  C   UNL     1     -17.416  16.423  -6.404  1.00  0.00     0.238 A 
ATOM      4  O   UNL     1     -18.069  17.327  -5.823  1.00  0.00    -0.285 OA
ATOM      5  C   UNL     1     -16.047  16.199  -6.117  1.00  0.00     0.111 A 
ATOM      6  C   UNL     1     -15.263  17.001  -5.235  1.00  0.00     0.134 A 
ATOM      7  C   UNL     1     -13.954  16.611  -4.925  1.00  0.00     0.093 A 
ATOM      8  C   UNL     1     -13.381  15.484  -5.518  1.00  0.00     0.123 A 
ATOM      9  C   UNL     1     -14.118  14.728  -6.427  1.00  0.00     0.094 A 
ATOM     10  C   UNL     1     -15.438  15.072  -6.727  1.00  0.00     0.146 A 
ATOM     11  O   UNL     1     -16.109  14.319  -7.591  1.00  0.00    -0.452 OA
ENDROOT
BRANCH   1  12
ATOM     12  C   UNL     1     -18.000  13.643  -8.926  1.00  0.00     0.025 A 
ATOM     13  C   UNL     1     -18.329  14.095 -10.216  1.00  0.00     0.016 A 
ATOM     14  C   UNL     1     -18.897  13.222 -11.147  1.00  0.00     0.051 A 
ATOM     15  C   UNL     1     -19.131  11.883 -10.808  1.00  0.00     0.157 A 
ATOM     16  C   UNL     1     -18.217  12.294  -8.598  1.00  0.00     0.062 A 
ATOM     17  C   UNL     1     -18.787  11.418  -9.533  1.00  0.00     0.158 A 
BRANCH  15  18
ATOM     18  O   UNL     1     -19.699  11.009 -11.734  1.00  0.00    -0.504 OA
ATOM     19  H   UNL     1     -19.199  10.193 -12.068  1.00  0.00     0.293 HD
ENDBRANCH  15  18
BRANCH  17  20
ATOM     20  O   UNL     1     -19.015  10.083  -9.200  1.00  0.00    -0.504 OA
ATOM     21  H   UNL     1     -18.603   9.326  -9.733  1.00  0.00     0.293 HD
ENDBRANCH  17  20
ENDBRANCH   1  12
BRANCH   2  22
ATOM     22  O   UNL     1     -19.437  15.784  -7.603  1.00  0.00    -0.502 OA
ATOM     23  H   UNL     1     -19.845  15.552  -8.500  1.00  0.00     0.293 HD
ENDBRANCH   2  22
BRANCH   6  24
ATOM     24  O   UNL     1     -15.710  18.196  -4.661  1.00  0.00    -0.507 OA
ATOM     25  H   UNL     1     -15.659  19.101  -5.105  1.00  0.00     0.293 HD
ENDBRANCH   6  24
BRANCH   8  26
ATOM     26  O   UNL     1     -12.073  15.110  -5.217  1.00  0.00    -0.508 OA
ATOM     27  H   UNL     1     -11.462  14.706  -5.917  1.00  0.00     0.293 HD
ENDBRANCH   8  26
TORSDOF 6
ENDMDL
MODEL 9
REMARK VINA RESULT:    -5.749      1.940      3.168
REMARK INTER + INTRA:          -7.067
REMARK INTER:                  -7.115
REMARK INTRA:                   0.048
REMARK UNBOUND:                -0.142
REMARK SMILES O=c1c(O)c(-c2ccc(O)c(O)c2)oc2cc(O)cc(O)c12
REMARK SMILES IDX 5 1 3 2 2 3 1 4 22 5 20 6 19 7 17 8 16 9 15 10 14 11 6 12
REMARK SMILES IDX 7 13 8 14 9 15 13 16 11 17 10 18 12 20 4 22 21 24 18 26
REMARK H PARENT 10 19 12 21 4 23 21 25 18 27
REMARK Flexibility Score: inf
ROOT
ATOM      1  C   UNL     1     -16.973  14.867  -7.454  1.00  0.00     0.180 A 
ATOM      2  C   UNL     1     -18.235  15.449  -7.246  1.00  0.00     0.208 A 
ATOM      3  C   UNL     1     -18.367  16.469  -6.290  1.00  0.00     0.238 A 
ATOM      4  O   UNL     1     -19.509  16.948  -6.071  1.00  0.00    -0.285 OA
ATOM      5  C   UNL     1     -17.231  16.904  -5.564  1.00  0.00     0.111 A 
ATOM      6  C   UNL     1     -17.241  17.956  -4.601  1.00  0.00     0.134 A 
ATOM      7  C   UNL     1     -16.088  18.215  -3.849  1.00  0.00     0.093 A 
ATOM      8  C   UNL     1     -14.908  17.503  -4.073  1.00  0.00     0.123 A 
ATOM      9  C   UNL     1     -14.871  16.514  -5.054  1.00  0.00     0.094 A 
ATOM     10  C   UNL     1     -16.016  16.208  -5.793  1.00  0.00     0.146 A 
ATOM     11  O   UNL     1     -15.941  15.252  -6.711  1.00  0.00    -0.452 OA
ENDROOT
BRANCH   1  12
ATOM     12  C   UNL     1     -16.751  13.804  -8.462  1.00  0.00     0.025 A 
ATOM     13  C   UNL     1     -15.681  13.871  -9.372  1.00  0.00     0.016 A 
ATOM     14  C   UNL     1     -15.477  12.845 -10.298  1.00  0.00     0.051 A 
ATOM     15  C   UNL     1     -16.328  11.732 -10.318  1.00  0.00     0.157 A 
ATOM     16  C   UNL     1     -17.588  12.676  -8.472  1.00  0.00     0.062 A 
ATOM     17  C   UNL     1     -17.383  11.646  -9.402  1.00  0.00     0.158 A 
BRANCH  15  18
ATOM     18  O   UNL     1     -16.128  10.707 -11.242  1.00  0.00    -0.504 OA
ATOM     19  H   UNL     1     -16.861  10.043 -11.463  1.00  0.00     0.293 HD
ENDBRANCH  15  18
BRANCH  17  20
ATOM     20  O   UNL     1     -18.224  10.535  -9.420  1.00  0.00    -0.504 OA
ATOM     21  H   UNL     1     -19.204  10.614  -9.669  1.00  0.00     0.293 HD
ENDBRANCH  17  20
ENDBRANCH   1  12
BRANCH   2  22
ATOM     22  O   UNL     1     -19.347  14.989  -7.958  1.00  0.00    -0.502 OA
ATOM     23  H   UNL     1     -19.758  14.079  -7.797  1.00  0.00     0.293 HD
ENDBRANCH   2  22
BRANCH   6  24
ATOM     24  O   UNL     1     -18.340  18.788  -4.364  1.00  0.00    -0.507 OA
ATOM     25  H   UNL     1     -18.468  19.350  -3.535  1.00  0.00     0.293 HD
ENDBRANCH   6  24
BRANCH   8  26
ATOM     26  O   UNL     1     -13.760  17.777  -3.332  1.00  0.00    -0.508 OA
ATOM     27  H   UNL     1     -12.857  17.890  -3.776  1.00  0.00     0.293 HD
ENDBRANCH   8  26
TORSDOF 6
ENDMDL
