MODEL 1
REMARK VINA RESULT:    -4.040      0.000      0.000
REMARK INTER + INTRA:         -10.376
REMARK INTER:                  -7.819
REMARK INTRA:                  -2.557
REMARK UNBOUND:                -2.557
REMARK SMILES CCCCCCCCCCCCCCCCCC(=O)[O-]
REMARK SMILES IDX 10 1 11 2 12 3 13 4 14 5 15 6 16 7 17 8 18 9 19 10 20 11
REMARK SMILES IDX 9 12 8 13 7 14 6 15 5 16 4 17 3 18 2 19 1 20
REMARK H PARENT
REMARK Flexibility Score: inf
ROOT
ATOM      1  C   UNL     1     -36.709  81.386 -18.858  1.00  0.00     0.000 C 
ENDROOT
BRANCH   1   2
ATOM      2  C   UNL     1     -37.533  82.052 -19.973  1.00  0.00     0.000 C 
BRANCH   2   3
ATOM      3  C   UNL     1     -37.002  81.707 -21.382  1.00  0.00     0.000 C 
BRANCH   3   4
ATOM      4  C   UNL     1     -36.858  82.927 -22.313  1.00  0.00     0.000 C 
BRANCH   4   5
ATOM      5  C   UNL     1     -37.681  84.165 -21.909  1.00  0.00     0.000 C 
BRANCH   5   6
ATOM      6  C   UNL     1     -37.524  85.384 -22.837  1.00  0.00     0.000 C 
BRANCH   6   7
ATOM      7  C   UNL     1     -36.118  86.004 -22.775  1.00  0.00     0.006 C 
BRANCH   7   8
ATOM      8  C   UNL     1     -36.053  87.361 -23.488  1.00  0.00     0.053 C 
BRANCH   8   9
ATOM      9  C   UNL     1     -35.212  87.295 -24.727  1.00  0.00     0.041 C 
ATOM     10  O   UNL     1     -35.701  86.865 -25.804  1.00  0.00    -0.550 OA
ATOM     11  O   UNL     1     -33.877  87.677 -24.681  1.00  0.00    -0.550 OA
ENDBRANCH   8   9
ENDBRANCH   7   8
ENDBRANCH   6   7
ENDBRANCH   5   6
ENDBRANCH   4   5
ENDBRANCH   3   4
ENDBRANCH   2   3
ENDBRANCH   1   2
BRANCH   1  12
ATOM     12  C   UNL     1     -36.397  82.341 -17.690  1.00  0.00     0.000 C 
BRANCH  12  13
ATOM     13  C   UNL     1     -36.750  83.822 -17.939  1.00  0.00    -0.000 C 
BRANCH  13  14
ATOM     14  C   UNL     1     -35.548  84.759 -18.149  1.00  0.00    -0.000 C 
BRANCH  14  15
ATOM     15  C   UNL     1     -34.868  84.576 -19.514  1.00  0.00    -0.000 C 
BRANCH  15  16
ATOM     16  C   UNL     1     -33.608  83.709 -19.385  1.00  0.00    -0.000 C 
BRANCH  16  17
ATOM     17  C   UNL     1     -33.405  82.778 -20.590  1.00  0.00    -0.000 C 
BRANCH  17  18
ATOM     18  C   UNL     1     -33.401  81.293 -20.194  1.00  0.00    -0.000 C 
BRANCH  18  19
ATOM     19  C   UNL     1     -32.693  81.084 -18.850  1.00  0.00    -0.003 C 
ATOM     20  C   UNL     1     -31.817  79.835 -18.877  1.00  0.00     0.004 C 
ENDBRANCH  18  19
ENDBRANCH  17  18
ENDBRANCH  16  17
ENDBRANCH  15  16
ENDBRANCH  14  15
ENDBRANCH  13  14
ENDBRANCH  12  13
ENDBRANCH   1  12
TORSDOF 16
ENDMDL
MODEL 2
REMARK VINA RESULT:    -3.923     15.759     18.021
REMARK INTER + INTRA:         -10.150
REMARK INTER:                  -7.449
REMARK INTRA:                  -2.701
REMARK UNBOUND:                -2.557
REMARK SMILES CCCCCCCCCCCCCCCCCC(=O)[O-]
REMARK SMILES IDX 10 1 11 2 12 3 13 4 14 5 15 6 16 7 17 8 18 9 19 10 20 11
REMARK SMILES IDX 9 12 8 13 7 14 6 15 5 16 4 17 3 18 2 19 1 20
REMARK H PARENT
REMARK Flexibility Score: inf
ROOT
ATOM      1  C   UNL     1     -25.508  95.425 -28.366  1.00  0.00     0.000 C 
ENDROOT
BRANCH   1   2
ATOM      2  C   UNL     1     -24.285  96.185 -28.907  1.00  0.00     0.000 C 
BRANCH   2   3
ATOM      3  C   UNL     1     -24.428  96.543 -30.402  1.00  0.00     0.000 C 
BRANCH   3   4
ATOM      4  C   UNL     1     -23.286  96.006 -31.287  1.00  0.00     0.000 C 
BRANCH   4   5
ATOM      5  C   UNL     1     -23.297  94.483 -31.524  1.00  0.00     0.000 C 
BRANCH   5   6
ATOM      6  C   UNL     1     -22.940  94.044 -32.957  1.00  0.00     0.000 C 
BRANCH   6   7
ATOM      7  C   UNL     1     -24.097  94.248 -33.949  1.00  0.00     0.006 C 
BRANCH   7   8
ATOM      8  C   UNL     1     -25.464  93.981 -33.304  1.00  0.00     0.053 C 
BRANCH   8   9
ATOM      9  C   UNL     1     -26.386  95.152 -33.459  1.00  0.00     0.041 C 
ATOM     10  O   UNL     1     -25.924  96.294 -33.719  1.00  0.00    -0.550 OA
ATOM     11  O   UNL     1     -27.754  94.987 -33.279  1.00  0.00    -0.550 OA
ENDBRANCH   8   9
ENDBRANCH   7   8
ENDBRANCH   6   7
ENDBRANCH   5   6
ENDBRANCH   4   5
ENDBRANCH   3   4
ENDBRANCH   2   3
ENDBRANCH   1   2
BRANCH   1  12
ATOM     12  C   UNL     1     -26.120  94.461 -29.399  1.00  0.00     0.000 C 
BRANCH  12  13
ATOM     13  C   UNL     1     -25.800  92.969 -29.176  1.00  0.00    -0.000 C 
BRANCH  13  14
ATOM     14  C   UNL     1     -25.058  92.642 -27.868  1.00  0.00    -0.000 C 
BRANCH  14  15
ATOM     15  C   UNL     1     -23.652  92.068 -28.097  1.00  0.00    -0.000 C 
BRANCH  15  16
ATOM     16  C   UNL     1     -23.722  90.575 -28.447  1.00  0.00    -0.000 C 
BRANCH  16  17
ATOM     17  C   UNL     1     -22.688  90.166 -29.507  1.00  0.00    -0.000 C 
BRANCH  17  18
ATOM     18  C   UNL     1     -22.688  91.104 -30.724  1.00  0.00    -0.000 C 
BRANCH  18  19
ATOM     19  C   UNL     1     -23.378  90.445 -31.924  1.00  0.00    -0.003 C 
ATOM     20  C   UNL     1     -24.891  90.632 -31.860  1.00  0.00     0.004 C 
ENDBRANCH  18  19
ENDBRANCH  17  18
ENDBRANCH  16  17
ENDBRANCH  15  16
ENDBRANCH  14  15
ENDBRANCH  13  14
ENDBRANCH  12  13
ENDBRANCH   1  12
TORSDOF 16
ENDMDL
MODEL 3
REMARK VINA RESULT:    -3.901      3.127      5.610
REMARK INTER + INTRA:         -10.106
REMARK INTER:                  -7.076
REMARK INTRA:                  -3.030
REMARK UNBOUND:                -2.557
REMARK SMILES CCCCCCCCCCCCCCCCCC(=O)[O-]
REMARK SMILES IDX 10 1 11 2 12 3 13 4 14 5 15 6 16 7 17 8 18 9 19 10 20 11
REMARK SMILES IDX 9 12 8 13 7 14 6 15 5 16 4 17 3 18 2 19 1 20
REMARK H PARENT
REMARK Flexibility Score: inf
ROOT
ATOM      1  C   UNL     1     -36.801  81.412 -18.754  1.00  0.00     0.000 C 
ENDROOT
BRANCH   1   2
ATOM      2  C   UNL     1     -37.547  82.195 -19.848  1.00  0.00     0.000 C 
BRANCH   2   3
ATOM      3  C   UNL     1     -37.378  81.560 -21.246  1.00  0.00     0.000 C 
BRANCH   3   4
ATOM      4  C   UNL     1     -36.212  80.557 -21.341  1.00  0.00     0.000 C 
BRANCH   4   5
ATOM      5  C   UNL     1     -35.038  80.995 -22.237  1.00  0.00     0.000 C 
BRANCH   5   6
ATOM      6  C   UNL     1     -33.740  81.347 -21.486  1.00  0.00     0.000 C 
BRANCH   6   7
ATOM      7  C   UNL     1     -33.589  80.577 -20.163  1.00  0.00     0.006 C 
BRANCH   7   8
ATOM      8  C   UNL     1     -32.713  81.331 -19.154  1.00  0.00     0.053 C 
BRANCH   8   9
ATOM      9  C   UNL     1     -31.257  81.045 -19.363  1.00  0.00     0.041 C 
ATOM     10  O   UNL     1     -30.426  81.989 -19.411  1.00  0.00    -0.550 OA
ATOM     11  O   UNL     1     -30.825  79.736 -19.540  1.00  0.00    -0.550 OA
ENDBRANCH   8   9
ENDBRANCH   7   8
ENDBRANCH   6   7
ENDBRANCH   5   6
ENDBRANCH   4   5
ENDBRANCH   3   4
ENDBRANCH   2   3
ENDBRANCH   1   2
BRANCH   1  12
ATOM     12  C   UNL     1     -36.101  82.327 -17.732  1.00  0.00     0.000 C 
BRANCH  12  13
ATOM     13  C   UNL     1     -36.482  83.819 -17.815  1.00  0.00    -0.000 C 
BRANCH  13  14
ATOM     14  C   UNL     1     -35.345  84.767 -18.237  1.00  0.00    -0.000 C 
BRANCH  14  15
ATOM     15  C   UNL     1     -34.733  84.410 -19.599  1.00  0.00    -0.000 C 
BRANCH  15  16
ATOM     16  C   UNL     1     -35.595  84.958 -20.746  1.00  0.00    -0.000 C 
BRANCH  16  17
ATOM     17  C   UNL     1     -35.014  84.634 -22.130  1.00  0.00    -0.000 C 
BRANCH  17  18
ATOM     18  C   UNL     1     -36.100  84.505 -23.210  1.00  0.00    -0.000 C 
BRANCH  18  19
ATOM     19  C   UNL     1     -37.233  85.510 -22.972  1.00  0.00    -0.003 C 
ATOM     20  C   UNL     1     -38.599  84.842 -23.099  1.00  0.00     0.004 C 
ENDBRANCH  18  19
ENDBRANCH  17  18
ENDBRANCH  16  17
ENDBRANCH  15  16
ENDBRANCH  14  15
ENDBRANCH  13  14
ENDBRANCH  12  13
ENDBRANCH   1  12
TORSDOF 16
ENDMDL
MODEL 4
REMARK VINA RESULT:    -3.900     13.388     17.094
REMARK INTER + INTRA:         -10.104
REMARK INTER:                  -7.744
REMARK INTRA:                  -2.360
REMARK UNBOUND:                -2.557
REMARK SMILES CCCCCCCCCCCCCCCCCC(=O)[O-]
REMARK SMILES IDX 10 1 11 2 12 3 13 4 14 5 15 6 16 7 17 8 18 9 19 10 20 11
REMARK SMILES IDX 9 12 8 13 7 14 6 15 5 16 4 17 3 18 2 19 1 20
REMARK H PARENT
REMARK Flexibility Score: inf
ROOT
ATOM      1  C   UNL     1     -23.765  91.112 -31.638  1.00  0.00     0.000 C 
ENDROOT
BRANCH   1   2
ATOM      2  C   UNL     1     -22.616  91.195 -30.618  1.00  0.00     0.000 C 
BRANCH   2   3
ATOM      3  C   UNL     1     -22.737  90.130 -29.507  1.00  0.00     0.000 C 
BRANCH   3   4
ATOM      4  C   UNL     1     -24.104  89.419 -29.466  1.00  0.00     0.000 C 
BRANCH   4   5
ATOM      5  C   UNL     1     -24.548  88.924 -28.076  1.00  0.00     0.000 C 
BRANCH   5   6
ATOM      6  C   UNL     1     -24.080  87.502 -27.710  1.00  0.00     0.000 C 
BRANCH   6   7
ATOM      7  C   UNL     1     -24.362  87.142 -26.242  1.00  0.00     0.006 C 
BRANCH   7   8
ATOM      8  C   UNL     1     -24.287  88.368 -25.322  1.00  0.00     0.053 C 
BRANCH   8   9
ATOM      9  C   UNL     1     -22.908  88.561 -24.770  1.00  0.00     0.041 C 
ATOM     10  O   UNL     1     -22.354  89.691 -24.828  1.00  0.00    -0.550 OA
ATOM     11  O   UNL     1     -22.220  87.484 -24.224  1.00  0.00    -0.550 OA
ENDBRANCH   8   9
ENDBRANCH   7   8
ENDBRANCH   6   7
ENDBRANCH   5   6
ENDBRANCH   4   5
ENDBRANCH   3   4
ENDBRANCH   2   3
ENDBRANCH   1   2
BRANCH   1  12
ATOM     12  C   UNL     1     -24.225  92.493 -32.138  1.00  0.00     0.000 C 
BRANCH  12  13
ATOM     13  C   UNL     1     -23.113  93.555 -32.254  1.00  0.00    -0.000 C 
BRANCH  13  14
ATOM     14  C   UNL     1     -23.487  94.959 -31.745  1.00  0.00    -0.000 C 
BRANCH  14  15
ATOM     15  C   UNL     1     -24.741  94.968 -30.859  1.00  0.00    -0.000 C 
BRANCH  15  16
ATOM     16  C   UNL     1     -24.513  95.814 -29.599  1.00  0.00    -0.000 C 
BRANCH  16  17
ATOM     17  C   UNL     1     -24.726  95.016 -28.303  1.00  0.00    -0.000 C 
BRANCH  17  18
ATOM     18  C   UNL     1     -24.384  93.527 -28.465  1.00  0.00    -0.000 C 
BRANCH  18  19
ATOM     19  C   UNL     1     -25.520  92.642 -27.940  1.00  0.00    -0.003 C 
ATOM     20  C   UNL     1     -26.449  92.209 -29.070  1.00  0.00     0.004 C 
ENDBRANCH  18  19
ENDBRANCH  17  18
ENDBRANCH  16  17
ENDBRANCH  15  16
ENDBRANCH  14  15
ENDBRANCH  13  14
ENDBRANCH  12  13
ENDBRANCH   1  12
TORSDOF 16
ENDMDL
MODEL 5
REMARK VINA RESULT:    -3.878     15.113     17.542
REMARK INTER + INTRA:         -10.062
REMARK INTER:                  -7.462
REMARK INTRA:                  -2.600
REMARK UNBOUND:                -2.557
REMARK SMILES CCCCCCCCCCCCCCCCCC(=O)[O-]
REMARK SMILES IDX 10 1 11 2 12 3 13 4 14 5 15 6 16 7 17 8 18 9 19 10 20 11
REMARK SMILES IDX 9 12 8 13 7 14 6 15 5 16 4 17 3 18 2 19 1 20
REMARK H PARENT
REMARK Flexibility Score: inf
ROOT
ATOM      1  C   UNL     1     -24.058  95.996 -29.191  1.00  0.00     0.000 C 
ENDROOT
BRANCH   1   2
ATOM      2  C   UNL     1     -24.383  96.440 -30.628  1.00  0.00     0.000 C 
BRANCH   2   3
ATOM      3  C   UNL     1     -23.182  96.264 -31.584  1.00  0.00     0.000 C 
BRANCH   3   4
ATOM      4  C   UNL     1     -23.292  95.036 -32.509  1.00  0.00     0.000 C 
BRANCH   4   5
ATOM      5  C   UNL     1     -23.515  93.690 -31.793  1.00  0.00     0.000 C 
BRANCH   5   6
ATOM      6  C   UNL     1     -24.499  92.734 -32.493  1.00  0.00     0.000 C 
BRANCH   6   7
ATOM      7  C   UNL     1     -25.829  92.587 -31.735  1.00  0.00     0.006 C 
BRANCH   7   8
ATOM      8  C   UNL     1     -26.669  93.871 -31.789  1.00  0.00     0.053 C 
BRANCH   8   9
ATOM      9  C   UNL     1     -26.960  94.283 -33.200  1.00  0.00     0.041 C 
ATOM     10  O   UNL     1     -27.669  93.552 -33.940  1.00  0.00    -0.550 OA
ATOM     11  O   UNL     1     -26.417  95.457 -33.707  1.00  0.00    -0.550 OA
ENDBRANCH   8   9
ENDBRANCH   7   8
ENDBRANCH   6   7
ENDBRANCH   5   6
ENDBRANCH   4   5
ENDBRANCH   3   4
ENDBRANCH   2   3
ENDBRANCH   1   2
BRANCH   1  12
ATOM     12  C   UNL     1     -25.136  96.416 -28.175  1.00  0.00     0.000 C 
BRANCH  12  13
ATOM     13  C   UNL     1     -25.855  95.253 -27.461  1.00  0.00    -0.000 C 
BRANCH  13  14
ATOM     14  C   UNL     1     -26.111  94.005 -28.326  1.00  0.00    -0.000 C 
BRANCH  14  15
ATOM     15  C   UNL     1     -25.440  92.739 -27.775  1.00  0.00    -0.000 C 
BRANCH  15  16
ATOM     16  C   UNL     1     -23.992  92.628 -28.273  1.00  0.00    -0.000 C 
BRANCH  16  17
ATOM     17  C   UNL     1     -23.428  91.205 -28.142  1.00  0.00    -0.000 C 
BRANCH  17  18
ATOM     18  C   UNL     1     -23.208  90.529 -29.505  1.00  0.00    -0.000 C 
BRANCH  18  19
ATOM     19  C   UNL     1     -24.001  89.221 -29.603  1.00  0.00    -0.003 C 
ATOM     20  C   UNL     1     -25.483  89.492 -29.850  1.00  0.00     0.004 C 
ENDBRANCH  18  19
ENDBRANCH  17  18
ENDBRANCH  16  17
ENDBRANCH  15  16
ENDBRANCH  14  15
ENDBRANCH  13  14
ENDBRANCH  12  13
ENDBRANCH   1  12
TORSDOF 16
ENDMDL
MODEL 6
REMARK VINA RESULT:    -3.872      1.270      2.203
REMARK INTER + INTRA:         -10.050
REMARK INTER:                  -7.565
REMARK INTRA:                  -2.484
REMARK UNBOUND:                -2.557
REMARK SMILES CCCCCCCCCCCCCCCCCC(=O)[O-]
REMARK SMILES IDX 10 1 11 2 12 3 13 4 14 5 15 6 16 7 17 8 18 9 19 10 20 11
REMARK SMILES IDX 9 12 8 13 7 14 6 15 5 16 4 17 3 18 2 19 1 20
REMARK H PARENT
REMARK Flexibility Score: inf
ROOT
ATOM      1  C   UNL     1     -37.180  83.235 -18.617  1.00  0.00     0.000 C 
ENDROOT
BRANCH   1   2
ATOM      2  C   UNL     1     -36.841  81.737 -18.696  1.00  0.00     0.000 C 
BRANCH   2   3
ATOM      3  C   UNL     1     -37.295  81.100 -20.027  1.00  0.00     0.000 C 
BRANCH   3   4
ATOM      4  C   UNL     1     -36.205  81.080 -21.117  1.00  0.00     0.000 C 
BRANCH   4   5
ATOM      5  C   UNL     1     -36.247  82.255 -22.112  1.00  0.00     0.000 C 
BRANCH   5   6
ATOM      6  C   UNL     1     -37.656  82.800 -22.418  1.00  0.00     0.000 C 
BRANCH   6   7
ATOM      7  C   UNL     1     -37.807  84.290 -22.068  1.00  0.00     0.006 C 
BRANCH   7   8
ATOM      8  C   UNL     1     -36.542  85.091 -22.400  1.00  0.00     0.053 C 
BRANCH   8   9
ATOM      9  C   UNL     1     -36.839  86.242 -23.311  1.00  0.00     0.041 C 
ATOM     10  O   UNL     1     -37.725  86.135 -24.200  1.00  0.00    -0.550 OA
ATOM     11  O   UNL     1     -36.112  87.422 -23.202  1.00  0.00    -0.550 OA
ENDBRANCH   8   9
ENDBRANCH   7   8
ENDBRANCH   6   7
ENDBRANCH   5   6
ENDBRANCH   4   5
ENDBRANCH   3   4
ENDBRANCH   2   3
ENDBRANCH   1   2
BRANCH   1  12
ATOM     12  C   UNL     1     -36.264  84.009 -17.651  1.00  0.00     0.000 C 
BRANCH  12  13
ATOM     13  C   UNL     1     -35.234  84.939 -18.323  1.00  0.00    -0.000 C 
BRANCH  13  14
ATOM     14  C   UNL     1     -34.497  84.339 -19.534  1.00  0.00    -0.000 C 
BRANCH  14  15
ATOM     15  C   UNL     1     -33.203  83.604 -19.153  1.00  0.00    -0.000 C 
BRANCH  15  16
ATOM     16  C   UNL     1     -33.158  82.211 -19.796  1.00  0.00    -0.000 C 
BRANCH  16  17
ATOM     17  C   UNL     1     -33.157  81.079 -18.757  1.00  0.00    -0.000 C 
BRANCH  17  18
ATOM     18  C   UNL     1     -31.941  80.150 -18.898  1.00  0.00    -0.000 C 
BRANCH  18  19
ATOM     19  C   UNL     1     -30.829  80.820 -19.713  1.00  0.00    -0.003 C 
ATOM     20  C   UNL     1     -30.364  79.921 -20.855  1.00  0.00     0.004 C 
ENDBRANCH  18  19
ENDBRANCH  17  18
ENDBRANCH  16  17
ENDBRANCH  15  16
ENDBRANCH  14  15
ENDBRANCH  13  14
ENDBRANCH  12  13
ENDBRANCH   1  12
TORSDOF 16
ENDMDL
MODEL 7
REMARK VINA RESULT:    -3.870     13.513     17.118
REMARK INTER + INTRA:         -10.046
REMARK INTER:                  -7.828
REMARK INTRA:                  -2.218
REMARK UNBOUND:                -2.557
REMARK SMILES CCCCCCCCCCCCCCCCCC(=O)[O-]
REMARK SMILES IDX 10 1 11 2 12 3 13 4 14 5 15 6 16 7 17 8 18 9 19 10 20 11
REMARK SMILES IDX 9 12 8 13 7 14 6 15 5 16 4 17 3 18 2 19 1 20
REMARK H PARENT
REMARK Flexibility Score: inf
ROOT
ATOM      1  C   UNL     1     -25.315  92.947 -27.846  1.00  0.00     0.000 C 
ENDROOT
BRANCH   1   2
ATOM      2  C   UNL     1     -23.870  92.618 -28.257  1.00  0.00     0.000 C 
BRANCH   2   3
ATOM      3  C   UNL     1     -23.425  91.219 -27.775  1.00  0.00     0.000 C 
BRANCH   3   4
ATOM      4  C   UNL     1     -22.916  90.300 -28.903  1.00  0.00     0.000 C 
BRANCH   4   5
ATOM      5  C   UNL     1     -23.403  88.840 -28.833  1.00  0.00     0.000 C 
BRANCH   5   6
ATOM      6  C   UNL     1     -24.580  88.591 -27.871  1.00  0.00     0.000 C 
BRANCH   6   7
ATOM      7  C   UNL     1     -24.429  87.288 -27.069  1.00  0.00     0.006 C 
BRANCH   7   8
ATOM      8  C   UNL     1     -23.333  87.392 -26.000  1.00  0.00     0.053 C 
BRANCH   8   9
ATOM      9  C   UNL     1     -23.590  88.525 -25.053  1.00  0.00     0.041 C 
ATOM     10  O   UNL     1     -22.686  89.368 -24.813  1.00  0.00    -0.550 OA
ATOM     11  O   UNL     1     -24.817  88.628 -24.409  1.00  0.00    -0.550 OA
ENDBRANCH   8   9
ENDBRANCH   7   8
ENDBRANCH   6   7
ENDBRANCH   5   6
ENDBRANCH   4   5
ENDBRANCH   3   4
ENDBRANCH   2   3
ENDBRANCH   1   2
BRANCH   1  12
ATOM     12  C   UNL     1     -25.686  94.422 -28.084  1.00  0.00     0.000 C 
BRANCH  12  13
ATOM     13  C   UNL     1     -25.438  94.940 -29.516  1.00  0.00    -0.000 C 
BRANCH  13  14
ATOM     14  C   UNL     1     -24.410  96.080 -29.636  1.00  0.00    -0.000 C 
BRANCH  14  15
ATOM     15  C   UNL     1     -23.568  96.003 -30.917  1.00  0.00    -0.000 C 
BRANCH  15  16
ATOM     16  C   UNL     1     -24.146  94.964 -31.889  1.00  0.00    -0.000 C 
BRANCH  16  17
ATOM     17  C   UNL     1     -23.077  94.010 -32.441  1.00  0.00    -0.000 C 
BRANCH  17  18
ATOM     18  C   UNL     1     -23.114  92.629 -31.766  1.00  0.00    -0.000 C 
BRANCH  18  19
ATOM     19  C   UNL     1     -24.522  92.025 -31.830  1.00  0.00    -0.003 C 
ATOM     20  C   UNL     1     -24.473  90.557 -32.243  1.00  0.00     0.004 C 
ENDBRANCH  18  19
ENDBRANCH  17  18
ENDBRANCH  16  17
ENDBRANCH  15  16
ENDBRANCH  14  15
ENDBRANCH  13  14
ENDBRANCH  12  13
ENDBRANCH   1  12
TORSDOF 16
ENDMDL
MODEL 8
REMARK VINA RESULT:    -3.805     15.101     17.506
REMARK INTER + INTRA:          -9.920
REMARK INTER:                  -6.873
REMARK INTRA:                  -3.047
REMARK UNBOUND:                -2.557
REMARK SMILES CCCCCCCCCCCCCCCCCC(=O)[O-]
REMARK SMILES IDX 10 1 11 2 12 3 13 4 14 5 15 6 16 7 17 8 18 9 19 10 20 11
REMARK SMILES IDX 9 12 8 13 7 14 6 15 5 16 4 17 3 18 2 19 1 20
REMARK H PARENT
REMARK Flexibility Score: inf
ROOT
ATOM      1  C   UNL     1     -23.628  95.732 -30.435  1.00  0.00     0.000 C 
ENDROOT
BRANCH   1   2
ATOM      2  C   UNL     1     -24.734  96.405 -29.603  1.00  0.00     0.000 C 
BRANCH   2   3
ATOM      3  C   UNL     1     -25.083  95.603 -28.330  1.00  0.00     0.000 C 
BRANCH   3   4
ATOM      4  C   UNL     1     -24.751  94.101 -28.425  1.00  0.00     0.000 C 
BRANCH   4   5
ATOM      5  C   UNL     1     -25.950  93.149 -28.251  1.00  0.00     0.000 C 
BRANCH   5   6
ATOM      6  C   UNL     1     -26.388  92.411 -29.530  1.00  0.00     0.000 C 
BRANCH   6   7
ATOM      7  C   UNL     1     -26.676  93.367 -30.700  1.00  0.00     0.006 C 
BRANCH   7   8
ATOM      8  C   UNL     1     -27.068  92.613 -31.978  1.00  0.00     0.053 C 
BRANCH   8   9
ATOM      9  C   UNL     1     -27.485  93.552 -33.068  1.00  0.00     0.041 C 
ATOM     10  O   UNL     1     -28.006  93.107 -34.124  1.00  0.00    -0.550 OA
ATOM     11  O   UNL     1     -27.265  94.917 -32.932  1.00  0.00    -0.550 OA
ENDBRANCH   8   9
ENDBRANCH   7   8
ENDBRANCH   6   7
ENDBRANCH   5   6
ENDBRANCH   4   5
ENDBRANCH   3   4
ENDBRANCH   2   3
ENDBRANCH   1   2
BRANCH   1  12
ATOM     12  C   UNL     1     -23.978  95.634 -31.931  1.00  0.00     0.000 C 
BRANCH  12  13
ATOM     13  C   UNL     1     -23.507  94.344 -32.634  1.00  0.00    -0.000 C 
BRANCH  13  14
ATOM     14  C   UNL     1     -23.227  93.151 -31.702  1.00  0.00    -0.000 C 
BRANCH  14  15
ATOM     15  C   UNL     1     -23.127  91.811 -32.446  1.00  0.00    -0.000 C 
BRANCH  15  16
ATOM     16  C   UNL     1     -23.827  90.695 -31.657  1.00  0.00    -0.000 C 
BRANCH  16  17
ATOM     17  C   UNL     1     -23.218  90.485 -30.263  1.00  0.00    -0.000 C 
BRANCH  17  18
ATOM     18  C   UNL     1     -23.958  89.410 -29.452  1.00  0.00    -0.000 C 
BRANCH  18  19
ATOM     19  C   UNL     1     -24.104  89.832 -27.985  1.00  0.00    -0.003 C 
ATOM     20  C   UNL     1     -23.028  90.841 -27.593  1.00  0.00     0.004 C 
ENDBRANCH  18  19
ENDBRANCH  17  18
ENDBRANCH  16  17
ENDBRANCH  15  16
ENDBRANCH  14  15
ENDBRANCH  13  14
ENDBRANCH  12  13
ENDBRANCH   1  12
TORSDOF 16
ENDMDL
MODEL 9
REMARK VINA RESULT:    -3.745     14.481     18.252
REMARK INTER + INTRA:          -9.805
REMARK INTER:                  -7.735
REMARK INTRA:                  -2.070
REMARK UNBOUND:                -2.557
REMARK SMILES CCCCCCCCCCCCCCCCCC(=O)[O-]
REMARK SMILES IDX 10 1 11 2 12 3 13 4 14 5 15 6 16 7 17 8 18 9 19 10 20 11
REMARK SMILES IDX 9 12 8 13 7 14 6 15 5 16 4 17 3 18 2 19 1 20
REMARK H PARENT
REMARK Flexibility Score: inf
ROOT
ATOM      1  C   UNL     1     -24.433  93.851 -28.756  1.00  0.00     0.000 C 
ENDROOT
BRANCH   1   2
ATOM      2  C   UNL     1     -25.420  92.863 -29.399  1.00  0.00     0.000 C 
BRANCH   2   3
ATOM      3  C   UNL     1     -25.020  92.486 -30.842  1.00  0.00     0.000 C 
BRANCH   3   4
ATOM      4  C   UNL     1     -23.501  92.328 -31.051  1.00  0.00     0.000 C 
BRANCH   4   5
ATOM      5  C   UNL     1     -22.979  90.879 -31.015  1.00  0.00     0.000 C 
BRANCH   5   6
ATOM      6  C   UNL     1     -22.532  90.382 -29.627  1.00  0.00     0.000 C 
BRANCH   6   7
ATOM      7  C   UNL     1     -23.597  89.517 -28.932  1.00  0.00     0.006 C 
BRANCH   7   8
ATOM      8  C   UNL     1     -23.903  90.008 -27.511  1.00  0.00     0.053 C 
BRANCH   8   9
ATOM      9  C   UNL     1     -23.624  88.949 -26.488  1.00  0.00     0.041 C 
ATOM     10  O   UNL     1     -23.552  89.250 -25.267  1.00  0.00    -0.550 OA
ATOM     11  O   UNL     1     -23.408  87.636 -26.888  1.00  0.00    -0.550 OA
ENDBRANCH   8   9
ENDBRANCH   7   8
ENDBRANCH   6   7
ENDBRANCH   5   6
ENDBRANCH   4   5
ENDBRANCH   3   4
ENDBRANCH   2   3
ENDBRANCH   1   2
BRANCH   1  12
ATOM     12  C   UNL     1     -25.083  95.199 -28.393  1.00  0.00     0.000 C 
BRANCH  12  13
ATOM     13  C   UNL     1     -24.739  96.371 -29.336  1.00  0.00    -0.000 C 
BRANCH  13  14
ATOM     14  C   UNL     1     -23.890  96.000 -30.565  1.00  0.00    -0.000 C 
BRANCH  14  15
ATOM     15  C   UNL     1     -23.998  97.022 -31.706  1.00  0.00    -0.000 C 
BRANCH  15  16
ATOM     16  C   UNL     1     -23.986  96.320 -33.071  1.00  0.00    -0.000 C 
BRANCH  16  17
ATOM     17  C   UNL     1     -25.374  96.278 -33.727  1.00  0.00    -0.000 C 
BRANCH  17  18
ATOM     18  C   UNL     1     -25.924  94.848 -33.853  1.00  0.00    -0.000 C 
BRANCH  18  19
ATOM     19  C   UNL     1     -27.186  94.668 -33.001  1.00  0.00    -0.003 C 
ATOM     20  C   UNL     1     -27.955  93.417 -33.413  1.00  0.00     0.004 C 
ENDBRANCH  18  19
ENDBRANCH  17  18
ENDBRANCH  16  17
ENDBRANCH  15  16
ENDBRANCH  14  15
ENDBRANCH  13  14
ENDBRANCH  12  13
ENDBRANCH   1  12
TORSDOF 16
ENDMDL
