MODEL 1
REMARK VINA RESULT:    -4.782      0.000      0.000
REMARK INTER + INTRA:          -8.164
REMARK INTER:                  -6.320
REMARK INTRA:                  -1.844
REMARK UNBOUND:                -1.844
REMARK SMILES CC[C@H](C=C[C@H](C)[C@H]1CC[C@H]2C3=CC[C@@H]4C[C@@H](O)CC[C@]4(C)[C@@H]3CC[C@]12C)C(C)C
REMARK SMILES IDX 6 1 7 2 5 3 4 4 3 5 2 6 1 7 28 8 29 9 30 10 8 11 9 12 26 13
REMARK SMILES IDX 10 14 11 15 25 16 27 17 12 18 24 19 23 20 13 21 21 22 14 23
REMARK SMILES IDX 15 24 20 25 22 26 16 27 19 28 17 29 18 30
REMARK H PARENT 18 31
REMARK Flexibility Score: inf
ROOT
ATOM      1  C   UNL     1      -1.963  -5.448  -8.644  1.00  0.00     0.012 C 
ATOM      2  C   UNL     1      -1.874  -6.662  -9.584  1.00  0.00     0.012 C 
ENDROOT
BRANCH   1   3
ATOM      3  C   UNL     1      -3.360  -4.865  -8.752  1.00  0.00    -0.028 C 
ATOM      4  C   UNL     1      -3.762  -3.690  -8.230  1.00  0.00    -0.027 C 
BRANCH   4   5
ATOM      5  C   UNL     1      -2.861  -2.689  -7.515  1.00  0.00     0.014 C 
BRANCH   5   6
ATOM      6  C   UNL     1      -2.468  -1.478  -8.414  1.00  0.00     0.004 C 
ATOM      7  C   UNL     1      -1.152  -1.638  -9.189  1.00  0.00     0.004 C 
ENDBRANCH   5   6
BRANCH   5   8
ATOM      8  C   UNL     1      -3.418  -2.253  -6.122  1.00  0.00    -0.011 C 
ATOM      9  C   UNL     1      -4.946  -2.354  -5.989  1.00  0.00     0.008 C 
ATOM     10  C   UNL     1      -2.727  -3.014  -4.978  1.00  0.00     0.008 C 
ENDBRANCH   5   8
ENDBRANCH   4   5
ENDBRANCH   1   3
BRANCH   1  11
ATOM     11  C   UNL     1      -1.625  -5.729  -7.139  1.00  0.00     0.002 C 
ATOM     12  C   UNL     1      -2.073  -7.093  -6.549  1.00  0.00     0.005 C 
ATOM     13  C   UNL     1      -0.137  -5.590  -6.725  1.00  0.00    -0.023 C 
ATOM     14  C   UNL     1      -1.067  -7.435  -5.433  1.00  0.00     0.009 C 
ATOM     15  C   UNL     1      -0.197  -6.186  -5.310  1.00  0.00     0.021 C 
ATOM     16  C   UNL     1       0.387  -4.117  -6.656  1.00  0.00     0.008 C 
ATOM     17  C   UNL     1       0.792  -6.424  -7.661  1.00  0.00     0.012 C 
ATOM     18  C   UNL     1       1.194  -6.255  -4.728  1.00  0.00    -0.067 C 
ATOM     19  C   UNL     1       1.209  -3.790  -5.377  1.00  0.00     0.009 C 
ATOM     20  C   UNL     1       2.042  -4.994  -4.819  1.00  0.00     0.021 C 
ATOM     21  C   UNL     1       1.738  -7.368  -4.213  1.00  0.00    -0.027 C 
ATOM     22  C   UNL     1       2.813  -4.711  -3.456  1.00  0.00    -0.023 C 
ATOM     23  C   UNL     1       3.137  -7.298  -3.675  1.00  0.00     0.031 C 
ATOM     24  C   UNL     1       3.279  -6.067  -2.752  1.00  0.00     0.002 C 
ATOM     25  C   UNL     1       1.920  -3.869  -2.484  1.00  0.00     0.010 C 
ATOM     26  C   UNL     1       4.080  -3.882  -3.801  1.00  0.00     0.012 C 
ATOM     27  C   UNL     1       2.544  -6.354  -1.418  1.00  0.00     0.036 C 
ATOM     28  C   UNL     1       2.477  -3.800  -1.054  1.00  0.00     0.032 C 
ATOM     29  C   UNL     1       2.652  -5.194  -0.411  1.00  0.00     0.114 C 
BRANCH  29  30
ATOM     30  O   UNL     1       3.853  -5.264   0.313  1.00  0.00    -0.393 OA
ATOM     31  H   UNL     1       4.105  -4.341   0.577  1.00  0.00     0.210 HD
ENDBRANCH  29  30
ENDBRANCH   1  11
TORSDOF 6
ENDMDL
MODEL 2
REMARK VINA RESULT:    -4.710      7.968     12.048
REMARK INTER + INTRA:          -8.068
REMARK INTER:                  -6.089
REMARK INTRA:                  -1.979
REMARK UNBOUND:                -1.844
REMARK SMILES CC[C@H](C=C[C@H](C)[C@H]1CC[C@H]2C3=CC[C@@H]4C[C@@H](O)CC[C@]4(C)[C@@H]3CC[C@]12C)C(C)C
REMARK SMILES IDX 6 1 7 2 5 3 4 4 3 5 2 6 1 7 28 8 29 9 30 10 8 11 9 12 26 13
REMARK SMILES IDX 10 14 11 15 25 16 27 17 12 18 24 19 23 20 13 21 21 22 14 23
REMARK SMILES IDX 15 24 20 25 22 26 16 27 19 28 17 29 18 30
REMARK H PARENT 18 31
REMARK Flexibility Score: inf
ROOT
ATOM      1  C   UNL     1       8.139   0.529   0.372  1.00  0.00     0.012 C 
ATOM      2  C   UNL     1       8.633   1.249   1.638  1.00  0.00     0.012 C 
ENDROOT
BRANCH   1   3
ATOM      3  C   UNL     1       7.793  -0.902   0.742  1.00  0.00    -0.028 C 
ATOM      4  C   UNL     1       7.268  -1.822  -0.090  1.00  0.00    -0.027 C 
BRANCH   4   5
ATOM      5  C   UNL     1       7.012  -1.620  -1.579  1.00  0.00     0.014 C 
BRANCH   5   6
ATOM      6  C   UNL     1       8.002  -2.420  -2.479  1.00  0.00     0.004 C 
ATOM      7  C   UNL     1       9.433  -1.864  -2.535  1.00  0.00     0.004 C 
ENDBRANCH   5   6
BRANCH   5   8
ATOM      8  C   UNL     1       5.519  -1.841  -1.978  1.00  0.00    -0.011 C 
ATOM      9  C   UNL     1       4.509  -1.500  -0.871  1.00  0.00     0.008 C 
ATOM     10  C   UNL     1       5.167  -1.093  -3.275  1.00  0.00     0.008 C 
ENDBRANCH   5   8
ENDBRANCH   4   5
ENDBRANCH   1   3
BRANCH   1  11
ATOM     11  C   UNL     1       6.918   1.195  -0.354  1.00  0.00     0.002 C 
ATOM     12  C   UNL     1       5.893   1.957   0.527  1.00  0.00     0.005 C 
ATOM     13  C   UNL     1       7.248   2.173  -1.510  1.00  0.00    -0.023 C 
ATOM     14  C   UNL     1       5.291   3.061  -0.363  1.00  0.00     0.009 C 
ATOM     15  C   UNL     1       5.857   2.779  -1.753  1.00  0.00     0.021 C 
ATOM     16  C   UNL     1       7.762   1.486  -2.820  1.00  0.00     0.008 C 
ATOM     17  C   UNL     1       8.277   3.257  -1.060  1.00  0.00     0.012 C 
ATOM     18  C   UNL     1       5.951   3.866  -2.796  1.00  0.00    -0.067 C 
ATOM     19  C   UNL     1       7.092   2.012  -4.122  1.00  0.00     0.009 C 
ATOM     20  C   UNL     1       6.697   3.527  -4.079  1.00  0.00     0.021 C 
ATOM     21  C   UNL     1       5.487   5.113  -2.624  1.00  0.00    -0.027 C 
ATOM     22  C   UNL     1       5.922   4.062  -5.362  1.00  0.00    -0.023 C 
ATOM     23  C   UNL     1       5.655   6.100  -3.742  1.00  0.00     0.031 C 
ATOM     24  C   UNL     1       5.203   5.459  -5.074  1.00  0.00     0.002 C 
ATOM     25  C   UNL     1       4.880   3.003  -5.856  1.00  0.00     0.010 C 
ATOM     26  C   UNL     1       6.972   4.279  -6.485  1.00  0.00     0.012 C 
ATOM     27  C   UNL     1       3.656   5.371  -5.087  1.00  0.00     0.036 C 
ATOM     28  C   UNL     1       3.903   3.555  -6.904  1.00  0.00     0.032 C 
ATOM     29  C   UNL     1       3.100   4.771  -6.392  1.00  0.00     0.114 C 
BRANCH  29  30
ATOM     30  O   UNL     1       2.986   5.753  -7.391  1.00  0.00    -0.393 OA
ATOM     31  H   UNL     1       3.893   6.116  -7.566  1.00  0.00     0.210 HD
ENDBRANCH  29  30
ENDBRANCH   1  11
TORSDOF 6
ENDMDL
MODEL 3
REMARK VINA RESULT:    -4.604      8.977     11.566
REMARK INTER + INTRA:          -7.929
REMARK INTER:                  -5.894
REMARK INTRA:                  -2.035
REMARK UNBOUND:                -1.844
REMARK SMILES CC[C@H](C=C[C@H](C)[C@H]1CC[C@H]2C3=CC[C@@H]4C[C@@H](O)CC[C@]4(C)[C@@H]3CC[C@]12C)C(C)C
REMARK SMILES IDX 6 1 7 2 5 3 4 4 3 5 2 6 1 7 28 8 29 9 30 10 8 11 9 12 26 13
REMARK SMILES IDX 10 14 11 15 25 16 27 17 12 18 24 19 23 20 13 21 21 22 14 23
REMARK SMILES IDX 15 24 20 25 22 26 16 27 19 28 17 29 18 30
REMARK H PARENT 18 31
REMARK Flexibility Score: inf
ROOT
ATOM      1  C   UNL     1       4.435   5.295  -6.925  1.00  0.00     0.012 C 
ATOM      2  C   UNL     1       4.160   6.733  -7.393  1.00  0.00     0.012 C 
ENDROOT
BRANCH   1   3
ATOM      3  C   UNL     1       5.037   4.524  -8.086  1.00  0.00    -0.028 C 
ATOM      4  C   UNL     1       6.337   4.527  -8.440  1.00  0.00    -0.027 C 
BRANCH   4   5
ATOM      5  C   UNL     1       7.455   5.231  -7.680  1.00  0.00     0.014 C 
BRANCH   5   6
ATOM      6  C   UNL     1       8.631   4.278  -7.311  1.00  0.00     0.004 C 
ATOM      7  C   UNL     1       8.818   4.017  -5.809  1.00  0.00     0.004 C 
ENDBRANCH   5   6
BRANCH   5   8
ATOM      8  C   UNL     1       7.936   6.543  -8.379  1.00  0.00    -0.011 C 
ATOM      9  C   UNL     1       7.303   6.797  -9.756  1.00  0.00     0.008 C 
ATOM     10  C   UNL     1       7.748   7.766  -7.467  1.00  0.00     0.008 C 
ENDBRANCH   5   8
ENDBRANCH   4   5
ENDBRANCH   1   3
BRANCH   1  11
ATOM     11  C   UNL     1       5.359   5.156  -5.666  1.00  0.00     0.002 C 
ATOM     12  C   UNL     1       5.532   6.409  -4.766  1.00  0.00     0.005 C 
ATOM     13  C   UNL     1       5.023   4.007  -4.681  1.00  0.00    -0.023 C 
ATOM     14  C   UNL     1       5.803   5.887  -3.342  1.00  0.00     0.009 C 
ATOM     15  C   UNL     1       5.949   4.376  -3.512  1.00  0.00     0.021 C 
ATOM     16  C   UNL     1       5.376   2.574  -5.204  1.00  0.00     0.008 C 
ATOM     17  C   UNL     1       3.521   4.045  -4.258  1.00  0.00     0.012 C 
ATOM     18  C   UNL     1       5.715   3.431  -2.359  1.00  0.00    -0.067 C 
ATOM     19  C   UNL     1       6.115   1.680  -4.168  1.00  0.00     0.009 C 
ATOM     20  C   UNL     1       5.706   1.942  -2.679  1.00  0.00     0.021 C 
ATOM     21  C   UNL     1       5.444   3.828  -1.107  1.00  0.00    -0.027 C 
ATOM     22  C   UNL     1       6.519   1.109  -1.595  1.00  0.00    -0.023 C 
ATOM     23  C   UNL     1       5.221   2.780  -0.056  1.00  0.00     0.031 C 
ATOM     24  C   UNL     1       6.345   1.722  -0.130  1.00  0.00     0.002 C 
ATOM     25  C   UNL     1       8.035   1.038  -1.981  1.00  0.00     0.010 C 
ATOM     26  C   UNL     1       5.946  -0.334  -1.589  1.00  0.00     0.012 C 
ATOM     27  C   UNL     1       7.649   2.335   0.441  1.00  0.00     0.036 C 
ATOM     28  C   UNL     1       8.925   0.501  -0.850  1.00  0.00     0.032 C 
ATOM     29  C   UNL     1       8.829   1.346   0.440  1.00  0.00     0.114 C 
BRANCH  29  30
ATOM     30  O   UNL     1       8.797   0.521   1.577  1.00  0.00    -0.393 OA
ATOM     31  H   UNL     1       9.477   0.858   2.217  1.00  0.00     0.210 HD
ENDBRANCH  29  30
ENDBRANCH   1  11
TORSDOF 6
ENDMDL
MODEL 4
REMARK VINA RESULT:    -4.493      8.150     12.398
REMARK INTER + INTRA:          -7.781
REMARK INTER:                  -6.352
REMARK INTRA:                  -1.429
REMARK UNBOUND:                -1.844
REMARK SMILES CC[C@H](C=C[C@H](C)[C@H]1CC[C@H]2C3=CC[C@@H]4C[C@@H](O)CC[C@]4(C)[C@@H]3CC[C@]12C)C(C)C
REMARK SMILES IDX 6 1 7 2 5 3 4 4 3 5 2 6 1 7 28 8 29 9 30 10 8 11 9 12 26 13
REMARK SMILES IDX 10 14 11 15 25 16 27 17 12 18 24 19 23 20 13 21 21 22 14 23
REMARK SMILES IDX 15 24 20 25 22 26 16 27 19 28 17 29 18 30
REMARK H PARENT 18 31
REMARK Flexibility Score: inf
ROOT
ATOM      1  C   UNL     1       8.999   1.289   0.356  1.00  0.00     0.012 C 
ATOM      2  C   UNL     1       9.049   0.806   1.816  1.00  0.00     0.012 C 
ENDROOT
BRANCH   1   3
ATOM      3  C   UNL     1       9.513   0.171  -0.533  1.00  0.00    -0.028 C 
ATOM      4  C   UNL     1       8.919  -1.024  -0.713  1.00  0.00    -0.027 C 
BRANCH   4   5
ATOM      5  C   UNL     1       7.572  -1.435  -0.129  1.00  0.00     0.014 C 
BRANCH   5   6
ATOM      6  C   UNL     1       6.437  -1.482  -1.196  1.00  0.00     0.004 C 
ATOM      7  C   UNL     1       5.159  -0.715  -0.829  1.00  0.00     0.004 C 
ENDBRANCH   5   6
BRANCH   5   8
ATOM      8  C   UNL     1       7.650  -2.737   0.730  1.00  0.00    -0.011 C 
ATOM      9  C   UNL     1       7.077  -3.986   0.042  1.00  0.00     0.008 C 
ATOM     10  C   UNL     1       9.084  -3.003   1.217  1.00  0.00     0.008 C 
ENDBRANCH   5   8
ENDBRANCH   4   5
ENDBRANCH   1   3
BRANCH   1  11
ATOM     11  C   UNL     1       7.594   1.763  -0.153  1.00  0.00     0.002 C 
ATOM     12  C   UNL     1       6.746   2.641   0.805  1.00  0.00     0.005 C 
ATOM     13  C   UNL     1       7.565   2.517  -1.507  1.00  0.00    -0.023 C 
ATOM     14  C   UNL     1       5.866   3.535  -0.089  1.00  0.00     0.009 C 
ATOM     15  C   UNL     1       6.113   3.018  -1.504  1.00  0.00     0.021 C 
ATOM     16  C   UNL     1       7.811   1.615  -2.763  1.00  0.00     0.008 C 
ATOM     17  C   UNL     1       8.581   3.702  -1.518  1.00  0.00     0.012 C 
ATOM     18  C   UNL     1       5.873   3.891  -2.711  1.00  0.00    -0.067 C 
ATOM     19  C   UNL     1       6.816   1.862  -3.932  1.00  0.00     0.009 C 
ATOM     20  C   UNL     1       6.322   3.344  -4.059  1.00  0.00     0.021 C 
ATOM     21  C   UNL     1       5.365   5.131  -2.651  1.00  0.00    -0.027 C 
ATOM     22  C   UNL     1       5.229   3.600  -5.185  1.00  0.00    -0.023 C 
ATOM     23  C   UNL     1       5.187   5.895  -3.930  1.00  0.00     0.031 C 
ATOM     24  C   UNL     1       4.488   5.000  -4.978  1.00  0.00     0.002 C 
ATOM     25  C   UNL     1       4.188   2.431  -5.218  1.00  0.00     0.010 C 
ATOM     26  C   UNL     1       5.967   3.638  -6.551  1.00  0.00     0.012 C 
ATOM     27  C   UNL     1       2.993   4.857  -4.597  1.00  0.00     0.036 C 
ATOM     28  C   UNL     1       2.952   2.741  -6.074  1.00  0.00     0.032 C 
ATOM     29  C   UNL     1       2.197   4.003  -5.601  1.00  0.00     0.114 C 
BRANCH  29  30
ATOM     30  O   UNL     1       1.775   4.775  -6.697  1.00  0.00    -0.393 OA
ATOM     31  H   UNL     1       2.583   5.079  -7.186  1.00  0.00     0.210 HD
ENDBRANCH  29  30
ENDBRANCH   1  11
TORSDOF 6
ENDMDL
MODEL 5
REMARK VINA RESULT:    -4.487      9.806     13.378
REMARK INTER + INTRA:          -7.774
REMARK INTER:                  -5.959
REMARK INTRA:                  -1.815
REMARK UNBOUND:                -1.844
REMARK SMILES CC[C@H](C=C[C@H](C)[C@H]1CC[C@H]2C3=CC[C@@H]4C[C@@H](O)CC[C@]4(C)[C@@H]3CC[C@]12C)C(C)C
REMARK SMILES IDX 6 1 7 2 5 3 4 4 3 5 2 6 1 7 28 8 29 9 30 10 8 11 9 12 26 13
REMARK SMILES IDX 10 14 11 15 25 16 27 17 12 18 24 19 23 20 13 21 21 22 14 23
REMARK SMILES IDX 15 24 20 25 22 26 16 27 19 28 17 29 18 30
REMARK H PARENT 18 31
REMARK Flexibility Score: inf
ROOT
ATOM      1  C   UNL     1       8.743   2.469  -2.452  1.00  0.00     0.012 C 
ATOM      2  C   UNL     1      10.031   1.658  -2.674  1.00  0.00     0.012 C 
ENDROOT
BRANCH   1   3
ATOM      3  C   UNL     1       8.828   3.132  -1.089  1.00  0.00    -0.028 C 
ATOM      4  C   UNL     1       8.287   2.658   0.049  1.00  0.00    -0.027 C 
BRANCH   4   5
ATOM      5  C   UNL     1       7.570   1.320   0.193  1.00  0.00     0.014 C 
BRANCH   5   6
ATOM      6  C   UNL     1       7.942   0.571   1.509  1.00  0.00     0.004 C 
ATOM      7  C   UNL     1       8.066   1.460   2.755  1.00  0.00     0.004 C 
ENDBRANCH   5   6
BRANCH   5   8
ATOM      8  C   UNL     1       6.028   1.426  -0.028  1.00  0.00    -0.011 C 
ATOM      9  C   UNL     1       5.467   2.852   0.086  1.00  0.00     0.008 C 
ATOM     10  C   UNL     1       5.606   0.788  -1.361  1.00  0.00     0.008 C 
ENDBRANCH   5   8
ENDBRANCH   4   5
ENDBRANCH   1   3
BRANCH   1  11
ATOM     11  C   UNL     1       8.424   3.548  -3.544  1.00  0.00     0.002 C 
ATOM     12  C   UNL     1       9.335   3.584  -4.800  1.00  0.00     0.005 C 
ATOM     13  C   UNL     1       6.979   3.560  -4.105  1.00  0.00    -0.023 C 
ATOM     14  C   UNL     1       8.465   4.121  -5.952  1.00  0.00     0.009 C 
ATOM     15  C   UNL     1       7.157   4.532  -5.281  1.00  0.00     0.021 C 
ATOM     16  C   UNL     1       5.899   4.116  -3.117  1.00  0.00     0.008 C 
ATOM     17  C   UNL     1       6.549   2.141  -4.593  1.00  0.00     0.012 C 
ATOM     18  C   UNL     1       5.870   4.625  -6.064  1.00  0.00    -0.067 C 
ATOM     19  C   UNL     1       4.911   5.133  -3.758  1.00  0.00     0.009 C 
ATOM     20  C   UNL     1       4.594   4.864  -5.268  1.00  0.00     0.021 C 
ATOM     21  C   UNL     1       5.782   4.436  -7.389  1.00  0.00    -0.027 C 
ATOM     22  C   UNL     1       3.664   5.947  -5.969  1.00  0.00    -0.023 C 
ATOM     23  C   UNL     1       4.435   4.548  -8.041  1.00  0.00     0.031 C 
ATOM     24  C   UNL     1       3.731   5.837  -7.561  1.00  0.00     0.002 C 
ATOM     25  C   UNL     1       4.055   7.390  -5.504  1.00  0.00     0.010 C 
ATOM     26  C   UNL     1       2.203   5.667  -5.523  1.00  0.00     0.012 C 
ATOM     27  C   UNL     1       4.405   7.058  -8.237  1.00  0.00     0.036 C 
ATOM     28  C   UNL     1       3.401   8.497  -6.344  1.00  0.00     0.032 C 
ATOM     29  C   UNL     1       3.753   8.397  -7.846  1.00  0.00     0.114 C 
BRANCH  29  30
ATOM     30  O   UNL     1       2.627   8.662  -8.643  1.00  0.00    -0.393 OA
ATOM     31  H   UNL     1       2.222   7.792  -8.897  1.00  0.00     0.210 HD
ENDBRANCH  29  30
ENDBRANCH   1  11
TORSDOF 6
ENDMDL
MODEL 6
REMARK VINA RESULT:    -4.485      8.512     12.678
REMARK INTER + INTRA:          -7.771
REMARK INTER:                  -6.304
REMARK INTRA:                  -1.467
REMARK UNBOUND:                -1.844
REMARK SMILES CC[C@H](C=C[C@H](C)[C@H]1CC[C@H]2C3=CC[C@@H]4C[C@@H](O)CC[C@]4(C)[C@@H]3CC[C@]12C)C(C)C
REMARK SMILES IDX 6 1 7 2 5 3 4 4 3 5 2 6 1 7 28 8 29 9 30 10 8 11 9 12 26 13
REMARK SMILES IDX 10 14 11 15 25 16 27 17 12 18 24 19 23 20 13 21 21 22 14 23
REMARK SMILES IDX 15 24 20 25 22 26 16 27 19 28 17 29 18 30
REMARK H PARENT 18 31
REMARK Flexibility Score: inf
ROOT
ATOM      1  C   UNL     1       7.898   1.528  -0.141  1.00  0.00     0.012 C 
ATOM      2  C   UNL     1       8.879   1.473   1.042  1.00  0.00     0.012 C 
ENDROOT
BRANCH   1   3
ATOM      3  C   UNL     1       6.492   1.341   0.398  1.00  0.00    -0.028 C 
ATOM      4  C   UNL     1       5.632   0.373   0.027  1.00  0.00    -0.027 C 
BRANCH   4   5
ATOM      5  C   UNL     1       5.949  -0.767  -0.935  1.00  0.00     0.014 C 
BRANCH   5   6
ATOM      6  C   UNL     1       6.587  -1.999  -0.225  1.00  0.00     0.004 C 
ATOM      7  C   UNL     1       8.061  -2.262  -0.567  1.00  0.00     0.004 C 
ENDBRANCH   5   6
BRANCH   5   8
ATOM      8  C   UNL     1       4.740  -1.152  -1.845  1.00  0.00    -0.011 C 
ATOM      9  C   UNL     1       5.095  -1.331  -3.330  1.00  0.00     0.008 C 
ATOM     10  C   UNL     1       4.011  -2.397  -1.314  1.00  0.00     0.008 C 
ENDBRANCH   5   8
ENDBRANCH   4   5
ENDBRANCH   1   3
BRANCH   1  11
ATOM     11  C   UNL     1       7.959   2.830  -1.013  1.00  0.00     0.002 C 
ATOM     12  C   UNL     1       9.363   3.368  -1.395  1.00  0.00     0.005 C 
ATOM     13  C   UNL     1       7.169   2.810  -2.346  1.00  0.00    -0.023 C 
ATOM     14  C   UNL     1       9.197   4.101  -2.739  1.00  0.00     0.009 C 
ATOM     15  C   UNL     1       7.690   4.106  -2.985  1.00  0.00     0.021 C 
ATOM     16  C   UNL     1       5.613   2.888  -2.185  1.00  0.00     0.008 C 
ATOM     17  C   UNL     1       7.535   1.559  -3.203  1.00  0.00     0.012 C 
ATOM     18  C   UNL     1       7.123   4.251  -4.376  1.00  0.00    -0.067 C 
ATOM     19  C   UNL     1       4.922   3.904  -3.139  1.00  0.00     0.009 C 
ATOM     20  C   UNL     1       5.621   4.060  -4.532  1.00  0.00     0.021 C 
ATOM     21  C   UNL     1       7.868   4.459  -5.472  1.00  0.00    -0.027 C 
ATOM     22  C   UNL     1       4.989   5.165  -5.487  1.00  0.00    -0.023 C 
ATOM     23  C   UNL     1       7.175   4.574  -6.798  1.00  0.00     0.031 C 
ATOM     24  C   UNL     1       5.982   5.549  -6.679  1.00  0.00     0.002 C 
ATOM     25  C   UNL     1       4.598   6.441  -4.668  1.00  0.00     0.010 C 
ATOM     26  C   UNL     1       3.698   4.563  -6.106  1.00  0.00     0.012 C 
ATOM     27  C   UNL     1       6.525   6.997  -6.586  1.00  0.00     0.036 C 
ATOM     28  C   UNL     1       4.251   7.647  -5.553  1.00  0.00     0.032 C 
ATOM     29  C   UNL     1       5.407   8.053  -6.494  1.00  0.00     0.114 C 
BRANCH  29  30
ATOM     30  O   UNL     1       4.922   8.387  -7.769  1.00  0.00    -0.393 OA
ATOM     31  H   UNL     1       5.675   8.312  -8.412  1.00  0.00     0.210 HD
ENDBRANCH  29  30
ENDBRANCH   1  11
TORSDOF 6
ENDMDL
MODEL 7
REMARK VINA RESULT:    -4.440      4.062      6.916
REMARK INTER + INTRA:          -7.711
REMARK INTER:                  -6.444
REMARK INTRA:                  -1.267
REMARK UNBOUND:                -1.844
REMARK SMILES CC[C@H](C=C[C@H](C)[C@H]1CC[C@H]2C3=CC[C@@H]4C[C@@H](O)CC[C@]4(C)[C@@H]3CC[C@]12C)C(C)C
REMARK SMILES IDX 6 1 7 2 5 3 4 4 3 5 2 6 1 7 28 8 29 9 30 10 8 11 9 12 26 13
REMARK SMILES IDX 10 14 11 15 25 16 27 17 12 18 24 19 23 20 13 21 21 22 14 23
REMARK SMILES IDX 15 24 20 25 22 26 16 27 19 28 17 29 18 30
REMARK H PARENT 18 31
REMARK Flexibility Score: inf
ROOT
ATOM      1  C   UNL     1       3.446  -5.668  -3.909  1.00  0.00     0.012 C 
ATOM      2  C   UNL     1       2.712  -6.799  -3.170  1.00  0.00     0.012 C 
ENDROOT
BRANCH   1   3
ATOM      3  C   UNL     1       2.958  -5.644  -5.346  1.00  0.00    -0.028 C 
ATOM      4  C   UNL     1       1.671  -5.576  -5.736  1.00  0.00    -0.027 C 
BRANCH   4   5
ATOM      5  C   UNL     1       0.475  -5.416  -4.804  1.00  0.00     0.014 C 
BRANCH   5   6
ATOM      6  C   UNL     1      -0.098  -3.966  -4.796  1.00  0.00     0.004 C 
ATOM      7  C   UNL     1       0.583  -2.987  -5.763  1.00  0.00     0.004 C 
ENDBRANCH   5   6
BRANCH   5   8
ATOM      8  C   UNL     1      -0.626  -6.500  -5.031  1.00  0.00    -0.011 C 
ATOM      9  C   UNL     1      -1.951  -5.953  -5.585  1.00  0.00     0.008 C 
ATOM     10  C   UNL     1      -0.108  -7.649  -5.912  1.00  0.00     0.008 C 
ENDBRANCH   5   8
ENDBRANCH   4   5
ENDBRANCH   1   3
BRANCH   1  11
ATOM     11  C   UNL     1       3.301  -4.240  -3.279  1.00  0.00     0.002 C 
ATOM     12  C   UNL     1       2.529  -4.126  -1.938  1.00  0.00     0.005 C 
ATOM     13  C   UNL     1       4.613  -3.447  -3.047  1.00  0.00    -0.023 C 
ATOM     14  C   UNL     1       3.120  -2.911  -1.198  1.00  0.00     0.009 C 
ATOM     15  C   UNL     1       4.074  -2.278  -2.208  1.00  0.00     0.021 C 
ATOM     16  C   UNL     1       5.284  -2.898  -4.350  1.00  0.00     0.008 C 
ATOM     17  C   UNL     1       5.653  -4.295  -2.250  1.00  0.00     0.012 C 
ATOM     18  C   UNL     1       5.220  -1.402  -1.762  1.00  0.00    -0.067 C 
ATOM     19  C   UNL     1       5.743  -1.414  -4.256  1.00  0.00     0.009 C 
ATOM     20  C   UNL     1       6.216  -0.973  -2.830  1.00  0.00     0.021 C 
ATOM     21  C   UNL     1       5.443  -1.052  -0.487  1.00  0.00    -0.027 C 
ATOM     22  C   UNL     1       6.596   0.565  -2.688  1.00  0.00    -0.023 C 
ATOM     23  C   UNL     1       6.627  -0.182  -0.180  1.00  0.00     0.031 C 
ATOM     24  C   UNL     1       6.660   1.016  -1.156  1.00  0.00     0.002 C 
ATOM     25  C   UNL     1       5.582   1.457  -3.478  1.00  0.00     0.010 C 
ATOM     26  C   UNL     1       8.007   0.757  -3.309  1.00  0.00     0.012 C 
ATOM     27  C   UNL     1       5.543   2.015  -0.760  1.00  0.00     0.036 C 
ATOM     28  C   UNL     1       5.711   2.954  -3.158  1.00  0.00     0.032 C 
ATOM     29  C   UNL     1       5.511   3.265  -1.658  1.00  0.00     0.114 C 
BRANCH  29  30
ATOM     30  O   UNL     1       6.435   4.227  -1.218  1.00  0.00    -0.393 OA
ATOM     31  H   UNL     1       7.173   3.752  -0.754  1.00  0.00     0.210 HD
ENDBRANCH  29  30
ENDBRANCH   1  11
TORSDOF 6
ENDMDL
MODEL 8
REMARK VINA RESULT:    -4.393      2.730      7.441
REMARK INTER + INTRA:          -7.650
REMARK INTER:                  -5.919
REMARK INTRA:                  -1.731
REMARK UNBOUND:                -1.844
REMARK SMILES CC[C@H](C=C[C@H](C)[C@H]1CC[C@H]2C3=CC[C@@H]4C[C@@H](O)CC[C@]4(C)[C@@H]3CC[C@]12C)C(C)C
REMARK SMILES IDX 6 1 7 2 5 3 4 4 3 5 2 6 1 7 28 8 29 9 30 10 8 11 9 12 26 13
REMARK SMILES IDX 10 14 11 15 25 16 27 17 12 18 24 19 23 20 13 21 21 22 14 23
REMARK SMILES IDX 15 24 20 25 22 26 16 27 19 28 17 29 18 30
REMARK H PARENT 18 31
REMARK Flexibility Score: inf
ROOT
ATOM      1  C   UNL     1       3.221  -6.649  -4.105  1.00  0.00     0.012 C 
ATOM      2  C   UNL     1       3.818  -8.042  -4.366  1.00  0.00     0.012 C 
ENDROOT
BRANCH   1   3
ATOM      3  C   UNL     1       4.316  -5.761  -3.541  1.00  0.00    -0.028 C 
ATOM      4  C   UNL     1       4.177  -4.900  -2.515  1.00  0.00    -0.027 C 
BRANCH   4   5
ATOM      5  C   UNL     1       2.917  -4.728  -1.673  1.00  0.00     0.014 C 
BRANCH   5   6
ATOM      6  C   UNL     1       2.962  -5.541  -0.344  1.00  0.00     0.004 C 
ATOM      7  C   UNL     1       2.549  -7.015  -0.463  1.00  0.00     0.004 C 
ENDBRANCH   5   6
BRANCH   5   8
ATOM      8  C   UNL     1       2.528  -3.232  -1.455  1.00  0.00    -0.011 C 
ATOM      9  C   UNL     1       1.427  -3.008  -0.406  1.00  0.00     0.008 C 
ATOM     10  C   UNL     1       3.761  -2.372  -1.131  1.00  0.00     0.008 C 
ENDBRANCH   5   8
ENDBRANCH   4   5
ENDBRANCH   1   3
BRANCH   1  11
ATOM     11  C   UNL     1       2.563  -5.950  -5.345  1.00  0.00     0.002 C 
ATOM     12  C   UNL     1       2.751  -6.626  -6.729  1.00  0.00     0.005 C 
ATOM     13  C   UNL     1       1.043  -5.660  -5.251  1.00  0.00    -0.023 C 
ATOM     14  C   UNL     1       1.514  -6.251  -7.567  1.00  0.00     0.009 C 
ATOM     15  C   UNL     1       0.760  -5.243  -6.702  1.00  0.00     0.021 C 
ATOM     16  C   UNL     1       0.659  -4.492  -4.281  1.00  0.00     0.008 C 
ATOM     17  C   UNL     1       0.245  -6.941  -4.855  1.00  0.00     0.012 C 
ATOM     18  C   UNL     1      -0.719  -5.005  -6.884  1.00  0.00    -0.067 C 
ATOM     19  C   UNL     1      -0.368  -3.483  -4.870  1.00  0.00     0.009 C 
ATOM     20  C   UNL     1      -1.407  -4.120  -5.855  1.00  0.00     0.021 C 
ATOM     21  C   UNL     1      -1.459  -5.583  -7.842  1.00  0.00    -0.027 C 
ATOM     22  C   UNL     1      -2.405  -3.091  -6.545  1.00  0.00    -0.023 C 
ATOM     23  C   UNL     1      -2.925  -5.266  -7.904  1.00  0.00     0.031 C 
ATOM     24  C   UNL     1      -3.130  -3.737  -7.814  1.00  0.00     0.002 C 
ATOM     25  C   UNL     1      -1.648  -1.783  -6.955  1.00  0.00     0.010 C 
ATOM     26  C   UNL     1      -3.492  -2.722  -5.499  1.00  0.00     0.012 C 
ATOM     27  C   UNL     1      -2.708  -3.094  -9.159  1.00  0.00     0.036 C 
ATOM     28  C   UNL     1      -2.471  -0.868  -7.874  1.00  0.00     0.032 C 
ATOM     29  C   UNL     1      -2.904  -1.567  -9.183  1.00  0.00     0.114 C 
BRANCH  29  30
ATOM     30  O   UNL     1      -4.228  -1.233  -9.515  1.00  0.00    -0.393 OA
ATOM     31  H   UNL     1      -4.830  -1.865  -9.043  1.00  0.00     0.210 HD
ENDBRANCH  29  30
ENDBRANCH   1  11
TORSDOF 6
ENDMDL
MODEL 9
REMARK VINA RESULT:    -4.341      7.532     10.255
REMARK INTER + INTRA:          -7.581
REMARK INTER:                  -5.576
REMARK INTRA:                  -2.006
REMARK UNBOUND:                -1.844
REMARK SMILES CC[C@H](C=C[C@H](C)[C@H]1CC[C@H]2C3=CC[C@@H]4C[C@@H](O)CC[C@]4(C)[C@@H]3CC[C@]12C)C(C)C
REMARK SMILES IDX 6 1 7 2 5 3 4 4 3 5 2 6 1 7 28 8 29 9 30 10 8 11 9 12 26 13
REMARK SMILES IDX 10 14 11 15 25 16 27 17 12 18 24 19 23 20 13 21 21 22 14 23
REMARK SMILES IDX 15 24 20 25 22 26 16 27 19 28 17 29 18 30
REMARK H PARENT 18 31
REMARK Flexibility Score: inf
ROOT
ATOM      1  C   UNL     1       4.461   5.291  -6.951  1.00  0.00     0.012 C 
ATOM      2  C   UNL     1       4.251   6.733  -7.443  1.00  0.00     0.012 C 
ENDROOT
BRANCH   1   3
ATOM      3  C   UNL     1       4.990   4.466  -8.111  1.00  0.00    -0.028 C 
ATOM      4  C   UNL     1       4.393   3.379  -8.636  1.00  0.00    -0.027 C 
BRANCH   4   5
ATOM      5  C   UNL     1       3.030   2.835  -8.223  1.00  0.00     0.014 C 
BRANCH   5   6
ATOM      6  C   UNL     1       1.868   3.370  -9.113  1.00  0.00     0.004 C 
ATOM      7  C   UNL     1       0.914   4.356  -8.424  1.00  0.00     0.004 C 
ENDBRANCH   5   6
BRANCH   5   8
ATOM      8  C   UNL     1       3.012   1.280  -8.074  1.00  0.00    -0.011 C 
ATOM      9  C   UNL     1       4.390   0.614  -8.213  1.00  0.00     0.008 C 
ATOM     10  C   UNL     1       2.336   0.849  -6.762  1.00  0.00     0.008 C 
ENDBRANCH   5   8
ENDBRANCH   4   5
ENDBRANCH   1   3
BRANCH   1  11
ATOM     11  C   UNL     1       5.409   5.127  -5.713  1.00  0.00     0.002 C 
ATOM     12  C   UNL     1       5.685   6.389  -4.854  1.00  0.00     0.005 C 
ATOM     13  C   UNL     1       5.027   4.028  -4.688  1.00  0.00    -0.023 C 
ATOM     14  C   UNL     1       5.962   5.889  -3.423  1.00  0.00     0.009 C 
ATOM     15  C   UNL     1       6.007   4.368  -3.554  1.00  0.00     0.021 C 
ATOM     16  C   UNL     1       5.274   2.562  -5.179  1.00  0.00     0.008 C 
ATOM     17  C   UNL     1       3.543   4.174  -4.228  1.00  0.00     0.012 C 
ATOM     18  C   UNL     1       5.745   3.471  -2.370  1.00  0.00    -0.067 C 
ATOM     19  C   UNL     1       5.984   1.651  -4.137  1.00  0.00     0.009 C 
ATOM     20  C   UNL     1       5.633   1.978  -2.647  1.00  0.00     0.021 C 
ATOM     21  C   UNL     1       5.534   3.918  -1.123  1.00  0.00    -0.027 C 
ATOM     22  C   UNL     1       6.421   1.124  -1.561  1.00  0.00    -0.023 C 
ATOM     23  C   UNL     1       5.274   2.915  -0.037  1.00  0.00     0.031 C 
ATOM     24  C   UNL     1       6.327   1.786  -0.110  1.00  0.00     0.002 C 
ATOM     25  C   UNL     1       7.918   0.945  -1.983  1.00  0.00     0.010 C 
ATOM     26  C   UNL     1       5.758  -0.279  -1.499  1.00  0.00     0.012 C 
ATOM     27  C   UNL     1       7.682   2.329   0.410  1.00  0.00     0.036 C 
ATOM     28  C   UNL     1       8.803   0.383  -0.861  1.00  0.00     0.032 C 
ATOM     29  C   UNL     1       8.796   1.266   0.407  1.00  0.00     0.114 C 
BRANCH  29  30
ATOM     30  O   UNL     1       8.744   0.476   1.567  1.00  0.00    -0.393 OA
ATOM     31  H   UNL     1       9.647   0.091   1.715  1.00  0.00     0.210 HD
ENDBRANCH  29  30
ENDBRANCH   1  11
TORSDOF 6
ENDMDL
