MODEL 1
REMARK VINA RESULT:    -4.857      0.000      0.000
REMARK INTER + INTRA:          -5.338
REMARK INTER:                  -5.283
REMARK INTRA:                  -0.055
REMARK UNBOUND:                -0.055
REMARK SMILES COc1cc2ccc(=O)oc2cc1O
REMARK SMILES IDX 3 1 13 2 12 3 11 4 5 5 4 6 6 7 7 8 8 9 9 10 10 11 2 12 1 13
REMARK SMILES IDX 14 14
REMARK H PARENT 14 15
REMARK Flexibility Score: inf
ROOT
ATOM      1  C   UNL     1      17.531  17.298   9.585  1.00  0.00     0.161 A 
ATOM      2  C   UNL     1      16.982  17.254  10.882  1.00  0.00     0.161 A 
ATOM      3  C   UNL     1      15.595  17.201  11.059  1.00  0.00     0.098 A 
ATOM      4  C   UNL     1      14.741  17.190   9.955  1.00  0.00     0.142 A 
ATOM      5  C   UNL     1      15.281  17.234   8.652  1.00  0.00     0.022 A 
ATOM      6  C   UNL     1      16.669  17.288   8.470  1.00  0.00     0.062 A 
ATOM      7  C   UNL     1      14.399  17.222   7.565  1.00  0.00     0.019 A 
ATOM      8  C   UNL     1      13.025  17.169   7.798  1.00  0.00     0.094 A 
ATOM      9  C   UNL     1      12.563  17.128   9.117  1.00  0.00     0.336 A 
ATOM     10  O   UNL     1      11.327  17.079   9.349  1.00  0.00    -0.246 OA
ATOM     11  O   UNL     1      13.423  17.140  10.133  1.00  0.00    -0.423 OA
ENDROOT
BRANCH   1  12
ATOM     12  O   UNL     1      18.928  17.350   9.443  1.00  0.00    -0.493 OA
ATOM     13  C   UNL     1      19.770  16.210   9.317  1.00  0.00     0.278 C 
ENDBRANCH   1  12
BRANCH   2  14
ATOM     14  O   UNL     1      17.803  17.263  12.010  1.00  0.00    -0.504 OA
ATOM     15  H   UNL     1      18.572  16.615  12.124  1.00  0.00     0.293 HD
ENDBRANCH   2  14
TORSDOF 2
ENDMDL
MODEL 2
REMARK VINA RESULT:    -4.818      1.296      5.416
REMARK INTER + INTRA:          -5.295
REMARK INTER:                  -5.248
REMARK INTRA:                  -0.047
REMARK UNBOUND:                -0.055
REMARK SMILES COc1cc2ccc(=O)oc2cc1O
REMARK SMILES IDX 3 1 13 2 12 3 11 4 5 5 4 6 6 7 7 8 8 9 9 10 10 11 2 12 1 13
REMARK SMILES IDX 14 14
REMARK H PARENT 14 15
REMARK Flexibility Score: inf
ROOT
ATOM      1  C   UNL     1      12.771  17.034   9.754  1.00  0.00     0.161 A 
ATOM      2  C   UNL     1      13.176  16.867   8.415  1.00  0.00     0.161 A 
ATOM      3  C   UNL     1      14.533  16.912   8.079  1.00  0.00     0.098 A 
ATOM      4  C   UNL     1      15.500  17.120   9.064  1.00  0.00     0.142 A 
ATOM      5  C   UNL     1      15.104  17.287  10.408  1.00  0.00     0.022 A 
ATOM      6  C   UNL     1      13.746  17.244  10.749  1.00  0.00     0.062 A 
ATOM      7  C   UNL     1      16.097  17.494  11.373  1.00  0.00     0.019 A 
ATOM      8  C   UNL     1      17.435  17.530  10.982  1.00  0.00     0.094 A 
ATOM      9  C   UNL     1      17.752  17.356   9.632  1.00  0.00     0.336 A 
ATOM     10  O   UNL     1      18.953  17.385   9.258  1.00  0.00    -0.246 OA
ATOM     11  O   UNL     1      16.788  17.160   8.734  1.00  0.00    -0.423 OA
ENDROOT
BRANCH   1  12
ATOM     12  O   UNL     1      11.400  16.983  10.058  1.00  0.00    -0.493 OA
ATOM     13  C   UNL     1      10.854  16.396  11.234  1.00  0.00     0.278 C 
ENDBRANCH   1  12
BRANCH   2  14
ATOM     14  O   UNL     1      12.239  16.657   7.403  1.00  0.00    -0.504 OA
ATOM     15  H   UNL     1      11.723  17.417   6.977  1.00  0.00     0.293 HD
ENDBRANCH   2  14
TORSDOF 2
ENDMDL
MODEL 3
REMARK VINA RESULT:    -4.696      1.599      4.851
REMARK INTER + INTRA:          -5.163
REMARK INTER:                  -5.109
REMARK INTRA:                  -0.054
REMARK UNBOUND:                -0.055
REMARK SMILES COc1cc2ccc(=O)oc2cc1O
REMARK SMILES IDX 3 1 13 2 12 3 11 4 5 5 4 6 6 7 7 8 8 9 9 10 10 11 2 12 1 13
REMARK SMILES IDX 14 14
REMARK H PARENT 14 15
REMARK Flexibility Score: inf
ROOT
ATOM      1  C   UNL     1      12.908  17.407  10.748  1.00  0.00     0.161 A 
ATOM      2  C   UNL     1      13.704  17.796  11.844  1.00  0.00     0.161 A 
ATOM      3  C   UNL     1      15.095  17.858  11.716  1.00  0.00     0.098 A 
ATOM      4  C   UNL     1      15.711  17.538  10.504  1.00  0.00     0.142 A 
ATOM      5  C   UNL     1      14.922  17.147   9.402  1.00  0.00     0.022 A 
ATOM      6  C   UNL     1      13.528  17.083   9.525  1.00  0.00     0.062 A 
ATOM      7  C   UNL     1      15.567  16.832   8.201  1.00  0.00     0.019 A 
ATOM      8  C   UNL     1      16.958  16.910   8.129  1.00  0.00     0.094 A 
ATOM      9  C   UNL     1      17.674  17.305   9.263  1.00  0.00     0.336 A 
ATOM     10  O   UNL     1      18.929  17.383   9.219  1.00  0.00    -0.246 OA
ATOM     11  O   UNL     1      17.035  17.600  10.394  1.00  0.00    -0.423 OA
ENDROOT
BRANCH   1  12
ATOM     12  O   UNL     1      11.513  17.355  10.910  1.00  0.00    -0.493 OA
ATOM     13  C   UNL     1      10.791  16.202  11.327  1.00  0.00     0.278 C 
ENDBRANCH   1  12
BRANCH   2  14
ATOM     14  O   UNL     1      13.126  18.124  13.070  1.00  0.00    -0.504 OA
ATOM     15  H   UNL     1      13.628  18.039  13.945  1.00  0.00     0.293 HD
ENDBRANCH   2  14
TORSDOF 2
ENDMDL
MODEL 4
REMARK VINA RESULT:    -4.631      1.293      2.410
REMARK INTER + INTRA:          -5.092
REMARK INTER:                  -5.049
REMARK INTRA:                  -0.043
REMARK UNBOUND:                -0.055
REMARK SMILES COc1cc2ccc(=O)oc2cc1O
REMARK SMILES IDX 3 1 13 2 12 3 11 4 5 5 4 6 6 7 7 8 8 9 9 10 10 11 2 12 1 13
REMARK SMILES IDX 14 14
REMARK H PARENT 14 15
REMARK Flexibility Score: inf
ROOT
ATOM      1  C   UNL     1      17.084  17.302  10.144  1.00  0.00     0.161 A 
ATOM      2  C   UNL     1      16.839  17.069   8.776  1.00  0.00     0.161 A 
ATOM      3  C   UNL     1      15.526  16.968   8.303  1.00  0.00     0.098 A 
ATOM      4  C   UNL     1      14.446  17.098   9.178  1.00  0.00     0.142 A 
ATOM      5  C   UNL     1      14.681  17.333  10.549  1.00  0.00     0.022 A 
ATOM      6  C   UNL     1      15.994  17.434  11.028  1.00  0.00     0.062 A 
ATOM      7  C   UNL     1      13.578  17.459  11.401  1.00  0.00     0.019 A 
ATOM      8  C   UNL     1      12.291  17.350  10.877  1.00  0.00     0.094 A 
ATOM      9  C   UNL     1      12.135  17.117   9.507  1.00  0.00     0.336 A 
ATOM     10  O   UNL     1      10.982  17.016   9.013  1.00  0.00    -0.246 OA
ATOM     11  O   UNL     1      13.201  17.001   8.718  1.00  0.00    -0.423 OA
ENDROOT
BRANCH   1  12
ATOM     12  O   UNL     1      18.414  17.398  10.586  1.00  0.00    -0.493 OA
ATOM     13  C   UNL     1      18.802  17.740  11.912  1.00  0.00     0.278 C 
ENDBRANCH   1  12
BRANCH   2  14
ATOM     14  O   UNL     1      17.891  16.932   7.871  1.00  0.00    -0.504 OA
ATOM     15  H   UNL     1      18.861  16.985   8.157  1.00  0.00     0.293 HD
ENDBRANCH   2  14
TORSDOF 2
ENDMDL
MODEL 5
REMARK VINA RESULT:    -4.561      1.784      2.345
REMARK INTER + INTRA:          -5.016
REMARK INTER:                  -4.971
REMARK INTRA:                  -0.046
REMARK UNBOUND:                -0.055
REMARK SMILES COc1cc2ccc(=O)oc2cc1O
REMARK SMILES IDX 3 1 13 2 12 3 11 4 5 5 4 6 6 7 7 8 8 9 9 10 10 11 2 12 1 13
REMARK SMILES IDX 14 14
REMARK H PARENT 14 15
REMARK Flexibility Score: inf
ROOT
ATOM      1  C   UNL     1      15.928  17.750  11.987  1.00  0.00     0.161 A 
ATOM      2  C   UNL     1      14.766  17.395  12.701  1.00  0.00     0.161 A 
ATOM      3  C   UNL     1      13.597  17.049  12.016  1.00  0.00     0.098 A 
ATOM      4  C   UNL     1      13.567  17.050  10.620  1.00  0.00     0.142 A 
ATOM      5  C   UNL     1      14.725  17.404   9.896  1.00  0.00     0.022 A 
ATOM      6  C   UNL     1      15.898  17.752  10.578  1.00  0.00     0.062 A 
ATOM      7  C   UNL     1      14.664  17.396   8.498  1.00  0.00     0.019 A 
ATOM      8  C   UNL     1      13.472  17.043   7.866  1.00  0.00     0.094 A 
ATOM      9  C   UNL     1      12.365  16.703   8.649  1.00  0.00     0.336 A 
ATOM     10  O   UNL     1      11.280  16.382   8.099  1.00  0.00    -0.246 OA
ATOM     11  O   UNL     1      12.449  16.719   9.978  1.00  0.00    -0.423 OA
ENDROOT
BRANCH   1  12
ATOM     12  O   UNL     1      17.085  18.092  12.706  1.00  0.00    -0.493 OA
ATOM     13  C   UNL     1      18.415  17.889  12.240  1.00  0.00     0.278 C 
ENDBRANCH   1  12
BRANCH   2  14
ATOM     14  O   UNL     1      14.757  17.382  14.096  1.00  0.00    -0.504 OA
ATOM     15  H   UNL     1      13.916  17.554  14.633  1.00  0.00     0.293 HD
ENDBRANCH   2  14
TORSDOF 2
ENDMDL
MODEL 6
REMARK VINA RESULT:    -4.540      2.978      5.345
REMARK INTER + INTRA:          -4.993
REMARK INTER:                  -4.943
REMARK INTRA:                  -0.050
REMARK UNBOUND:                -0.055
REMARK SMILES COc1cc2ccc(=O)oc2cc1O
REMARK SMILES IDX 3 1 13 2 12 3 11 4 5 5 4 6 6 7 7 8 8 9 9 10 10 11 2 12 1 13
REMARK SMILES IDX 14 14
REMARK H PARENT 14 15
REMARK Flexibility Score: inf
ROOT
ATOM      1  C   UNL     1      12.610  16.637   9.176  1.00  0.00     0.161 A 
ATOM      2  C   UNL     1      11.943  17.459  10.107  1.00  0.00     0.161 A 
ATOM      3  C   UNL     1      12.456  17.618  11.398  1.00  0.00     0.098 A 
ATOM      4  C   UNL     1      13.631  16.968  11.780  1.00  0.00     0.142 A 
ATOM      5  C   UNL     1      14.305  16.144  10.854  1.00  0.00     0.022 A 
ATOM      6  C   UNL     1      13.796  15.980   9.560  1.00  0.00     0.062 A 
ATOM      7  C   UNL     1      15.481  15.505  11.266  1.00  0.00     0.019 A 
ATOM      8  C   UNL     1      15.947  15.699  12.566  1.00  0.00     0.094 A 
ATOM      9  C   UNL     1      15.226  16.531  13.427  1.00  0.00     0.336 A 
ATOM     10  O   UNL     1      15.629  16.719  14.604  1.00  0.00    -0.246 OA
ATOM     11  O   UNL     1      14.110  17.127  13.011  1.00  0.00    -0.423 OA
ENDROOT
BRANCH   1  12
ATOM     12  O   UNL     1      12.068  16.499   7.886  1.00  0.00    -0.493 OA
ATOM     13  C   UNL     1      11.125  15.502   7.509  1.00  0.00     0.278 C 
ENDBRANCH   1  12
BRANCH   2  14
ATOM     14  O   UNL     1      10.767  18.125   9.763  1.00  0.00    -0.504 OA
ATOM     15  H   UNL     1      10.490  18.995  10.200  1.00  0.00     0.293 HD
ENDBRANCH   2  14
TORSDOF 2
ENDMDL
MODEL 7
REMARK VINA RESULT:    -4.532      3.483      5.234
REMARK INTER + INTRA:          -4.985
REMARK INTER:                  -4.921
REMARK INTRA:                  -0.063
REMARK UNBOUND:                -0.055
REMARK SMILES COc1cc2ccc(=O)oc2cc1O
REMARK SMILES IDX 3 1 13 2 12 3 11 4 5 5 4 6 6 7 7 8 8 9 9 10 10 11 2 12 1 13
REMARK SMILES IDX 14 14
REMARK H PARENT 14 15
REMARK Flexibility Score: inf
ROOT
ATOM      1  C   UNL     1      13.194  16.643  10.499  1.00  0.00     0.161 A 
ATOM      2  C   UNL     1      12.023  16.843   9.740  1.00  0.00     0.161 A 
ATOM      3  C   UNL     1      11.347  15.750   9.188  1.00  0.00     0.098 A 
ATOM      4  C   UNL     1      11.821  14.451   9.383  1.00  0.00     0.142 A 
ATOM      5  C   UNL     1      12.991  14.241  10.141  1.00  0.00     0.022 A 
ATOM      6  C   UNL     1      13.673  15.332  10.696  1.00  0.00     0.062 A 
ATOM      7  C   UNL     1      13.442  12.928  10.319  1.00  0.00     0.019 A 
ATOM      8  C   UNL     1      12.729  11.875   9.746  1.00  0.00     0.094 A 
ATOM      9  C   UNL     1      11.577  12.160   9.008  1.00  0.00     0.336 A 
ATOM     10  O   UNL     1      10.919  11.225   8.483  1.00  0.00    -0.246 OA
ATOM     11  O   UNL     1      11.169  13.419   8.854  1.00  0.00    -0.423 OA
ENDROOT
BRANCH   1  12
ATOM     12  O   UNL     1      13.849  17.762  11.039  1.00  0.00    -0.493 OA
ATOM     13  C   UNL     1      13.869  18.097  12.423  1.00  0.00     0.278 C 
ENDBRANCH   1  12
BRANCH   2  14
ATOM     14  O   UNL     1      11.519  18.125   9.523  1.00  0.00    -0.504 OA
ATOM     15  H   UNL     1      11.847  18.715   8.769  1.00  0.00     0.293 HD
ENDBRANCH   2  14
TORSDOF 2
ENDMDL
MODEL 8
REMARK VINA RESULT:    -4.485      1.212      4.914
REMARK INTER + INTRA:          -4.934
REMARK INTER:                  -4.872
REMARK INTRA:                  -0.061
REMARK UNBOUND:                -0.055
REMARK SMILES COc1cc2ccc(=O)oc2cc1O
REMARK SMILES IDX 3 1 13 2 12 3 11 4 5 5 4 6 6 7 7 8 8 9 9 10 10 11 2 12 1 13
REMARK SMILES IDX 14 14
REMARK H PARENT 14 15
REMARK Flexibility Score: inf
ROOT
ATOM      1  C   UNL     1      12.956  16.986   9.117  1.00  0.00     0.161 A 
ATOM      2  C   UNL     1      13.087  16.951  10.520  1.00  0.00     0.161 A 
ATOM      3  C   UNL     1      14.350  17.054  11.111  1.00  0.00     0.098 A 
ATOM      4  C   UNL     1      15.493  17.193  10.322  1.00  0.00     0.142 A 
ATOM      5  C   UNL     1      15.372  17.229   8.917  1.00  0.00     0.022 A 
ATOM      6  C   UNL     1      14.109  17.126   8.319  1.00  0.00     0.062 A 
ATOM      7  C   UNL     1      16.536  17.369   8.152  1.00  0.00     0.019 A 
ATOM      8  C   UNL     1      17.770  17.467   8.794  1.00  0.00     0.094 A 
ATOM      9  C   UNL     1      17.812  17.424  10.191  1.00  0.00     0.336 A 
ATOM     10  O   UNL     1      18.916  17.511  10.789  1.00  0.00    -0.246 OA
ATOM     11  O   UNL     1      16.690  17.290  10.895  1.00  0.00    -0.423 OA
ENDROOT
BRANCH   1  12
ATOM     12  O   UNL     1      11.673  16.880   8.554  1.00  0.00    -0.493 OA
ATOM     13  C   UNL     1      11.217  15.774   7.783  1.00  0.00     0.278 C 
ENDBRANCH   1  12
BRANCH   2  14
ATOM     14  O   UNL     1      11.969  16.813  11.342  1.00  0.00    -0.504 OA
ATOM     15  H   UNL     1      11.054  17.151  11.072  1.00  0.00     0.293 HD
ENDBRANCH   2  14
TORSDOF 2
ENDMDL
MODEL 9
REMARK VINA RESULT:    -4.440     10.499     12.442
REMARK INTER + INTRA:          -4.884
REMARK INTER:                  -4.819
REMARK INTRA:                  -0.065
REMARK UNBOUND:                -0.055
REMARK SMILES COc1cc2ccc(=O)oc2cc1O
REMARK SMILES IDX 3 1 13 2 12 3 11 4 5 5 4 6 6 7 7 8 8 9 9 10 10 11 2 12 1 13
REMARK SMILES IDX 14 14
REMARK H PARENT 14 15
REMARK Flexibility Score: inf
ROOT
ATOM      1  C   UNL     1      17.460  12.937  18.216  1.00  0.00     0.161 A 
ATOM      2  C   UNL     1      18.301  13.508  19.192  1.00  0.00     0.161 A 
ATOM      3  C   UNL     1      18.636  12.787  20.342  1.00  0.00     0.098 A 
ATOM      4  C   UNL     1      18.143  11.495  20.537  1.00  0.00     0.142 A 
ATOM      5  C   UNL     1      17.301  10.914  19.565  1.00  0.00     0.022 A 
ATOM      6  C   UNL     1      16.962  11.633  18.411  1.00  0.00     0.062 A 
ATOM      7  C   UNL     1      16.823   9.618  19.788  1.00  0.00     0.019 A 
ATOM      8  C   UNL     1      17.188   8.944  20.953  1.00  0.00     0.094 A 
ATOM      9  C   UNL     1      18.027   9.583  21.871  1.00  0.00     0.336 A 
ATOM     10  O   UNL     1      18.368   8.992  22.928  1.00  0.00    -0.246 OA
ATOM     11  O   UNL     1      18.468  10.817  21.634  1.00  0.00    -0.423 OA
ENDROOT
BRANCH   1  12
ATOM     12  O   UNL     1      17.144  13.689  17.072  1.00  0.00    -0.493 OA
ATOM     13  C   UNL     1      15.909  14.366  16.867  1.00  0.00     0.278 C 
ENDBRANCH   1  12
BRANCH   2  14
ATOM     14  O   UNL     1      18.813  14.796  19.033  1.00  0.00    -0.504 OA
ATOM     15  H   UNL     1      19.178  15.129  18.150  1.00  0.00     0.293 HD
ENDBRANCH   2  14
TORSDOF 2
ENDMDL
