MODEL 1
REMARK VINA RESULT:    -4.048      0.000      0.000
REMARK INTER + INTRA:         -14.328
REMARK INTER:                 -10.200
REMARK INTRA:                  -4.129
REMARK UNBOUND:                -4.129
REMARK SMILES CCCCCCCCCCCCCCCCCCCCCCCCCCCC(=O)[O-]
REMARK SMILES IDX 15 1 16 2 17 3 18 4 19 5 20 6 21 7 22 8 23 9 24 10 25 11
REMARK SMILES IDX 26 12 27 13 28 14 29 15 30 16 14 17 13 18 12 19 11 20 10 21
REMARK SMILES IDX 9 22 8 23 7 24 6 25 5 26 4 27 3 28 2 29 1 30
REMARK H PARENT
REMARK Flexibility Score: inf
ROOT
ATOM      1  C   UNL     1      -9.978 -34.392 -43.739  1.00  0.00     0.000 C 
ENDROOT
BRANCH   1   2
ATOM      2  C   UNL     1      -8.956 -35.262 -44.490  1.00  0.00     0.000 C 
BRANCH   2   3
ATOM      3  C   UNL     1      -9.061 -35.115 -46.019  1.00  0.00     0.000 C 
BRANCH   3   4
ATOM      4  C   UNL     1      -9.676 -36.354 -46.688  1.00  0.00     0.000 C 
BRANCH   4   5
ATOM      5  C   UNL     1     -10.311 -36.038 -48.054  1.00  0.00     0.000 C 
BRANCH   5   6
ATOM      6  C   UNL     1      -9.321 -35.386 -49.030  1.00  0.00     0.000 C 
BRANCH   6   7
ATOM      7  C   UNL     1      -9.876 -34.102 -49.664  1.00  0.00     0.000 C 
BRANCH   7   8
ATOM      8  C   UNL     1     -10.456 -33.165 -48.594  1.00  0.00     0.000 C 
BRANCH   8   9
ATOM      9  C   UNL     1     -10.361 -31.678 -48.978  1.00  0.00     0.000 C 
BRANCH   9  10
ATOM     10  C   UNL     1      -9.164 -31.312 -49.875  1.00  0.00     0.000 C 
BRANCH  10  11
ATOM     11  C   UNL     1      -8.231 -30.272 -49.236  1.00  0.00     0.000 C 
BRANCH  11  12
ATOM     12  C   UNL     1      -6.766 -30.714 -49.341  1.00  0.00     0.006 C 
BRANCH  12  13
ATOM     13  C   UNL     1      -6.231 -31.166 -47.978  1.00  0.00     0.053 C 
BRANCH  13  14
ATOM     14  C   UNL     1      -6.296 -32.657 -47.857  1.00  0.00     0.041 C 
ATOM     15  O   UNL     1      -6.323 -33.201 -46.721  1.00  0.00    -0.550 OA
ATOM     16  O   UNL     1      -6.347 -33.446 -49.000  1.00  0.00    -0.550 OA
ENDBRANCH  13  14
ENDBRANCH  12  13
ENDBRANCH  11  12
ENDBRANCH  10  11
ENDBRANCH   9  10
ENDBRANCH   8   9
ENDBRANCH   7   8
ENDBRANCH   6   7
ENDBRANCH   5   6
ENDBRANCH   4   5
ENDBRANCH   3   4
ENDBRANCH   2   3
ENDBRANCH   1   2
BRANCH   1  17
ATOM     17  C   UNL     1     -11.121 -33.908 -44.649  1.00  0.00     0.000 C 
BRANCH  17  18
ATOM     18  C   UNL     1     -12.454 -34.614 -44.349  1.00  0.00     0.000 C 
BRANCH  18  19
ATOM     19  C   UNL     1     -13.019 -35.351 -45.575  1.00  0.00     0.000 C 
BRANCH  19  20
ATOM     20  C   UNL     1     -14.287 -36.160 -45.251  1.00  0.00     0.000 C 
BRANCH  20  21
ATOM     21  C   UNL     1     -14.405 -37.522 -45.965  1.00  0.00     0.000 C 
BRANCH  21  22
ATOM     22  C   UNL     1     -13.134 -38.017 -46.689  1.00  0.00    -0.000 C 
BRANCH  22  23
ATOM     23  C   UNL     1     -13.337 -38.451 -48.157  1.00  0.00    -0.000 C 
BRANCH  23  24
ATOM     24  C   UNL     1     -13.697 -37.299 -49.114  1.00  0.00    -0.000 C 
BRANCH  24  25
ATOM     25  C   UNL     1     -14.977 -37.547 -49.937  1.00  0.00    -0.000 C 
BRANCH  25  26
ATOM     26  C   UNL     1     -16.092 -36.545 -49.588  1.00  0.00    -0.000 C 
BRANCH  26  27
ATOM     27  C   UNL     1     -15.570 -35.339 -48.792  1.00  0.00    -0.000 C 
BRANCH  27  28
ATOM     28  C   UNL     1     -16.549 -34.894 -47.689  1.00  0.00    -0.000 C 
BRANCH  28  29
ATOM     29  C   UNL     1     -17.742 -35.849 -47.542  1.00  0.00    -0.003 C 
ATOM     30  C   UNL     1     -17.909 -36.369 -46.115  1.00  0.00     0.004 C 
ENDBRANCH  28  29
ENDBRANCH  27  28
ENDBRANCH  26  27
ENDBRANCH  25  26
ENDBRANCH  24  25
ENDBRANCH  23  24
ENDBRANCH  22  23
ENDBRANCH  21  22
ENDBRANCH  20  21
ENDBRANCH  19  20
ENDBRANCH  18  19
ENDBRANCH  17  18
ENDBRANCH   1  17
TORSDOF 26
ENDMDL
MODEL 2
REMARK VINA RESULT:    -4.037      3.254      8.395
REMARK INTER + INTRA:         -14.303
REMARK INTER:                 -10.701
REMARK INTRA:                  -3.602
REMARK UNBOUND:                -4.129
REMARK SMILES CCCCCCCCCCCCCCCCCCCCCCCCCCCC(=O)[O-]
REMARK SMILES IDX 15 1 16 2 17 3 18 4 19 5 20 6 21 7 22 8 23 9 24 10 25 11
REMARK SMILES IDX 26 12 27 13 28 14 29 15 30 16 14 17 13 18 12 19 11 20 10 21
REMARK SMILES IDX 9 22 8 23 7 24 6 25 5 26 4 27 3 28 2 29 1 30
REMARK H PARENT
REMARK Flexibility Score: inf
ROOT
ATOM      1  C   UNL     1     -11.355 -34.155 -44.760  1.00  0.00     0.000 C 
ENDROOT
BRANCH   1   2
ATOM      2  C   UNL     1     -12.658 -34.602 -44.078  1.00  0.00     0.000 C 
BRANCH   2   3
ATOM      3  C   UNL     1     -13.592 -35.373 -45.029  1.00  0.00     0.000 C 
BRANCH   3   4
ATOM      4  C   UNL     1     -12.895 -35.779 -46.337  1.00  0.00     0.000 C 
BRANCH   4   5
ATOM      5  C   UNL     1     -12.928 -37.298 -46.581  1.00  0.00     0.000 C 
BRANCH   5   6
ATOM      6  C   UNL     1     -14.049 -37.718 -47.543  1.00  0.00     0.000 C 
BRANCH   6   7
ATOM      7  C   UNL     1     -14.887 -38.884 -46.998  1.00  0.00     0.000 C 
BRANCH   7   8
ATOM      8  C   UNL     1     -15.007 -38.808 -45.468  1.00  0.00     0.000 C 
BRANCH   8   9
ATOM      9  C   UNL     1     -16.107 -37.841 -44.998  1.00  0.00     0.000 C 
BRANCH   9  10
ATOM     10  C   UNL     1     -17.368 -37.805 -45.881  1.00  0.00     0.000 C 
BRANCH  10  11
ATOM     11  C   UNL     1     -17.862 -36.379 -46.166  1.00  0.00     0.000 C 
BRANCH  11  12
ATOM     12  C   UNL     1     -16.735 -35.514 -46.743  1.00  0.00     0.006 C 
BRANCH  12  13
ATOM     13  C   UNL     1     -17.210 -34.752 -47.985  1.00  0.00     0.053 C 
BRANCH  13  14
ATOM     14  C   UNL     1     -17.641 -35.709 -49.053  1.00  0.00     0.041 C 
ATOM     15  O   UNL     1     -18.799 -35.632 -49.545  1.00  0.00    -0.550 OA
ATOM     16  O   UNL     1     -16.758 -36.675 -49.521  1.00  0.00    -0.550 OA
ENDBRANCH  13  14
ENDBRANCH  12  13
ENDBRANCH  11  12
ENDBRANCH  10  11
ENDBRANCH   9  10
ENDBRANCH   8   9
ENDBRANCH   7   8
ENDBRANCH   6   7
ENDBRANCH   5   6
ENDBRANCH   4   5
ENDBRANCH   3   4
ENDBRANCH   2   3
ENDBRANCH   1   2
BRANCH   1  17
ATOM     17  C   UNL     1     -10.138 -34.246 -43.823  1.00  0.00     0.000 C 
BRANCH  17  18
ATOM     18  C   UNL     1      -8.855 -34.666 -44.559  1.00  0.00     0.000 C 
BRANCH  18  19
ATOM     19  C   UNL     1      -8.847 -36.161 -44.925  1.00  0.00     0.000 C 
BRANCH  19  20
ATOM     20  C   UNL     1      -9.289 -36.422 -46.374  1.00  0.00     0.000 C 
BRANCH  20  21
ATOM     21  C   UNL     1      -9.283 -35.190 -47.303  1.00  0.00     0.000 C 
BRANCH  21  22
ATOM     22  C   UNL     1     -10.047 -35.347 -48.636  1.00  0.00    -0.000 C 
BRANCH  22  23
ATOM     23  C   UNL     1     -10.997 -34.182 -48.992  1.00  0.00    -0.000 C 
BRANCH  23  24
ATOM     24  C   UNL     1     -10.345 -33.066 -49.829  1.00  0.00    -0.000 C 
BRANCH  24  25
ATOM     25  C   UNL     1     -10.452 -31.664 -49.194  1.00  0.00    -0.000 C 
BRANCH  25  26
ATOM     26  C   UNL     1      -9.114 -30.905 -49.242  1.00  0.00    -0.000 C 
BRANCH  26  27
ATOM     27  C   UNL     1      -7.932 -31.766 -48.770  1.00  0.00    -0.000 C 
BRANCH  27  28
ATOM     28  C   UNL     1      -6.745 -30.918 -48.277  1.00  0.00    -0.000 C 
BRANCH  28  29
ATOM     29  C   UNL     1      -6.714 -29.524 -48.919  1.00  0.00    -0.003 C 
ATOM     30  C   UNL     1      -5.720 -28.583 -48.238  1.00  0.00     0.004 C 
ENDBRANCH  28  29
ENDBRANCH  27  28
ENDBRANCH  26  27
ENDBRANCH  25  26
ENDBRANCH  24  25
ENDBRANCH  23  24
ENDBRANCH  22  23
ENDBRANCH  21  22
ENDBRANCH  20  21
ENDBRANCH  19  20
ENDBRANCH  18  19
ENDBRANCH  17  18
ENDBRANCH   1  17
TORSDOF 26
ENDMDL
MODEL 3
REMARK VINA RESULT:    -3.993      1.606      2.674
REMARK INTER + INTRA:         -14.191
REMARK INTER:                  -9.912
REMARK INTRA:                  -4.279
REMARK UNBOUND:                -4.129
REMARK SMILES CCCCCCCCCCCCCCCCCCCCCCCCCCCC(=O)[O-]
REMARK SMILES IDX 15 1 16 2 17 3 18 4 19 5 20 6 21 7 22 8 23 9 24 10 25 11
REMARK SMILES IDX 26 12 27 13 28 14 29 15 30 16 14 17 13 18 12 19 11 20 10 21
REMARK SMILES IDX 9 22 8 23 7 24 6 25 5 26 4 27 3 28 2 29 1 30
REMARK H PARENT
REMARK Flexibility Score: inf
ROOT
ATOM      1  C   UNL     1     -10.123 -34.241 -43.858  1.00  0.00     0.000 C 
ENDROOT
BRANCH   1   2
ATOM      2  C   UNL     1      -8.875 -35.099 -44.123  1.00  0.00     0.000 C 
BRANCH   2   3
ATOM      3  C   UNL     1      -8.871 -35.720 -45.532  1.00  0.00     0.000 C 
BRANCH   3   4
ATOM      4  C   UNL     1      -8.888 -37.257 -45.497  1.00  0.00     0.000 C 
BRANCH   4   5
ATOM      5  C   UNL     1      -9.480 -37.873 -46.777  1.00  0.00     0.000 C 
BRANCH   5   6
ATOM      6  C   UNL     1     -10.280 -36.858 -47.606  1.00  0.00     0.000 C 
BRANCH   6   7
ATOM      7  C   UNL     1      -9.644 -36.584 -48.977  1.00  0.00     0.000 C 
BRANCH   7   8
ATOM      8  C   UNL     1     -10.102 -35.228 -49.536  1.00  0.00     0.000 C 
BRANCH   8   9
ATOM      9  C   UNL     1     -10.471 -34.217 -48.437  1.00  0.00     0.000 C 
BRANCH   9  10
ATOM     10  C   UNL     1      -9.474 -33.058 -48.254  1.00  0.00     0.000 C 
BRANCH  10  11
ATOM     11  C   UNL     1      -8.010 -33.523 -48.236  1.00  0.00     0.000 C 
BRANCH  11  12
ATOM     12  C   UNL     1      -7.074 -32.370 -47.852  1.00  0.00     0.006 C 
BRANCH  12  13
ATOM     13  C   UNL     1      -6.675 -31.553 -49.085  1.00  0.00     0.053 C 
BRANCH  13  14
ATOM     14  C   UNL     1      -7.180 -30.149 -48.969  1.00  0.00     0.041 C 
ATOM     15  O   UNL     1      -8.309 -29.839 -49.437  1.00  0.00    -0.550 OA
ATOM     16  O   UNL     1      -6.413 -29.184 -48.327  1.00  0.00    -0.550 OA
ENDBRANCH  13  14
ENDBRANCH  12  13
ENDBRANCH  11  12
ENDBRANCH  10  11
ENDBRANCH   9  10
ENDBRANCH   8   9
ENDBRANCH   7   8
ENDBRANCH   6   7
ENDBRANCH   5   6
ENDBRANCH   4   5
ENDBRANCH   3   4
ENDBRANCH   2   3
ENDBRANCH   1   2
BRANCH   1  17
ATOM     17  C   UNL     1     -11.271 -34.552 -44.835  1.00  0.00     0.000 C 
BRANCH  17  18
ATOM     18  C   UNL     1     -12.643 -34.584 -44.142  1.00  0.00     0.000 C 
BRANCH  18  19
ATOM     19  C   UNL     1     -13.701 -35.340 -44.965  1.00  0.00     0.000 C 
BRANCH  19  20
ATOM     20  C   UNL     1     -13.171 -35.806 -46.332  1.00  0.00     0.000 C 
BRANCH  20  21
ATOM     21  C   UNL     1     -13.799 -37.105 -46.879  1.00  0.00     0.000 C 
BRANCH  21  22
ATOM     22  C   UNL     1     -13.762 -38.323 -45.930  1.00  0.00    -0.000 C 
BRANCH  22  23
ATOM     23  C   UNL     1     -15.133 -38.969 -45.633  1.00  0.00    -0.000 C 
BRANCH  23  24
ATOM     24  C   UNL     1     -16.208 -37.979 -45.149  1.00  0.00    -0.000 C 
BRANCH  24  25
ATOM     25  C   UNL     1     -17.574 -38.150 -45.844  1.00  0.00    -0.000 C 
BRANCH  25  26
ATOM     26  C   UNL     1     -18.115 -36.816 -46.391  1.00  0.00    -0.000 C 
BRANCH  26  27
ATOM     27  C   UNL     1     -17.104 -35.669 -46.249  1.00  0.00    -0.000 C 
BRANCH  27  28
ATOM     28  C   UNL     1     -16.847 -34.941 -47.581  1.00  0.00    -0.000 C 
BRANCH  28  29
ATOM     29  C   UNL     1     -16.680 -35.913 -48.758  1.00  0.00    -0.003 C 
ATOM     30  C   UNL     1     -15.543 -35.513 -49.698  1.00  0.00     0.004 C 
ENDBRANCH  28  29
ENDBRANCH  27  28
ENDBRANCH  26  27
ENDBRANCH  25  26
ENDBRANCH  24  25
ENDBRANCH  23  24
ENDBRANCH  22  23
ENDBRANCH  21  22
ENDBRANCH  20  21
ENDBRANCH  19  20
ENDBRANCH  18  19
ENDBRANCH  17  18
ENDBRANCH   1  17
TORSDOF 26
ENDMDL
MODEL 4
REMARK VINA RESULT:    -3.939      1.122      3.137
REMARK INTER + INTRA:         -14.054
REMARK INTER:                  -9.600
REMARK INTRA:                  -4.453
REMARK UNBOUND:                -4.129
REMARK SMILES CCCCCCCCCCCCCCCCCCCCCCCCCCCC(=O)[O-]
REMARK SMILES IDX 15 1 16 2 17 3 18 4 19 5 20 6 21 7 22 8 23 9 24 10 25 11
REMARK SMILES IDX 26 12 27 13 28 14 29 15 30 16 14 17 13 18 12 19 11 20 10 21
REMARK SMILES IDX 9 22 8 23 7 24 6 25 5 26 4 27 3 28 2 29 1 30
REMARK H PARENT
REMARK Flexibility Score: inf
ROOT
ATOM      1  C   UNL     1     -13.103 -35.377 -45.719  1.00  0.00     0.000 C 
ENDROOT
BRANCH   1   2
ATOM      2  C   UNL     1     -12.573 -34.647 -44.474  1.00  0.00     0.000 C 
BRANCH   2   3
ATOM      3  C   UNL     1     -11.059 -34.374 -44.546  1.00  0.00     0.000 C 
BRANCH   3   4
ATOM      4  C   UNL     1     -10.357 -35.229 -45.612  1.00  0.00     0.000 C 
BRANCH   4   5
ATOM      5  C   UNL     1      -8.997 -34.648 -46.038  1.00  0.00     0.000 C 
BRANCH   5   6
ATOM      6  C   UNL     1      -8.962 -34.253 -47.522  1.00  0.00     0.000 C 
BRANCH   6   7
ATOM      7  C   UNL     1     -10.307 -34.485 -48.226  1.00  0.00     0.000 C 
BRANCH   7   8
ATOM      8  C   UNL     1     -10.742 -33.237 -49.010  1.00  0.00     0.000 C 
BRANCH   8   9
ATOM      9  C   UNL     1      -9.988 -31.965 -48.584  1.00  0.00     0.000 C 
BRANCH   9  10
ATOM     10  C   UNL     1      -9.470 -31.094 -49.744  1.00  0.00     0.000 C 
BRANCH  10  11
ATOM     11  C   UNL     1      -7.945 -31.163 -49.912  1.00  0.00     0.000 C 
BRANCH  11  12
ATOM     12  C   UNL     1      -7.238 -30.332 -48.834  1.00  0.00     0.006 C 
BRANCH  12  13
ATOM     13  C   UNL     1      -5.806 -30.831 -48.610  1.00  0.00     0.053 C 
BRANCH  13  14
ATOM     14  C   UNL     1      -5.811 -32.105 -47.824  1.00  0.00     0.041 C 
ATOM     15  O   UNL     1      -6.395 -32.160 -46.708  1.00  0.00    -0.550 OA
ATOM     16  O   UNL     1      -5.188 -33.239 -48.331  1.00  0.00    -0.550 OA
ENDBRANCH  13  14
ENDBRANCH  12  13
ENDBRANCH  11  12
ENDBRANCH  10  11
ENDBRANCH   9  10
ENDBRANCH   8   9
ENDBRANCH   7   8
ENDBRANCH   6   7
ENDBRANCH   5   6
ENDBRANCH   4   5
ENDBRANCH   3   4
ENDBRANCH   2   3
ENDBRANCH   1   2
BRANCH   1  17
ATOM     17  C   UNL     1     -14.182 -36.419 -45.376  1.00  0.00     0.000 C 
BRANCH  17  18
ATOM     18  C   UNL     1     -13.913 -37.785 -46.029  1.00  0.00     0.000 C 
BRANCH  18  19
ATOM     19  C   UNL     1     -15.152 -38.696 -46.022  1.00  0.00     0.000 C 
BRANCH  19  20
ATOM     20  C   UNL     1     -16.112 -38.387 -44.861  1.00  0.00     0.000 C 
BRANCH  20  21
ATOM     21  C   UNL     1     -17.613 -38.554 -45.178  1.00  0.00     0.000 C 
BRANCH  21  22
ATOM     22  C   UNL     1     -18.199 -37.562 -46.206  1.00  0.00    -0.000 C 
BRANCH  22  23
ATOM     23  C   UNL     1     -17.770 -36.089 -46.019  1.00  0.00    -0.000 C 
BRANCH  23  24
ATOM     24  C   UNL     1     -17.103 -35.463 -47.258  1.00  0.00    -0.000 C 
BRANCH  24  25
ATOM     25  C   UNL     1     -17.297 -36.277 -48.552  1.00  0.00    -0.000 C 
BRANCH  25  26
ATOM     26  C   UNL     1     -15.984 -36.429 -49.341  1.00  0.00    -0.000 C 
BRANCH  26  27
ATOM     27  C   UNL     1     -14.913 -35.420 -48.900  1.00  0.00    -0.000 C 
BRANCH  27  28
ATOM     28  C   UNL     1     -13.531 -35.725 -49.507  1.00  0.00    -0.000 C 
BRANCH  28  29
ATOM     29  C   UNL     1     -13.261 -37.231 -49.623  1.00  0.00    -0.003 C 
ATOM     30  C   UNL     1     -11.913 -37.638 -49.026  1.00  0.00     0.004 C 
ENDBRANCH  28  29
ENDBRANCH  27  28
ENDBRANCH  26  27
ENDBRANCH  25  26
ENDBRANCH  24  25
ENDBRANCH  23  24
ENDBRANCH  22  23
ENDBRANCH  21  22
ENDBRANCH  20  21
ENDBRANCH  19  20
ENDBRANCH  18  19
ENDBRANCH  17  18
ENDBRANCH   1  17
TORSDOF 26
ENDMDL
MODEL 5
REMARK VINA RESULT:    -3.777      2.781      8.133
REMARK INTER + INTRA:         -13.647
REMARK INTER:                 -10.037
REMARK INTRA:                  -3.610
REMARK UNBOUND:                -4.129
REMARK SMILES CCCCCCCCCCCCCCCCCCCCCCCCCCCC(=O)[O-]
REMARK SMILES IDX 15 1 16 2 17 3 18 4 19 5 20 6 21 7 22 8 23 9 24 10 25 11
REMARK SMILES IDX 26 12 27 13 28 14 29 15 30 16 14 17 13 18 12 19 11 20 10 21
REMARK SMILES IDX 9 22 8 23 7 24 6 25 5 26 4 27 3 28 2 29 1 30
REMARK H PARENT
REMARK Flexibility Score: inf
ROOT
ATOM      1  C   UNL     1      -8.856 -34.911 -44.260  1.00  0.00     0.000 C 
ENDROOT
BRANCH   1   2
ATOM      2  C   UNL     1     -10.157 -34.295 -43.721  1.00  0.00     0.000 C 
BRANCH   2   3
ATOM      3  C   UNL     1     -11.216 -34.088 -44.820  1.00  0.00     0.000 C 
BRANCH   3   4
ATOM      4  C   UNL     1     -12.569 -34.724 -44.460  1.00  0.00     0.000 C 
BRANCH   4   5
ATOM      5  C   UNL     1     -13.248 -35.396 -45.667  1.00  0.00     0.000 C 
BRANCH   5   6
ATOM      6  C   UNL     1     -14.496 -36.198 -45.271  1.00  0.00     0.000 C 
BRANCH   6   7
ATOM      7  C   UNL     1     -14.493 -37.619 -45.854  1.00  0.00     0.000 C 
BRANCH   7   8
ATOM      8  C   UNL     1     -15.890 -38.252 -45.770  1.00  0.00     0.000 C 
BRANCH   8   9
ATOM      9  C   UNL     1     -16.981 -37.253 -45.347  1.00  0.00     0.000 C 
BRANCH   9  10
ATOM     10  C   UNL     1     -17.865 -36.727 -46.493  1.00  0.00     0.000 C 
BRANCH  10  11
ATOM     11  C   UNL     1     -17.728 -37.550 -47.783  1.00  0.00     0.000 C 
BRANCH  11  12
ATOM     12  C   UNL     1     -17.421 -36.642 -48.981  1.00  0.00     0.006 C 
BRANCH  12  13
ATOM     13  C   UNL     1     -16.029 -36.015 -48.851  1.00  0.00     0.053 C 
BRANCH  13  14
ATOM     14  C   UNL     1     -16.104 -34.531 -49.034  1.00  0.00     0.041 C 
ATOM     15  O   UNL     1     -15.324 -33.950 -49.836  1.00  0.00    -0.550 OA
ATOM     16  O   UNL     1     -17.047 -33.790 -48.331  1.00  0.00    -0.550 OA
ENDBRANCH  13  14
ENDBRANCH  12  13
ENDBRANCH  11  12
ENDBRANCH  10  11
ENDBRANCH   9  10
ENDBRANCH   8   9
ENDBRANCH   7   8
ENDBRANCH   6   7
ENDBRANCH   5   6
ENDBRANCH   4   5
ENDBRANCH   3   4
ENDBRANCH   2   3
ENDBRANCH   1   2
BRANCH   1  17
ATOM     17  C   UNL     1      -8.955 -35.290 -45.749  1.00  0.00     0.000 C 
BRANCH  17  18
ATOM     18  C   UNL     1      -9.234 -36.787 -45.960  1.00  0.00     0.000 C 
BRANCH  18  19
ATOM     19  C   UNL     1     -10.098 -37.056 -47.204  1.00  0.00     0.000 C 
BRANCH  19  20
ATOM     20  C   UNL     1     -10.381 -35.784 -48.020  1.00  0.00     0.000 C 
BRANCH  20  21
ATOM     21  C   UNL     1     -11.688 -35.797 -48.839  1.00  0.00     0.000 C 
BRANCH  21  22
ATOM     22  C   UNL     1     -11.914 -34.584 -49.767  1.00  0.00    -0.000 C 
BRANCH  22  23
ATOM     23  C   UNL     1     -10.667 -33.707 -50.023  1.00  0.00    -0.000 C 
BRANCH  23  24
ATOM     24  C   UNL     1     -10.908 -32.197 -49.846  1.00  0.00    -0.000 C 
BRANCH  24  25
ATOM     25  C   UNL     1      -9.875 -31.501 -48.938  1.00  0.00    -0.000 C 
BRANCH  25  26
ATOM     26  C   UNL     1      -8.875 -32.500 -48.330  1.00  0.00    -0.000 C 
BRANCH  26  27
ATOM     27  C   UNL     1      -7.479 -32.395 -48.963  1.00  0.00    -0.000 C 
BRANCH  27  28
ATOM     28  C   UNL     1      -6.562 -31.414 -48.208  1.00  0.00    -0.000 C 
BRANCH  28  29
ATOM     29  C   UNL     1      -6.096 -30.248 -49.092  1.00  0.00    -0.003 C 
ATOM     30  C   UNL     1      -6.030 -28.923 -48.333  1.00  0.00     0.004 C 
ENDBRANCH  28  29
ENDBRANCH  27  28
ENDBRANCH  26  27
ENDBRANCH  25  26
ENDBRANCH  24  25
ENDBRANCH  23  24
ENDBRANCH  22  23
ENDBRANCH  21  22
ENDBRANCH  20  21
ENDBRANCH  19  20
ENDBRANCH  18  19
ENDBRANCH  17  18
ENDBRANCH   1  17
TORSDOF 26
ENDMDL
MODEL 6
REMARK VINA RESULT:    -3.747      1.455      2.955
REMARK INTER + INTRA:         -13.570
REMARK INTER:                  -9.357
REMARK INTRA:                  -4.213
REMARK UNBOUND:                -4.129
REMARK SMILES CCCCCCCCCCCCCCCCCCCCCCCCCCCC(=O)[O-]
REMARK SMILES IDX 15 1 16 2 17 3 18 4 19 5 20 6 21 7 22 8 23 9 24 10 25 11
REMARK SMILES IDX 26 12 27 13 28 14 29 15 30 16 14 17 13 18 12 19 11 20 10 21
REMARK SMILES IDX 9 22 8 23 7 24 6 25 5 26 4 27 3 28 2 29 1 30
REMARK H PARENT
REMARK Flexibility Score: inf
ROOT
ATOM      1  C   UNL     1     -11.051 -34.284 -44.303  1.00  0.00     0.000 C 
ENDROOT
BRANCH   1   2
ATOM      2  C   UNL     1     -10.386 -34.625 -45.646  1.00  0.00     0.000 C 
BRANCH   2   3
ATOM      3  C   UNL     1      -8.941 -35.130 -45.482  1.00  0.00     0.000 C 
BRANCH   3   4
ATOM      4  C   UNL     1      -8.139 -34.300 -44.466  1.00  0.00     0.000 C 
BRANCH   4   5
ATOM      5  C   UNL     1      -7.021 -33.474 -45.126  1.00  0.00     0.000 C 
BRANCH   5   6
ATOM      6  C   UNL     1      -7.038 -33.574 -46.659  1.00  0.00     0.000 C 
BRANCH   6   7
ATOM      7  C   UNL     1      -6.056 -32.598 -47.323  1.00  0.00     0.000 C 
BRANCH   7   8
ATOM      8  C   UNL     1      -6.516 -32.234 -48.743  1.00  0.00     0.000 C 
BRANCH   8   9
ATOM      9  C   UNL     1      -6.972 -30.770 -48.872  1.00  0.00     0.000 C 
BRANCH   9  10
ATOM     10  C   UNL     1      -8.491 -30.571 -49.030  1.00  0.00     0.000 C 
BRANCH  10  11
ATOM     11  C   UNL     1      -9.181 -31.749 -49.735  1.00  0.00     0.000 C 
BRANCH  11  12
ATOM     12  C   UNL     1     -10.013 -32.570 -48.741  1.00  0.00     0.006 C 
BRANCH  12  13
ATOM     13  C   UNL     1     -10.683 -33.758 -49.439  1.00  0.00     0.053 C 
BRANCH  13  14
ATOM     14  C   UNL     1      -9.878 -35.005 -49.240  1.00  0.00     0.041 C 
ATOM     15  O   UNL     1      -8.644 -35.011 -49.494  1.00  0.00    -0.550 OA
ATOM     16  O   UNL     1     -10.487 -36.157 -48.756  1.00  0.00    -0.550 OA
ENDBRANCH  13  14
ENDBRANCH  12  13
ENDBRANCH  11  12
ENDBRANCH  10  11
ENDBRANCH   9  10
ENDBRANCH   8   9
ENDBRANCH   7   8
ENDBRANCH   6   7
ENDBRANCH   5   6
ENDBRANCH   4   5
ENDBRANCH   3   4
ENDBRANCH   2   3
ENDBRANCH   1   2
BRANCH   1  17
ATOM     17  C   UNL     1     -12.558 -34.598 -44.294  1.00  0.00     0.000 C 
BRANCH  17  18
ATOM     18  C   UNL     1     -13.010 -35.361 -45.550  1.00  0.00     0.000 C 
BRANCH  18  19
ATOM     19  C   UNL     1     -14.318 -36.138 -45.329  1.00  0.00     0.000 C 
BRANCH  19  20
ATOM     20  C   UNL     1     -14.265 -37.567 -45.896  1.00  0.00     0.000 C 
BRANCH  20  21
ATOM     21  C   UNL     1     -13.207 -37.807 -46.993  1.00  0.00     0.000 C 
BRANCH  21  22
ATOM     22  C   UNL     1     -13.735 -38.384 -48.325  1.00  0.00    -0.000 C 
BRANCH  22  23
ATOM     23  C   UNL     1     -14.497 -37.383 -49.221  1.00  0.00    -0.000 C 
BRANCH  23  24
ATOM     24  C   UNL     1     -13.959 -35.941 -49.160  1.00  0.00    -0.000 C 
BRANCH  24  25
ATOM     25  C   UNL     1     -15.039 -34.861 -49.367  1.00  0.00    -0.000 C 
BRANCH  25  26
ATOM     26  C   UNL     1     -16.437 -35.356 -48.955  1.00  0.00    -0.000 C 
BRANCH  26  27
ATOM     27  C   UNL     1     -16.802 -34.959 -47.516  1.00  0.00    -0.000 C 
BRANCH  27  28
ATOM     28  C   UNL     1     -17.698 -36.003 -46.826  1.00  0.00    -0.000 C 
BRANCH  28  29
ATOM     29  C   UNL     1     -17.847 -37.288 -47.653  1.00  0.00    -0.003 C 
ATOM     30  C   UNL     1     -17.608 -38.552 -46.827  1.00  0.00     0.004 C 
ENDBRANCH  28  29
ENDBRANCH  27  28
ENDBRANCH  26  27
ENDBRANCH  25  26
ENDBRANCH  24  25
ENDBRANCH  23  24
ENDBRANCH  22  23
ENDBRANCH  21  22
ENDBRANCH  20  21
ENDBRANCH  19  20
ENDBRANCH  18  19
ENDBRANCH  17  18
ENDBRANCH   1  17
TORSDOF 26
ENDMDL
MODEL 7
REMARK VINA RESULT:    -3.739      1.381      2.867
REMARK INTER + INTRA:         -13.551
REMARK INTER:                  -9.264
REMARK INTRA:                  -4.287
REMARK UNBOUND:                -4.129
REMARK SMILES CCCCCCCCCCCCCCCCCCCCCCCCCCCC(=O)[O-]
REMARK SMILES IDX 15 1 16 2 17 3 18 4 19 5 20 6 21 7 22 8 23 9 24 10 25 11
REMARK SMILES IDX 26 12 27 13 28 14 29 15 30 16 14 17 13 18 12 19 11 20 10 21
REMARK SMILES IDX 9 22 8 23 7 24 6 25 5 26 4 27 3 28 2 29 1 30
REMARK H PARENT
REMARK Flexibility Score: inf
ROOT
ATOM      1  C   UNL     1     -12.616 -34.600 -44.110  1.00  0.00     0.000 C 
ENDROOT
BRANCH   1   2
ATOM      2  C   UNL     1     -11.345 -34.205 -44.880  1.00  0.00     0.000 C 
BRANCH   2   3
ATOM      3  C   UNL     1     -10.055 -34.568 -44.122  1.00  0.00     0.000 C 
BRANCH   3   4
ATOM      4  C   UNL     1      -8.864 -34.799 -45.066  1.00  0.00     0.000 C 
BRANCH   4   5
ATOM      5  C   UNL     1      -9.229 -34.586 -46.546  1.00  0.00     0.000 C 
BRANCH   5   6
ATOM      6  C   UNL     1      -9.445 -35.907 -47.298  1.00  0.00     0.000 C 
BRANCH   6   7
ATOM      7  C   UNL     1      -9.949 -35.693 -48.732  1.00  0.00     0.000 C 
BRANCH   7   8
ATOM      8  C   UNL     1     -11.015 -34.588 -48.782  1.00  0.00     0.000 C 
BRANCH   8   9
ATOM      9  C   UNL     1     -10.957 -33.753 -50.073  1.00  0.00     0.000 C 
BRANCH   9  10
ATOM     10  C   UNL     1     -11.294 -32.260 -49.901  1.00  0.00     0.000 C 
BRANCH  10  11
ATOM     11  C   UNL     1     -10.345 -31.538 -48.933  1.00  0.00     0.000 C 
BRANCH  11  12
ATOM     12  C   UNL     1      -8.958 -31.356 -49.561  1.00  0.00     0.006 C 
BRANCH  12  13
ATOM     13  C   UNL     1      -7.854 -31.759 -48.577  1.00  0.00     0.053 C 
BRANCH  13  14
ATOM     14  C   UNL     1      -6.693 -30.818 -48.677  1.00  0.00     0.041 C 
ATOM     15  O   UNL     1      -5.531 -31.212 -48.393  1.00  0.00    -0.550 OA
ATOM     16  O   UNL     1      -6.893 -29.510 -49.102  1.00  0.00    -0.550 OA
ENDBRANCH  13  14
ENDBRANCH  12  13
ENDBRANCH  11  12
ENDBRANCH  10  11
ENDBRANCH   9  10
ENDBRANCH   8   9
ENDBRANCH   7   8
ENDBRANCH   6   7
ENDBRANCH   5   6
ENDBRANCH   4   5
ENDBRANCH   3   4
ENDBRANCH   2   3
ENDBRANCH   1   2
BRANCH   1  17
ATOM     17  C   UNL     1     -13.626 -35.360 -44.988  1.00  0.00     0.000 C 
BRANCH  17  18
ATOM     18  C   UNL     1     -13.048 -35.736 -46.362  1.00  0.00     0.000 C 
BRANCH  18  19
ATOM     19  C   UNL     1     -12.804 -37.249 -46.505  1.00  0.00     0.000 C 
BRANCH  19  20
ATOM     20  C   UNL     1     -13.803 -37.926 -47.459  1.00  0.00     0.000 C 
BRANCH  20  21
ATOM     21  C   UNL     1     -14.748 -38.956 -46.807  1.00  0.00     0.000 C 
BRANCH  21  22
ATOM     22  C   UNL     1     -15.091 -38.711 -45.321  1.00  0.00    -0.000 C 
BRANCH  22  23
ATOM     23  C   UNL     1     -16.489 -38.109 -45.058  1.00  0.00    -0.000 C 
BRANCH  23  24
ATOM     24  C   UNL     1     -16.730 -36.747 -45.734  1.00  0.00    -0.000 C 
BRANCH  24  25
ATOM     25  C   UNL     1     -18.209 -36.468 -46.070  1.00  0.00    -0.000 C 
BRANCH  25  26
ATOM     26  C   UNL     1     -18.475 -36.514 -47.585  1.00  0.00    -0.000 C 
BRANCH  26  27
ATOM     27  C   UNL     1     -17.179 -36.572 -48.409  1.00  0.00    -0.000 C 
BRANCH  27  28
ATOM     28  C   UNL     1     -17.094 -35.443 -49.453  1.00  0.00    -0.000 C 
BRANCH  28  29
ATOM     29  C   UNL     1     -15.972 -34.442 -49.144  1.00  0.00    -0.003 C 
ATOM     30  C   UNL     1     -14.601 -34.927 -49.616  1.00  0.00     0.004 C 
ENDBRANCH  28  29
ENDBRANCH  27  28
ENDBRANCH  26  27
ENDBRANCH  25  26
ENDBRANCH  24  25
ENDBRANCH  23  24
ENDBRANCH  22  23
ENDBRANCH  21  22
ENDBRANCH  20  21
ENDBRANCH  19  20
ENDBRANCH  18  19
ENDBRANCH  17  18
ENDBRANCH   1  17
TORSDOF 26
ENDMDL
MODEL 8
REMARK VINA RESULT:    -3.737      1.227      2.049
REMARK INTER + INTRA:         -13.546
REMARK INTER:                  -8.854
REMARK INTRA:                  -4.692
REMARK UNBOUND:                -4.129
REMARK SMILES CCCCCCCCCCCCCCCCCCCCCCCCCCCC(=O)[O-]
REMARK SMILES IDX 15 1 16 2 17 3 18 4 19 5 20 6 21 7 22 8 23 9 24 10 25 11
REMARK SMILES IDX 26 12 27 13 28 14 29 15 30 16 14 17 13 18 12 19 11 20 10 21
REMARK SMILES IDX 9 22 8 23 7 24 6 25 5 26 4 27 3 28 2 29 1 30
REMARK H PARENT
REMARK Flexibility Score: inf
ROOT
ATOM      1  C   UNL     1     -11.368 -33.909 -44.501  1.00  0.00     0.000 C 
ENDROOT
BRANCH   1   2
ATOM      2  C   UNL     1     -10.224 -34.633 -43.773  1.00  0.00     0.000 C 
BRANCH   2   3
ATOM      3  C   UNL     1      -9.011 -34.893 -44.684  1.00  0.00     0.000 C 
BRANCH   3   4
ATOM      4  C   UNL     1      -9.335 -34.676 -46.171  1.00  0.00     0.000 C 
BRANCH   4   5
ATOM      5  C   UNL     1      -9.654 -35.989 -46.907  1.00  0.00     0.000 C 
BRANCH   5   6
ATOM      6  C   UNL     1      -9.697 -35.817 -48.432  1.00  0.00     0.000 C 
BRANCH   6   7
ATOM      7  C   UNL     1     -11.117 -35.960 -49.001  1.00  0.00     0.000 C 
BRANCH   7   8
ATOM      8  C   UNL     1     -11.780 -34.585 -49.178  1.00  0.00     0.000 C 
BRANCH   8   9
ATOM      9  C   UNL     1     -10.915 -33.597 -49.980  1.00  0.00     0.000 C 
BRANCH   9  10
ATOM     10  C   UNL     1     -11.222 -32.109 -49.729  1.00  0.00     0.000 C 
BRANCH  10  11
ATOM     11  C   UNL     1      -9.979 -31.298 -49.333  1.00  0.00     0.000 C 
BRANCH  11  12
ATOM     12  C   UNL     1      -8.947 -32.186 -48.627  1.00  0.00     0.006 C 
BRANCH  12  13
ATOM     13  C   UNL     1      -7.544 -31.958 -49.199  1.00  0.00     0.053 C 
BRANCH  13  14
ATOM     14  C   UNL     1      -6.675 -31.265 -48.197  1.00  0.00     0.041 C 
ATOM     15  O   UNL     1      -6.047 -31.932 -47.332  1.00  0.00    -0.550 OA
ATOM     16  O   UNL     1      -6.543 -29.881 -48.228  1.00  0.00    -0.550 OA
ENDBRANCH  13  14
ENDBRANCH  12  13
ENDBRANCH  11  12
ENDBRANCH  10  11
ENDBRANCH   9  10
ENDBRANCH   8   9
ENDBRANCH   7   8
ENDBRANCH   6   7
ENDBRANCH   5   6
ENDBRANCH   4   5
ENDBRANCH   3   4
ENDBRANCH   2   3
ENDBRANCH   1   2
BRANCH   1  17
ATOM     17  C   UNL     1     -12.689 -34.698 -44.456  1.00  0.00     0.000 C 
BRANCH  17  18
ATOM     18  C   UNL     1     -13.019 -35.374 -45.797  1.00  0.00     0.000 C 
BRANCH  18  19
ATOM     19  C   UNL     1     -13.733 -36.725 -45.616  1.00  0.00     0.000 C 
BRANCH  19  20
ATOM     20  C   UNL     1     -13.347 -37.751 -46.695  1.00  0.00     0.000 C 
BRANCH  20  21
ATOM     21  C   UNL     1     -14.410 -38.827 -46.999  1.00  0.00     0.000 C 
BRANCH  21  22
ATOM     22  C   UNL     1     -14.985 -38.821 -48.432  1.00  0.00    -0.000 C 
BRANCH  22  23
ATOM     23  C   UNL     1     -14.450 -37.701 -49.352  1.00  0.00    -0.000 C 
BRANCH  23  24
ATOM     24  C   UNL     1     -15.450 -36.558 -49.607  1.00  0.00    -0.000 C 
BRANCH  24  25
ATOM     25  C   UNL     1     -15.243 -35.332 -48.695  1.00  0.00    -0.000 C 
BRANCH  25  26
ATOM     26  C   UNL     1     -16.562 -34.585 -48.424  1.00  0.00    -0.000 C 
BRANCH  26  27
ATOM     27  C   UNL     1     -17.634 -35.491 -47.799  1.00  0.00    -0.000 C 
BRANCH  27  28
ATOM     28  C   UNL     1     -17.274 -35.927 -46.367  1.00  0.00    -0.000 C 
BRANCH  28  29
ATOM     29  C   UNL     1     -17.915 -37.268 -45.982  1.00  0.00    -0.003 C 
ATOM     30  C   UNL     1     -17.144 -37.997 -44.882  1.00  0.00     0.004 C 
ENDBRANCH  28  29
ENDBRANCH  27  28
ENDBRANCH  26  27
ENDBRANCH  25  26
ENDBRANCH  24  25
ENDBRANCH  23  24
ENDBRANCH  22  23
ENDBRANCH  21  22
ENDBRANCH  20  21
ENDBRANCH  19  20
ENDBRANCH  18  19
ENDBRANCH  17  18
ENDBRANCH   1  17
TORSDOF 26
ENDMDL
MODEL 9
REMARK VINA RESULT:    -3.701      3.486      8.114
REMARK INTER + INTRA:         -13.455
REMARK INTER:                  -9.006
REMARK INTRA:                  -4.450
REMARK UNBOUND:                -4.129
REMARK SMILES CCCCCCCCCCCCCCCCCCCCCCCCCCCC(=O)[O-]
REMARK SMILES IDX 15 1 16 2 17 3 18 4 19 5 20 6 21 7 22 8 23 9 24 10 25 11
REMARK SMILES IDX 26 12 27 13 28 14 29 15 30 16 14 17 13 18 12 19 11 20 10 21
REMARK SMILES IDX 9 22 8 23 7 24 6 25 5 26 4 27 3 28 2 29 1 30
REMARK H PARENT
REMARK Flexibility Score: inf
ROOT
ATOM      1  C   UNL     1     -11.345 -34.312 -45.011  1.00  0.00     0.000 C 
ENDROOT
BRANCH   1   2
ATOM      2  C   UNL     1     -12.554 -34.614 -44.112  1.00  0.00     0.000 C 
BRANCH   2   3
ATOM      3  C   UNL     1     -13.678 -35.357 -44.857  1.00  0.00     0.000 C 
BRANCH   3   4
ATOM      4  C   UNL     1     -13.244 -35.833 -46.253  1.00  0.00     0.000 C 
BRANCH   4   5
ATOM      5  C   UNL     1     -13.912 -37.157 -46.663  1.00  0.00     0.000 C 
BRANCH   5   6
ATOM      6  C   UNL     1     -14.451 -37.126 -48.101  1.00  0.00     0.000 C 
BRANCH   6   7
ATOM      7  C   UNL     1     -14.213 -35.775 -48.791  1.00  0.00     0.000 C 
BRANCH   7   8
ATOM      8  C   UNL     1     -15.543 -35.072 -49.100  1.00  0.00     0.000 C 
BRANCH   8   9
ATOM      9  C   UNL     1     -16.522 -35.086 -47.913  1.00  0.00     0.000 C 
BRANCH   9  10
ATOM     10  C   UNL     1     -17.956 -35.533 -48.254  1.00  0.00     0.000 C 
BRANCH  10  11
ATOM     11  C   UNL     1     -18.462 -36.668 -47.350  1.00  0.00     0.000 C 
BRANCH  11  12
ATOM     12  C   UNL     1     -17.519 -36.883 -46.160  1.00  0.00     0.006 C 
BRANCH  12  13
ATOM     13  C   UNL     1     -17.362 -38.375 -45.848  1.00  0.00     0.053 C 
BRANCH  13  14
ATOM     14  C   UNL     1     -17.401 -38.608 -44.370  1.00  0.00     0.041 C 
ATOM     15  O   UNL     1     -16.329 -38.716 -43.716  1.00  0.00    -0.550 OA
ATOM     16  O   UNL     1     -18.622 -38.687 -43.710  1.00  0.00    -0.550 OA
ENDBRANCH  13  14
ENDBRANCH  12  13
ENDBRANCH  11  12
ENDBRANCH  10  11
ENDBRANCH   9  10
ENDBRANCH   8   9
ENDBRANCH   7   8
ENDBRANCH   6   7
ENDBRANCH   5   6
ENDBRANCH   4   5
ENDBRANCH   3   4
ENDBRANCH   2   3
ENDBRANCH   1   2
BRANCH   1  17
ATOM     17  C   UNL     1     -10.015 -34.323 -44.236  1.00  0.00     0.000 C 
BRANCH  17  18
ATOM     18  C   UNL     1      -8.877 -34.991 -45.024  1.00  0.00     0.000 C 
BRANCH  18  19
ATOM     19  C   UNL     1      -8.817 -36.512 -44.798  1.00  0.00     0.000 C 
BRANCH  19  20
ATOM     20  C   UNL     1      -8.807 -37.309 -46.113  1.00  0.00     0.000 C 
BRANCH  20  21
ATOM     21  C   UNL     1     -10.190 -37.546 -46.757  1.00  0.00     0.000 C 
BRANCH  21  22
ATOM     22  C   UNL     1     -10.316 -37.154 -48.245  1.00  0.00    -0.000 C 
BRANCH  22  23
ATOM     23  C   UNL     1     -10.351 -35.635 -48.526  1.00  0.00    -0.000 C 
BRANCH  23  24
ATOM     24  C   UNL     1      -9.050 -35.073 -49.129  1.00  0.00    -0.000 C 
BRANCH  24  25
ATOM     25  C   UNL     1      -8.628 -33.709 -48.545  1.00  0.00    -0.000 C 
BRANCH  25  26
ATOM     26  C   UNL     1      -9.841 -32.872 -48.100  1.00  0.00    -0.000 C 
BRANCH  26  27
ATOM     27  C   UNL     1     -10.065 -31.641 -48.992  1.00  0.00    -0.000 C 
BRANCH  27  28
ATOM     28  C   UNL     1      -8.829 -31.298 -49.844  1.00  0.00    -0.000 C 
BRANCH  28  29
ATOM     29  C   UNL     1      -8.083 -30.061 -49.324  1.00  0.00    -0.003 C 
ATOM     30  C   UNL     1      -6.869 -30.420 -48.468  1.00  0.00     0.004 C 
ENDBRANCH  28  29
ENDBRANCH  27  28
ENDBRANCH  26  27
ENDBRANCH  25  26
ENDBRANCH  24  25
ENDBRANCH  23  24
ENDBRANCH  22  23
ENDBRANCH  21  22
ENDBRANCH  20  21
ENDBRANCH  19  20
ENDBRANCH  18  19
ENDBRANCH  17  18
ENDBRANCH   1  17
TORSDOF 26
ENDMDL
