MODEL 1
REMARK VINA RESULT:    -4.347      0.000      0.000
REMARK INTER + INTRA:         -13.278
REMARK INTER:                  -9.938
REMARK INTRA:                  -3.340
REMARK UNBOUND:                -3.340
REMARK SMILES CCCCCCCCCCCCCCCCCCCCCCCC(=O)[O-]
REMARK SMILES IDX 13 1 14 2 15 3 16 4 17 5 18 6 19 7 20 8 21 9 22 10 23 11
REMARK SMILES IDX 24 12 25 13 26 14 12 15 11 16 10 17 9 18 8 19 7 20 6 21 5 22
REMARK SMILES IDX 4 23 3 24 2 25 1 26
REMARK H PARENT
REMARK Flexibility Score: inf
ROOT
ATOM      1  C   UNL     1       7.106  10.213   7.909  1.00  0.00     0.000 C 
ENDROOT
BRANCH   1   2
ATOM      2  C   UNL     1       7.194   8.729   7.504  1.00  0.00     0.000 C 
BRANCH   2   3
ATOM      3  C   UNL     1       5.976   7.874   7.903  1.00  0.00     0.000 C 
BRANCH   3   4
ATOM      4  C   UNL     1       6.311   6.736   8.890  1.00  0.00     0.000 C 
BRANCH   4   5
ATOM      5  C   UNL     1       7.825   6.483   9.007  1.00  0.00     0.000 C 
BRANCH   5   6
ATOM      6  C   UNL     1       8.362   6.769  10.419  1.00  0.00     0.000 C 
BRANCH   6   7
ATOM      7  C   UNL     1       9.839   7.195  10.413  1.00  0.00     0.000 C 
BRANCH   7   8
ATOM      8  C   UNL     1       9.971   8.714  10.606  1.00  0.00     0.000 C 
BRANCH   8   9
ATOM      9  C   UNL     1      10.441   9.434   9.332  1.00  0.00     0.000 C 
BRANCH   9  10
ATOM     10  C   UNL     1      10.357  10.967   9.450  1.00  0.00     0.006 C 
BRANCH  10  11
ATOM     11  C   UNL     1      10.844  11.470  10.816  1.00  0.00     0.053 C 
BRANCH  11  12
ATOM     12  C   UNL     1      12.172  12.156  10.717  1.00  0.00     0.041 C 
ATOM     13  O   UNL     1      12.991  12.089  11.671  1.00  0.00    -0.550 OA
ATOM     14  O   UNL     1      12.486  12.904   9.590  1.00  0.00    -0.550 OA
ENDBRANCH  11  12
ENDBRANCH  10  11
ENDBRANCH   9  10
ENDBRANCH   8   9
ENDBRANCH   7   8
ENDBRANCH   6   7
ENDBRANCH   5   6
ENDBRANCH   4   5
ENDBRANCH   3   4
ENDBRANCH   2   3
ENDBRANCH   1   2
BRANCH   1  15
ATOM     15  C   UNL     1       6.223  10.508   9.141  1.00  0.00     0.000 C 
BRANCH  15  16
ATOM     16  C   UNL     1       6.907  10.281  10.501  1.00  0.00     0.000 C 
BRANCH  16  17
ATOM     17  C   UNL     1       6.532  11.346  11.543  1.00  0.00     0.000 C 
BRANCH  17  18
ATOM     18  C   UNL     1       7.203  12.703  11.271  1.00  0.00    -0.000 C 
BRANCH  18  19
ATOM     19  C   UNL     1       6.197  13.823  10.930  1.00  0.00    -0.000 C 
BRANCH  19  20
ATOM     20  C   UNL     1       4.760  13.469  11.359  1.00  0.00    -0.000 C 
BRANCH  20  21
ATOM     21  C   UNL     1       4.065  14.616  12.109  1.00  0.00    -0.000 C 
BRANCH  21  22
ATOM     22  C   UNL     1       2.614  14.830  11.649  1.00  0.00    -0.000 C 
BRANCH  22  23
ATOM     23  C   UNL     1       2.247  13.988  10.413  1.00  0.00    -0.000 C 
BRANCH  23  24
ATOM     24  C   UNL     1       1.718  14.790   9.210  1.00  0.00    -0.000 C 
BRANCH  24  25
ATOM     25  C   UNL     1       2.141  14.193   7.860  1.00  0.00    -0.003 C 
ATOM     26  C   UNL     1       3.366  13.295   8.017  1.00  0.00     0.004 C 
ENDBRANCH  24  25
ENDBRANCH  23  24
ENDBRANCH  22  23
ENDBRANCH  21  22
ENDBRANCH  20  21
ENDBRANCH  19  20
ENDBRANCH  18  19
ENDBRANCH  17  18
ENDBRANCH  16  17
ENDBRANCH  15  16
ENDBRANCH   1  15
TORSDOF 22
ENDMDL
MODEL 2
REMARK VINA RESULT:    -4.328      2.900      5.940
REMARK INTER + INTRA:         -13.235
REMARK INTER:                  -9.280
REMARK INTRA:                  -3.955
REMARK UNBOUND:                -3.340
REMARK SMILES CCCCCCCCCCCCCCCCCCCCCCCC(=O)[O-]
REMARK SMILES IDX 13 1 14 2 15 3 16 4 17 5 18 6 19 7 20 8 21 9 22 10 23 11
REMARK SMILES IDX 24 12 25 13 26 14 12 15 11 16 10 17 9 18 8 19 7 20 6 21 5 22
REMARK SMILES IDX 4 23 3 24 2 25 1 26
REMARK H PARENT
REMARK Flexibility Score: inf
ROOT
ATOM      1  C   UNL     1       3.132  14.711  11.955  1.00  0.00     0.000 C 
ENDROOT
BRANCH   1   2
ATOM      2  C   UNL     1       4.143  15.004  13.080  1.00  0.00     0.000 C 
BRANCH   2   3
ATOM      3  C   UNL     1       3.665  14.628  14.496  1.00  0.00     0.000 C 
BRANCH   3   4
ATOM      4  C   UNL     1       4.567  13.596  15.203  1.00  0.00     0.000 C 
BRANCH   4   5
ATOM      5  C   UNL     1       5.274  12.652  14.213  1.00  0.00     0.000 C 
BRANCH   5   6
ATOM      6  C   UNL     1       6.604  12.112  14.761  1.00  0.00     0.000 C 
BRANCH   6   7
ATOM      7  C   UNL     1       7.689  12.003  13.677  1.00  0.00     0.000 C 
BRANCH   7   8
ATOM      8  C   UNL     1       7.058  11.879  12.281  1.00  0.00     0.000 C 
BRANCH   8   9
ATOM      9  C   UNL     1       7.984  12.391  11.166  1.00  0.00     0.000 C 
BRANCH   9  10
ATOM     10  C   UNL     1       8.255  11.330  10.084  1.00  0.00     0.006 C 
BRANCH  10  11
ATOM     11  C   UNL     1       7.110  10.315   9.969  1.00  0.00     0.053 C 
BRANCH  11  12
ATOM     12  C   UNL     1       7.036   9.710   8.601  1.00  0.00     0.041 C 
ATOM     13  O   UNL     1       6.922   8.464   8.466  1.00  0.00    -0.550 OA
ATOM     14  O   UNL     1       7.136  10.519   7.476  1.00  0.00    -0.550 OA
ENDBRANCH  11  12
ENDBRANCH  10  11
ENDBRANCH   9  10
ENDBRANCH   8   9
ENDBRANCH   7   8
ENDBRANCH   6   7
ENDBRANCH   5   6
ENDBRANCH   4   5
ENDBRANCH   3   4
ENDBRANCH   2   3
ENDBRANCH   1   2
BRANCH   1  15
ATOM     15  C   UNL     1       2.646  13.248  11.871  1.00  0.00     0.000 C 
BRANCH  15  16
ATOM     16  C   UNL     1       3.584  12.294  11.111  1.00  0.00     0.000 C 
BRANCH  16  17
ATOM     17  C   UNL     1       4.374  12.997   9.995  1.00  0.00     0.000 C 
BRANCH  17  18
ATOM     18  C   UNL     1       4.270  12.268   8.645  1.00  0.00    -0.000 C 
BRANCH  18  19
ATOM     19  C   UNL     1       3.476  13.059   7.584  1.00  0.00    -0.000 C 
BRANCH  19  20
ATOM     20  C   UNL     1       2.157  13.626   8.144  1.00  0.00    -0.000 C 
BRANCH  20  21
ATOM     21  C   UNL     1       0.918  12.918   7.576  1.00  0.00    -0.000 C 
BRANCH  21  22
ATOM     22  C   UNL     1       0.038  12.296   8.672  1.00  0.00    -0.000 C 
BRANCH  22  23
ATOM     23  C   UNL     1       0.754  11.178   9.453  1.00  0.00    -0.000 C 
BRANCH  23  24
ATOM     24  C   UNL     1       1.205   9.975   8.604  1.00  0.00    -0.000 C 
BRANCH  24  25
ATOM     25  C   UNL     1       2.261   9.110   9.306  1.00  0.00    -0.003 C 
ATOM     26  C   UNL     1       3.393   8.741   8.351  1.00  0.00     0.004 C 
ENDBRANCH  24  25
ENDBRANCH  23  24
ENDBRANCH  22  23
ENDBRANCH  21  22
ENDBRANCH  20  21
ENDBRANCH  19  20
ENDBRANCH  18  19
ENDBRANCH  17  18
ENDBRANCH  16  17
ENDBRANCH  15  16
ENDBRANCH   1  15
TORSDOF 22
ENDMDL
MODEL 3
REMARK VINA RESULT:    -4.321      3.122      5.865
REMARK INTER + INTRA:         -13.219
REMARK INTER:                  -8.975
REMARK INTRA:                  -4.244
REMARK UNBOUND:                -3.340
REMARK SMILES CCCCCCCCCCCCCCCCCCCCCCCC(=O)[O-]
REMARK SMILES IDX 13 1 14 2 15 3 16 4 17 5 18 6 19 7 20 8 21 9 22 10 23 11
REMARK SMILES IDX 24 12 25 13 26 14 12 15 11 16 10 17 9 18 8 19 7 20 6 21 5 22
REMARK SMILES IDX 4 23 3 24 2 25 1 26
REMARK H PARENT
REMARK Flexibility Score: inf
ROOT
ATOM      1  C   UNL     1       1.876  14.597   9.916  1.00  0.00     0.000 C 
ENDROOT
BRANCH   1   2
ATOM      2  C   UNL     1       2.209  14.097  11.335  1.00  0.00     0.000 C 
BRANCH   2   3
ATOM      3  C   UNL     1       3.168  15.001  12.133  1.00  0.00     0.000 C 
BRANCH   3   4
ATOM      4  C   UNL     1       4.176  14.222  13.004  1.00  0.00     0.000 C 
BRANCH   4   5
ATOM      5  C   UNL     1       4.115  12.703  12.763  1.00  0.00     0.000 C 
BRANCH   5   6
ATOM      6  C   UNL     1       5.510  12.061  12.694  1.00  0.00     0.000 C 
BRANCH   6   7
ATOM      7  C   UNL     1       6.519  12.922  11.918  1.00  0.00     0.000 C 
BRANCH   7   8
ATOM      8  C   UNL     1       7.195  12.106  10.805  1.00  0.00     0.000 C 
BRANCH   8   9
ATOM      9  C   UNL     1       8.725  12.058  10.952  1.00  0.00     0.000 C 
BRANCH   9  10
ATOM     10  C   UNL     1       9.185  11.101  12.067  1.00  0.00     0.006 C 
BRANCH  10  11
ATOM     11  C   UNL     1      10.305  11.707  12.924  1.00  0.00     0.053 C 
BRANCH  11  12
ATOM     12  C   UNL     1       9.772  12.336  14.174  1.00  0.00     0.041 C 
ATOM     13  O   UNL     1       8.605  12.074  14.567  1.00  0.00    -0.550 OA
ATOM     14  O   UNL     1      10.549  13.245  14.881  1.00  0.00    -0.550 OA
ENDBRANCH  11  12
ENDBRANCH  10  11
ENDBRANCH   9  10
ENDBRANCH   8   9
ENDBRANCH   7   8
ENDBRANCH   6   7
ENDBRANCH   5   6
ENDBRANCH   4   5
ENDBRANCH   3   4
ENDBRANCH   2   3
ENDBRANCH   1   2
BRANCH   1  15
ATOM     15  C   UNL     1       2.544  13.810   8.768  1.00  0.00     0.000 C 
BRANCH  15  16
ATOM     16  C   UNL     1       3.941  13.250   9.090  1.00  0.00     0.000 C 
BRANCH  16  17
ATOM     17  C   UNL     1       4.157  11.832   8.538  1.00  0.00     0.000 C 
BRANCH  17  18
ATOM     18  C   UNL     1       3.840  10.740   9.573  1.00  0.00    -0.000 C 
BRANCH  18  19
ATOM     19  C   UNL     1       2.501  10.019   9.307  1.00  0.00    -0.000 C 
BRANCH  19  20
ATOM     20  C   UNL     1       1.352  10.584  10.164  1.00  0.00    -0.000 C 
BRANCH  20  21
ATOM     21  C   UNL     1       1.591  10.404  11.671  1.00  0.00    -0.000 C 
BRANCH  21  22
ATOM     22  C   UNL     1       0.383  10.837  12.517  1.00  0.00    -0.000 C 
BRANCH  22  23
ATOM     23  C   UNL     1       0.789  11.481  13.855  1.00  0.00    -0.000 C 
BRANCH  23  24
ATOM     24  C   UNL     1       0.121  12.835  14.158  1.00  0.00    -0.000 C 
BRANCH  24  25
ATOM     25  C   UNL     1       0.829  13.614  15.275  1.00  0.00    -0.003 C 
ATOM     26  C   UNL     1       2.055  12.859  15.780  1.00  0.00     0.004 C 
ENDBRANCH  24  25
ENDBRANCH  23  24
ENDBRANCH  22  23
ENDBRANCH  21  22
ENDBRANCH  20  21
ENDBRANCH  19  20
ENDBRANCH  18  19
ENDBRANCH  17  18
ENDBRANCH  16  17
ENDBRANCH  15  16
ENDBRANCH   1  15
TORSDOF 22
ENDMDL
MODEL 4
REMARK VINA RESULT:    -4.298      4.114      7.984
REMARK INTER + INTRA:         -13.166
REMARK INTER:                  -9.296
REMARK INTRA:                  -3.870
REMARK UNBOUND:                -3.340
REMARK SMILES CCCCCCCCCCCCCCCCCCCCCCCC(=O)[O-]
REMARK SMILES IDX 13 1 14 2 15 3 16 4 17 5 18 6 19 7 20 8 21 9 22 10 23 11
REMARK SMILES IDX 24 12 25 13 26 14 12 15 11 16 10 17 9 18 8 19 7 20 6 21 5 22
REMARK SMILES IDX 4 23 3 24 2 25 1 26
REMARK H PARENT
REMARK Flexibility Score: inf
ROOT
ATOM      1  C   UNL     1       2.852  14.987  11.622  1.00  0.00     0.000 C 
ENDROOT
BRANCH   1   2
ATOM      2  C   UNL     1       1.918  14.321  10.593  1.00  0.00     0.000 C 
BRANCH   2   3
ATOM      3  C   UNL     1       1.872  15.011   9.217  1.00  0.00     0.000 C 
BRANCH   3   4
ATOM      4  C   UNL     1       2.266  14.088   8.044  1.00  0.00     0.000 C 
BRANCH   4   5
ATOM      5  C   UNL     1       1.933  12.611   8.318  1.00  0.00     0.000 C 
BRANCH   5   6
ATOM      6  C   UNL     1       3.188  11.726   8.387  1.00  0.00     0.000 C 
BRANCH   6   7
ATOM      7  C   UNL     1       2.972  10.457   9.226  1.00  0.00     0.000 C 
BRANCH   7   8
ATOM      8  C   UNL     1       2.467  10.809  10.634  1.00  0.00     0.000 C 
BRANCH   8   9
ATOM      9  C   UNL     1       0.971  10.511  10.818  1.00  0.00     0.000 C 
BRANCH   9  10
ATOM     10  C   UNL     1       0.515  10.640  12.284  1.00  0.00     0.006 C 
BRANCH  10  11
ATOM     11  C   UNL     1       1.403  11.604  13.083  1.00  0.00     0.053 C 
BRANCH  11  12
ATOM     12  C   UNL     1       0.920  11.770  14.491  1.00  0.00     0.041 C 
ATOM     13  O   UNL     1       0.738  12.922  14.965  1.00  0.00    -0.550 OA
ATOM     14  O   UNL     1       0.712  10.655  15.292  1.00  0.00    -0.550 OA
ENDBRANCH  11  12
ENDBRANCH  10  11
ENDBRANCH   9  10
ENDBRANCH   8   9
ENDBRANCH   7   8
ENDBRANCH   6   7
ENDBRANCH   5   6
ENDBRANCH   4   5
ENDBRANCH   3   4
ENDBRANCH   2   3
ENDBRANCH   1   2
BRANCH   1  15
ATOM     15  C   UNL     1       3.998  14.094  12.145  1.00  0.00     0.000 C 
BRANCH  15  16
ATOM     16  C   UNL     1       5.241  14.033  11.238  1.00  0.00     0.000 C 
BRANCH  16  17
ATOM     17  C   UNL     1       5.670  12.593  10.911  1.00  0.00     0.000 C 
BRANCH  17  18
ATOM     18  C   UNL     1       5.835  11.724  12.169  1.00  0.00    -0.000 C 
BRANCH  18  19
ATOM     19  C   UNL     1       7.154  11.992  12.926  1.00  0.00    -0.000 C 
BRANCH  19  20
ATOM     20  C   UNL     1       8.348  12.180  11.971  1.00  0.00    -0.000 C 
BRANCH  20  21
ATOM     21  C   UNL     1       9.513  11.227  12.282  1.00  0.00    -0.000 C 
BRANCH  21  22
ATOM     22  C   UNL     1       9.590  10.048  11.298  1.00  0.00    -0.000 C 
BRANCH  22  23
ATOM     23  C   UNL     1       8.590  10.171  10.134  1.00  0.00    -0.000 C 
BRANCH  23  24
ATOM     24  C   UNL     1       7.504   9.081  10.087  1.00  0.00    -0.000 C 
BRANCH  24  25
ATOM     25  C   UNL     1       6.522   9.265   8.922  1.00  0.00    -0.003 C 
ATOM     26  C   UNL     1       6.962  10.405   8.007  1.00  0.00     0.004 C 
ENDBRANCH  24  25
ENDBRANCH  23  24
ENDBRANCH  22  23
ENDBRANCH  21  22
ENDBRANCH  20  21
ENDBRANCH  19  20
ENDBRANCH  18  19
ENDBRANCH  17  18
ENDBRANCH  16  17
ENDBRANCH  15  16
ENDBRANCH   1  15
TORSDOF 22
ENDMDL
MODEL 5
REMARK VINA RESULT:    -4.286      2.848      5.565
REMARK INTER + INTRA:         -13.139
REMARK INTER:                  -9.637
REMARK INTRA:                  -3.502
REMARK UNBOUND:                -3.340
REMARK SMILES CCCCCCCCCCCCCCCCCCCCCCCC(=O)[O-]
REMARK SMILES IDX 13 1 14 2 15 3 16 4 17 5 18 6 19 7 20 8 21 9 22 10 23 11
REMARK SMILES IDX 24 12 25 13 26 14 12 15 11 16 10 17 9 18 8 19 7 20 6 21 5 22
REMARK SMILES IDX 4 23 3 24 2 25 1 26
REMARK H PARENT
REMARK Flexibility Score: inf
ROOT
ATOM      1  C   UNL     1       2.503  14.010  11.978  1.00  0.00     0.000 C 
ENDROOT
BRANCH   1   2
ATOM      2  C   UNL     1       3.764  14.281  12.820  1.00  0.00     0.000 C 
BRANCH   2   3
ATOM      3  C   UNL     1       5.076  14.365  12.016  1.00  0.00     0.000 C 
BRANCH   3   4
ATOM      4  C   UNL     1       5.408  13.079  11.231  1.00  0.00     0.000 C 
BRANCH   4   5
ATOM      5  C   UNL     1       5.782  11.905  12.154  1.00  0.00     0.000 C 
BRANCH   5   6
ATOM      6  C   UNL     1       6.877  12.276  13.166  1.00  0.00     0.000 C 
BRANCH   6   7
ATOM      7  C   UNL     1       8.249  11.690  12.795  1.00  0.00     0.000 C 
BRANCH   7   8
ATOM      8  C   UNL     1       8.546  11.894  11.301  1.00  0.00     0.000 C 
BRANCH   8   9
ATOM      9  C   UNL     1       9.382  10.752  10.703  1.00  0.00     0.000 C 
BRANCH   9  10
ATOM     10  C   UNL     1       8.589   9.438  10.575  1.00  0.00     0.006 C 
BRANCH  10  11
ATOM     11  C   UNL     1       7.288   9.623   9.783  1.00  0.00     0.053 C 
BRANCH  11  12
ATOM     12  C   UNL     1       7.227   8.718   8.591  1.00  0.00     0.041 C 
ATOM     13  O   UNL     1       6.147   8.573   7.961  1.00  0.00    -0.550 OA
ATOM     14  O   UNL     1       8.352   8.002   8.203  1.00  0.00    -0.550 OA
ENDBRANCH  11  12
ENDBRANCH  10  11
ENDBRANCH   9  10
ENDBRANCH   8   9
ENDBRANCH   7   8
ENDBRANCH   6   7
ENDBRANCH   5   6
ENDBRANCH   4   5
ENDBRANCH   3   4
ENDBRANCH   2   3
ENDBRANCH   1   2
BRANCH   1  15
ATOM     15  C   UNL     1       1.517  12.987  12.581  1.00  0.00     0.000 C 
BRANCH  15  16
ATOM     16  C   UNL     1       2.157  11.671  13.060  1.00  0.00     0.000 C 
BRANCH  16  17
ATOM     17  C   UNL     1       2.034  10.538  12.029  1.00  0.00     0.000 C 
BRANCH  17  18
ATOM     18  C   UNL     1       0.823  10.714  11.096  1.00  0.00    -0.000 C 
BRANCH  18  19
ATOM     19  C   UNL     1       1.161  10.478   9.609  1.00  0.00    -0.000 C 
BRANCH  19  20
ATOM     20  C   UNL     1       2.569   9.884   9.415  1.00  0.00    -0.000 C 
BRANCH  20  21
ATOM     21  C   UNL     1       3.488  10.792   8.584  1.00  0.00    -0.000 C 
BRANCH  21  22
ATOM     22  C   UNL     1       3.249  12.286   8.859  1.00  0.00    -0.000 C 
BRANCH  22  23
ATOM     23  C   UNL     1       3.375  13.155   7.595  1.00  0.00    -0.000 C 
BRANCH  23  24
ATOM     24  C   UNL     1       2.307  14.255   7.448  1.00  0.00    -0.000 C 
BRANCH  24  25
ATOM     25  C   UNL     1       1.341  14.312   8.640  1.00  0.00    -0.003 C 
ATOM     26  C   UNL     1       1.168  15.744   9.139  1.00  0.00     0.004 C 
ENDBRANCH  24  25
ENDBRANCH  23  24
ENDBRANCH  22  23
ENDBRANCH  21  22
ENDBRANCH  20  21
ENDBRANCH  19  20
ENDBRANCH  18  19
ENDBRANCH  17  18
ENDBRANCH  16  17
ENDBRANCH  15  16
ENDBRANCH   1  15
TORSDOF 22
ENDMDL
MODEL 6
REMARK VINA RESULT:    -4.282      4.327      8.343
REMARK INTER + INTRA:         -13.130
REMARK INTER:                  -9.855
REMARK INTRA:                  -3.275
REMARK UNBOUND:                -3.340
REMARK SMILES CCCCCCCCCCCCCCCCCCCCCCCC(=O)[O-]
REMARK SMILES IDX 13 1 14 2 15 3 16 4 17 5 18 6 19 7 20 8 21 9 22 10 23 11
REMARK SMILES IDX 24 12 25 13 26 14 12 15 11 16 10 17 9 18 8 19 7 20 6 21 5 22
REMARK SMILES IDX 4 23 3 24 2 25 1 26
REMARK H PARENT
REMARK Flexibility Score: inf
ROOT
ATOM      1  C   UNL     1       4.016  14.850  12.500  1.00  0.00     0.000 C 
ENDROOT
BRANCH   1   2
ATOM      2  C   UNL     1       2.739  14.925  11.641  1.00  0.00     0.000 C 
BRANCH   2   3
ATOM      3  C   UNL     1       2.602  13.813  10.584  1.00  0.00     0.000 C 
BRANCH   3   4
ATOM      4  C   UNL     1       2.124  14.318   9.207  1.00  0.00     0.000 C 
BRANCH   4   5
ATOM      5  C   UNL     1       2.867  13.643   8.040  1.00  0.00     0.000 C 
BRANCH   5   6
ATOM      6  C   UNL     1       1.943  12.762   7.184  1.00  0.00     0.000 C 
BRANCH   6   7
ATOM      7  C   UNL     1       1.495  11.488   7.918  1.00  0.00     0.000 C 
BRANCH   7   8
ATOM      8  C   UNL     1       2.708  10.658   8.366  1.00  0.00     0.000 C 
BRANCH   8   9
ATOM      9  C   UNL     1       2.355   9.634   9.456  1.00  0.00     0.000 C 
BRANCH   9  10
ATOM     10  C   UNL     1       1.394  10.202  10.517  1.00  0.00     0.006 C 
BRANCH  10  11
ATOM     11  C   UNL     1       2.090  10.433  11.865  1.00  0.00     0.053 C 
BRANCH  11  12
ATOM     12  C   UNL     1       1.154  10.999  12.887  1.00  0.00     0.041 C 
ATOM     13  O   UNL     1      -0.027  10.572  12.969  1.00  0.00    -0.550 OA
ATOM     14  O   UNL     1       1.573  12.029  13.719  1.00  0.00    -0.550 OA
ENDBRANCH  11  12
ENDBRANCH  10  11
ENDBRANCH   9  10
ENDBRANCH   8   9
ENDBRANCH   7   8
ENDBRANCH   6   7
ENDBRANCH   5   6
ENDBRANCH   4   5
ENDBRANCH   3   4
ENDBRANCH   2   3
ENDBRANCH   1   2
BRANCH   1  15
ATOM     15  C   UNL     1       5.235  14.201  11.811  1.00  0.00     0.000 C 
BRANCH  15  16
ATOM     16  C   UNL     1       5.828  12.986  12.547  1.00  0.00     0.000 C 
BRANCH  16  17
ATOM     17  C   UNL     1       5.362  11.646  11.957  1.00  0.00     0.000 C 
BRANCH  17  18
ATOM     18  C   UNL     1       5.704  11.505  10.464  1.00  0.00    -0.000 C 
BRANCH  18  19
ATOM     19  C   UNL     1       6.769  10.424  10.183  1.00  0.00    -0.000 C 
BRANCH  19  20
ATOM     20  C   UNL     1       8.194  11.008  10.126  1.00  0.00    -0.000 C 
BRANCH  20  21
ATOM     21  C   UNL     1       8.990  10.758  11.416  1.00  0.00    -0.000 C 
BRANCH  21  22
ATOM     22  C   UNL     1       9.312  12.056  12.173  1.00  0.00    -0.000 C 
BRANCH  22  23
ATOM     23  C   UNL     1       9.766  11.808  13.623  1.00  0.00    -0.000 C 
BRANCH  23  24
ATOM     24  C   UNL     1       8.686  12.041  14.695  1.00  0.00    -0.000 C 
BRANCH  24  25
ATOM     25  C   UNL     1       9.181  11.741  16.117  1.00  0.00    -0.003 C 
ATOM     26  C   UNL     1      10.705  11.683  16.168  1.00  0.00     0.004 C 
ENDBRANCH  24  25
ENDBRANCH  23  24
ENDBRANCH  22  23
ENDBRANCH  21  22
ENDBRANCH  20  21
ENDBRANCH  19  20
ENDBRANCH  18  19
ENDBRANCH  17  18
ENDBRANCH  16  17
ENDBRANCH  15  16
ENDBRANCH   1  15
TORSDOF 22
ENDMDL
MODEL 7
REMARK VINA RESULT:    -4.255      3.634      5.913
REMARK INTER + INTRA:         -13.066
REMARK INTER:                  -9.370
REMARK INTRA:                  -3.696
REMARK UNBOUND:                -3.340
REMARK SMILES CCCCCCCCCCCCCCCCCCCCCCCC(=O)[O-]
REMARK SMILES IDX 13 1 14 2 15 3 16 4 17 5 18 6 19 7 20 8 21 9 22 10 23 11
REMARK SMILES IDX 24 12 25 13 26 14 12 15 11 16 10 17 9 18 8 19 7 20 6 21 5 22
REMARK SMILES IDX 4 23 3 24 2 25 1 26
REMARK H PARENT
REMARK Flexibility Score: inf
ROOT
ATOM      1  C   UNL     1       6.023   9.047   8.525  1.00  0.00     0.000 C 
ENDROOT
BRANCH   1   2
ATOM      2  C   UNL     1       7.292   8.772   9.355  1.00  0.00     0.000 C 
BRANCH   2   3
ATOM      3  C   UNL     1       8.151  10.014   9.658  1.00  0.00     0.000 C 
BRANCH   3   4
ATOM      4  C   UNL     1       8.098  10.463  11.133  1.00  0.00     0.000 C 
BRANCH   4   5
ATOM      5  C   UNL     1       7.915  11.984  11.281  1.00  0.00     0.000 C 
BRANCH   5   6
ATOM      6  C   UNL     1       7.016  12.357  12.471  1.00  0.00     0.000 C 
BRANCH   6   7
ATOM      7  C   UNL     1       5.578  11.839  12.311  1.00  0.00     0.000 C 
BRANCH   7   8
ATOM      8  C   UNL     1       4.785  12.718  11.332  1.00  0.00     0.000 C 
BRANCH   8   9
ATOM      9  C   UNL     1       4.937  14.219  11.626  1.00  0.00     0.000 C 
BRANCH   9  10
ATOM     10  C   UNL     1       3.728  14.804  12.378  1.00  0.00     0.006 C 
BRANCH  10  11
ATOM     11  C   UNL     1       3.985  14.921  13.886  1.00  0.00     0.053 C 
BRANCH  11  12
ATOM     12  C   UNL     1       3.162  13.945  14.670  1.00  0.00     0.041 C 
ATOM     13  O   UNL     1       2.661  12.940  14.101  1.00  0.00    -0.550 OA
ATOM     14  O   UNL     1       2.913  14.170  16.017  1.00  0.00    -0.550 OA
ENDBRANCH  11  12
ENDBRANCH  10  11
ENDBRANCH   9  10
ENDBRANCH   8   9
ENDBRANCH   7   8
ENDBRANCH   6   7
ENDBRANCH   5   6
ENDBRANCH   4   5
ENDBRANCH   3   4
ENDBRANCH   2   3
ENDBRANCH   1   2
BRANCH   1  15
ATOM     15  C   UNL     1       5.479  10.489   8.613  1.00  0.00     0.000 C 
BRANCH  15  16
ATOM     16  C   UNL     1       3.960  10.625   8.402  1.00  0.00     0.000 C 
BRANCH  16  17
ATOM     17  C   UNL     1       3.202   9.314   8.662  1.00  0.00     0.000 C 
BRANCH  17  18
ATOM     18  C   UNL     1       1.885   9.532   9.425  1.00  0.00    -0.000 C 
BRANCH  18  19
ATOM     19  C   UNL     1       2.073  10.279  10.763  1.00  0.00    -0.000 C 
BRANCH  19  20
ATOM     20  C   UNL     1       0.732  10.580  11.459  1.00  0.00    -0.000 C 
BRANCH  20  21
ATOM     21  C   UNL     1       0.414  12.083  11.510  1.00  0.00    -0.000 C 
BRANCH  21  22
ATOM     22  C   UNL     1       1.305  12.908  10.568  1.00  0.00    -0.000 C 
BRANCH  22  23
ATOM     23  C   UNL     1       0.540  14.041   9.859  1.00  0.00    -0.000 C 
BRANCH  23  24
ATOM     24  C   UNL     1       1.349  14.812   8.800  1.00  0.00    -0.000 C 
BRANCH  24  25
ATOM     25  C   UNL     1       2.552  14.018   8.272  1.00  0.00    -0.003 C 
ATOM     26  C   UNL     1       2.419  13.749   6.775  1.00  0.00     0.004 C 
ENDBRANCH  24  25
ENDBRANCH  23  24
ENDBRANCH  22  23
ENDBRANCH  21  22
ENDBRANCH  20  21
ENDBRANCH  19  20
ENDBRANCH  18  19
ENDBRANCH  17  18
ENDBRANCH  16  17
ENDBRANCH  15  16
ENDBRANCH   1  15
TORSDOF 22
ENDMDL
MODEL 8
REMARK VINA RESULT:    -4.226      3.167      5.411
REMARK INTER + INTRA:         -13.002
REMARK INTER:                  -9.211
REMARK INTRA:                  -3.790
REMARK UNBOUND:                -3.340
REMARK SMILES CCCCCCCCCCCCCCCCCCCCCCCC(=O)[O-]
REMARK SMILES IDX 13 1 14 2 15 3 16 4 17 5 18 6 19 7 20 8 21 9 22 10 23 11
REMARK SMILES IDX 24 12 25 13 26 14 12 15 11 16 10 17 9 18 8 19 7 20 6 21 5 22
REMARK SMILES IDX 4 23 3 24 2 25 1 26
REMARK H PARENT
REMARK Flexibility Score: inf
ROOT
ATOM      1  C   UNL     1       5.421  14.116  11.204  1.00  0.00     0.000 C 
ENDROOT
BRANCH   1   2
ATOM      2  C   UNL     1       5.807  12.644  10.960  1.00  0.00     0.000 C 
BRANCH   2   3
ATOM      3  C   UNL     1       5.984  11.799  12.236  1.00  0.00     0.000 C 
BRANCH   3   4
ATOM      4  C   UNL     1       7.403  11.873  12.839  1.00  0.00     0.000 C 
BRANCH   4   5
ATOM      5  C   UNL     1       8.502  11.885  11.761  1.00  0.00     0.000 C 
BRANCH   5   6
ATOM      6  C   UNL     1       8.541  10.584  10.944  1.00  0.00     0.000 C 
BRANCH   6   7
ATOM      7  C   UNL     1       9.189  10.772   9.563  1.00  0.00     0.000 C 
BRANCH   7   8
ATOM      8  C   UNL     1       8.217  10.370   8.443  1.00  0.00     0.000 C 
BRANCH   8   9
ATOM      9  C   UNL     1       6.787  10.137   8.954  1.00  0.00     0.000 C 
BRANCH   9  10
ATOM     10  C   UNL     1       5.989   9.165   8.066  1.00  0.00     0.006 C 
BRANCH  10  11
ATOM     11  C   UNL     1       6.795   7.908   7.713  1.00  0.00     0.053 C 
BRANCH  11  12
ATOM     12  C   UNL     1       6.517   6.782   8.661  1.00  0.00     0.041 C 
ATOM     13  O   UNL     1       7.458   6.251   9.306  1.00  0.00    -0.550 OA
ATOM     14  O   UNL     1       5.225   6.291   8.797  1.00  0.00    -0.550 OA
ENDBRANCH  11  12
ENDBRANCH  10  11
ENDBRANCH   9  10
ENDBRANCH   8   9
ENDBRANCH   7   8
ENDBRANCH   6   7
ENDBRANCH   5   6
ENDBRANCH   4   5
ENDBRANCH   3   4
ENDBRANCH   2   3
ENDBRANCH   1   2
BRANCH   1  15
ATOM     15  C   UNL     1       4.124  14.330  12.013  1.00  0.00     0.000 C 
BRANCH  15  16
ATOM     16  C   UNL     1       2.827  14.300  11.184  1.00  0.00     0.000 C 
BRANCH  16  17
ATOM     17  C   UNL     1       1.732  13.431  11.821  1.00  0.00     0.000 C 
BRANCH  17  18
ATOM     18  C   UNL     1       2.280  12.487  12.905  1.00  0.00    -0.000 C 
BRANCH  18  19
ATOM     19  C   UNL     1       2.456  11.034  12.414  1.00  0.00    -0.000 C 
BRANCH  19  20
ATOM     20  C   UNL     1       1.194  10.496  11.713  1.00  0.00    -0.000 C 
BRANCH  20  21
ATOM     21  C   UNL     1       1.440  10.141  10.238  1.00  0.00    -0.000 C 
BRANCH  21  22
ATOM     22  C   UNL     1       2.910  10.319   9.824  1.00  0.00    -0.000 C 
BRANCH  22  23
ATOM     23  C   UNL     1       3.097  11.375   8.719  1.00  0.00    -0.000 C 
BRANCH  23  24
ATOM     24  C   UNL     1       1.872  11.598   7.814  1.00  0.00    -0.000 C 
BRANCH  24  25
ATOM     25  C   UNL     1       1.651  13.075   7.459  1.00  0.00    -0.003 C 
ATOM     26  C   UNL     1       2.970  13.843   7.458  1.00  0.00     0.004 C 
ENDBRANCH  24  25
ENDBRANCH  23  24
ENDBRANCH  22  23
ENDBRANCH  21  22
ENDBRANCH  20  21
ENDBRANCH  19  20
ENDBRANCH  18  19
ENDBRANCH  17  18
ENDBRANCH  16  17
ENDBRANCH  15  16
ENDBRANCH   1  15
TORSDOF 22
ENDMDL
MODEL 9
REMARK VINA RESULT:    -4.219      3.123      5.695
REMARK INTER + INTRA:         -12.986
REMARK INTER:                  -9.161
REMARK INTRA:                  -3.825
REMARK UNBOUND:                -3.340
REMARK SMILES CCCCCCCCCCCCCCCCCCCCCCCC(=O)[O-]
REMARK SMILES IDX 13 1 14 2 15 3 16 4 17 5 18 6 19 7 20 8 21 9 22 10 23 11
REMARK SMILES IDX 24 12 25 13 26 14 12 15 11 16 10 17 9 18 8 19 7 20 6 21 5 22
REMARK SMILES IDX 4 23 3 24 2 25 1 26
REMARK H PARENT
REMARK Flexibility Score: inf
ROOT
ATOM      1  C   UNL     1       4.594  13.963  12.305  1.00  0.00     0.000 C 
ENDROOT
BRANCH   1   2
ATOM      2  C   UNL     1       4.887  12.865  13.345  1.00  0.00     0.000 C 
BRANCH   2   3
ATOM      3  C   UNL     1       6.264  12.188  13.203  1.00  0.00     0.000 C 
BRANCH   3   4
ATOM      4  C   UNL     1       6.545  11.641  11.788  1.00  0.00     0.000 C 
BRANCH   4   5
ATOM      5  C   UNL     1       7.708  12.372  11.093  1.00  0.00     0.000 C 
BRANCH   5   6
ATOM      6  C   UNL     1       9.078  11.982  11.670  1.00  0.00     0.000 C 
BRANCH   6   7
ATOM      7  C   UNL     1      10.059  11.498  10.590  1.00  0.00     0.000 C 
BRANCH   7   8
ATOM      8  C   UNL     1       9.387  10.478   9.657  1.00  0.00     0.000 C 
BRANCH   8   9
ATOM      9  C   UNL     1       9.165   9.115  10.330  1.00  0.00     0.000 C 
BRANCH   9  10
ATOM     10  C   UNL     1       7.798   8.496   9.986  1.00  0.00     0.006 C 
BRANCH  10  11
ATOM     11  C   UNL     1       6.990   9.378   9.025  1.00  0.00     0.053 C 
BRANCH  11  12
ATOM     12  C   UNL     1       6.295   8.567   7.974  1.00  0.00     0.041 C 
ATOM     13  O   UNL     1       5.076   8.279   8.101  1.00  0.00    -0.550 OA
ATOM     14  O   UNL     1       7.005   8.094   6.879  1.00  0.00    -0.550 OA
ENDBRANCH  11  12
ENDBRANCH  10  11
ENDBRANCH   9  10
ENDBRANCH   8   9
ENDBRANCH   7   8
ENDBRANCH   6   7
ENDBRANCH   5   6
ENDBRANCH   4   5
ENDBRANCH   3   4
ENDBRANCH   2   3
ENDBRANCH   1   2
BRANCH   1  15
ATOM     15  C   UNL     1       3.278  14.741  12.524  1.00  0.00     0.000 C 
BRANCH  15  16
ATOM     16  C   UNL     1       2.575  15.205  11.235  1.00  0.00     0.000 C 
BRANCH  16  17
ATOM     17  C   UNL     1       1.993  14.039  10.420  1.00  0.00     0.000 C 
BRANCH  17  18
ATOM     18  C   UNL     1       2.561  13.972   8.993  1.00  0.00    -0.000 C 
BRANCH  18  19
ATOM     19  C   UNL     1       3.834  13.105   8.885  1.00  0.00    -0.000 C 
BRANCH  19  20
ATOM     20  C   UNL     1       3.511  11.619   8.641  1.00  0.00    -0.000 C 
BRANCH  20  21
ATOM     21  C   UNL     1       3.538  10.786   9.932  1.00  0.00    -0.000 C 
BRANCH  21  22
ATOM     22  C   UNL     1       2.304   9.881  10.078  1.00  0.00    -0.000 C 
BRANCH  22  23
ATOM     23  C   UNL     1       1.264  10.441  11.066  1.00  0.00    -0.000 C 
BRANCH  23  24
ATOM     24  C   UNL     1       1.840  10.962  12.395  1.00  0.00    -0.000 C 
BRANCH  24  25
ATOM     25  C   UNL     1       0.874  11.893  13.142  1.00  0.00    -0.003 C 
ATOM     26  C   UNL     1       1.121  11.848  14.647  1.00  0.00     0.004 C 
ENDBRANCH  24  25
ENDBRANCH  23  24
ENDBRANCH  22  23
ENDBRANCH  21  22
ENDBRANCH  20  21
ENDBRANCH  19  20
ENDBRANCH  18  19
ENDBRANCH  17  18
ENDBRANCH  16  17
ENDBRANCH  15  16
ENDBRANCH   1  15
TORSDOF 22
ENDMDL
