MODEL 1
REMARK VINA RESULT:    -7.242      0.000      0.000
REMARK INTER + INTRA:         -11.947
REMARK INTER:                 -10.628
REMARK INTRA:                  -1.318
REMARK UNBOUND:                -1.318
REMARK SMILES O=c1c(O[C@@H]2O[C@H](CO)[C@H](O)[C@@H](O)[C@@H]2O)c(-c2ccc(O)c(O)c2)oc2cc(O)cc(O)c12
REMARK SMILES IDX 4 1 3 2 16 3 25 4 2 5 26 6 1 7 33 8 27 9 31 10 28 11 30 12
REMARK SMILES IDX 17 13 18 14 19 15 20 16 24 17 22 18 21 19 23 21 32 23 29 25
REMARK SMILES IDX 5 27 14 28 6 29 12 30 7 31 10 32 15 33 13 35 8 37 9 38 11 40
REMARK H PARENT 21 20 23 22 32 24 29 26 15 34 13 36 9 39 11 41
REMARK Flexibility Score: inf
ROOT
ATOM      1  O   UNL     1      16.420 -10.416  25.618  1.00  0.00    -0.454 OA
ENDROOT
BRANCH   1   2
ATOM      2  C   UNL     1      16.564 -11.710  26.152  1.00  0.00     0.214 A 
ATOM      3  C   UNL     1      16.576 -11.835  27.552  1.00  0.00     0.180 A 
ATOM      4  O   UNL     1      16.876 -12.998  28.118  1.00  0.00    -0.452 OA
ATOM      5  C   UNL     1      16.758 -12.868  25.373  1.00  0.00     0.239 A 
ATOM      6  C   UNL     1      17.166 -14.091  27.425  1.00  0.00     0.146 A 
ATOM      7  O   UNL     1      16.555 -12.822  24.133  1.00  0.00    -0.285 OA
ATOM      8  C   UNL     1      17.145 -14.078  26.003  1.00  0.00     0.111 A 
ATOM      9  C   UNL     1      17.489 -15.260  28.125  1.00  0.00     0.094 A 
ATOM     10  C   UNL     1      17.506 -15.276  25.311  1.00  0.00     0.134 A 
ATOM     11  C   UNL     1      17.803 -16.431  27.440  1.00  0.00     0.123 A 
ATOM     12  C   UNL     1      17.804 -16.434  26.041  1.00  0.00     0.093 A 
BRANCH   3  13
ATOM     13  C   UNL     1      16.309 -10.667  28.419  1.00  0.00     0.025 A 
ATOM     14  C   UNL     1      17.351 -10.042  29.126  1.00  0.00     0.016 A 
ATOM     15  C   UNL     1      17.077  -8.986  30.001  1.00  0.00     0.051 A 
ATOM     16  C   UNL     1      15.760  -8.552  30.194  1.00  0.00     0.157 A 
ATOM     17  C   UNL     1      14.994 -10.199  28.577  1.00  0.00     0.062 A 
ATOM     18  C   UNL     1      14.710  -9.165  29.483  1.00  0.00     0.158 A 
BRANCH  16  19
ATOM     19  O   UNL     1      15.515  -7.521  31.097  1.00  0.00    -0.504 OA
ATOM     20  H   UNL     1      14.660  -6.975  31.076  1.00  0.00     0.293 HD
ENDBRANCH  16  19
BRANCH  18  21
ATOM     21  O   UNL     1      13.393  -8.773  29.703  1.00  0.00    -0.504 OA
ATOM     22  H   UNL     1      13.082  -8.427  30.610  1.00  0.00     0.293 HD
ENDBRANCH  18  21
ENDBRANCH   3  13
BRANCH  10  23
ATOM     23  O   UNL     1      17.627 -15.373  23.921  1.00  0.00    -0.507 OA
ATOM     24  H   UNL     1      17.175 -14.761  23.251  1.00  0.00     0.293 HD
ENDBRANCH  10  23
BRANCH  11  25
ATOM     25  O   UNL     1      18.125 -17.584  28.156  1.00  0.00    -0.508 OA
ATOM     26  H   UNL     1      17.418 -18.116  28.654  1.00  0.00     0.293 HD
ENDBRANCH  11  25
ENDBRANCH   1   2
BRANCH   1  27
ATOM     27  C   UNL     1      16.866  -9.942  24.341  1.00  0.00     0.339 C 
ATOM     28  C   UNL     1      15.660  -9.493  23.489  1.00  0.00     0.214 C 
ATOM     29  O   UNL     1      17.858  -8.927  24.463  1.00  0.00    -0.332 OA
ATOM     30  C   UNL     1      15.029  -8.239  24.097  1.00  0.00     0.180 C 
ATOM     31  C   UNL     1      17.389  -7.662  24.930  1.00  0.00     0.179 C 
ATOM     32  C   UNL     1      16.105  -7.153  24.212  1.00  0.00     0.177 C 
BRANCH  28  33
ATOM     33  O   UNL     1      14.720 -10.532  23.437  1.00  0.00    -0.384 OA
ATOM     34  H   UNL     1      14.083 -10.396  24.193  1.00  0.00     0.211 HD
ENDBRANCH  28  33
BRANCH  30  35
ATOM     35  O   UNL     1      13.992  -7.783  23.263  1.00  0.00    -0.387 OA
ATOM     36  H   UNL     1      14.402  -7.552  22.388  1.00  0.00     0.211 HD
ENDBRANCH  30  35
BRANCH  31  37
ATOM     37  C   UNL     1      17.380  -7.563  26.473  1.00  0.00     0.191 C 
BRANCH  37  38
ATOM     38  O   UNL     1      17.469  -6.239  26.915  1.00  0.00    -0.394 OA
ATOM     39  H   UNL     1      18.433  -6.063  27.071  1.00  0.00     0.210 HD
ENDBRANCH  37  38
ENDBRANCH  31  37
BRANCH  32  40
ATOM     40  O   UNL     1      15.608  -5.981  24.815  1.00  0.00    -0.387 OA
ATOM     41  H   UNL     1      16.187  -5.755  25.589  1.00  0.00     0.211 HD
ENDBRANCH  32  40
ENDBRANCH   1  27
TORSDOF 12
ENDMDL
MODEL 2
REMARK VINA RESULT:    -7.172      3.726      6.099
REMARK INTER + INTRA:         -11.844
REMARK INTER:                 -10.117
REMARK INTRA:                  -1.728
REMARK UNBOUND:                -1.318
REMARK SMILES O=c1c(O[C@@H]2O[C@H](CO)[C@H](O)[C@@H](O)[C@@H]2O)c(-c2ccc(O)c(O)c2)oc2cc(O)cc(O)c12
REMARK SMILES IDX 4 1 3 2 16 3 25 4 2 5 26 6 1 7 33 8 27 9 31 10 28 11 30 12
REMARK SMILES IDX 17 13 18 14 19 15 20 16 24 17 22 18 21 19 23 21 32 23 29 25
REMARK SMILES IDX 5 27 14 28 6 29 12 30 7 31 10 32 15 33 13 35 8 37 9 38 11 40
REMARK H PARENT 21 20 23 22 32 24 29 26 15 34 13 36 9 39 11 41
REMARK Flexibility Score: inf
ROOT
ATOM      1  O   UNL     1      13.464  -6.383  24.720  1.00  0.00    -0.454 OA
ENDROOT
BRANCH   1   2
ATOM      2  C   UNL     1      13.810  -7.743  24.616  1.00  0.00     0.214 A 
ATOM      3  C   UNL     1      12.843  -8.688  25.001  1.00  0.00     0.180 A 
ATOM      4  O   UNL     1      13.161  -9.974  25.088  1.00  0.00    -0.452 OA
ATOM      5  C   UNL     1      15.078  -8.206  24.212  1.00  0.00     0.239 A 
ATOM      6  C   UNL     1      14.371 -10.444  24.816  1.00  0.00     0.146 A 
ATOM      7  O   UNL     1      15.888  -7.407  23.676  1.00  0.00    -0.285 OA
ATOM      8  C   UNL     1      15.410  -9.574  24.382  1.00  0.00     0.111 A 
ATOM      9  C   UNL     1      14.603 -11.817  24.961  1.00  0.00     0.094 A 
ATOM     10  C   UNL     1      16.703 -10.133  24.143  1.00  0.00     0.134 A 
ATOM     11  C   UNL     1      15.858 -12.356  24.690  1.00  0.00     0.123 A 
ATOM     12  C   UNL     1      16.897 -11.514  24.277  1.00  0.00     0.093 A 
BRANCH   3  13
ATOM     13  C   UNL     1      11.474  -8.265  25.368  1.00  0.00     0.025 A 
ATOM     14  C   UNL     1      10.551  -7.880  24.380  1.00  0.00     0.016 A 
ATOM     15  C   UNL     1       9.284  -7.411  24.742  1.00  0.00     0.051 A 
ATOM     16  C   UNL     1       8.929  -7.305  26.092  1.00  0.00     0.157 A 
ATOM     17  C   UNL     1      11.099  -8.205  26.720  1.00  0.00     0.062 A 
ATOM     18  C   UNL     1       9.843  -7.698  27.088  1.00  0.00     0.158 A 
BRANCH  16  19
ATOM     19  O   UNL     1       7.673  -6.802  26.421  1.00  0.00    -0.504 OA
ATOM     20  H   UNL     1       6.973  -7.364  26.895  1.00  0.00     0.293 HD
ENDBRANCH  16  19
BRANCH  18  21
ATOM     21  O   UNL     1       9.517  -7.552  28.434  1.00  0.00    -0.504 OA
ATOM     22  H   UNL     1       9.828  -8.223  29.136  1.00  0.00     0.293 HD
ENDBRANCH  18  21
ENDBRANCH   3  13
BRANCH  10  23
ATOM     23  O   UNL     1      17.835  -9.379  23.814  1.00  0.00    -0.507 OA
ATOM     24  H   UNL     1      17.853  -8.372  23.698  1.00  0.00     0.293 HD
ENDBRANCH  10  23
BRANCH  11  25
ATOM     25  O   UNL     1      16.069 -13.727  24.844  1.00  0.00    -0.508 OA
ATOM     26  H   UNL     1      16.307 -14.130  25.745  1.00  0.00     0.293 HD
ENDBRANCH  11  25
ENDBRANCH   1   2
BRANCH   1  27
ATOM     27  C   UNL     1      13.527  -5.550  25.885  1.00  0.00     0.339 C 
ATOM     28  C   UNL     1      14.721  -4.579  25.782  1.00  0.00     0.214 C 
ATOM     29  O   UNL     1      12.294  -4.880  26.129  1.00  0.00    -0.332 OA
ATOM     30  C   UNL     1      14.470  -3.559  24.669  1.00  0.00     0.180 C 
ATOM     31  C   UNL     1      11.976  -3.827  25.219  1.00  0.00     0.179 C 
ATOM     32  C   UNL     1      13.147  -2.838  24.952  1.00  0.00     0.177 C 
BRANCH  28  33
ATOM     33  O   UNL     1      15.888  -5.310  25.516  1.00  0.00    -0.384 OA
ATOM     34  H   UNL     1      16.077  -5.224  24.540  1.00  0.00     0.211 HD
ENDBRANCH  28  33
BRANCH  30  35
ATOM     35  O   UNL     1      15.518  -2.621  24.646  1.00  0.00    -0.387 OA
ATOM     36  H   UNL     1      16.267  -3.008  25.172  1.00  0.00     0.211 HD
ENDBRANCH  30  35
BRANCH  31  37
ATOM     37  C   UNL     1      11.225  -4.333  23.965  1.00  0.00     0.191 C 
BRANCH  37  38
ATOM     38  O   UNL     1      12.094  -4.584  22.899  1.00  0.00    -0.394 OA
ATOM     39  H   UNL     1      12.979  -4.782  23.302  1.00  0.00     0.210 HD
ENDBRANCH  37  38
ENDBRANCH  31  37
BRANCH  32  40
ATOM     40  O   UNL     1      12.822  -1.917  23.938  1.00  0.00    -0.387 OA
ATOM     41  H   UNL     1      12.010  -1.417  24.214  1.00  0.00     0.211 HD
ENDBRANCH  32  40
ENDBRANCH   1  27
TORSDOF 12
ENDMDL
MODEL 3
REMARK VINA RESULT:    -6.891      1.555      4.685
REMARK INTER + INTRA:         -11.433
REMARK INTER:                 -10.340
REMARK INTRA:                  -1.092
REMARK UNBOUND:                -1.318
REMARK SMILES O=c1c(O[C@@H]2O[C@H](CO)[C@H](O)[C@@H](O)[C@@H]2O)c(-c2ccc(O)c(O)c2)oc2cc(O)cc(O)c12
REMARK SMILES IDX 4 1 3 2 16 3 25 4 2 5 26 6 1 7 33 8 27 9 31 10 28 11 30 12
REMARK SMILES IDX 17 13 18 14 19 15 20 16 24 17 22 18 21 19 23 21 32 23 29 25
REMARK SMILES IDX 5 27 14 28 6 29 12 30 7 31 10 32 15 33 13 35 8 37 9 38 11 40
REMARK H PARENT 21 20 23 22 32 24 29 26 15 34 13 36 9 39 11 41
REMARK Flexibility Score: inf
ROOT
ATOM      1  O   UNL     1      17.037  -9.772  27.097  1.00  0.00    -0.454 OA
ENDROOT
BRANCH   1   2
ATOM      2  C   UNL     1      17.244 -11.025  26.490  1.00  0.00     0.214 A 
ATOM      3  C   UNL     1      16.949 -11.137  25.120  1.00  0.00     0.180 A 
ATOM      4  O   UNL     1      16.961 -12.325  24.528  1.00  0.00    -0.452 OA
ATOM      5  C   UNL     1      17.666 -12.177  27.183  1.00  0.00     0.239 A 
ATOM      6  C   UNL     1      17.253 -13.452  25.164  1.00  0.00     0.146 A 
ATOM      7  O   UNL     1      18.125 -12.066  28.349  1.00  0.00    -0.285 OA
ATOM      8  C   UNL     1      17.601 -13.441  26.543  1.00  0.00     0.111 A 
ATOM      9  C   UNL     1      17.215 -14.653  24.447  1.00  0.00     0.094 A 
ATOM     10  C   UNL     1      17.866 -14.690  27.183  1.00  0.00     0.134 A 
ATOM     11  C   UNL     1      17.511 -15.861  25.072  1.00  0.00     0.123 A 
ATOM     12  C   UNL     1      17.840 -15.873  26.432  1.00  0.00     0.093 A 
BRANCH   3  13
ATOM     13  C   UNL     1      16.569  -9.948  24.327  1.00  0.00     0.025 A 
ATOM     14  C   UNL     1      17.552  -9.118  23.758  1.00  0.00     0.016 A 
ATOM     15  C   UNL     1      17.184  -7.956  23.073  1.00  0.00     0.051 A 
ATOM     16  C   UNL     1      15.835  -7.598  22.962  1.00  0.00     0.157 A 
ATOM     17  C   UNL     1      15.214  -9.614  24.172  1.00  0.00     0.062 A 
ATOM     18  C   UNL     1      14.843  -8.428  23.519  1.00  0.00     0.158 A 
BRANCH  16  19
ATOM     19  O   UNL     1      15.503  -6.418  22.303  1.00  0.00    -0.504 OA
ATOM     20  H   UNL     1      15.789  -5.507  22.648  1.00  0.00     0.293 HD
ENDBRANCH  16  19
BRANCH  18  21
ATOM     21  O   UNL     1      13.503  -8.057  23.455  1.00  0.00    -0.504 OA
ATOM     22  H   UNL     1      13.162  -7.202  23.893  1.00  0.00     0.293 HD
ENDBRANCH  18  21
ENDBRANCH   3  13
BRANCH  10  23
ATOM     23  O   UNL     1      18.118 -14.833  28.552  1.00  0.00    -0.507 OA
ATOM     24  H   UNL     1      18.004 -15.690  29.081  1.00  0.00     0.293 HD
ENDBRANCH  10  23
BRANCH  11  25
ATOM     25  O   UNL     1      17.464 -17.049  24.340  1.00  0.00    -0.508 OA
ATOM     26  H   UNL     1      18.305 -17.577  24.130  1.00  0.00     0.293 HD
ENDBRANCH  11  25
ENDBRANCH   1   2
BRANCH   1  27
ATOM     27  C   UNL     1      15.798  -9.217  27.558  1.00  0.00     0.339 C 
ATOM     28  C   UNL     1      15.520  -9.667  29.008  1.00  0.00     0.214 C 
ATOM     29  O   UNL     1      15.757  -7.802  27.407  1.00  0.00    -0.332 OA
ATOM     30  C   UNL     1      16.535  -9.027  29.957  1.00  0.00     0.180 C 
ATOM     31  C   UNL     1      16.587  -7.063  28.304  1.00  0.00     0.179 C 
ATOM     32  C   UNL     1      16.471  -7.504  29.791  1.00  0.00     0.177 C 
BRANCH  28  33
ATOM     33  O   UNL     1      15.604 -11.065  29.081  1.00  0.00    -0.384 OA
ATOM     34  H   UNL     1      15.793 -11.401  28.160  1.00  0.00     0.211 HD
ENDBRANCH  28  33
BRANCH  30  35
ATOM     35  O   UNL     1      16.216  -9.366  31.285  1.00  0.00    -0.387 OA
ATOM     36  H   UNL     1      16.841  -8.864  31.872  1.00  0.00     0.211 HD
ENDBRANCH  30  35
BRANCH  31  37
ATOM     37  C   UNL     1      18.026  -6.880  27.767  1.00  0.00     0.191 C 
BRANCH  37  38
ATOM     38  O   UNL     1      18.062  -6.825  26.370  1.00  0.00    -0.394 OA
ATOM     39  H   UNL     1      19.021  -6.852  26.115  1.00  0.00     0.210 HD
ENDBRANCH  37  38
ENDBRANCH  31  37
BRANCH  32  40
ATOM     40  O   UNL     1      17.418  -6.846  30.599  1.00  0.00    -0.387 OA
ATOM     41  H   UNL     1      17.616  -7.420  31.384  1.00  0.00     0.211 HD
ENDBRANCH  32  40
ENDBRANCH   1  27
TORSDOF 12
ENDMDL
MODEL 4
REMARK VINA RESULT:    -6.884      2.309      7.733
REMARK INTER + INTRA:         -11.422
REMARK INTER:                 -10.196
REMARK INTRA:                  -1.226
REMARK UNBOUND:                -1.318
REMARK SMILES O=c1c(O[C@@H]2O[C@H](CO)[C@H](O)[C@@H](O)[C@@H]2O)c(-c2ccc(O)c(O)c2)oc2cc(O)cc(O)c12
REMARK SMILES IDX 4 1 3 2 16 3 25 4 2 5 26 6 1 7 33 8 27 9 31 10 28 11 30 12
REMARK SMILES IDX 17 13 18 14 19 15 20 16 24 17 22 18 21 19 23 21 32 23 29 25
REMARK SMILES IDX 5 27 14 28 6 29 12 30 7 31 10 32 15 33 13 35 8 37 9 38 11 40
REMARK H PARENT 21 20 23 22 32 24 29 26 15 34 13 36 9 39 11 41
REMARK Flexibility Score: inf
ROOT
ATOM      1  O   UNL     1      16.220  -8.516  26.929  1.00  0.00    -0.454 OA
ENDROOT
BRANCH   1   2
ATOM      2  C   UNL     1      15.772  -7.948  25.721  1.00  0.00     0.214 A 
ATOM      3  C   UNL     1      15.904  -8.722  24.555  1.00  0.00     0.180 A 
ATOM      4  O   UNL     1      15.660  -8.186  23.365  1.00  0.00    -0.452 OA
ATOM      5  C   UNL     1      15.264  -6.639  25.606  1.00  0.00     0.239 A 
ATOM      6  C   UNL     1      15.277  -6.927  23.199  1.00  0.00     0.146 A 
ATOM      7  O   UNL     1      14.950  -6.001  26.643  1.00  0.00    -0.285 OA
ATOM      8  C   UNL     1      15.080  -6.072  24.319  1.00  0.00     0.111 A 
ATOM      9  C   UNL     1      15.068  -6.458  21.897  1.00  0.00     0.094 A 
ATOM     10  C   UNL     1      14.707  -4.714  24.074  1.00  0.00     0.134 A 
ATOM     11  C   UNL     1      14.668  -5.144  21.673  1.00  0.00     0.123 A 
ATOM     12  C   UNL     1      14.485  -4.283  22.760  1.00  0.00     0.093 A 
BRANCH   3  13
ATOM     13  C   UNL     1      16.366 -10.125  24.625  1.00  0.00     0.025 A 
ATOM     14  C   UNL     1      17.713 -10.452  24.391  1.00  0.00     0.016 A 
ATOM     15  C   UNL     1      18.125 -11.788  24.385  1.00  0.00     0.051 A 
ATOM     16  C   UNL     1      17.196 -12.815  24.596  1.00  0.00     0.157 A 
ATOM     17  C   UNL     1      15.445 -11.153  24.884  1.00  0.00     0.062 A 
ATOM     18  C   UNL     1      15.846 -12.497  24.841  1.00  0.00     0.158 A 
BRANCH  16  19
ATOM     19  O   UNL     1      17.631 -14.136  24.551  1.00  0.00    -0.504 OA
ATOM     20  H   UNL     1      17.467 -14.786  25.313  1.00  0.00     0.293 HD
ENDBRANCH  16  19
BRANCH  18  21
ATOM     21  O   UNL     1      14.907 -13.511  25.004  1.00  0.00    -0.504 OA
ATOM     22  H   UNL     1      14.083 -13.388  25.591  1.00  0.00     0.293 HD
ENDBRANCH  18  21
ENDBRANCH   3  13
BRANCH  10  23
ATOM     23  O   UNL     1      14.581  -3.743  25.074  1.00  0.00    -0.507 OA
ATOM     24  H   UNL     1      15.179  -2.932  25.179  1.00  0.00     0.293 HD
ENDBRANCH  10  23
BRANCH  11  25
ATOM     25  O   UNL     1      14.468  -4.695  20.366  1.00  0.00    -0.508 OA
ATOM     26  H   UNL     1      14.228  -3.729  20.167  1.00  0.00     0.293 HD
ENDBRANCH  11  25
ENDBRANCH   1   2
BRANCH   1  27
ATOM     27  C   UNL     1      17.574  -8.745  27.340  1.00  0.00     0.339 C 
ATOM     28  C   UNL     1      18.105  -7.529  28.128  1.00  0.00     0.214 C 
ATOM     29  O   UNL     1      17.715  -9.967  28.058  1.00  0.00    -0.332 OA
ATOM     30  C   UNL     1      17.375  -7.416  29.468  1.00  0.00     0.180 C 
ATOM     31  C   UNL     1      17.163  -9.974  29.375  1.00  0.00     0.179 C 
ATOM     32  C   UNL     1      17.545  -8.734  30.234  1.00  0.00     0.177 C 
BRANCH  28  33
ATOM     33  O   UNL     1      17.907  -6.366  27.369  1.00  0.00    -0.384 OA
ATOM     34  H   UNL     1      18.653  -6.311  26.709  1.00  0.00     0.211 HD
ENDBRANCH  28  33
BRANCH  30  35
ATOM     35  O   UNL     1      17.930  -6.364  30.219  1.00  0.00    -0.387 OA
ATOM     36  H   UNL     1      18.171  -6.737  31.108  1.00  0.00     0.211 HD
ENDBRANCH  30  35
BRANCH  31  37
ATOM     37  C   UNL     1      15.668 -10.367  29.390  1.00  0.00     0.191 C 
BRANCH  37  38
ATOM     38  O   UNL     1      14.831  -9.247  29.431  1.00  0.00    -0.394 OA
ATOM     39  H   UNL     1      14.073  -9.443  28.820  1.00  0.00     0.210 HD
ENDBRANCH  37  38
ENDBRANCH  31  37
BRANCH  32  40
ATOM     40  O   UNL     1      16.853  -8.723  31.460  1.00  0.00    -0.387 OA
ATOM     41  H   UNL     1      15.964  -8.307  31.316  1.00  0.00     0.211 HD
ENDBRANCH  32  40
ENDBRANCH   1  27
TORSDOF 12
ENDMDL
MODEL 5
REMARK VINA RESULT:    -6.756      3.602      7.480
REMARK INTER + INTRA:         -11.234
REMARK INTER:                  -9.513
REMARK INTRA:                  -1.720
REMARK UNBOUND:                -1.318
REMARK SMILES O=c1c(O[C@@H]2O[C@H](CO)[C@H](O)[C@@H](O)[C@@H]2O)c(-c2ccc(O)c(O)c2)oc2cc(O)cc(O)c12
REMARK SMILES IDX 4 1 3 2 16 3 25 4 2 5 26 6 1 7 33 8 27 9 31 10 28 11 30 12
REMARK SMILES IDX 17 13 18 14 19 15 20 16 24 17 22 18 21 19 23 21 32 23 29 25
REMARK SMILES IDX 5 27 14 28 6 29 12 30 7 31 10 32 15 33 13 35 8 37 9 38 11 40
REMARK H PARENT 21 20 23 22 32 24 29 26 15 34 13 36 9 39 11 41
REMARK Flexibility Score: inf
ROOT
ATOM      1  O   UNL     1      14.117 -10.567  26.568  1.00  0.00    -0.454 OA
ENDROOT
BRANCH   1   2
ATOM      2  C   UNL     1      13.159  -9.733  27.175  1.00  0.00     0.214 A 
ATOM      3  C   UNL     1      12.240 -10.334  28.052  1.00  0.00     0.180 A 
ATOM      4  O   UNL     1      11.212  -9.639  28.524  1.00  0.00    -0.452 OA
ATOM      5  C   UNL     1      13.031  -8.355  26.908  1.00  0.00     0.239 A 
ATOM      6  C   UNL     1      10.992  -8.367  28.219  1.00  0.00     0.146 A 
ATOM      7  O   UNL     1      13.948  -7.754  26.293  1.00  0.00    -0.285 OA
ATOM      8  C   UNL     1      11.885  -7.657  27.369  1.00  0.00     0.111 A 
ATOM      9  C   UNL     1       9.865  -7.736  28.757  1.00  0.00     0.094 A 
ATOM     10  C   UNL     1      11.574  -6.301  27.044  1.00  0.00     0.134 A 
ATOM     11  C   UNL     1       9.592  -6.403  28.463  1.00  0.00     0.123 A 
ATOM     12  C   UNL     1      10.449  -5.693  27.615  1.00  0.00     0.093 A 
BRANCH   3  13
ATOM     13  C   UNL     1      12.368 -11.760  28.423  1.00  0.00     0.025 A 
ATOM     14  C   UNL     1      11.679 -12.755  27.707  1.00  0.00     0.016 A 
ATOM     15  C   UNL     1      11.748 -14.092  28.112  1.00  0.00     0.051 A 
ATOM     16  C   UNL     1      12.489 -14.450  29.245  1.00  0.00     0.157 A 
ATOM     17  C   UNL     1      13.151 -12.128  29.530  1.00  0.00     0.062 A 
ATOM     18  C   UNL     1      13.190 -13.462  29.963  1.00  0.00     0.158 A 
BRANCH  16  19
ATOM     19  O   UNL     1      12.510 -15.784  29.642  1.00  0.00    -0.504 OA
ATOM     20  H   UNL     1      11.742 -16.209  30.152  1.00  0.00     0.293 HD
ENDBRANCH  16  19
BRANCH  18  21
ATOM     21  O   UNL     1      13.891 -13.801  31.116  1.00  0.00    -0.504 OA
ATOM     22  H   UNL     1      14.258 -14.740  31.264  1.00  0.00     0.293 HD
ENDBRANCH  18  21
ENDBRANCH   3  13
BRANCH  10  23
ATOM     23  O   UNL     1      12.307  -5.522  26.142  1.00  0.00    -0.507 OA
ATOM     24  H   UNL     1      13.297  -5.316  26.217  1.00  0.00     0.293 HD
ENDBRANCH  10  23
BRANCH  11  25
ATOM     25  O   UNL     1       8.460  -5.793  29.006  1.00  0.00    -0.508 OA
ATOM     26  H   UNL     1       7.863  -5.188  28.450  1.00  0.00     0.293 HD
ENDBRANCH  11  25
ENDBRANCH   1   2
BRANCH   1  27
ATOM     27  C   UNL     1      14.046 -11.186  25.277  1.00  0.00     0.339 C 
ATOM     28  C   UNL     1      15.157 -10.634  24.360  1.00  0.00     0.214 C 
ATOM     29  O   UNL     1      14.064 -12.607  25.364  1.00  0.00    -0.332 OA
ATOM     30  C   UNL     1      16.526 -11.093  24.864  1.00  0.00     0.180 C 
ATOM     31  C   UNL     1      15.317 -13.185  25.731  1.00  0.00     0.179 C 
ATOM     32  C   UNL     1      16.534 -12.624  24.941  1.00  0.00     0.177 C 
BRANCH  28  33
ATOM     33  O   UNL     1      15.090  -9.233  24.347  1.00  0.00    -0.384 OA
ATOM     34  H   UNL     1      15.598  -8.917  23.548  1.00  0.00     0.211 HD
ENDBRANCH  28  33
BRANCH  30  35
ATOM     35  O   UNL     1      17.525 -10.665  23.969  1.00  0.00    -0.387 OA
ATOM     36  H   UNL     1      17.908  -9.826  24.340  1.00  0.00     0.211 HD
ENDBRANCH  30  35
BRANCH  31  37
ATOM     37  C   UNL     1      15.498 -13.287  27.263  1.00  0.00     0.191 C 
BRANCH  37  38
ATOM     38  O   UNL     1      16.088 -14.497  27.643  1.00  0.00    -0.394 OA
ATOM     39  H   UNL     1      16.174 -15.037  26.813  1.00  0.00     0.210 HD
ENDBRANCH  37  38
ENDBRANCH  31  37
BRANCH  32  40
ATOM     40  O   UNL     1      17.750 -13.120  25.449  1.00  0.00    -0.387 OA
ATOM     41  H   UNL     1      18.493 -12.581  25.070  1.00  0.00     0.211 HD
ENDBRANCH  32  40
ENDBRANCH   1  27
TORSDOF 12
ENDMDL
MODEL 6
REMARK VINA RESULT:    -6.742      1.421      2.559
REMARK INTER + INTRA:         -11.213
REMARK INTER:                  -9.922
REMARK INTRA:                  -1.290
REMARK UNBOUND:                -1.318
REMARK SMILES O=c1c(O[C@@H]2O[C@H](CO)[C@H](O)[C@@H](O)[C@@H]2O)c(-c2ccc(O)c(O)c2)oc2cc(O)cc(O)c12
REMARK SMILES IDX 4 1 3 2 16 3 25 4 2 5 26 6 1 7 33 8 27 9 31 10 28 11 30 12
REMARK SMILES IDX 17 13 18 14 19 15 20 16 24 17 22 18 21 19 23 21 32 23 29 25
REMARK SMILES IDX 5 27 14 28 6 29 12 30 7 31 10 32 15 33 13 35 8 37 9 38 11 40
REMARK H PARENT 21 20 23 22 32 24 29 26 15 34 13 36 9 39 11 41
REMARK Flexibility Score: inf
ROOT
ATOM      1  O   UNL     1      15.160  -9.861  25.578  1.00  0.00    -0.454 OA
ENDROOT
BRANCH   1   2
ATOM      2  C   UNL     1      15.475 -11.127  26.106  1.00  0.00     0.214 A 
ATOM      3  C   UNL     1      15.184 -11.354  27.462  1.00  0.00     0.180 A 
ATOM      4  O   UNL     1      15.607 -12.460  28.062  1.00  0.00    -0.452 OA
ATOM      5  C   UNL     1      16.116 -12.149  25.376  1.00  0.00     0.239 A 
ATOM      6  C   UNL     1      16.302 -13.404  27.441  1.00  0.00     0.146 A 
ATOM      7  O   UNL     1      16.207 -12.054  24.126  1.00  0.00    -0.285 OA
ATOM      8  C   UNL     1      16.617 -13.286  26.059  1.00  0.00     0.111 A 
ATOM      9  C   UNL     1      16.716 -14.521  28.176  1.00  0.00     0.094 A 
ATOM     10  C   UNL     1      17.403 -14.315  25.455  1.00  0.00     0.134 A 
ATOM     11  C   UNL     1      17.451 -15.536  27.568  1.00  0.00     0.123 A 
ATOM     12  C   UNL     1      17.784 -15.431  26.213  1.00  0.00     0.093 A 
BRANCH   3  13
ATOM     13  C   UNL     1      14.451 -10.346  28.258  1.00  0.00     0.025 A 
ATOM     14  C   UNL     1      13.073 -10.141  28.067  1.00  0.00     0.016 A 
ATOM     15  C   UNL     1      12.405  -9.134  28.772  1.00  0.00     0.051 A 
ATOM     16  C   UNL     1      13.104  -8.310  29.662  1.00  0.00     0.157 A 
ATOM     17  C   UNL     1      15.141  -9.551  29.187  1.00  0.00     0.062 A 
ATOM     18  C   UNL     1      14.482  -8.515  29.867  1.00  0.00     0.158 A 
BRANCH  16  19
ATOM     19  O   UNL     1      12.418  -7.296  30.322  1.00  0.00    -0.504 OA
ATOM     20  H   UNL     1      12.888  -6.627  30.924  1.00  0.00     0.293 HD
ENDBRANCH  16  19
BRANCH  18  21
ATOM     21  O   UNL     1      15.196  -7.671  30.713  1.00  0.00    -0.504 OA
ATOM     22  H   UNL     1      15.996  -8.004  31.251  1.00  0.00     0.293 HD
ENDBRANCH  18  21
ENDBRANCH   3  13
BRANCH  10  23
ATOM     23  O   UNL     1      17.870 -14.275  24.137  1.00  0.00    -0.507 OA
ATOM     24  H   UNL     1      18.560 -13.625  23.781  1.00  0.00     0.293 HD
ENDBRANCH  10  23
BRANCH  11  25
ATOM     25  O   UNL     1      17.857 -16.639  28.319  1.00  0.00    -0.508 OA
ATOM     26  H   UNL     1      18.666 -16.597  28.932  1.00  0.00     0.293 HD
ENDBRANCH  11  25
ENDBRANCH   1   2
BRANCH   1  27
ATOM     27  C   UNL     1      15.832  -8.619  25.824  1.00  0.00     0.339 C 
ATOM     28  C   UNL     1      16.945  -8.398  24.779  1.00  0.00     0.214 C 
ATOM     29  O   UNL     1      14.923  -7.525  25.896  1.00  0.00    -0.332 OA
ATOM     30  C   UNL     1      16.326  -8.163  23.399  1.00  0.00     0.180 C 
ATOM     31  C   UNL     1      14.340  -7.128  24.655  1.00  0.00     0.179 C 
ATOM     32  C   UNL     1      15.359  -6.976  23.490  1.00  0.00     0.177 C 
BRANCH  28  33
ATOM     33  O   UNL     1      17.780  -9.525  24.749  1.00  0.00    -0.384 OA
ATOM     34  H   UNL     1      17.597 -10.009  23.897  1.00  0.00     0.211 HD
ENDBRANCH  28  33
BRANCH  30  35
ATOM     35  O   UNL     1      17.342  -7.869  22.471  1.00  0.00    -0.387 OA
ATOM     36  H   UNL     1      17.137  -6.975  22.089  1.00  0.00     0.211 HD
ENDBRANCH  30  35
BRANCH  31  37
ATOM     37  C   UNL     1      13.053  -7.919  24.323  1.00  0.00     0.191 C 
BRANCH  37  38
ATOM     38  O   UNL     1      13.295  -8.961  23.422  1.00  0.00    -0.394 OA
ATOM     39  H   UNL     1      13.529  -9.755  23.971  1.00  0.00     0.210 HD
ENDBRANCH  37  38
ENDBRANCH  31  37
BRANCH  32  40
ATOM     40  O   UNL     1      14.709  -6.733  22.264  1.00  0.00    -0.387 OA
ATOM     41  H   UNL     1      13.765  -7.028  22.344  1.00  0.00     0.211 HD
ENDBRANCH  32  40
ENDBRANCH   1  27
TORSDOF 12
ENDMDL
MODEL 7
REMARK VINA RESULT:    -6.728      3.317      5.582
REMARK INTER + INTRA:         -11.193
REMARK INTER:                  -9.856
REMARK INTRA:                  -1.337
REMARK UNBOUND:                -1.318
REMARK SMILES O=c1c(O[C@@H]2O[C@H](CO)[C@H](O)[C@@H](O)[C@@H]2O)c(-c2ccc(O)c(O)c2)oc2cc(O)cc(O)c12
REMARK SMILES IDX 4 1 3 2 16 3 25 4 2 5 26 6 1 7 33 8 27 9 31 10 28 11 30 12
REMARK SMILES IDX 17 13 18 14 19 15 20 16 24 17 22 18 21 19 23 21 32 23 29 25
REMARK SMILES IDX 5 27 14 28 6 29 12 30 7 31 10 32 15 33 13 35 8 37 9 38 11 40
REMARK H PARENT 21 20 23 22 32 24 29 26 15 34 13 36 9 39 11 41
REMARK Flexibility Score: inf
ROOT
ATOM      1  O   UNL     1      15.624  -9.809  27.952  1.00  0.00    -0.454 OA
ENDROOT
BRANCH   1   2
ATOM      2  C   UNL     1      14.689 -10.860  27.904  1.00  0.00     0.214 A 
ATOM      3  C   UNL     1      13.844 -10.924  26.784  1.00  0.00     0.180 A 
ATOM      4  O   UNL     1      12.833 -11.784  26.756  1.00  0.00    -0.452 OA
ATOM      5  C   UNL     1      14.513 -11.806  28.934  1.00  0.00     0.239 A 
ATOM      6  C   UNL     1      12.565 -12.625  27.746  1.00  0.00     0.146 A 
ATOM      7  O   UNL     1      15.374 -11.899  29.846  1.00  0.00    -0.285 OA
ATOM      8  C   UNL     1      13.384 -12.665  28.909  1.00  0.00     0.111 A 
ATOM      9  C   UNL     1      11.461 -13.476  27.620  1.00  0.00     0.094 A 
ATOM     10  C   UNL     1      13.022 -13.562  29.960  1.00  0.00     0.134 A 
ATOM     11  C   UNL     1      11.139 -14.373  28.635  1.00  0.00     0.123 A 
ATOM     12  C   UNL     1      11.923 -14.416  29.794  1.00  0.00     0.093 A 
BRANCH   3  13
ATOM     13  C   UNL     1      14.028 -10.002  25.642  1.00  0.00     0.025 A 
ATOM     14  C   UNL     1      14.627 -10.445  24.449  1.00  0.00     0.016 A 
ATOM     15  C   UNL     1      14.864  -9.547  23.403  1.00  0.00     0.051 A 
ATOM     16  C   UNL     1      14.524  -8.196  23.540  1.00  0.00     0.157 A 
ATOM     17  C   UNL     1      13.642  -8.657  25.759  1.00  0.00     0.062 A 
ATOM     18  C   UNL     1      13.914  -7.745  24.727  1.00  0.00     0.158 A 
BRANCH  16  19
ATOM     19  O   UNL     1      14.803  -7.321  22.495  1.00  0.00    -0.504 OA
ATOM     20  H   UNL     1      14.405  -6.388  22.448  1.00  0.00     0.293 HD
ENDBRANCH  16  19
BRANCH  18  21
ATOM     21  O   UNL     1      13.615  -6.396  24.892  1.00  0.00    -0.504 OA
ATOM     22  H   UNL     1      13.319  -5.814  24.109  1.00  0.00     0.293 HD
ENDBRANCH  18  21
ENDBRANCH   3  13
BRANCH  10  23
ATOM     23  O   UNL     1      13.676 -13.630  31.195  1.00  0.00    -0.507 OA
ATOM     24  H   UNL     1      13.743 -12.870  31.863  1.00  0.00     0.293 HD
ENDBRANCH  10  23
BRANCH  11  25
ATOM     25  O   UNL     1      10.032 -15.210  28.492  1.00  0.00    -0.508 OA
ATOM     26  H   UNL     1      10.128 -16.221  28.479  1.00  0.00     0.293 HD
ENDBRANCH  11  25
ENDBRANCH   1   2
BRANCH   1  27
ATOM     27  C   UNL     1      17.052  -9.909  28.025  1.00  0.00     0.339 C 
ATOM     28  C   UNL     1      17.708  -8.772  27.215  1.00  0.00     0.214 C 
ATOM     29  O   UNL     1      17.516  -9.962  29.370  1.00  0.00    -0.332 OA
ATOM     30  C   UNL     1      17.444  -7.427  27.895  1.00  0.00     0.180 C 
ATOM     31  C   UNL     1      17.422  -8.739  30.101  1.00  0.00     0.179 C 
ATOM     32  C   UNL     1      17.959  -7.495  29.337  1.00  0.00     0.177 C 
BRANCH  28  33
ATOM     33  O   UNL     1      17.182  -8.770  25.914  1.00  0.00    -0.384 OA
ATOM     34  H   UNL     1      16.189  -8.809  25.994  1.00  0.00     0.211 HD
ENDBRANCH  28  33
BRANCH  30  35
ATOM     35  O   UNL     1      18.125  -6.408  27.202  1.00  0.00    -0.387 OA
ATOM     36  H   UNL     1      17.475  -6.002  26.569  1.00  0.00     0.211 HD
ENDBRANCH  30  35
BRANCH  31  37
ATOM     37  C   UNL     1      16.049  -8.563  30.791  1.00  0.00     0.191 C 
BRANCH  37  38
ATOM     38  O   UNL     1      15.729  -9.652  31.608  1.00  0.00    -0.394 OA
ATOM     39  H   UNL     1      16.400  -9.657  32.340  1.00  0.00     0.210 HD
ENDBRANCH  37  38
ENDBRANCH  31  37
BRANCH  32  40
ATOM     40  O   UNL     1      17.702  -6.305  30.044  1.00  0.00    -0.387 OA
ATOM     41  H   UNL     1      18.525  -6.044  30.533  1.00  0.00     0.211 HD
ENDBRANCH  32  40
ENDBRANCH   1  27
TORSDOF 12
ENDMDL
MODEL 8
REMARK VINA RESULT:    -6.622      4.540      7.135
REMARK INTER + INTRA:         -11.037
REMARK INTER:                  -9.870
REMARK INTRA:                  -1.167
REMARK UNBOUND:                -1.318
REMARK SMILES O=c1c(O[C@@H]2O[C@H](CO)[C@H](O)[C@@H](O)[C@@H]2O)c(-c2ccc(O)c(O)c2)oc2cc(O)cc(O)c12
REMARK SMILES IDX 4 1 3 2 16 3 25 4 2 5 26 6 1 7 33 8 27 9 31 10 28 11 30 12
REMARK SMILES IDX 17 13 18 14 19 15 20 16 24 17 22 18 21 19 23 21 32 23 29 25
REMARK SMILES IDX 5 27 14 28 6 29 12 30 7 31 10 32 15 33 13 35 8 37 9 38 11 40
REMARK H PARENT 21 20 23 22 32 24 29 26 15 34 13 36 9 39 11 41
REMARK Flexibility Score: inf
ROOT
ATOM      1  O   UNL     1      12.302  -5.655  23.950  1.00  0.00    -0.454 OA
ENDROOT
BRANCH   1   2
ATOM      2  C   UNL     1      13.080  -6.828  23.966  1.00  0.00     0.214 A 
ATOM      3  C   UNL     1      12.532  -7.959  24.594  1.00  0.00     0.180 A 
ATOM      4  O   UNL     1      13.277  -9.041  24.793  1.00  0.00    -0.452 OA
ATOM      5  C   UNL     1      14.389  -6.913  23.450  1.00  0.00     0.239 A 
ATOM      6  C   UNL     1      14.545  -9.131  24.416  1.00  0.00     0.146 A 
ATOM      7  O   UNL     1      14.827  -5.992  22.714  1.00  0.00    -0.285 OA
ATOM      8  C   UNL     1      15.182  -8.053  23.739  1.00  0.00     0.111 A 
ATOM      9  C   UNL     1      15.243 -10.311  24.694  1.00  0.00     0.094 A 
ATOM     10  C   UNL     1      16.561  -8.193  23.394  1.00  0.00     0.134 A 
ATOM     11  C   UNL     1      16.577 -10.451  24.320  1.00  0.00     0.123 A 
ATOM     12  C   UNL     1      17.225  -9.396  23.668  1.00  0.00     0.093 A 
BRANCH   3  13
ATOM     13  C   UNL     1      11.140  -7.950  25.092  1.00  0.00     0.025 A 
ATOM     14  C   UNL     1      10.077  -7.580  24.249  1.00  0.00     0.016 A 
ATOM     15  C   UNL     1       8.773  -7.502  24.750  1.00  0.00     0.051 A 
ATOM     16  C   UNL     1       8.517  -7.776  26.099  1.00  0.00     0.157 A 
ATOM     17  C   UNL     1      10.874  -8.272  26.433  1.00  0.00     0.062 A 
ATOM     18  C   UNL     1       9.573  -8.158  26.948  1.00  0.00     0.158 A 
BRANCH  16  19
ATOM     19  O   UNL     1       7.214  -7.658  26.575  1.00  0.00    -0.504 OA
ATOM     20  H   UNL     1       6.862  -8.230  27.336  1.00  0.00     0.293 HD
ENDBRANCH  16  19
BRANCH  18  21
ATOM     21  O   UNL     1       9.337  -8.387  28.300  1.00  0.00    -0.504 OA
ATOM     22  H   UNL     1       8.498  -8.867  28.624  1.00  0.00     0.293 HD
ENDBRANCH  18  21
ENDBRANCH   3  13
BRANCH  10  23
ATOM     23  O   UNL     1      17.334  -7.176  22.822  1.00  0.00    -0.507 OA
ATOM     24  H   UNL     1      17.642  -6.337  23.299  1.00  0.00     0.293 HD
ENDBRANCH  10  23
BRANCH  11  25
ATOM     25  O   UNL     1      17.256 -11.635  24.610  1.00  0.00    -0.508 OA
ATOM     26  H   UNL     1      17.085 -12.488  24.087  1.00  0.00     0.293 HD
ENDBRANCH  11  25
ENDBRANCH   1   2
BRANCH   1  27
ATOM     27  C   UNL     1      12.755  -4.306  23.779  1.00  0.00     0.339 C 
ATOM     28  C   UNL     1      12.177  -3.710  22.478  1.00  0.00     0.214 C 
ATOM     29  O   UNL     1      12.479  -3.501  24.920  1.00  0.00    -0.332 OA
ATOM     30  C   UNL     1      10.664  -3.528  22.615  1.00  0.00     0.180 C 
ATOM     31  C   UNL     1      11.105  -3.166  25.118  1.00  0.00     0.179 C 
ATOM     32  C   UNL     1      10.383  -2.651  23.840  1.00  0.00     0.177 C 
BRANCH  28  33
ATOM     33  O   UNL     1      12.467  -4.570  21.408  1.00  0.00    -0.384 OA
ATOM     34  H   UNL     1      11.619  -4.710  20.901  1.00  0.00     0.211 HD
ENDBRANCH  28  33
BRANCH  30  35
ATOM     35  O   UNL     1      10.160  -2.897  21.463  1.00  0.00    -0.387 OA
ATOM     36  H   UNL     1       9.713  -2.061  21.761  1.00  0.00     0.211 HD
ENDBRANCH  30  35
BRANCH  31  37
ATOM     37  C   UNL     1      10.344  -4.236  25.935  1.00  0.00     0.191 C 
BRANCH  37  38
ATOM     38  O   UNL     1      11.183  -4.905  26.833  1.00  0.00    -0.394 OA
ATOM     39  H   UNL     1      10.647  -5.651  27.211  1.00  0.00     0.210 HD
ENDBRANCH  37  38
ENDBRANCH  31  37
BRANCH  32  40
ATOM     40  O   UNL     1       9.002  -2.482  24.062  1.00  0.00    -0.387 OA
ATOM     41  H   UNL     1       8.644  -3.313  24.468  1.00  0.00     0.211 HD
ENDBRANCH  32  40
ENDBRANCH   1  27
TORSDOF 12
ENDMDL
MODEL 9
REMARK VINA RESULT:    -6.621      3.282      7.139
REMARK INTER + INTRA:         -11.035
REMARK INTER:                  -9.284
REMARK INTRA:                  -1.752
REMARK UNBOUND:                -1.318
REMARK SMILES O=c1c(O[C@@H]2O[C@H](CO)[C@H](O)[C@@H](O)[C@@H]2O)c(-c2ccc(O)c(O)c2)oc2cc(O)cc(O)c12
REMARK SMILES IDX 4 1 3 2 16 3 25 4 2 5 26 6 1 7 33 8 27 9 31 10 28 11 30 12
REMARK SMILES IDX 17 13 18 14 19 15 20 16 24 17 22 18 21 19 23 21 32 23 29 25
REMARK SMILES IDX 5 27 14 28 6 29 12 30 7 31 10 32 15 33 13 35 8 37 9 38 11 40
REMARK H PARENT 21 20 23 22 32 24 29 26 15 34 13 36 9 39 11 41
REMARK Flexibility Score: inf
ROOT
ATOM      1  O   UNL     1      14.372  -7.331  26.002  1.00  0.00    -0.454 OA
ENDROOT
BRANCH   1   2
ATOM      2  C   UNL     1      13.417  -7.029  26.991  1.00  0.00     0.214 A 
ATOM      3  C   UNL     1      13.471  -7.762  28.188  1.00  0.00     0.180 A 
ATOM      4  O   UNL     1      12.503  -7.646  29.089  1.00  0.00    -0.452 OA
ATOM      5  C   UNL     1      12.381  -6.088  26.825  1.00  0.00     0.239 A 
ATOM      6  C   UNL     1      11.454  -6.849  28.931  1.00  0.00     0.146 A 
ATOM      7  O   UNL     1      12.422  -5.283  25.860  1.00  0.00    -0.285 OA
ATOM      8  C   UNL     1      11.324  -6.037  27.770  1.00  0.00     0.111 A 
ATOM      9  C   UNL     1      10.480  -6.820  29.936  1.00  0.00     0.094 A 
ATOM     10  C   UNL     1      10.153  -5.230  27.638  1.00  0.00     0.134 A 
ATOM     11  C   UNL     1       9.361  -6.001  29.813  1.00  0.00     0.123 A 
ATOM     12  C   UNL     1       9.207  -5.208  28.671  1.00  0.00     0.093 A 
BRANCH   3  13
ATOM     13  C   UNL     1      14.575  -8.712  28.446  1.00  0.00     0.025 A 
ATOM     14  C   UNL     1      15.842  -8.252  28.848  1.00  0.00     0.016 A 
ATOM     15  C   UNL     1      16.899  -9.152  29.016  1.00  0.00     0.051 A 
ATOM     16  C   UNL     1      16.711 -10.518  28.770  1.00  0.00     0.157 A 
ATOM     17  C   UNL     1      14.375 -10.088  28.246  1.00  0.00     0.062 A 
ATOM     18  C   UNL     1      15.443 -10.989  28.376  1.00  0.00     0.158 A 
BRANCH  16  19
ATOM     19  O   UNL     1      17.791 -11.383  28.914  1.00  0.00    -0.504 OA
ATOM     20  H   UNL     1      18.747 -11.049  28.978  1.00  0.00     0.293 HD
ENDBRANCH  16  19
BRANCH  18  21
ATOM     21  O   UNL     1      15.258 -12.337  28.083  1.00  0.00    -0.504 OA
ATOM     22  H   UNL     1      15.177 -13.038  28.818  1.00  0.00     0.293 HD
ENDBRANCH  18  21
ENDBRANCH   3  13
BRANCH  10  23
ATOM     23  O   UNL     1       9.850  -4.466  26.505  1.00  0.00    -0.507 OA
ATOM     24  H   UNL     1       9.022  -3.893  26.391  1.00  0.00     0.293 HD
ENDBRANCH  10  23
BRANCH  11  25
ATOM     25  O   UNL     1       8.399  -5.989  30.824  1.00  0.00    -0.508 OA
ATOM     26  H   UNL     1       7.717  -6.736  30.919  1.00  0.00     0.293 HD
ENDBRANCH  11  25
ENDBRANCH   1   2
BRANCH   1  27
ATOM     27  C   UNL     1      14.336  -8.400  25.047  1.00  0.00     0.339 C 
ATOM     28  C   UNL     1      14.031  -7.847  23.640  1.00  0.00     0.214 C 
ATOM     29  O   UNL     1      15.523  -9.186  25.081  1.00  0.00    -0.332 OA
ATOM     30  C   UNL     1      15.209  -7.008  23.141  1.00  0.00     0.180 C 
ATOM     31  C   UNL     1      16.691  -8.561  24.550  1.00  0.00     0.179 C 
ATOM     32  C   UNL     1      16.476  -7.871  23.172  1.00  0.00     0.177 C 
BRANCH  28  33
ATOM     33  O   UNL     1      12.867  -7.065  23.693  1.00  0.00    -0.384 OA
ATOM     34  H   UNL     1      12.228  -7.523  24.307  1.00  0.00     0.211 HD
ENDBRANCH  28  33
BRANCH  30  35
ATOM     35  O   UNL     1      14.962  -6.588  21.821  1.00  0.00    -0.387 OA
ATOM     36  H   UNL     1      15.657  -5.914  21.595  1.00  0.00     0.211 HD
ENDBRANCH  30  35
BRANCH  31  37
ATOM     37  C   UNL     1      17.450  -7.726  25.608  1.00  0.00     0.191 C 
BRANCH  37  38
ATOM     38  O   UNL     1      17.082  -6.377  25.575  1.00  0.00    -0.394 OA
ATOM     39  H   UNL     1      16.377  -6.298  24.881  1.00  0.00     0.210 HD
ENDBRANCH  37  38
ENDBRANCH  31  37
BRANCH  32  40
ATOM     40  O   UNL     1      17.616  -7.147  22.775  1.00  0.00    -0.387 OA
ATOM     41  H   UNL     1      17.396  -6.640  21.951  1.00  0.00     0.211 HD
ENDBRANCH  32  40
ENDBRANCH   1  27
TORSDOF 12
ENDMDL
