MODEL 1
REMARK VINA RESULT:    -5.201      0.000      0.000
REMARK INTER + INTRA:         -16.643
REMARK INTER:                 -13.106
REMARK INTRA:                  -3.537
REMARK UNBOUND:                -3.537
REMARK SMILES CCCCCCCCCCCCCCCCCCCCCCCCCCCC(=O)[O-]
REMARK SMILES IDX 15 1 16 2 17 3 18 4 19 5 20 6 21 7 22 8 23 9 24 10 25 11
REMARK SMILES IDX 26 12 27 13 28 14 29 15 30 16 14 17 13 18 12 19 11 20 10 21
REMARK SMILES IDX 9 22 8 23 7 24 6 25 5 26 4 27 3 28 2 29 1 30
REMARK H PARENT
REMARK Flexibility Score: inf
ROOT
ATOM      1  C   UNL     1      14.869 -23.347  20.288  1.00  0.00     0.000 C 
ENDROOT
BRANCH   1   2
ATOM      2  C   UNL     1      15.262 -24.421  19.252  1.00  0.00     0.000 C 
BRANCH   2   3
ATOM      3  C   UNL     1      15.266 -25.860  19.801  1.00  0.00     0.000 C 
BRANCH   3   4
ATOM      4  C   UNL     1      15.019 -25.907  21.318  1.00  0.00     0.000 C 
BRANCH   4   5
ATOM      5  C   UNL     1      16.333 -25.997  22.113  1.00  0.00     0.000 C 
BRANCH   5   6
ATOM      6  C   UNL     1      16.498 -27.339  22.867  1.00  0.00     0.000 C 
BRANCH   6   7
ATOM      7  C   UNL     1      15.623 -28.465  22.292  1.00  0.00     0.000 C 
BRANCH   7   8
ATOM      8  C   UNL     1      15.315 -29.558  23.329  1.00  0.00     0.000 C 
BRANCH   8   9
ATOM      9  C   UNL     1      15.745 -30.957  22.852  1.00  0.00     0.000 C 
BRANCH   9  10
ATOM     10  C   UNL     1      17.240 -31.223  23.111  1.00  0.00     0.000 C 
BRANCH  10  11
ATOM     11  C   UNL     1      17.689 -30.748  24.501  1.00  0.00     0.000 C 
BRANCH  11  12
ATOM     12  C   UNL     1      18.878 -29.772  24.431  1.00  0.00     0.006 C 
BRANCH  12  13
ATOM     13  C   UNL     1      18.775 -28.657  25.481  1.00  0.00     0.053 C 
BRANCH  13  14
ATOM     14  C   UNL     1      19.586 -27.452  25.112  1.00  0.00     0.041 C 
ATOM     15  O   UNL     1      20.322 -27.472  24.087  1.00  0.00    -0.550 OA
ATOM     16  O   UNL     1      19.519 -26.301  25.891  1.00  0.00    -0.550 OA
ENDBRANCH  13  14
ENDBRANCH  12  13
ENDBRANCH  11  12
ENDBRANCH  10  11
ENDBRANCH   9  10
ENDBRANCH   8   9
ENDBRANCH   7   8
ENDBRANCH   6   7
ENDBRANCH   5   6
ENDBRANCH   4   5
ENDBRANCH   3   4
ENDBRANCH   2   3
ENDBRANCH   1   2
BRANCH   1  17
ATOM     17  C   UNL     1      13.444 -22.771  20.133  1.00  0.00     0.000 C 
BRANCH  17  18
ATOM     18  C   UNL     1      12.405 -23.305  21.139  1.00  0.00     0.000 C 
BRANCH  18  19
ATOM     19  C   UNL     1      11.672 -24.559  20.627  1.00  0.00     0.000 C 
BRANCH  19  20
ATOM     20  C   UNL     1      10.667 -25.119  21.644  1.00  0.00     0.000 C 
BRANCH  20  21
ATOM     21  C   UNL     1      10.454 -24.191  22.855  1.00  0.00     0.000 C 
BRANCH  21  22
ATOM     22  C   UNL     1       9.307 -24.672  23.761  1.00  0.00    -0.000 C 
BRANCH  22  23
ATOM     23  C   UNL     1       9.471 -24.190  25.214  1.00  0.00    -0.000 C 
BRANCH  23  24
ATOM     24  C   UNL     1       9.583 -22.659  25.326  1.00  0.00    -0.000 C 
BRANCH  24  25
ATOM     25  C   UNL     1      10.866 -22.144  26.009  1.00  0.00    -0.000 C 
BRANCH  25  26
ATOM     26  C   UNL     1      11.967 -23.201  26.206  1.00  0.00    -0.000 C 
BRANCH  26  27
ATOM     27  C   UNL     1      13.074 -23.118  25.143  1.00  0.00    -0.000 C 
BRANCH  27  28
ATOM     28  C   UNL     1      12.955 -21.820  24.332  1.00  0.00    -0.000 C 
BRANCH  28  29
ATOM     29  C   UNL     1      14.313 -21.316  23.814  1.00  0.00    -0.003 C 
ATOM     30  C   UNL     1      15.451 -22.306  24.075  1.00  0.00     0.004 C 
ENDBRANCH  28  29
ENDBRANCH  27  28
ENDBRANCH  26  27
ENDBRANCH  25  26
ENDBRANCH  24  25
ENDBRANCH  23  24
ENDBRANCH  22  23
ENDBRANCH  21  22
ENDBRANCH  20  21
ENDBRANCH  19  20
ENDBRANCH  18  19
ENDBRANCH  17  18
ENDBRANCH   1  17
TORSDOF 26
ENDMDL
MODEL 2
REMARK VINA RESULT:    -4.927      2.305      4.458
REMARK INTER + INTRA:         -15.952
REMARK INTER:                 -13.278
REMARK INTRA:                  -2.674
REMARK UNBOUND:                -3.537
REMARK SMILES CCCCCCCCCCCCCCCCCCCCCCCCCCCC(=O)[O-]
REMARK SMILES IDX 15 1 16 2 17 3 18 4 19 5 20 6 21 7 22 8 23 9 24 10 25 11
REMARK SMILES IDX 26 12 27 13 28 14 29 15 30 16 14 17 13 18 12 19 11 20 10 21
REMARK SMILES IDX 9 22 8 23 7 24 6 25 5 26 4 27 3 28 2 29 1 30
REMARK H PARENT
REMARK Flexibility Score: inf
ROOT
ATOM      1  C   UNL     1      15.373 -25.583  21.150  1.00  0.00     0.000 C 
ENDROOT
BRANCH   1   2
ATOM      2  C   UNL     1      15.806 -26.879  21.867  1.00  0.00     0.000 C 
BRANCH   2   3
ATOM      3  C   UNL     1      17.090 -26.742  22.706  1.00  0.00     0.000 C 
BRANCH   3   4
ATOM      4  C   UNL     1      17.259 -27.897  23.707  1.00  0.00     0.000 C 
BRANCH   4   5
ATOM      5  C   UNL     1      18.502 -27.714  24.594  1.00  0.00     0.000 C 
BRANCH   5   6
ATOM      6  C   UNL     1      19.374 -28.990  24.692  1.00  0.00     0.000 C 
BRANCH   6   7
ATOM      7  C   UNL     1      20.782 -28.717  25.247  1.00  0.00     0.000 C 
BRANCH   7   8
ATOM      8  C   UNL     1      21.115 -27.216  25.291  1.00  0.00     0.000 C 
BRANCH   8   9
ATOM      9  C   UNL     1      22.609 -26.955  25.552  1.00  0.00     0.000 C 
BRANCH   9  10
ATOM     10  C   UNL     1      22.867 -25.525  26.062  1.00  0.00     0.000 C 
BRANCH  10  11
ATOM     11  C   UNL     1      23.531 -25.505  27.447  1.00  0.00     0.000 C 
BRANCH  11  12
ATOM     12  C   UNL     1      23.128 -26.717  28.307  1.00  0.00     0.006 C 
BRANCH  12  13
ATOM     13  C   UNL     1      22.054 -26.360  29.344  1.00  0.00     0.053 C 
BRANCH  13  14
ATOM     14  C   UNL     1      20.695 -26.852  28.947  1.00  0.00     0.041 C 
ATOM     15  O   UNL     1      20.358 -28.045  29.184  1.00  0.00    -0.550 OA
ATOM     16  O   UNL     1      19.795 -25.990  28.326  1.00  0.00    -0.550 OA
ENDBRANCH  13  14
ENDBRANCH  12  13
ENDBRANCH  11  12
ENDBRANCH  10  11
ENDBRANCH   9  10
ENDBRANCH   8   9
ENDBRANCH   7   8
ENDBRANCH   6   7
ENDBRANCH   5   6
ENDBRANCH   4   5
ENDBRANCH   3   4
ENDBRANCH   2   3
ENDBRANCH   1   2
BRANCH   1  17
ATOM     17  C   UNL     1      15.618 -24.278  21.941  1.00  0.00     0.000 C 
BRANCH  17  18
ATOM     18  C   UNL     1      15.109 -22.992  21.261  1.00  0.00     0.000 C 
BRANCH  18  19
ATOM     19  C   UNL     1      14.258 -23.277  20.010  1.00  0.00     0.000 C 
BRANCH  19  20
ATOM     20  C   UNL     1      12.753 -23.101  20.259  1.00  0.00     0.000 C 
BRANCH  20  21
ATOM     21  C   UNL     1      12.059 -24.404  20.701  1.00  0.00     0.000 C 
BRANCH  21  22
ATOM     22  C   UNL     1      11.194 -24.203  21.957  1.00  0.00    -0.000 C 
BRANCH  22  23
ATOM     23  C   UNL     1      10.055 -25.236  22.051  1.00  0.00    -0.000 C 
BRANCH  23  24
ATOM     24  C   UNL     1       8.944 -24.814  23.030  1.00  0.00    -0.000 C 
BRANCH  24  25
ATOM     25  C   UNL     1       9.385 -23.839  24.139  1.00  0.00    -0.000 C 
BRANCH  25  26
ATOM     26  C   UNL     1       9.720 -24.497  25.490  1.00  0.00    -0.000 C 
BRANCH  26  27
ATOM     27  C   UNL     1      11.031 -23.977  26.101  1.00  0.00    -0.000 C 
BRANCH  27  28
ATOM     28  C   UNL     1      11.548 -22.757  25.325  1.00  0.00    -0.000 C 
BRANCH  28  29
ATOM     29  C   UNL     1      12.994 -22.934  24.833  1.00  0.00    -0.003 C 
ATOM     30  C   UNL     1      13.533 -21.692  24.120  1.00  0.00     0.004 C 
ENDBRANCH  28  29
ENDBRANCH  27  28
ENDBRANCH  26  27
ENDBRANCH  25  26
ENDBRANCH  24  25
ENDBRANCH  23  24
ENDBRANCH  22  23
ENDBRANCH  21  22
ENDBRANCH  20  21
ENDBRANCH  19  20
ENDBRANCH  18  19
ENDBRANCH  17  18
ENDBRANCH   1  17
TORSDOF 26
ENDMDL
MODEL 3
REMARK VINA RESULT:    -4.911      3.414      9.079
REMARK INTER + INTRA:         -15.912
REMARK INTER:                 -12.806
REMARK INTRA:                  -3.106
REMARK UNBOUND:                -3.537
REMARK SMILES CCCCCCCCCCCCCCCCCCCCCCCCCCCC(=O)[O-]
REMARK SMILES IDX 15 1 16 2 17 3 18 4 19 5 20 6 21 7 22 8 23 9 24 10 25 11
REMARK SMILES IDX 26 12 27 13 28 14 29 15 30 16 14 17 13 18 12 19 11 20 10 21
REMARK SMILES IDX 9 22 8 23 7 24 6 25 5 26 4 27 3 28 2 29 1 30
REMARK H PARENT
REMARK Flexibility Score: inf
ROOT
ATOM      1  C   UNL     1      16.783 -26.689  22.691  1.00  0.00     0.000 C 
ENDROOT
BRANCH   1   2
ATOM      2  C   UNL     1      15.868 -25.676  21.971  1.00  0.00     0.000 C 
BRANCH   2   3
ATOM      3  C   UNL     1      15.141 -26.242  20.737  1.00  0.00     0.000 C 
BRANCH   3   4
ATOM      4  C   UNL     1      14.821 -25.154  19.699  1.00  0.00     0.000 C 
BRANCH   4   5
ATOM      5  C   UNL     1      15.019 -23.739  20.267  1.00  0.00     0.000 C 
BRANCH   5   6
ATOM      6  C   UNL     1      13.752 -22.855  20.157  1.00  0.00     0.000 C 
BRANCH   6   7
ATOM      7  C   UNL     1      12.466 -23.592  20.565  1.00  0.00     0.000 C 
BRANCH   7   8
ATOM      8  C   UNL     1      12.351 -23.773  22.089  1.00  0.00     0.000 C 
BRANCH   8   9
ATOM      9  C   UNL     1      12.044 -22.451  22.814  1.00  0.00     0.000 C 
BRANCH   9  10
ATOM     10  C   UNL     1      13.121 -22.098  23.856  1.00  0.00     0.000 C 
BRANCH  10  11
ATOM     11  C   UNL     1      13.076 -23.019  25.085  1.00  0.00     0.000 C 
BRANCH  11  12
ATOM     12  C   UNL     1      11.789 -22.835  25.908  1.00  0.00     0.006 C 
BRANCH  12  13
ATOM     13  C   UNL     1      11.359 -24.131  26.608  1.00  0.00     0.053 C 
BRANCH  13  14
ATOM     14  C   UNL     1      10.053 -24.652  26.088  1.00  0.00     0.041 C 
ATOM     15  O   UNL     1       9.391 -25.490  26.760  1.00  0.00    -0.550 OA
ATOM     16  O   UNL     1       9.560 -24.203  24.866  1.00  0.00    -0.550 OA
ENDBRANCH  13  14
ENDBRANCH  12  13
ENDBRANCH  11  12
ENDBRANCH  10  11
ENDBRANCH   9  10
ENDBRANCH   8   9
ENDBRANCH   7   8
ENDBRANCH   6   7
ENDBRANCH   5   6
ENDBRANCH   4   5
ENDBRANCH   3   4
ENDBRANCH   2   3
ENDBRANCH   1   2
BRANCH   1  17
ATOM     17  C   UNL     1      16.143 -28.064  22.984  1.00  0.00     0.000 C 
BRANCH  17  18
ATOM     18  C   UNL     1      16.585 -28.728  24.303  1.00  0.00     0.000 C 
BRANCH  18  19
ATOM     19  C   UNL     1      17.816 -29.635  24.129  1.00  0.00     0.000 C 
BRANCH  19  20
ATOM     20  C   UNL     1      19.112 -28.987  24.639  1.00  0.00     0.000 C 
BRANCH  20  21
ATOM     21  C   UNL     1      18.859 -27.843  25.640  1.00  0.00     0.000 C 
BRANCH  21  22
ATOM     22  C   UNL     1      19.578 -26.545  25.230  1.00  0.00    -0.000 C 
BRANCH  22  23
ATOM     23  C   UNL     1      20.971 -26.815  24.630  1.00  0.00    -0.000 C 
BRANCH  23  24
ATOM     24  C   UNL     1      22.092 -26.047  25.353  1.00  0.00    -0.000 C 
BRANCH  24  25
ATOM     25  C   UNL     1      23.301 -26.904  25.782  1.00  0.00    -0.000 C 
BRANCH  25  26
ATOM     26  C   UNL     1      23.870 -26.575  27.173  1.00  0.00    -0.000 C 
BRANCH  26  27
ATOM     27  C   UNL     1      22.778 -26.279  28.213  1.00  0.00    -0.000 C 
BRANCH  27  28
ATOM     28  C   UNL     1      22.247 -27.580  28.832  1.00  0.00    -0.000 C 
BRANCH  28  29
ATOM     29  C   UNL     1      20.721 -27.568  29.023  1.00  0.00    -0.003 C 
ATOM     30  C   UNL     1      20.105 -26.187  28.788  1.00  0.00     0.004 C 
ENDBRANCH  28  29
ENDBRANCH  27  28
ENDBRANCH  26  27
ENDBRANCH  25  26
ENDBRANCH  24  25
ENDBRANCH  23  24
ENDBRANCH  22  23
ENDBRANCH  21  22
ENDBRANCH  20  21
ENDBRANCH  19  20
ENDBRANCH  18  19
ENDBRANCH  17  18
ENDBRANCH   1  17
TORSDOF 26
ENDMDL
MODEL 4
REMARK VINA RESULT:    -4.870      2.857      8.598
REMARK INTER + INTRA:         -15.808
REMARK INTER:                 -12.735
REMARK INTRA:                  -3.073
REMARK UNBOUND:                -3.537
REMARK SMILES CCCCCCCCCCCCCCCCCCCCCCCCCCCC(=O)[O-]
REMARK SMILES IDX 15 1 16 2 17 3 18 4 19 5 20 6 21 7 22 8 23 9 24 10 25 11
REMARK SMILES IDX 26 12 27 13 28 14 29 15 30 16 14 17 13 18 12 19 11 20 10 21
REMARK SMILES IDX 9 22 8 23 7 24 6 25 5 26 4 27 3 28 2 29 1 30
REMARK H PARENT
REMARK Flexibility Score: inf
ROOT
ATOM      1  C   UNL     1      16.756 -27.760  23.011  1.00  0.00     0.000 C 
ENDROOT
BRANCH   1   2
ATOM      2  C   UNL     1      16.264 -26.472  22.317  1.00  0.00     0.000 C 
BRANCH   2   3
ATOM      3  C   UNL     1      15.275 -26.712  21.161  1.00  0.00     0.000 C 
BRANCH   3   4
ATOM      4  C   UNL     1      15.239 -25.536  20.171  1.00  0.00     0.000 C 
BRANCH   4   5
ATOM      5  C   UNL     1      15.015 -24.190  20.882  1.00  0.00     0.000 C 
BRANCH   5   6
ATOM      6  C   UNL     1      14.378 -23.116  19.967  1.00  0.00     0.000 C 
BRANCH   6   7
ATOM      7  C   UNL     1      12.874 -22.922  20.223  1.00  0.00     0.000 C 
BRANCH   7   8
ATOM      8  C   UNL     1      12.360 -23.786  21.387  1.00  0.00     0.000 C 
BRANCH   8   9
ATOM      9  C   UNL     1      11.334 -24.837  20.928  1.00  0.00     0.000 C 
BRANCH   9  10
ATOM     10  C   UNL     1      10.196 -25.021  21.949  1.00  0.00     0.000 C 
BRANCH  10  11
ATOM     11  C   UNL     1      10.234 -23.970  23.069  1.00  0.00     0.000 C 
BRANCH  11  12
ATOM     12  C   UNL     1       9.216 -24.265  24.185  1.00  0.00     0.006 C 
BRANCH  12  13
ATOM     13  C   UNL     1       9.682 -23.735  25.548  1.00  0.00     0.053 C 
BRANCH  13  14
ATOM     14  C   UNL     1      10.111 -24.837  26.470  1.00  0.00     0.041 C 
ATOM     15  O   UNL     1       9.341 -25.811  26.696  1.00  0.00    -0.550 OA
ATOM     16  O   UNL     1      11.366 -24.795  27.069  1.00  0.00    -0.550 OA
ENDBRANCH  13  14
ENDBRANCH  12  13
ENDBRANCH  11  12
ENDBRANCH  10  11
ENDBRANCH   9  10
ENDBRANCH   8   9
ENDBRANCH   7   8
ENDBRANCH   6   7
ENDBRANCH   5   6
ENDBRANCH   4   5
ENDBRANCH   3   4
ENDBRANCH   2   3
ENDBRANCH   1   2
BRANCH   1  17
ATOM     17  C   UNL     1      15.929 -28.207  24.237  1.00  0.00     0.000 C 
BRANCH  17  18
ATOM     18  C   UNL     1      15.326 -29.622  24.143  1.00  0.00     0.000 C 
BRANCH  18  19
ATOM     19  C   UNL     1      15.679 -30.333  22.824  1.00  0.00     0.000 C 
BRANCH  19  20
ATOM     20  C   UNL     1      16.665 -31.493  23.017  1.00  0.00     0.000 C 
BRANCH  20  21
ATOM     21  C   UNL     1      16.730 -31.994  24.472  1.00  0.00     0.000 C 
BRANCH  21  22
ATOM     22  C   UNL     1      17.997 -31.509  25.198  1.00  0.00    -0.000 C 
BRANCH  22  23
ATOM     23  C   UNL     1      19.067 -30.993  24.218  1.00  0.00    -0.000 C 
BRANCH  23  24
ATOM     24  C   UNL     1      19.625 -29.614  24.614  1.00  0.00    -0.000 C 
BRANCH  24  25
ATOM     25  C   UNL     1      18.951 -28.961  25.837  1.00  0.00    -0.000 C 
BRANCH  25  26
ATOM     26  C   UNL     1      19.324 -27.487  26.077  1.00  0.00    -0.000 C 
BRANCH  26  27
ATOM     27  C   UNL     1      19.794 -26.773  24.799  1.00  0.00    -0.000 C 
BRANCH  27  28
ATOM     28  C   UNL     1      21.234 -26.265  24.957  1.00  0.00    -0.000 C 
BRANCH  28  29
ATOM     29  C   UNL     1      21.737 -26.345  26.408  1.00  0.00    -0.003 C 
ATOM     30  C   UNL     1      23.258 -26.213  26.515  1.00  0.00     0.004 C 
ENDBRANCH  28  29
ENDBRANCH  27  28
ENDBRANCH  26  27
ENDBRANCH  25  26
ENDBRANCH  24  25
ENDBRANCH  23  24
ENDBRANCH  22  23
ENDBRANCH  21  22
ENDBRANCH  20  21
ENDBRANCH  19  20
ENDBRANCH  18  19
ENDBRANCH  17  18
ENDBRANCH   1  17
TORSDOF 26
ENDMDL
MODEL 5
REMARK VINA RESULT:    -4.845      2.676      8.292
REMARK INTER + INTRA:         -15.747
REMARK INTER:                 -13.257
REMARK INTRA:                  -2.491
REMARK UNBOUND:                -3.537
REMARK SMILES CCCCCCCCCCCCCCCCCCCCCCCCCCCC(=O)[O-]
REMARK SMILES IDX 15 1 16 2 17 3 18 4 19 5 20 6 21 7 22 8 23 9 24 10 25 11
REMARK SMILES IDX 26 12 27 13 28 14 29 15 30 16 14 17 13 18 12 19 11 20 10 21
REMARK SMILES IDX 9 22 8 23 7 24 6 25 5 26 4 27 3 28 2 29 1 30
REMARK H PARENT
REMARK Flexibility Score: inf
ROOT
ATOM      1  C   UNL     1      14.732 -25.011  19.762  1.00  0.00     0.000 C 
ENDROOT
BRANCH   1   2
ATOM      2  C   UNL     1      14.539 -23.594  20.342  1.00  0.00     0.000 C 
BRANCH   2   3
ATOM      3  C   UNL     1      13.123 -23.019  20.152  1.00  0.00     0.000 C 
BRANCH   3   4
ATOM      4  C   UNL     1      12.138 -23.530  21.216  1.00  0.00     0.000 C 
BRANCH   4   5
ATOM      5  C   UNL     1      11.324 -24.736  20.715  1.00  0.00     0.000 C 
BRANCH   5   6
ATOM      6  C   UNL     1      10.497 -25.419  21.833  1.00  0.00     0.000 C 
BRANCH   6   7
ATOM      7  C   UNL     1       9.069 -24.860  21.953  1.00  0.00     0.000 C 
BRANCH   7   8
ATOM      8  C   UNL     1       8.821 -24.170  23.305  1.00  0.00     0.000 C 
BRANCH   8   9
ATOM      9  C   UNL     1       9.612 -24.824  24.451  1.00  0.00     0.000 C 
BRANCH   9  10
ATOM     10  C   UNL     1       9.754 -23.887  25.665  1.00  0.00     0.000 C 
BRANCH  10  11
ATOM     11  C   UNL     1       9.667 -22.404  25.277  1.00  0.00     0.000 C 
BRANCH  11  12
ATOM     12  C   UNL     1      11.008 -21.671  25.456  1.00  0.00     0.006 C 
BRANCH  12  13
ATOM     13  C   UNL     1      11.877 -21.735  24.192  1.00  0.00     0.053 C 
BRANCH  13  14
ATOM     14  C   UNL     1      13.256 -22.249  24.476  1.00  0.00     0.041 C 
ATOM     15  O   UNL     1      13.465 -22.987  25.478  1.00  0.00    -0.550 OA
ATOM     16  O   UNL     1      14.310 -21.923  23.627  1.00  0.00    -0.550 OA
ENDBRANCH  13  14
ENDBRANCH  12  13
ENDBRANCH  11  12
ENDBRANCH  10  11
ENDBRANCH   9  10
ENDBRANCH   8   9
ENDBRANCH   7   8
ENDBRANCH   6   7
ENDBRANCH   5   6
ENDBRANCH   4   5
ENDBRANCH   3   4
ENDBRANCH   2   3
ENDBRANCH   1   2
BRANCH   1  17
ATOM     17  C   UNL     1      15.022 -26.116  20.802  1.00  0.00     0.000 C 
BRANCH  17  18
ATOM     18  C   UNL     1      15.769 -25.650  22.067  1.00  0.00     0.000 C 
BRANCH  18  19
ATOM     19  C   UNL     1      16.736 -26.716  22.613  1.00  0.00     0.000 C 
BRANCH  19  20
ATOM     20  C   UNL     1      16.045 -28.057  22.900  1.00  0.00     0.000 C 
BRANCH  20  21
ATOM     21  C   UNL     1      16.901 -29.002  23.765  1.00  0.00     0.000 C 
BRANCH  21  22
ATOM     22  C   UNL     1      17.628 -28.254  24.897  1.00  0.00    -0.000 C 
BRANCH  22  23
ATOM     23  C   UNL     1      19.154 -28.225  24.689  1.00  0.00    -0.000 C 
BRANCH  23  24
ATOM     24  C   UNL     1      19.895 -27.471  25.807  1.00  0.00    -0.000 C 
BRANCH  24  25
ATOM     25  C   UNL     1      19.066 -27.208  27.080  1.00  0.00    -0.000 C 
BRANCH  25  26
ATOM     26  C   UNL     1      19.848 -26.576  28.247  1.00  0.00    -0.000 C 
BRANCH  26  27
ATOM     27  C   UNL     1      21.272 -27.137  28.386  1.00  0.00    -0.000 C 
BRANCH  27  28
ATOM     28  C   UNL     1      22.175 -26.150  29.139  1.00  0.00    -0.000 C 
BRANCH  28  29
ATOM     29  C   UNL     1      23.350 -25.648  28.284  1.00  0.00    -0.003 C 
ATOM     30  C   UNL     1      23.299 -26.166  26.845  1.00  0.00     0.004 C 
ENDBRANCH  28  29
ENDBRANCH  27  28
ENDBRANCH  26  27
ENDBRANCH  25  26
ENDBRANCH  24  25
ENDBRANCH  23  24
ENDBRANCH  22  23
ENDBRANCH  21  22
ENDBRANCH  20  21
ENDBRANCH  19  20
ENDBRANCH  18  19
ENDBRANCH  17  18
ENDBRANCH   1  17
TORSDOF 26
ENDMDL
MODEL 6
REMARK VINA RESULT:    -4.836      2.566      5.188
REMARK INTER + INTRA:         -15.723
REMARK INTER:                 -13.291
REMARK INTRA:                  -2.432
REMARK UNBOUND:                -3.537
REMARK SMILES CCCCCCCCCCCCCCCCCCCCCCCCCCCC(=O)[O-]
REMARK SMILES IDX 15 1 16 2 17 3 18 4 19 5 20 6 21 7 22 8 23 9 24 10 25 11
REMARK SMILES IDX 26 12 27 13 28 14 29 15 30 16 14 17 13 18 12 19 11 20 10 21
REMARK SMILES IDX 9 22 8 23 7 24 6 25 5 26 4 27 3 28 2 29 1 30
REMARK H PARENT
REMARK Flexibility Score: inf
ROOT
ATOM      1  C   UNL     1      15.704 -25.814  21.811  1.00  0.00     0.000 C 
ENDROOT
BRANCH   1   2
ATOM      2  C   UNL     1      16.150 -27.204  22.310  1.00  0.00     0.000 C 
BRANCH   2   3
ATOM      3  C   UNL     1      17.218 -27.168  23.418  1.00  0.00     0.000 C 
BRANCH   3   4
ATOM      4  C   UNL     1      18.432 -26.306  23.031  1.00  0.00     0.000 C 
BRANCH   4   5
ATOM      5  C   UNL     1      19.409 -26.126  24.205  1.00  0.00     0.000 C 
BRANCH   5   6
ATOM      6  C   UNL     1      20.559 -27.163  24.204  1.00  0.00     0.000 C 
BRANCH   6   7
ATOM      7  C   UNL     1      21.279 -27.266  25.559  1.00  0.00     0.000 C 
BRANCH   7   8
ATOM      8  C   UNL     1      22.704 -26.689  25.512  1.00  0.00     0.000 C 
BRANCH   8   9
ATOM      9  C   UNL     1      22.973 -25.698  26.658  1.00  0.00     0.000 C 
BRANCH   9  10
ATOM     10  C   UNL     1      23.384 -26.414  27.959  1.00  0.00     0.000 C 
BRANCH  10  11
ATOM     11  C   UNL     1      22.592 -25.919  29.178  1.00  0.00     0.000 C 
BRANCH  11  12
ATOM     12  C   UNL     1      22.054 -27.078  30.037  1.00  0.00     0.006 C 
BRANCH  12  13
ATOM     13  C   UNL     1      21.725 -28.318  29.195  1.00  0.00     0.053 C 
BRANCH  13  14
ATOM     14  C   UNL     1      20.253 -28.463  28.949  1.00  0.00     0.041 C 
ATOM     15  O   UNL     1      19.714 -29.604  28.972  1.00  0.00    -0.550 OA
ATOM     16  O   UNL     1      19.473 -27.337  28.706  1.00  0.00    -0.550 OA
ENDBRANCH  13  14
ENDBRANCH  12  13
ENDBRANCH  11  12
ENDBRANCH  10  11
ENDBRANCH   9  10
ENDBRANCH   8   9
ENDBRANCH   7   8
ENDBRANCH   6   7
ENDBRANCH   5   6
ENDBRANCH   4   5
ENDBRANCH   3   4
ENDBRANCH   2   3
ENDBRANCH   1   2
BRANCH   1  17
ATOM     17  C   UNL     1      14.928 -25.809  20.476  1.00  0.00     0.000 C 
BRANCH  17  18
ATOM     18  C   UNL     1      15.122 -24.551  19.606  1.00  0.00     0.000 C 
BRANCH  18  19
ATOM     19  C   UNL     1      14.714 -23.257  20.333  1.00  0.00     0.000 C 
BRANCH  19  20
ATOM     20  C   UNL     1      13.197 -23.019  20.320  1.00  0.00     0.000 C 
BRANCH  20  21
ATOM     21  C   UNL     1      12.614 -22.775  21.725  1.00  0.00     0.000 C 
BRANCH  21  22
ATOM     22  C   UNL     1      13.680 -22.280  22.718  1.00  0.00    -0.000 C 
BRANCH  22  23
ATOM     23  C   UNL     1      13.067 -21.852  24.065  1.00  0.00    -0.000 C 
BRANCH  23  24
ATOM     24  C   UNL     1      13.327 -22.870  25.190  1.00  0.00    -0.000 C 
BRANCH  24  25
ATOM     25  C   UNL     1      12.107 -23.719  25.601  1.00  0.00    -0.000 C 
BRANCH  25  26
ATOM     26  C   UNL     1      10.907 -22.917  26.135  1.00  0.00    -0.000 C 
BRANCH  26  27
ATOM     27  C   UNL     1       9.701 -22.940  25.183  1.00  0.00    -0.000 C 
BRANCH  27  28
ATOM     28  C   UNL     1       9.550 -24.320  24.527  1.00  0.00    -0.000 C 
BRANCH  28  29
ATOM     29  C   UNL     1       9.166 -24.233  23.040  1.00  0.00    -0.003 C 
ATOM     30  C   UNL     1       9.743 -25.383  22.212  1.00  0.00     0.004 C 
ENDBRANCH  28  29
ENDBRANCH  27  28
ENDBRANCH  26  27
ENDBRANCH  25  26
ENDBRANCH  24  25
ENDBRANCH  23  24
ENDBRANCH  22  23
ENDBRANCH  21  22
ENDBRANCH  20  21
ENDBRANCH  19  20
ENDBRANCH  18  19
ENDBRANCH  17  18
ENDBRANCH   1  17
TORSDOF 26
ENDMDL
MODEL 7
REMARK VINA RESULT:    -4.794      1.150      2.946
REMARK INTER + INTRA:         -15.616
REMARK INTER:                 -12.389
REMARK INTRA:                  -3.227
REMARK UNBOUND:                -3.537
REMARK SMILES CCCCCCCCCCCCCCCCCCCCCCCCCCCC(=O)[O-]
REMARK SMILES IDX 15 1 16 2 17 3 18 4 19 5 20 6 21 7 22 8 23 9 24 10 25 11
REMARK SMILES IDX 26 12 27 13 28 14 29 15 30 16 14 17 13 18 12 19 11 20 10 21
REMARK SMILES IDX 9 22 8 23 7 24 6 25 5 26 4 27 3 28 2 29 1 30
REMARK H PARENT
REMARK Flexibility Score: inf
ROOT
ATOM      1  C   UNL     1      16.086 -26.524  21.877  1.00  0.00     0.000 C 
ENDROOT
BRANCH   1   2
ATOM      2  C   UNL     1      17.188 -26.679  22.946  1.00  0.00     0.000 C 
BRANCH   2   3
ATOM      3  C   UNL     1      17.280 -28.087  23.564  1.00  0.00     0.000 C 
BRANCH   3   4
ATOM      4  C   UNL     1      16.076 -28.407  24.466  1.00  0.00     0.000 C 
BRANCH   4   5
ATOM      5  C   UNL     1      15.401 -29.733  24.076  1.00  0.00     0.000 C 
BRANCH   5   6
ATOM      6  C   UNL     1      15.864 -30.271  22.699  1.00  0.00     0.000 C 
BRANCH   6   7
ATOM      7  C   UNL     1      15.934 -31.806  22.644  1.00  0.00     0.000 C 
BRANCH   7   8
ATOM      8  C   UNL     1      17.078 -32.372  23.503  1.00  0.00     0.000 C 
BRANCH   8   9
ATOM      9  C   UNL     1      18.399 -31.610  23.297  1.00  0.00     0.000 C 
BRANCH   9  10
ATOM     10  C   UNL     1      19.124 -31.337  24.627  1.00  0.00     0.000 C 
BRANCH  10  11
ATOM     11  C   UNL     1      20.050 -30.113  24.552  1.00  0.00     0.000 C 
BRANCH  11  12
ATOM     12  C   UNL     1      20.361 -29.527  25.941  1.00  0.00     0.006 C 
BRANCH  12  13
ATOM     13  C   UNL     1      19.390 -28.402  26.325  1.00  0.00     0.053 C 
BRANCH  13  14
ATOM     14  C   UNL     1      20.066 -27.065  26.383  1.00  0.00     0.041 C 
ATOM     15  O   UNL     1      21.095 -26.842  25.686  1.00  0.00    -0.550 OA
ATOM     16  O   UNL     1      19.552 -26.058  27.195  1.00  0.00    -0.550 OA
ENDBRANCH  13  14
ENDBRANCH  12  13
ENDBRANCH  11  12
ENDBRANCH  10  11
ENDBRANCH   9  10
ENDBRANCH   8   9
ENDBRANCH   7   8
ENDBRANCH   6   7
ENDBRANCH   5   6
ENDBRANCH   4   5
ENDBRANCH   3   4
ENDBRANCH   2   3
ENDBRANCH   1   2
BRANCH   1  17
ATOM     17  C   UNL     1      15.464 -25.115  21.769  1.00  0.00     0.000 C 
BRANCH  17  18
ATOM     18  C   UNL     1      14.831 -24.777  20.404  1.00  0.00     0.000 C 
BRANCH  18  19
ATOM     19  C   UNL     1      14.436 -23.294  20.283  1.00  0.00     0.000 C 
BRANCH  19  20
ATOM     20  C   UNL     1      12.915 -23.080  20.294  1.00  0.00     0.000 C 
BRANCH  20  21
ATOM     21  C   UNL     1      12.129 -24.353  20.662  1.00  0.00     0.000 C 
BRANCH  21  22
ATOM     22  C   UNL     1      11.254 -24.154  21.912  1.00  0.00    -0.000 C 
BRANCH  22  23
ATOM     23  C   UNL     1      10.039 -25.101  21.929  1.00  0.00    -0.000 C 
BRANCH  23  24
ATOM     24  C   UNL     1       9.196 -24.969  23.210  1.00  0.00    -0.000 C 
BRANCH  24  25
ATOM     25  C   UNL     1       9.515 -23.737  24.079  1.00  0.00    -0.000 C 
BRANCH  25  26
ATOM     26  C   UNL     1      10.159 -24.050  25.442  1.00  0.00    -0.000 C 
BRANCH  26  27
ATOM     27  C   UNL     1      11.553 -23.423  25.603  1.00  0.00    -0.000 C 
BRANCH  27  28
ATOM     28  C   UNL     1      11.591 -22.015  24.992  1.00  0.00    -0.000 C 
BRANCH  28  29
ATOM     29  C   UNL     1      12.797 -21.804  24.061  1.00  0.00    -0.003 C 
ATOM     30  C   UNL     1      14.024 -22.612  24.489  1.00  0.00     0.004 C 
ENDBRANCH  28  29
ENDBRANCH  27  28
ENDBRANCH  26  27
ENDBRANCH  25  26
ENDBRANCH  24  25
ENDBRANCH  23  24
ENDBRANCH  22  23
ENDBRANCH  21  22
ENDBRANCH  20  21
ENDBRANCH  19  20
ENDBRANCH  18  19
ENDBRANCH  17  18
ENDBRANCH   1  17
TORSDOF 26
ENDMDL
MODEL 8
REMARK VINA RESULT:    -4.764      3.939      9.503
REMARK INTER + INTRA:         -15.542
REMARK INTER:                 -12.815
REMARK INTRA:                  -2.727
REMARK UNBOUND:                -3.537
REMARK SMILES CCCCCCCCCCCCCCCCCCCCCCCCCCCC(=O)[O-]
REMARK SMILES IDX 15 1 16 2 17 3 18 4 19 5 20 6 21 7 22 8 23 9 24 10 25 11
REMARK SMILES IDX 26 12 27 13 28 14 29 15 30 16 14 17 13 18 12 19 11 20 10 21
REMARK SMILES IDX 9 22 8 23 7 24 6 25 5 26 4 27 3 28 2 29 1 30
REMARK H PARENT
REMARK Flexibility Score: inf
ROOT
ATOM      1  C   UNL     1      15.735 -24.957  21.985  1.00  0.00     0.000 C 
ENDROOT
BRANCH   1   2
ATOM      2  C   UNL     1      15.083 -24.579  20.638  1.00  0.00     0.000 C 
BRANCH   2   3
ATOM      3  C   UNL     1      13.972 -25.541  20.179  1.00  0.00     0.000 C 
BRANCH   3   4
ATOM      4  C   UNL     1      12.578 -25.084  20.638  1.00  0.00     0.000 C 
BRANCH   4   5
ATOM      5  C   UNL     1      12.519 -23.565  20.875  1.00  0.00     0.000 C 
BRANCH   5   6
ATOM      6  C   UNL     1      12.145 -23.189  22.330  1.00  0.00     0.000 C 
BRANCH   6   7
ATOM      7  C   UNL     1      13.186 -22.281  23.005  1.00  0.00     0.000 C 
BRANCH   7   8
ATOM      8  C   UNL     1      12.881 -22.043  24.493  1.00  0.00     0.000 C 
BRANCH   8   9
ATOM      9  C   UNL     1      12.246 -23.273  25.165  1.00  0.00     0.000 C 
BRANCH   9  10
ATOM     10  C   UNL     1      11.179 -22.880  26.204  1.00  0.00     0.000 C 
BRANCH  10  11
ATOM     11  C   UNL     1      10.088 -23.951  26.362  1.00  0.00     0.000 C 
BRANCH  11  12
ATOM     12  C   UNL     1       9.670 -24.564  25.013  1.00  0.00     0.006 C 
BRANCH  12  13
ATOM     13  C   UNL     1       8.995 -23.537  24.094  1.00  0.00     0.053 C 
BRANCH  13  14
ATOM     14  C   UNL     1       8.327 -24.180  22.917  1.00  0.00     0.041 C 
ATOM     15  O   UNL     1       7.137 -23.881  22.620  1.00  0.00    -0.550 OA
ATOM     16  O   UNL     1       9.022 -25.102  22.138  1.00  0.00    -0.550 OA
ENDBRANCH  13  14
ENDBRANCH  12  13
ENDBRANCH  11  12
ENDBRANCH  10  11
ENDBRANCH   9  10
ENDBRANCH   8   9
ENDBRANCH   7   8
ENDBRANCH   6   7
ENDBRANCH   5   6
ENDBRANCH   4   5
ENDBRANCH   3   4
ENDBRANCH   2   3
ENDBRANCH   1   2
BRANCH   1  17
ATOM     17  C   UNL     1      16.134 -26.442  22.132  1.00  0.00     0.000 C 
BRANCH  17  18
ATOM     18  C   UNL     1      17.435 -26.700  22.916  1.00  0.00     0.000 C 
BRANCH  18  19
ATOM     19  C   UNL     1      17.380 -27.992  23.752  1.00  0.00     0.000 C 
BRANCH  19  20
ATOM     20  C   UNL     1      18.721 -28.328  24.421  1.00  0.00     0.000 C 
BRANCH  20  21
ATOM     21  C   UNL     1      18.867 -27.707  25.822  1.00  0.00     0.000 C 
BRANCH  21  22
ATOM     22  C   UNL     1      19.889 -26.556  25.843  1.00  0.00    -0.000 C 
BRANCH  22  23
ATOM     23  C   UNL     1      21.297 -27.020  25.424  1.00  0.00    -0.000 C 
BRANCH  23  24
ATOM     24  C   UNL     1      22.382 -25.965  25.703  1.00  0.00    -0.000 C 
BRANCH  24  25
ATOM     25  C   UNL     1      23.684 -26.512  26.322  1.00  0.00    -0.000 C 
BRANCH  25  26
ATOM     26  C   UNL     1      23.581 -26.915  27.804  1.00  0.00    -0.000 C 
BRANCH  26  27
ATOM     27  C   UNL     1      22.851 -25.867  28.659  1.00  0.00    -0.000 C 
BRANCH  27  28
ATOM     28  C   UNL     1      21.819 -26.536  29.579  1.00  0.00    -0.000 C 
BRANCH  28  29
ATOM     29  C   UNL     1      21.697 -28.050  29.333  1.00  0.00    -0.003 C 
ATOM     30  C   UNL     1      20.248 -28.507  29.156  1.00  0.00     0.004 C 
ENDBRANCH  28  29
ENDBRANCH  27  28
ENDBRANCH  26  27
ENDBRANCH  25  26
ENDBRANCH  24  25
ENDBRANCH  23  24
ENDBRANCH  22  23
ENDBRANCH  21  22
ENDBRANCH  20  21
ENDBRANCH  19  20
ENDBRANCH  18  19
ENDBRANCH  17  18
ENDBRANCH   1  17
TORSDOF 26
ENDMDL
MODEL 9
REMARK VINA RESULT:    -4.686      3.273      9.017
REMARK INTER + INTRA:         -15.346
REMARK INTER:                 -12.392
REMARK INTRA:                  -2.954
REMARK UNBOUND:                -3.537
REMARK SMILES CCCCCCCCCCCCCCCCCCCCCCCCCCCC(=O)[O-]
REMARK SMILES IDX 15 1 16 2 17 3 18 4 19 5 20 6 21 7 22 8 23 9 24 10 25 11
REMARK SMILES IDX 26 12 27 13 28 14 29 15 30 16 14 17 13 18 12 19 11 20 10 21
REMARK SMILES IDX 9 22 8 23 7 24 6 25 5 26 4 27 3 28 2 29 1 30
REMARK H PARENT
REMARK Flexibility Score: inf
ROOT
ATOM      1  C   UNL     1      15.566 -29.445  23.000  1.00  0.00     0.000 C 
ENDROOT
BRANCH   1   2
ATOM      2  C   UNL     1      15.909 -28.056  23.579  1.00  0.00     0.000 C 
BRANCH   2   3
ATOM      3  C   UNL     1      16.619 -27.113  22.590  1.00  0.00     0.000 C 
BRANCH   3   4
ATOM      4  C   UNL     1      15.722 -25.942  22.155  1.00  0.00     0.000 C 
BRANCH   4   5
ATOM      5  C   UNL     1      15.309 -26.051  20.677  1.00  0.00     0.000 C 
BRANCH   5   6
ATOM      6  C   UNL     1      14.036 -25.236  20.340  1.00  0.00     0.000 C 
BRANCH   6   7
ATOM      7  C   UNL     1      14.335 -23.768  19.992  1.00  0.00     0.000 C 
BRANCH   7   8
ATOM      8  C   UNL     1      13.155 -22.836  20.318  1.00  0.00     0.000 C 
BRANCH   8   9
ATOM      9  C   UNL     1      12.922 -22.694  21.833  1.00  0.00     0.000 C 
BRANCH   9  10
ATOM     10  C   UNL     1      14.211 -22.310  22.584  1.00  0.00     0.000 C 
BRANCH  10  11
ATOM     11  C   UNL     1      13.926 -21.678  23.955  1.00  0.00     0.000 C 
BRANCH  11  12
ATOM     12  C   UNL     1      12.469 -21.884  24.404  1.00  0.00     0.006 C 
BRANCH  12  13
ATOM     13  C   UNL     1      12.344 -22.965  25.488  1.00  0.00     0.053 C 
BRANCH  13  14
ATOM     14  C   UNL     1      11.054 -23.723  25.388  1.00  0.00     0.041 C 
ATOM     15  O   UNL     1      10.449 -23.803  24.283  1.00  0.00    -0.550 OA
ATOM     16  O   UNL     1      10.526 -24.352  26.511  1.00  0.00    -0.550 OA
ENDBRANCH  13  14
ENDBRANCH  12  13
ENDBRANCH  11  12
ENDBRANCH  10  11
ENDBRANCH   9  10
ENDBRANCH   8   9
ENDBRANCH   7   8
ENDBRANCH   6   7
ENDBRANCH   5   6
ENDBRANCH   4   5
ENDBRANCH   3   4
ENDBRANCH   2   3
ENDBRANCH   1   2
BRANCH   1  17
ATOM     17  C   UNL     1      16.632 -30.539  23.233  1.00  0.00     0.000 C 
BRANCH  17  18
ATOM     18  C   UNL     1      17.382 -30.451  24.577  1.00  0.00     0.000 C 
BRANCH  18  19
ATOM     19  C   UNL     1      18.904 -30.306  24.400  1.00  0.00     0.000 C 
BRANCH  19  20
ATOM     20  C   UNL     1      19.504 -29.199  25.279  1.00  0.00     0.000 C 
BRANCH  20  21
ATOM     21  C   UNL     1      19.457 -27.810  24.615  1.00  0.00     0.000 C 
BRANCH  21  22
ATOM     22  C   UNL     1      19.568 -26.670  25.643  1.00  0.00    -0.000 C 
BRANCH  22  23
ATOM     23  C   UNL     1      19.099 -27.104  27.045  1.00  0.00    -0.000 C 
BRANCH  23  24
ATOM     24  C   UNL     1      19.755 -26.288  28.173  1.00  0.00    -0.000 C 
BRANCH  24  25
ATOM     25  C   UNL     1      20.782 -27.059  29.027  1.00  0.00    -0.000 C 
BRANCH  25  26
ATOM     26  C   UNL     1      22.094 -26.304  29.306  1.00  0.00    -0.000 C 
BRANCH  26  27
ATOM     27  C   UNL     1      23.182 -26.588  28.258  1.00  0.00    -0.000 C 
BRANCH  27  28
ATOM     28  C   UNL     1      23.090 -25.594  27.092  1.00  0.00    -0.000 C 
BRANCH  28  29
ATOM     29  C   UNL     1      23.100 -26.285  25.719  1.00  0.00    -0.003 C 
ATOM     30  C   UNL     1      23.444 -27.774  25.808  1.00  0.00     0.004 C 
ENDBRANCH  28  29
ENDBRANCH  27  28
ENDBRANCH  26  27
ENDBRANCH  25  26
ENDBRANCH  24  25
ENDBRANCH  23  24
ENDBRANCH  22  23
ENDBRANCH  21  22
ENDBRANCH  20  21
ENDBRANCH  19  20
ENDBRANCH  18  19
ENDBRANCH  17  18
ENDBRANCH   1  17
TORSDOF 26
ENDMDL
