MODEL 1
REMARK VINA RESULT:    -3.684      0.000      0.000
REMARK INTER + INTRA:          -9.923
REMARK INTER:                  -6.914
REMARK INTRA:                  -3.009
REMARK UNBOUND:                -3.009
REMARK SMILES CCCCCCCCC=CCCCCCCCC(=O)[O-]
REMARK SMILES IDX 10 1 9 2 11 3 12 4 13 5 14 6 15 7 16 8 17 9 18 10 19 11
REMARK SMILES IDX 20 12 8 13 7 14 6 15 5 16 4 17 3 18 2 19 1 20
REMARK H PARENT
REMARK Flexibility Score: inf
ROOT
ATOM      1  C   UNL     1     -14.578 -11.308  25.250  1.00  0.00    -0.031 C 
ATOM      2  C   UNL     1     -14.011 -12.446  25.694  1.00  0.00    -0.031 C 
ENDROOT
BRANCH   1   3
ATOM      3  C   UNL     1     -14.202  -9.924  25.718  1.00  0.00     0.027 C 
BRANCH   3   4
ATOM      4  C   UNL     1     -13.031  -9.343  24.910  1.00  0.00     0.004 C 
BRANCH   4   5
ATOM      5  C   UNL     1     -12.341  -8.181  25.645  1.00  0.00     0.000 C 
BRANCH   5   6
ATOM      6  C   UNL     1     -11.342  -8.673  26.705  1.00  0.00     0.000 C 
BRANCH   6   7
ATOM      7  C   UNL     1     -11.944  -8.751  28.127  1.00  0.00     0.000 C 
BRANCH   7   8
ATOM      8  C   UNL     1     -11.372  -9.907  28.970  1.00  0.00     0.006 C 
BRANCH   8   9
ATOM      9  C   UNL     1     -12.007 -10.029  30.364  1.00  0.00     0.053 C 
BRANCH   9  10
ATOM     10  C   UNL     1     -11.161  -9.386  31.421  1.00  0.00     0.041 C 
ATOM     11  O   UNL     1     -11.278  -8.156  31.664  1.00  0.00    -0.550 OA
ATOM     12  O   UNL     1     -10.228 -10.139  32.124  1.00  0.00    -0.550 OA
ENDBRANCH   9  10
ENDBRANCH   8   9
ENDBRANCH   7   8
ENDBRANCH   6   7
ENDBRANCH   5   6
ENDBRANCH   4   5
ENDBRANCH   3   4
ENDBRANCH   1   3
BRANCH   2  13
ATOM     13  C   UNL     1     -12.985 -12.519  26.797  1.00  0.00     0.027 C 
BRANCH  13  14
ATOM     14  C   UNL     1     -11.696 -13.216  26.335  1.00  0.00     0.004 C 
BRANCH  14  15
ATOM     15  C   UNL     1     -10.485 -12.271  26.368  1.00  0.00     0.000 C 
BRANCH  15  16
ATOM     16  C   UNL     1     -10.130 -11.703  24.983  1.00  0.00     0.000 C 
BRANCH  16  17
ATOM     17  C   UNL     1     -10.580 -12.603  23.812  1.00  0.00    -0.000 C 
BRANCH  17  18
ATOM     18  C   UNL     1     -11.595 -11.896  22.896  1.00  0.00    -0.000 C 
BRANCH  18  19
ATOM     19  C   UNL     1     -12.584 -12.875  22.246  1.00  0.00    -0.003 C 
ATOM     20  C   UNL     1     -12.442 -14.298  22.787  1.00  0.00     0.004 C 
ENDBRANCH  18  19
ENDBRANCH  17  18
ENDBRANCH  16  17
ENDBRANCH  15  16
ENDBRANCH  14  15
ENDBRANCH  13  14
ENDBRANCH   2  13
TORSDOF 15
ENDMDL
MODEL 2
REMARK VINA RESULT:    -3.635      3.111      4.514
REMARK INTER + INTRA:          -9.832
REMARK INTER:                  -6.543
REMARK INTRA:                  -3.289
REMARK UNBOUND:                -3.009
REMARK SMILES CCCCCCCCC=CCCCCCCCC(=O)[O-]
REMARK SMILES IDX 10 1 9 2 11 3 12 4 13 5 14 6 15 7 16 8 17 9 18 10 19 11
REMARK SMILES IDX 20 12 8 13 7 14 6 15 5 16 4 17 3 18 2 19 1 20
REMARK H PARENT
REMARK Flexibility Score: inf
ROOT
ATOM      1  C   UNL     1     -14.232 -12.249  26.490  1.00  0.00    -0.031 C 
ATOM      2  C   UNL     1     -13.568 -11.919  25.366  1.00  0.00    -0.031 C 
ENDROOT
BRANCH   1   3
ATOM      3  C   UNL     1     -13.576 -12.689  27.776  1.00  0.00     0.027 C 
BRANCH   3   4
ATOM      4  C   UNL     1     -13.118 -11.492  28.624  1.00  0.00     0.004 C 
BRANCH   4   5
ATOM      5  C   UNL     1     -11.611 -11.543  28.928  1.00  0.00     0.000 C 
BRANCH   5   6
ATOM      6  C   UNL     1     -10.837 -10.411  28.233  1.00  0.00     0.000 C 
BRANCH   6   7
ATOM      7  C   UNL     1     -11.696  -9.152  27.970  1.00  0.00     0.000 C 
BRANCH   7   8
ATOM      8  C   UNL     1     -11.539  -8.593  26.543  1.00  0.00     0.006 C 
BRANCH   8   9
ATOM      9  C   UNL     1     -12.871  -8.213  25.878  1.00  0.00     0.053 C 
BRANCH   9  10
ATOM     10  C   UNL     1     -12.710  -7.961  24.409  1.00  0.00     0.041 C 
ATOM     11  O   UNL     1     -12.464  -6.799  23.990  1.00  0.00    -0.550 OA
ATOM     12  O   UNL     1     -12.852  -9.002  23.501  1.00  0.00    -0.550 OA
ENDBRANCH   9  10
ENDBRANCH   8   9
ENDBRANCH   7   8
ENDBRANCH   6   7
ENDBRANCH   5   6
ENDBRANCH   4   5
ENDBRANCH   3   4
ENDBRANCH   1   3
BRANCH   2  13
ATOM     13  C   UNL     1     -12.074 -12.032  25.189  1.00  0.00     0.027 C 
BRANCH  13  14
ATOM     14  C   UNL     1     -11.700 -13.097  24.147  1.00  0.00     0.004 C 
BRANCH  14  15
ATOM     15  C   UNL     1     -10.749 -14.160  24.722  1.00  0.00     0.000 C 
BRANCH  15  16
ATOM     16  C   UNL     1     -10.351 -13.880  26.181  1.00  0.00     0.000 C 
BRANCH  16  17
ATOM     17  C   UNL     1     -10.774 -14.995  27.161  1.00  0.00    -0.000 C 
BRANCH  17  18
ATOM     18  C   UNL     1     -11.581 -16.104  26.463  1.00  0.00    -0.000 C 
BRANCH  18  19
ATOM     19  C   UNL     1     -13.052 -16.130  26.905  1.00  0.00    -0.003 C 
ATOM     20  C   UNL     1     -14.021 -16.073  25.724  1.00  0.00     0.004 C 
ENDBRANCH  18  19
ENDBRANCH  17  18
ENDBRANCH  16  17
ENDBRANCH  15  16
ENDBRANCH  14  15
ENDBRANCH  13  14
ENDBRANCH   2  13
TORSDOF 15
ENDMDL
MODEL 3
REMARK VINA RESULT:    -3.613      2.722      4.742
REMARK INTER + INTRA:          -9.791
REMARK INTER:                  -6.774
REMARK INTRA:                  -3.017
REMARK UNBOUND:                -3.009
REMARK SMILES CCCCCCCCC=CCCCCCCCC(=O)[O-]
REMARK SMILES IDX 10 1 9 2 11 3 12 4 13 5 14 6 15 7 16 8 17 9 18 10 19 11
REMARK SMILES IDX 20 12 8 13 7 14 6 15 5 16 4 17 3 18 2 19 1 20
REMARK H PARENT
REMARK Flexibility Score: inf
ROOT
ATOM      1  C   UNL     1      -9.276 -15.690  25.666  1.00  0.00    -0.031 C 
ATOM      2  C   UNL     1     -10.331 -16.382  25.198  1.00  0.00    -0.031 C 
ENDROOT
BRANCH   1   3
ATOM      3  C   UNL     1      -8.763 -15.762  27.083  1.00  0.00     0.027 C 
BRANCH   3   4
ATOM      4  C   UNL     1      -8.703 -14.376  27.743  1.00  0.00     0.004 C 
BRANCH   4   5
ATOM      5  C   UNL     1      -9.724 -13.401  27.131  1.00  0.00     0.000 C 
BRANCH   5   6
ATOM      6  C   UNL     1     -10.594 -12.721  28.202  1.00  0.00     0.000 C 
BRANCH   6   7
ATOM      7  C   UNL     1     -11.425 -11.536  27.657  1.00  0.00     0.000 C 
BRANCH   7   8
ATOM      8  C   UNL     1     -10.587 -10.515  26.863  1.00  0.00     0.006 C 
BRANCH   8   9
ATOM      9  C   UNL     1     -11.419  -9.385  26.239  1.00  0.00     0.053 C 
BRANCH   9  10
ATOM     10  C   UNL     1     -12.113  -8.561  27.282  1.00  0.00     0.041 C 
ATOM     11  O   UNL     1     -13.334  -8.283  27.157  1.00  0.00    -0.550 OA
ATOM     12  O   UNL     1     -11.408  -8.083  28.379  1.00  0.00    -0.550 OA
ENDBRANCH   9  10
ENDBRANCH   8   9
ENDBRANCH   7   8
ENDBRANCH   6   7
ENDBRANCH   5   6
ENDBRANCH   4   5
ENDBRANCH   3   4
ENDBRANCH   1   3
BRANCH   2  13
ATOM     13  C   UNL     1     -11.222 -17.262  26.040  1.00  0.00     0.027 C 
BRANCH  13  14
ATOM     14  C   UNL     1     -12.678 -16.772  26.036  1.00  0.00     0.004 C 
BRANCH  14  15
ATOM     15  C   UNL     1     -12.860 -15.492  26.868  1.00  0.00     0.000 C 
BRANCH  15  16
ATOM     16  C   UNL     1     -13.296 -14.284  26.021  1.00  0.00     0.000 C 
BRANCH  16  17
ATOM     17  C   UNL     1     -13.602 -14.639  24.551  1.00  0.00    -0.000 C 
BRANCH  17  18
ATOM     18  C   UNL     1     -12.582 -14.016  23.581  1.00  0.00    -0.000 C 
BRANCH  18  19
ATOM     19  C   UNL     1     -11.807 -12.849  24.211  1.00  0.00    -0.003 C 
ATOM     20  C   UNL     1     -10.471 -12.587  23.514  1.00  0.00     0.004 C 
ENDBRANCH  18  19
ENDBRANCH  17  18
ENDBRANCH  16  17
ENDBRANCH  15  16
ENDBRANCH  14  15
ENDBRANCH  13  14
ENDBRANCH   2  13
TORSDOF 15
ENDMDL
MODEL 4
REMARK VINA RESULT:    -3.555      3.398      5.486
REMARK INTER + INTRA:          -9.681
REMARK INTER:                  -6.364
REMARK INTRA:                  -3.317
REMARK UNBOUND:                -3.009
REMARK SMILES CCCCCCCCC=CCCCCCCCC(=O)[O-]
REMARK SMILES IDX 10 1 9 2 11 3 12 4 13 5 14 6 15 7 16 8 17 9 18 10 19 11
REMARK SMILES IDX 20 12 8 13 7 14 6 15 5 16 4 17 3 18 2 19 1 20
REMARK H PARENT
REMARK Flexibility Score: inf
ROOT
ATOM      1  C   UNL     1     -11.251  -8.574  27.202  1.00  0.00    -0.031 C 
ATOM      2  C   UNL     1     -12.102  -8.287  26.199  1.00  0.00    -0.031 C 
ENDROOT
BRANCH   1   3
ATOM      3  C   UNL     1     -11.671  -8.935  28.606  1.00  0.00     0.027 C 
BRANCH   3   4
ATOM      4  C   UNL     1     -11.753 -10.457  28.806  1.00  0.00     0.004 C 
BRANCH   4   5
ATOM      5  C   UNL     1     -13.060 -10.878  29.501  1.00  0.00     0.000 C 
BRANCH   5   6
ATOM      6  C   UNL     1     -13.399 -12.357  29.254  1.00  0.00     0.000 C 
BRANCH   6   7
ATOM      7  C   UNL     1     -12.245 -13.152  28.599  1.00  0.00     0.000 C 
BRANCH   7   8
ATOM      8  C   UNL     1     -12.726 -14.369  27.786  1.00  0.00     0.006 C 
BRANCH   8   9
ATOM      9  C   UNL     1     -11.604 -15.079  27.014  1.00  0.00     0.053 C 
BRANCH   9  10
ATOM     10  C   UNL     1     -12.145 -16.042  26.002  1.00  0.00     0.041 C 
ATOM     11  O   UNL     1     -13.195 -15.766  25.364  1.00  0.00    -0.550 OA
ATOM     12  O   UNL     1     -11.505 -17.255  25.777  1.00  0.00    -0.550 OA
ENDBRANCH   9  10
ENDBRANCH   8   9
ENDBRANCH   7   8
ENDBRANCH   6   7
ENDBRANCH   5   6
ENDBRANCH   4   5
ENDBRANCH   3   4
ENDBRANCH   1   3
BRANCH   2  13
ATOM     13  C   UNL     1     -13.600  -8.187  26.347  1.00  0.00     0.027 C 
BRANCH  13  14
ATOM     14  C   UNL     1     -14.331  -9.240  25.501  1.00  0.00     0.004 C 
BRANCH  14  15
ATOM     15  C   UNL     1     -14.851 -10.408  26.355  1.00  0.00     0.000 C 
BRANCH  15  16
ATOM     16  C   UNL     1     -14.433 -11.783  25.807  1.00  0.00     0.000 C 
BRANCH  16  17
ATOM     17  C   UNL     1     -13.642 -11.707  24.484  1.00  0.00    -0.000 C 
BRANCH  17  18
ATOM     18  C   UNL     1     -12.285 -12.428  24.578  1.00  0.00    -0.000 C 
BRANCH  18  19
ATOM     19  C   UNL     1     -11.106 -11.451  24.708  1.00  0.00    -0.003 C 
ATOM     20  C   UNL     1     -10.133 -11.850  25.818  1.00  0.00     0.004 C 
ENDBRANCH  18  19
ENDBRANCH  17  18
ENDBRANCH  16  17
ENDBRANCH  15  16
ENDBRANCH  14  15
ENDBRANCH  13  14
ENDBRANCH   2  13
TORSDOF 15
ENDMDL
MODEL 5
REMARK VINA RESULT:    -3.546      3.641      5.805
REMARK INTER + INTRA:          -9.665
REMARK INTER:                  -6.754
REMARK INTRA:                  -2.911
REMARK UNBOUND:                -3.009
REMARK SMILES CCCCCCCCC=CCCCCCCCC(=O)[O-]
REMARK SMILES IDX 10 1 9 2 11 3 12 4 13 5 14 6 15 7 16 8 17 9 18 10 19 11
REMARK SMILES IDX 20 12 8 13 7 14 6 15 5 16 4 17 3 18 2 19 1 20
REMARK H PARENT
REMARK Flexibility Score: inf
ROOT
ATOM      1  C   UNL     1     -11.259  -8.747  26.907  1.00  0.00    -0.031 C 
ATOM      2  C   UNL     1     -12.060  -8.486  25.857  1.00  0.00    -0.031 C 
ENDROOT
BRANCH   1   3
ATOM      3  C   UNL     1     -11.703  -8.734  28.349  1.00  0.00     0.027 C 
BRANCH   3   4
ATOM      4  C   UNL     1     -11.893 -10.155  28.903  1.00  0.00     0.004 C 
BRANCH   4   5
ATOM      5  C   UNL     1     -13.380 -10.516  29.069  1.00  0.00     0.000 C 
BRANCH   5   6
ATOM      6  C   UNL     1     -13.745 -11.825  28.351  1.00  0.00     0.000 C 
BRANCH   6   7
ATOM      7  C   UNL     1     -13.786 -11.691  26.811  1.00  0.00     0.000 C 
BRANCH   7   8
ATOM      8  C   UNL     1     -12.695 -12.511  26.096  1.00  0.00     0.006 C 
BRANCH   8   9
ATOM      9  C   UNL     1     -13.078 -13.980  25.864  1.00  0.00     0.053 C 
BRANCH   9  10
ATOM     10  C   UNL     1     -13.428 -14.247  24.431  1.00  0.00     0.041 C 
ATOM     11  O   UNL     1     -12.538 -14.615  23.621  1.00  0.00    -0.550 OA
ATOM     12  O   UNL     1     -14.731 -14.068  23.985  1.00  0.00    -0.550 OA
ENDBRANCH   9  10
ENDBRANCH   8   9
ENDBRANCH   7   8
ENDBRANCH   6   7
ENDBRANCH   5   6
ENDBRANCH   4   5
ENDBRANCH   3   4
ENDBRANCH   1   3
BRANCH   2  13
ATOM     13  C   UNL     1     -13.499  -8.044  25.965  1.00  0.00     0.027 C 
BRANCH  13  14
ATOM     14  C   UNL     1     -13.897  -7.103  24.819  1.00  0.00     0.004 C 
BRANCH  14  15
ATOM     15  C   UNL     1     -12.769  -6.938  23.788  1.00  0.00     0.000 C 
BRANCH  15  16
ATOM     16  C   UNL     1     -13.264  -7.046  22.335  1.00  0.00     0.000 C 
BRANCH  16  17
ATOM     17  C   UNL     1     -13.828  -8.438  21.977  1.00  0.00    -0.000 C 
BRANCH  17  18
ATOM     18  C   UNL     1     -12.826  -9.565  22.286  1.00  0.00    -0.000 C 
BRANCH  18  19
ATOM     19  C   UNL     1     -13.490 -10.771  22.969  1.00  0.00    -0.003 C 
ATOM     20  C   UNL     1     -14.910 -10.467  23.448  1.00  0.00     0.004 C 
ENDBRANCH  18  19
ENDBRANCH  17  18
ENDBRANCH  16  17
ENDBRANCH  15  16
ENDBRANCH  14  15
ENDBRANCH  13  14
ENDBRANCH   2  13
TORSDOF 15
ENDMDL
MODEL 6
REMARK VINA RESULT:    -3.541      2.252      4.131
REMARK INTER + INTRA:          -9.656
REMARK INTER:                  -6.893
REMARK INTRA:                  -2.763
REMARK UNBOUND:                -3.009
REMARK SMILES CCCCCCCCC=CCCCCCCCC(=O)[O-]
REMARK SMILES IDX 10 1 9 2 11 3 12 4 13 5 14 6 15 7 16 8 17 9 18 10 19 11
REMARK SMILES IDX 20 12 8 13 7 14 6 15 5 16 4 17 3 18 2 19 1 20
REMARK H PARENT
REMARK Flexibility Score: inf
ROOT
ATOM      1  C   UNL     1     -11.717 -16.247  26.698  1.00  0.00    -0.031 C 
ATOM      2  C   UNL     1     -11.448 -16.460  25.395  1.00  0.00    -0.031 C 
ENDROOT
BRANCH   1   3
ATOM      3  C   UNL     1     -10.996 -15.248  27.569  1.00  0.00     0.027 C 
BRANCH   3   4
ATOM      4  C   UNL     1     -11.882 -14.039  27.907  1.00  0.00     0.004 C 
BRANCH   4   5
ATOM      5  C   UNL     1     -11.552 -12.818  27.031  1.00  0.00     0.000 C 
BRANCH   5   6
ATOM      6  C   UNL     1     -12.526 -11.652  27.267  1.00  0.00     0.000 C 
BRANCH   6   7
ATOM      7  C   UNL     1     -13.582 -11.944  28.358  1.00  0.00     0.000 C 
BRANCH   7   8
ATOM      8  C   UNL     1     -13.555 -10.935  29.521  1.00  0.00     0.006 C 
BRANCH   8   9
ATOM      9  C   UNL     1     -12.213 -10.886  30.267  1.00  0.00     0.053 C 
BRANCH   9  10
ATOM     10  C   UNL     1     -11.647  -9.499  30.308  1.00  0.00     0.041 C 
ATOM     11  O   UNL     1     -11.241  -9.014  31.397  1.00  0.00    -0.550 OA
ATOM     12  O   UNL     1     -11.586  -8.733  29.151  1.00  0.00    -0.550 OA
ENDBRANCH   9  10
ENDBRANCH   8   9
ENDBRANCH   7   8
ENDBRANCH   6   7
ENDBRANCH   5   6
ENDBRANCH   4   5
ENDBRANCH   3   4
ENDBRANCH   1   3
BRANCH   2  13
ATOM     13  C   UNL     1     -10.324 -15.804  24.633  1.00  0.00     0.027 C 
BRANCH  13  14
ATOM     14  C   UNL     1     -10.811 -14.594  23.823  1.00  0.00     0.004 C 
BRANCH  14  15
ATOM     15  C   UNL     1     -12.335 -14.606  23.625  1.00  0.00     0.000 C 
BRANCH  15  16
ATOM     16  C   UNL     1     -12.951 -13.196  23.633  1.00  0.00     0.000 C 
BRANCH  16  17
ATOM     17  C   UNL     1     -14.374 -13.148  24.229  1.00  0.00    -0.000 C 
BRANCH  17  18
ATOM     18  C   UNL     1     -14.585 -14.219  25.314  1.00  0.00    -0.000 C 
BRANCH  18  19
ATOM     19  C   UNL     1     -15.774 -15.142  25.008  1.00  0.00    -0.003 C 
ATOM     20  C   UNL     1     -15.541 -16.577  25.480  1.00  0.00     0.004 C 
ENDBRANCH  18  19
ENDBRANCH  17  18
ENDBRANCH  16  17
ENDBRANCH  15  16
ENDBRANCH  14  15
ENDBRANCH  13  14
ENDBRANCH   2  13
TORSDOF 15
ENDMDL
MODEL 7
REMARK VINA RESULT:    -3.534      3.504      6.190
REMARK INTER + INTRA:          -9.642
REMARK INTER:                  -6.713
REMARK INTRA:                  -2.929
REMARK UNBOUND:                -3.009
REMARK SMILES CCCCCCCCC=CCCCCCCCC(=O)[O-]
REMARK SMILES IDX 10 1 9 2 11 3 12 4 13 5 14 6 15 7 16 8 17 9 18 10 19 11
REMARK SMILES IDX 20 12 8 13 7 14 6 15 5 16 4 17 3 18 2 19 1 20
REMARK H PARENT
REMARK Flexibility Score: inf
ROOT
ATOM      1  C   UNL     1     -10.976 -11.557  24.536  1.00  0.00    -0.031 C 
ATOM      2  C   UNL     1     -10.138 -12.018  25.485  1.00  0.00    -0.031 C 
ENDROOT
BRANCH   1   3
ATOM      3  C   UNL     1     -12.421 -11.968  24.396  1.00  0.00     0.027 C 
BRANCH   3   4
ATOM      4  C   UNL     1     -12.617 -13.003  23.277  1.00  0.00     0.004 C 
BRANCH   4   5
ATOM      5  C   UNL     1     -12.713 -14.437  23.827  1.00  0.00     0.000 C 
BRANCH   5   6
ATOM      6  C   UNL     1     -13.606 -14.524  25.075  1.00  0.00     0.000 C 
BRANCH   6   7
ATOM      7  C   UNL     1     -13.643 -15.934  25.709  1.00  0.00     0.000 C 
BRANCH   7   8
ATOM      8  C   UNL     1     -12.491 -16.190  26.699  1.00  0.00     0.006 C 
BRANCH   8   9
ATOM      9  C   UNL     1     -11.560 -17.338  26.281  1.00  0.00     0.053 C 
BRANCH   9  10
ATOM     10  C   UNL     1     -10.218 -16.838  25.840  1.00  0.00     0.041 C 
ATOM     11  O   UNL     1     -10.035 -16.489  24.644  1.00  0.00    -0.550 OA
ATOM     12  O   UNL     1      -9.163 -16.778  26.742  1.00  0.00    -0.550 OA
ENDBRANCH   9  10
ENDBRANCH   8   9
ENDBRANCH   7   8
ENDBRANCH   6   7
ENDBRANCH   5   6
ENDBRANCH   4   5
ENDBRANCH   3   4
ENDBRANCH   1   3
BRANCH   2  13
ATOM     13  C   UNL     1     -10.486 -13.086  26.491  1.00  0.00     0.027 C 
BRANCH  13  14
ATOM     14  C   UNL     1     -10.847 -12.489  27.859  1.00  0.00     0.004 C 
BRANCH  14  15
ATOM     15  C   UNL     1     -12.348 -12.178  27.977  1.00  0.00     0.000 C 
BRANCH  15  16
ATOM     16  C   UNL     1     -12.640 -10.675  28.123  1.00  0.00     0.000 C 
BRANCH  16  17
ATOM     17  C   UNL     1     -11.368  -9.805  28.216  1.00  0.00    -0.000 C 
BRANCH  17  18
ATOM     18  C   UNL     1     -11.312  -8.740  27.107  1.00  0.00    -0.000 C 
BRANCH  18  19
ATOM     19  C   UNL     1     -12.613  -8.669  26.293  1.00  0.00    -0.003 C 
ATOM     20  C   UNL     1     -12.448  -7.889  24.988  1.00  0.00     0.004 C 
ENDBRANCH  18  19
ENDBRANCH  17  18
ENDBRANCH  16  17
ENDBRANCH  15  16
ENDBRANCH  14  15
ENDBRANCH  13  14
ENDBRANCH   2  13
TORSDOF 15
ENDMDL
MODEL 8
REMARK VINA RESULT:    -3.525      3.388      5.822
REMARK INTER + INTRA:          -9.624
REMARK INTER:                  -6.412
REMARK INTRA:                  -3.212
REMARK UNBOUND:                -3.009
REMARK SMILES CCCCCCCCC=CCCCCCCCC(=O)[O-]
REMARK SMILES IDX 10 1 9 2 11 3 12 4 13 5 14 6 15 7 16 8 17 9 18 10 19 11
REMARK SMILES IDX 20 12 8 13 7 14 6 15 5 16 4 17 3 18 2 19 1 20
REMARK H PARENT
REMARK Flexibility Score: inf
ROOT
ATOM      1  C   UNL     1     -14.239 -12.004  26.979  1.00  0.00    -0.031 C 
ATOM      2  C   UNL     1     -13.253 -11.914  27.893  1.00  0.00    -0.031 C 
ENDROOT
BRANCH   1   3
ATOM      3  C   UNL     1     -14.076 -12.585  25.596  1.00  0.00     0.027 C 
BRANCH   3   4
ATOM      4  C   UNL     1     -13.937 -11.490  24.528  1.00  0.00     0.004 C 
BRANCH   4   5
ATOM      5  C   UNL     1     -12.874 -11.844  23.473  1.00  0.00     0.000 C 
BRANCH   5   6
ATOM      6  C   UNL     1     -11.456 -11.457  23.922  1.00  0.00     0.000 C 
BRANCH   6   7
ATOM      7  C   UNL     1     -10.481 -12.656  23.985  1.00  0.00     0.000 C 
BRANCH   7   8
ATOM      8  C   UNL     1     -11.140 -13.999  23.618  1.00  0.00     0.006 C 
BRANCH   8   9
ATOM      9  C   UNL     1     -11.289 -14.960  24.807  1.00  0.00     0.053 C 
BRANCH   9  10
ATOM     10  C   UNL     1     -10.188 -15.976  24.844  1.00  0.00     0.041 C 
ATOM     11  O   UNL     1      -9.372 -16.060  23.889  1.00  0.00    -0.550 OA
ATOM     12  O   UNL     1     -10.075 -16.846  25.922  1.00  0.00    -0.550 OA
ENDBRANCH   9  10
ENDBRANCH   8   9
ENDBRANCH   7   8
ENDBRANCH   6   7
ENDBRANCH   5   6
ENDBRANCH   4   5
ENDBRANCH   3   4
ENDBRANCH   1   3
BRANCH   2  13
ATOM     13  C   UNL     1     -11.814 -12.290  27.641  1.00  0.00     0.027 C 
BRANCH  13  14
ATOM     14  C   UNL     1     -10.920 -11.051  27.475  1.00  0.00     0.004 C 
BRANCH  14  15
ATOM     15  C   UNL     1     -11.222  -9.975  28.530  1.00  0.00     0.000 C 
BRANCH  15  16
ATOM     16  C   UNL     1     -11.570  -8.610  27.910  1.00  0.00     0.000 C 
BRANCH  16  17
ATOM     17  C   UNL     1     -11.545  -8.608  26.367  1.00  0.00    -0.000 C 
BRANCH  17  18
ATOM     18  C   UNL     1     -12.906  -8.212  25.767  1.00  0.00    -0.000 C 
BRANCH  18  19
ATOM     19  C   UNL     1     -14.050  -8.307  26.788  1.00  0.00    -0.003 C 
ATOM     20  C   UNL     1     -15.424  -8.092  26.152  1.00  0.00     0.004 C 
ENDBRANCH  18  19
ENDBRANCH  17  18
ENDBRANCH  16  17
ENDBRANCH  15  16
ENDBRANCH  14  15
ENDBRANCH  13  14
ENDBRANCH   2  13
TORSDOF 15
ENDMDL
MODEL 9
REMARK VINA RESULT:    -3.511      3.482      6.140
REMARK INTER + INTRA:          -9.599
REMARK INTER:                  -6.431
REMARK INTRA:                  -3.168
REMARK UNBOUND:                -3.009
REMARK SMILES CCCCCCCCC=CCCCCCCCC(=O)[O-]
REMARK SMILES IDX 10 1 9 2 11 3 12 4 13 5 14 6 15 7 16 8 17 9 18 10 19 11
REMARK SMILES IDX 20 12 8 13 7 14 6 15 5 16 4 17 3 18 2 19 1 20
REMARK H PARENT
REMARK Flexibility Score: inf
ROOT
ATOM      1  C   UNL     1     -10.440 -11.330  25.774  1.00  0.00    -0.031 C 
ATOM      2  C   UNL     1     -10.609 -10.511  26.830  1.00  0.00    -0.031 C 
ENDROOT
BRANCH   1   3
ATOM      3  C   UNL     1     -10.932 -12.755  25.707  1.00  0.00     0.027 C 
BRANCH   3   4
ATOM      4  C   UNL     1     -11.419 -13.127  24.298  1.00  0.00     0.004 C 
BRANCH   4   5
ATOM      5  C   UNL     1     -12.555 -14.165  24.335  1.00  0.00     0.000 C 
BRANCH   5   6
ATOM      6  C   UNL     1     -13.000 -14.490  25.770  1.00  0.00     0.000 C 
BRANCH   6   7
ATOM      7  C   UNL     1     -13.434 -15.963  25.959  1.00  0.00     0.000 C 
BRANCH   7   8
ATOM      8  C   UNL     1     -12.248 -16.942  26.057  1.00  0.00     0.006 C 
BRANCH   8   9
ATOM      9  C   UNL     1     -11.045 -16.380  26.829  1.00  0.00     0.053 C 
BRANCH   9  10
ATOM     10  C   UNL     1      -9.776 -16.486  26.039  1.00  0.00     0.041 C 
ATOM     11  O   UNL     1      -9.794 -16.330  24.789  1.00  0.00    -0.550 OA
ATOM     12  O   UNL     1      -8.577 -16.777  26.677  1.00  0.00    -0.550 OA
ENDBRANCH   9  10
ENDBRANCH   8   9
ENDBRANCH   7   8
ENDBRANCH   6   7
ENDBRANCH   5   6
ENDBRANCH   4   5
ENDBRANCH   3   4
ENDBRANCH   1   3
BRANCH   2  13
ATOM     13  C   UNL     1     -11.229 -10.921  28.143  1.00  0.00     0.027 C 
BRANCH  13  14
ATOM     14  C   UNL     1     -12.643 -10.344  28.314  1.00  0.00     0.004 C 
BRANCH  14  15
ATOM     15  C   UNL     1     -13.722 -11.285  27.756  1.00  0.00     0.000 C 
BRANCH  15  16
ATOM     16  C   UNL     1     -14.633 -10.604  26.719  1.00  0.00     0.000 C 
BRANCH  16  17
ATOM     17  C   UNL     1     -14.344 -11.035  25.266  1.00  0.00    -0.000 C 
BRANCH  17  18
ATOM     18  C   UNL     1     -13.611  -9.938  24.472  1.00  0.00    -0.000 C 
BRANCH  18  19
ATOM     19  C   UNL     1     -13.700  -8.562  25.150  1.00  0.00    -0.003 C 
ATOM     20  C   UNL     1     -12.377  -7.797  25.100  1.00  0.00     0.004 C 
ENDBRANCH  18  19
ENDBRANCH  17  18
ENDBRANCH  16  17
ENDBRANCH  15  16
ENDBRANCH  14  15
ENDBRANCH  13  14
ENDBRANCH   2  13
TORSDOF 15
ENDMDL
