MODEL 1
REMARK VINA RESULT:    -3.727      0.000      0.000
REMARK INTER + INTRA:          -7.855
REMARK INTER:                  -6.777
REMARK INTRA:                  -1.078
REMARK UNBOUND:                -1.078
REMARK SMILES CCCCCCCCCCCCCCCC(=O)[O-]
REMARK SMILES IDX 9 1 10 2 11 3 12 4 13 5 14 6 15 7 16 8 17 9 18 10 8 11 7 12
REMARK SMILES IDX 6 13 5 14 4 15 3 16 2 17 1 18
REMARK H PARENT
REMARK Flexibility Score: inf
ROOT
ATOM      1  C   UNL     1      -4.510  35.997  21.909  1.00  0.00     0.000 C 
ENDROOT
BRANCH   1   2
ATOM      2  C   UNL     1      -5.319  35.341  23.038  1.00  0.00     0.000 C 
BRANCH   2   3
ATOM      3  C   UNL     1      -6.109  36.366  23.872  1.00  0.00     0.000 C 
BRANCH   3   4
ATOM      4  C   UNL     1      -5.384  36.762  25.169  1.00  0.00     0.000 C 
BRANCH   4   5
ATOM      5  C   UNL     1      -5.079  38.268  25.236  1.00  0.00     0.000 C 
BRANCH   5   6
ATOM      6  C   UNL     1      -5.469  39.013  23.946  1.00  0.00     0.006 C 
BRANCH   6   7
ATOM      7  C   UNL     1      -5.291  40.539  24.014  1.00  0.00     0.053 C 
BRANCH   7   8
ATOM      8  C   UNL     1      -5.776  41.216  22.770  1.00  0.00     0.041 C 
ATOM      9  O   UNL     1      -6.123  42.427  22.801  1.00  0.00    -0.550 OA
ATOM     10  O   UNL     1      -5.815  40.519  21.569  1.00  0.00    -0.550 OA
ENDBRANCH   7   8
ENDBRANCH   6   7
ENDBRANCH   5   6
ENDBRANCH   4   5
ENDBRANCH   3   4
ENDBRANCH   2   3
ENDBRANCH   1   2
BRANCH   1  11
ATOM     11  C   UNL     1      -5.387  36.825  20.958  1.00  0.00     0.000 C 
BRANCH  11  12
ATOM     12  C   UNL     1      -4.527  37.715  20.052  1.00  0.00    -0.000 C 
BRANCH  12  13
ATOM     13  C   UNL     1      -3.127  37.118  19.861  1.00  0.00    -0.000 C 
BRANCH  13  14
ATOM     14  C   UNL     1      -2.322  37.920  18.832  1.00  0.00    -0.000 C 
BRANCH  14  15
ATOM     15  C   UNL     1      -3.002  37.888  17.455  1.00  0.00    -0.000 C 
BRANCH  15  16
ATOM     16  C   UNL     1      -2.028  37.529  16.322  1.00  0.00    -0.000 C 
BRANCH  16  17
ATOM     17  C   UNL     1      -2.712  36.784  15.167  1.00  0.00    -0.003 C 
ATOM     18  C   UNL     1      -3.500  37.747  14.283  1.00  0.00     0.004 C 
ENDBRANCH  16  17
ENDBRANCH  15  16
ENDBRANCH  14  15
ENDBRANCH  13  14
ENDBRANCH  12  13
ENDBRANCH  11  12
ENDBRANCH   1  11
TORSDOF 14
ENDMDL
MODEL 2
REMARK VINA RESULT:    -3.227      3.384      7.701
REMARK INTER + INTRA:          -6.946
REMARK INTER:                  -6.015
REMARK INTRA:                  -0.931
REMARK UNBOUND:                -1.078
REMARK SMILES CCCCCCCCCCCCCCCC(=O)[O-]
REMARK SMILES IDX 9 1 10 2 11 3 12 4 13 5 14 6 15 7 16 8 17 9 18 10 8 11 7 12
REMARK SMILES IDX 6 13 5 14 4 15 3 16 2 17 1 18
REMARK H PARENT
REMARK Flexibility Score: inf
ROOT
ATOM      1  C   UNL     1      -4.802  37.866  20.412  1.00  0.00     0.000 C 
ENDROOT
BRANCH   1   2
ATOM      2  C   UNL     1      -3.899  38.279  19.239  1.00  0.00     0.000 C 
BRANCH   2   3
ATOM      3  C   UNL     1      -2.585  37.478  19.195  1.00  0.00     0.000 C 
BRANCH   3   4
ATOM      4  C   UNL     1      -1.440  38.253  18.521  1.00  0.00     0.000 C 
BRANCH   4   5
ATOM      5  C   UNL     1      -1.127  37.731  17.109  1.00  0.00     0.000 C 
BRANCH   5   6
ATOM      6  C   UNL     1      -2.051  36.574  16.683  1.00  0.00     0.006 C 
BRANCH   6   7
ATOM      7  C   UNL     1      -3.356  37.021  16.004  1.00  0.00     0.053 C 
BRANCH   7   8
ATOM      8  C   UNL     1      -3.127  37.484  14.599  1.00  0.00     0.041 C 
ATOM      9  O   UNL     1      -3.918  38.306  14.064  1.00  0.00    -0.550 OA
ATOM     10  O   UNL     1      -2.022  37.030  13.889  1.00  0.00    -0.550 OA
ENDBRANCH   7   8
ENDBRANCH   6   7
ENDBRANCH   5   6
ENDBRANCH   4   5
ENDBRANCH   3   4
ENDBRANCH   2   3
ENDBRANCH   1   2
BRANCH   1  11
ATOM     11  C   UNL     1      -5.833  36.799  20.016  1.00  0.00     0.000 C 
BRANCH  11  12
ATOM     12  C   UNL     1      -5.878  35.668  21.050  1.00  0.00    -0.000 C 
BRANCH  12  13
ATOM     13  C   UNL     1      -4.499  35.442  21.682  1.00  0.00    -0.000 C 
BRANCH  13  14
ATOM     14  C   UNL     1      -4.628  34.873  23.099  1.00  0.00    -0.000 C 
BRANCH  14  15
ATOM     15  C   UNL     1      -6.053  35.065  23.641  1.00  0.00    -0.000 C 
BRANCH  15  16
ATOM     16  C   UNL     1      -6.088  35.901  24.930  1.00  0.00    -0.000 C 
BRANCH  16  17
ATOM     17  C   UNL     1      -5.679  37.363  24.698  1.00  0.00    -0.003 C 
ATOM     18  C   UNL     1      -4.938  37.925  25.908  1.00  0.00     0.004 C 
ENDBRANCH  16  17
ENDBRANCH  15  16
ENDBRANCH  14  15
ENDBRANCH  13  14
ENDBRANCH  12  13
ENDBRANCH  11  12
ENDBRANCH   1  11
TORSDOF 14
ENDMDL
MODEL 3
REMARK VINA RESULT:    -3.203      2.760      6.627
REMARK INTER + INTRA:          -6.903
REMARK INTER:                  -5.552
REMARK INTRA:                  -1.351
REMARK UNBOUND:                -1.078
REMARK SMILES CCCCCCCCCCCCCCCC(=O)[O-]
REMARK SMILES IDX 9 1 10 2 11 3 12 4 13 5 14 6 15 7 16 8 17 9 18 10 8 11 7 12
REMARK SMILES IDX 6 13 5 14 4 15 3 16 2 17 1 18
REMARK H PARENT
REMARK Flexibility Score: inf
ROOT
ATOM      1  C   UNL     1      -5.502  34.977  23.708  1.00  0.00     0.000 C 
ENDROOT
BRANCH   1   2
ATOM      2  C   UNL     1      -4.871  35.238  22.332  1.00  0.00     0.000 C 
BRANCH   2   3
ATOM      3  C   UNL     1      -5.799  36.033  21.397  1.00  0.00     0.000 C 
BRANCH   3   4
ATOM      4  C   UNL     1      -5.189  37.373  20.953  1.00  0.00     0.000 C 
BRANCH   4   5
ATOM      5  C   UNL     1      -3.774  37.212  20.372  1.00  0.00     0.000 C 
BRANCH   5   6
ATOM      6  C   UNL     1      -3.782  36.701  18.919  1.00  0.00     0.006 C 
BRANCH   6   7
ATOM      7  C   UNL     1      -3.353  37.746  17.876  1.00  0.00     0.053 C 
BRANCH   7   8
ATOM      8  C   UNL     1      -1.947  37.526  17.409  1.00  0.00     0.041 C 
ATOM      9  O   UNL     1      -1.724  36.895  16.341  1.00  0.00    -0.550 OA
ATOM     10  O   UNL     1      -0.883  38.045  18.136  1.00  0.00    -0.550 OA
ENDBRANCH   7   8
ENDBRANCH   6   7
ENDBRANCH   5   6
ENDBRANCH   4   5
ENDBRANCH   3   4
ENDBRANCH   2   3
ENDBRANCH   1   2
BRANCH   1  11
ATOM     11  C   UNL     1      -6.081  36.249  24.344  1.00  0.00     0.000 C 
BRANCH  11  12
ATOM     12  C   UNL     1      -5.108  36.843  25.369  1.00  0.00    -0.000 C 
BRANCH  12  13
ATOM     13  C   UNL     1      -5.184  38.375  25.379  1.00  0.00    -0.000 C 
BRANCH  13  14
ATOM     14  C   UNL     1      -5.746  38.908  24.056  1.00  0.00    -0.000 C 
BRANCH  14  15
ATOM     15  C   UNL     1      -4.978  40.155  23.594  1.00  0.00    -0.000 C 
BRANCH  15  16
ATOM     16  C   UNL     1      -5.696  40.908  22.463  1.00  0.00    -0.000 C 
BRANCH  16  17
ATOM     17  C   UNL     1      -6.108  42.331  22.868  1.00  0.00    -0.003 C 
ATOM     18  C   UNL     1      -6.043  42.512  24.382  1.00  0.00     0.004 C 
ENDBRANCH  16  17
ENDBRANCH  15  16
ENDBRANCH  14  15
ENDBRANCH  13  14
ENDBRANCH  12  13
ENDBRANCH  11  12
ENDBRANCH   1  11
TORSDOF 14
ENDMDL
MODEL 4
REMARK VINA RESULT:    -3.182      3.309      7.232
REMARK INTER + INTRA:          -6.865
REMARK INTER:                  -5.906
REMARK INTRA:                  -0.958
REMARK UNBOUND:                -1.078
REMARK SMILES CCCCCCCCCCCCCCCC(=O)[O-]
REMARK SMILES IDX 9 1 10 2 11 3 12 4 13 5 14 6 15 7 16 8 17 9 18 10 8 11 7 12
REMARK SMILES IDX 6 13 5 14 4 15 3 16 2 17 1 18
REMARK H PARENT
REMARK Flexibility Score: inf
ROOT
ATOM      1  C   UNL     1      -5.281  36.001  20.446  1.00  0.00     0.000 C 
ENDROOT
BRANCH   1   2
ATOM      2  C   UNL     1      -4.542  36.382  19.154  1.00  0.00     0.000 C 
BRANCH   2   3
ATOM      3  C   UNL     1      -3.929  37.792  19.216  1.00  0.00     0.000 C 
BRANCH   3   4
ATOM      4  C   UNL     1      -2.428  37.774  19.547  1.00  0.00     0.000 C 
BRANCH   4   5
ATOM      5  C   UNL     1      -1.559  38.241  18.367  1.00  0.00     0.000 C 
BRANCH   5   6
ATOM      6  C   UNL     1      -1.842  37.455  17.073  1.00  0.00     0.006 C 
BRANCH   6   7
ATOM      7  C   UNL     1      -2.913  38.086  16.168  1.00  0.00     0.053 C 
BRANCH   7   8
ATOM      8  C   UNL     1      -2.880  37.520  14.782  1.00  0.00     0.041 C 
ATOM      9  O   UNL     1      -3.786  37.810  13.956  1.00  0.00    -0.550 OA
ATOM     10  O   UNL     1      -1.833  36.694  14.392  1.00  0.00    -0.550 OA
ENDBRANCH   7   8
ENDBRANCH   6   7
ENDBRANCH   5   6
ENDBRANCH   4   5
ENDBRANCH   3   4
ENDBRANCH   2   3
ENDBRANCH   1   2
BRANCH   1  11
ATOM     11  C   UNL     1      -4.324  35.587  21.573  1.00  0.00     0.000 C 
BRANCH  11  12
ATOM     12  C   UNL     1      -4.772  36.174  22.917  1.00  0.00    -0.000 C 
BRANCH  12  13
ATOM     13  C   UNL     1      -5.934  37.157  22.730  1.00  0.00    -0.000 C 
BRANCH  13  14
ATOM     14  C   UNL     1      -5.535  38.572  23.163  1.00  0.00    -0.000 C 
BRANCH  14  15
ATOM     15  C   UNL     1      -5.538  39.536  21.966  1.00  0.00    -0.000 C 
BRANCH  15  16
ATOM     16  C   UNL     1      -5.474  41.010  22.392  1.00  0.00    -0.000 C 
BRANCH  16  17
ATOM     17  C   UNL     1      -5.711  41.202  23.898  1.00  0.00    -0.003 C 
ATOM     18  C   UNL     1      -5.830  42.682  24.251  1.00  0.00     0.004 C 
ENDBRANCH  16  17
ENDBRANCH  15  16
ENDBRANCH  14  15
ENDBRANCH  13  14
ENDBRANCH  12  13
ENDBRANCH  11  12
ENDBRANCH   1  11
TORSDOF 14
ENDMDL
MODEL 5
REMARK VINA RESULT:    -3.074      2.084      3.130
REMARK INTER + INTRA:          -6.668
REMARK INTER:                  -5.851
REMARK INTRA:                  -0.816
REMARK UNBOUND:                -1.078
REMARK SMILES CCCCCCCCCCCCCCCC(=O)[O-]
REMARK SMILES IDX 9 1 10 2 11 3 12 4 13 5 14 6 15 7 16 8 17 9 18 10 8 11 7 12
REMARK SMILES IDX 6 13 5 14 4 15 3 16 2 17 1 18
REMARK H PARENT
REMARK Flexibility Score: inf
ROOT
ATOM      1  C   UNL     1      -3.523  35.965  20.940  1.00  0.00     0.000 C 
ENDROOT
BRANCH   1   2
ATOM      2  C   UNL     1      -4.685  36.040  19.938  1.00  0.00     0.000 C 
BRANCH   2   3
ATOM      3  C   UNL     1      -6.060  35.897  20.614  1.00  0.00     0.000 C 
BRANCH   3   4
ATOM      4  C   UNL     1      -6.052  36.364  22.079  1.00  0.00     0.000 C 
BRANCH   4   5
ATOM      5  C   UNL     1      -6.022  35.190  23.072  1.00  0.00     0.000 C 
BRANCH   5   6
ATOM      6  C   UNL     1      -5.488  35.596  24.459  1.00  0.00     0.006 C 
BRANCH   6   7
ATOM      7  C   UNL     1      -6.125  36.871  25.036  1.00  0.00     0.053 C 
BRANCH   7   8
ATOM      8  C   UNL     1      -5.093  37.870  25.460  1.00  0.00     0.041 C 
ATOM      9  O   UNL     1      -5.226  39.086  25.157  1.00  0.00    -0.550 OA
ATOM     10  O   UNL     1      -4.001  37.464  26.215  1.00  0.00    -0.550 OA
ENDBRANCH   7   8
ENDBRANCH   6   7
ENDBRANCH   5   6
ENDBRANCH   4   5
ENDBRANCH   3   4
ENDBRANCH   2   3
ENDBRANCH   1   2
BRANCH   1  11
ATOM     11  C   UNL     1      -2.348  36.875  20.553  1.00  0.00     0.000 C 
BRANCH  11  12
ATOM     12  C   UNL     1      -2.744  37.833  19.423  1.00  0.00    -0.000 C 
BRANCH  12  13
ATOM     13  C   UNL     1      -1.505  38.453  18.765  1.00  0.00    -0.000 C 
BRANCH  13  14
ATOM     14  C   UNL     1      -1.257  37.849  17.378  1.00  0.00    -0.000 C 
BRANCH  14  15
ATOM     15  C   UNL     1      -2.497  37.092  16.878  1.00  0.00    -0.000 C 
BRANCH  15  16
ATOM     16  C   UNL     1      -3.332  37.914  15.885  1.00  0.00    -0.000 C 
BRANCH  16  17
ATOM     17  C   UNL     1      -3.164  37.440  14.434  1.00  0.00    -0.003 C 
ATOM     18  C   UNL     1      -1.891  36.614  14.271  1.00  0.00     0.004 C 
ENDBRANCH  16  17
ENDBRANCH  15  16
ENDBRANCH  14  15
ENDBRANCH  13  14
ENDBRANCH  12  13
ENDBRANCH  11  12
ENDBRANCH   1  11
TORSDOF 14
ENDMDL
MODEL 6
REMARK VINA RESULT:    -2.776      2.427      4.014
REMARK INTER + INTRA:          -6.127
REMARK INTER:                  -5.361
REMARK INTRA:                  -0.766
REMARK UNBOUND:                -1.078
REMARK SMILES CCCCCCCCCCCCCCCC(=O)[O-]
REMARK SMILES IDX 9 1 10 2 11 3 12 4 13 5 14 6 15 7 16 8 17 9 18 10 8 11 7 12
REMARK SMILES IDX 6 13 5 14 4 15 3 16 2 17 1 18
REMARK H PARENT
REMARK Flexibility Score: inf
ROOT
ATOM      1  C   UNL     1      -2.804  37.702  20.056  1.00  0.00     0.000 C 
ENDROOT
BRANCH   1   2
ATOM      2  C   UNL     1      -4.016  38.567  20.431  1.00  0.00     0.000 C 
BRANCH   2   3
ATOM      3  C   UNL     1      -5.350  37.941  19.987  1.00  0.00     0.000 C 
BRANCH   3   4
ATOM      4  C   UNL     1      -5.324  36.404  20.017  1.00  0.00     0.000 C 
BRANCH   4   5
ATOM      5  C   UNL     1      -4.915  35.849  21.392  1.00  0.00     0.000 C 
BRANCH   5   6
ATOM      6  C   UNL     1      -6.030  35.990  22.447  1.00  0.00     0.006 C 
BRANCH   6   7
ATOM      7  C   UNL     1      -5.822  37.146  23.439  1.00  0.00     0.053 C 
BRANCH   7   8
ATOM      8  C   UNL     1      -5.793  36.668  24.858  1.00  0.00     0.041 C 
ATOM      9  O   UNL     1      -6.125  35.484  25.135  1.00  0.00    -0.550 OA
ATOM     10  O   UNL     1      -5.370  37.519  25.870  1.00  0.00    -0.550 OA
ENDBRANCH   7   8
ENDBRANCH   6   7
ENDBRANCH   5   6
ENDBRANCH   4   5
ENDBRANCH   3   4
ENDBRANCH   2   3
ENDBRANCH   1   2
BRANCH   1  11
ATOM     11  C   UNL     1      -1.841  38.417  19.097  1.00  0.00     0.000 C 
BRANCH  11  12
ATOM     12  C   UNL     1      -1.846  37.753  17.716  1.00  0.00    -0.000 C 
BRANCH  12  13
ATOM     13  C   UNL     1      -3.050  36.817  17.558  1.00  0.00    -0.000 C 
BRANCH  13  14
ATOM     14  C   UNL     1      -3.109  36.228  16.144  1.00  0.00    -0.000 C 
BRANCH  14  15
ATOM     15  C   UNL     1      -1.936  36.731  15.289  1.00  0.00    -0.000 C 
BRANCH  15  16
ATOM     16  C   UNL     1      -2.398  37.431  14.002  1.00  0.00    -0.000 C 
BRANCH  16  17
ATOM     17  C   UNL     1      -3.914  37.677  13.973  1.00  0.00    -0.003 C 
ATOM     18  C   UNL     1      -4.232  39.159  14.143  1.00  0.00     0.004 C 
ENDBRANCH  16  17
ENDBRANCH  15  16
ENDBRANCH  14  15
ENDBRANCH  13  14
ENDBRANCH  12  13
ENDBRANCH  11  12
ENDBRANCH   1  11
TORSDOF 14
ENDMDL
MODEL 7
REMARK VINA RESULT:    -2.735      1.831      2.771
REMARK INTER + INTRA:          -6.052
REMARK INTER:                  -5.282
REMARK INTRA:                  -0.770
REMARK UNBOUND:                -1.078
REMARK SMILES CCCCCCCCCCCCCCCC(=O)[O-]
REMARK SMILES IDX 9 1 10 2 11 3 12 4 13 5 14 6 15 7 16 8 17 9 18 10 8 11 7 12
REMARK SMILES IDX 6 13 5 14 4 15 3 16 2 17 1 18
REMARK H PARENT
REMARK Flexibility Score: inf
ROOT
ATOM      1  C   UNL     1      -2.307  36.373  21.292  1.00  0.00     0.000 C 
ENDROOT
BRANCH   1   2
ATOM      2  C   UNL     1      -3.628  35.591  21.363  1.00  0.00     0.000 C 
BRANCH   2   3
ATOM      3  C   UNL     1      -4.859  36.514  21.417  1.00  0.00     0.000 C 
BRANCH   3   4
ATOM      4  C   UNL     1      -5.353  36.927  20.021  1.00  0.00     0.000 C 
BRANCH   4   5
ATOM      5  C   UNL     1      -5.629  38.436  19.917  1.00  0.00     0.000 C 
BRANCH   5   6
ATOM      6  C   UNL     1      -5.113  39.221  21.138  1.00  0.00     0.006 C 
BRANCH   6   7
ATOM      7  C   UNL     1      -5.809  40.574  21.364  1.00  0.00     0.053 C 
BRANCH   7   8
ATOM      8  C   UNL     1      -5.731  41.011  22.794  1.00  0.00     0.041 C 
ATOM      9  O   UNL     1      -6.036  42.192  23.114  1.00  0.00    -0.550 OA
ATOM     10  O   UNL     1      -5.352  40.108  23.778  1.00  0.00    -0.550 OA
ENDBRANCH   7   8
ENDBRANCH   6   7
ENDBRANCH   5   6
ENDBRANCH   4   5
ENDBRANCH   3   4
ENDBRANCH   2   3
ENDBRANCH   1   2
BRANCH   1  11
ATOM     11  C   UNL     1      -2.259  37.347  20.105  1.00  0.00     0.000 C 
BRANCH  11  12
ATOM     12  C   UNL     1      -0.835  37.863  19.875  1.00  0.00    -0.000 C 
BRANCH  12  13
ATOM     13  C   UNL     1      -0.606  38.211  18.398  1.00  0.00    -0.000 C 
BRANCH  13  14
ATOM     14  C   UNL     1      -1.891  38.026  17.583  1.00  0.00    -0.000 C 
BRANCH  14  15
ATOM     15  C   UNL     1      -1.650  37.101  16.380  1.00  0.00    -0.000 C 
BRANCH  15  16
ATOM     16  C   UNL     1      -2.952  36.712  15.662  1.00  0.00    -0.000 C 
BRANCH  16  17
ATOM     17  C   UNL     1      -3.051  37.311  14.251  1.00  0.00    -0.003 C 
ATOM     18  C   UNL     1      -3.876  38.594  14.257  1.00  0.00     0.004 C 
ENDBRANCH  16  17
ENDBRANCH  15  16
ENDBRANCH  14  15
ENDBRANCH  13  14
ENDBRANCH  12  13
ENDBRANCH  11  12
ENDBRANCH   1  11
TORSDOF 14
ENDMDL
MODEL 8
REMARK VINA RESULT:    -2.649      2.349      6.628
REMARK INTER + INTRA:          -5.895
REMARK INTER:                  -5.120
REMARK INTRA:                  -0.776
REMARK UNBOUND:                -1.078
REMARK SMILES CCCCCCCCCCCCCCCC(=O)[O-]
REMARK SMILES IDX 9 1 10 2 11 3 12 4 13 5 14 6 15 7 16 8 17 9 18 10 8 11 7 12
REMARK SMILES IDX 6 13 5 14 4 15 3 16 2 17 1 18
REMARK H PARENT
REMARK Flexibility Score: inf
ROOT
ATOM      1  C   UNL     1      -5.610  36.633  22.214  1.00  0.00     0.000 C 
ENDROOT
BRANCH   1   2
ATOM      2  C   UNL     1      -5.821  35.978  20.841  1.00  0.00     0.000 C 
BRANCH   2   3
ATOM      3  C   UNL     1      -4.552  36.005  19.971  1.00  0.00     0.000 C 
BRANCH   3   4
ATOM      4  C   UNL     1      -4.743  35.299  18.618  1.00  0.00     0.000 C 
BRANCH   4   5
ATOM      5  C   UNL     1      -3.924  35.952  17.492  1.00  0.00     0.000 C 
BRANCH   5   6
ATOM      6  C   UNL     1      -3.537  37.410  17.806  1.00  0.00     0.006 C 
BRANCH   6   7
ATOM      7  C   UNL     1      -2.078  37.765  17.475  1.00  0.00     0.053 C 
BRANCH   7   8
ATOM      8  C   UNL     1      -1.290  38.096  18.705  1.00  0.00     0.041 C 
ATOM      9  O   UNL     1      -0.046  38.286  18.629  1.00  0.00    -0.550 OA
ATOM     10  O   UNL     1      -1.932  38.225  19.929  1.00  0.00    -0.550 OA
ENDBRANCH   7   8
ENDBRANCH   6   7
ENDBRANCH   5   6
ENDBRANCH   4   5
ENDBRANCH   3   4
ENDBRANCH   2   3
ENDBRANCH   1   2
BRANCH   1  11
ATOM     11  C   UNL     1      -5.850  35.660  23.377  1.00  0.00     0.000 C 
BRANCH  11  12
ATOM     12  C   UNL     1      -6.117  36.417  24.682  1.00  0.00    -0.000 C 
BRANCH  12  13
ATOM     13  C   UNL     1      -4.806  36.884  25.328  1.00  0.00    -0.000 C 
BRANCH  13  14
ATOM     14  C   UNL     1      -4.753  38.412  25.425  1.00  0.00    -0.000 C 
BRANCH  14  15
ATOM     15  C   UNL     1      -5.564  39.064  24.295  1.00  0.00    -0.000 C 
BRANCH  15  16
ATOM     16  C   UNL     1      -5.414  40.592  24.262  1.00  0.00    -0.000 C 
BRANCH  16  17
ATOM     17  C   UNL     1      -5.734  41.190  22.884  1.00  0.00    -0.003 C 
ATOM     18  C   UNL     1      -5.443  40.188  21.770  1.00  0.00     0.004 C 
ENDBRANCH  16  17
ENDBRANCH  15  16
ENDBRANCH  14  15
ENDBRANCH  13  14
ENDBRANCH  12  13
ENDBRANCH  11  12
ENDBRANCH   1  11
TORSDOF 14
ENDMDL
MODEL 9
REMARK VINA RESULT:    -2.467      2.823      7.147
REMARK INTER + INTRA:          -5.564
REMARK INTER:                  -4.604
REMARK INTRA:                  -0.960
REMARK UNBOUND:                -1.078
REMARK SMILES CCCCCCCCCCCCCCCC(=O)[O-]
REMARK SMILES IDX 9 1 10 2 11 3 12 4 13 5 14 6 15 7 16 8 17 9 18 10 8 11 7 12
REMARK SMILES IDX 6 13 5 14 4 15 3 16 2 17 1 18
REMARK H PARENT
REMARK Flexibility Score: inf
ROOT
ATOM      1  C   UNL     1      -4.779  38.983  20.824  1.00  0.00     0.000 C 
ENDROOT
BRANCH   1   2
ATOM      2  C   UNL     1      -5.321  37.563  20.603  1.00  0.00     0.000 C 
BRANCH   2   3
ATOM      3  C   UNL     1      -4.203  36.507  20.536  1.00  0.00     0.000 C 
BRANCH   3   4
ATOM      4  C   UNL     1      -4.254  35.669  19.248  1.00  0.00     0.000 C 
BRANCH   4   5
ATOM      5  C   UNL     1      -4.196  36.535  17.979  1.00  0.00     0.000 C 
BRANCH   5   6
ATOM      6  C   UNL     1      -3.060  37.576  18.020  1.00  0.00     0.006 C 
BRANCH   6   7
ATOM      7  C   UNL     1      -2.057  37.467  16.860  1.00  0.00     0.053 C 
BRANCH   7   8
ATOM      8  C   UNL     1      -2.740  37.467  15.527  1.00  0.00     0.041 C 
ATOM      9  O   UNL     1      -2.650  36.466  14.767  1.00  0.00    -0.550 OA
ATOM     10  O   UNL     1      -3.500  38.562  15.135  1.00  0.00    -0.550 OA
ENDBRANCH   7   8
ENDBRANCH   6   7
ENDBRANCH   5   6
ENDBRANCH   4   5
ENDBRANCH   3   4
ENDBRANCH   2   3
ENDBRANCH   1   2
BRANCH   1  11
ATOM     11  C   UNL     1      -5.840  39.941  21.386  1.00  0.00     0.000 C 
BRANCH  11  12
ATOM     12  C   UNL     1      -5.228  40.896  22.417  1.00  0.00    -0.000 C 
BRANCH  12  13
ATOM     13  C   UNL     1      -5.438  40.375  23.844  1.00  0.00    -0.000 C 
BRANCH  13  14
ATOM     14  C   UNL     1      -5.738  38.872  23.844  1.00  0.00    -0.000 C 
BRANCH  14  15
ATOM     15  C   UNL     1      -5.029  38.169  25.012  1.00  0.00    -0.000 C 
BRANCH  15  16
ATOM     16  C   UNL     1      -5.474  36.708  25.183  1.00  0.00    -0.000 C 
BRANCH  16  17
ATOM     17  C   UNL     1      -6.116  36.133  23.912  1.00  0.00    -0.003 C 
ATOM     18  C   UNL     1      -5.578  34.738  23.608  1.00  0.00     0.004 C 
ENDBRANCH  16  17
ENDBRANCH  15  16
ENDBRANCH  14  15
ENDBRANCH  13  14
ENDBRANCH  12  13
ENDBRANCH  11  12
ENDBRANCH   1  11
TORSDOF 14
ENDMDL
