MODEL 1
REMARK VINA RESULT:    -5.316      0.000      0.000
REMARK INTER + INTRA:          -7.455
REMARK INTER:                  -7.180
REMARK INTRA:                  -0.275
REMARK UNBOUND:                -0.275
REMARK SMILES C=C[C@](C)(CCC=C(C)C)OC(C)=O
REMARK SMILES IDX 3 1 4 2 5 3 6 4 7 5 9 6 8 7 10 8 2 9 1 10 11 11 12 12 14 13
REMARK SMILES IDX 13 14
REMARK H PARENT
REMARK Flexibility Score: inf
ROOT
ATOM      1  C   UNL     1      -6.054  61.904   4.535  1.00  0.00     0.127 C 
ATOM      2  C   UNL     1      -4.835  62.190   3.627  1.00  0.00     0.061 C 
ENDROOT
BRANCH   1   3
ATOM      3  C   UNL     1      -7.082  63.073   4.495  1.00  0.00     0.057 C 
BRANCH   3   4
ATOM      4  C   UNL     1      -8.207  62.905   3.456  1.00  0.00     0.032 C 
BRANCH   4   5
ATOM      5  C   UNL     1      -9.399  63.754   3.824  1.00  0.00    -0.028 C 
ATOM      6  C   UNL     1     -11.057  65.552   3.587  1.00  0.00     0.039 C 
ATOM      7  C   UNL     1      -9.821  64.827   3.120  1.00  0.00    -0.080 C 
ATOM      8  C   UNL     1      -9.084  65.324   1.897  1.00  0.00     0.039 C 
ENDBRANCH   4   5
ENDBRANCH   3   4
ENDBRANCH   1   3
BRANCH   1   9
ATOM      9  C   UNL     1      -5.577  61.685   5.962  1.00  0.00     0.013 C 
ATOM     10  C   UNL     1      -4.292  61.822   6.312  1.00  0.00     0.008 C 
ENDBRANCH   1   9
BRANCH   1  11
ATOM     11  O   UNL     1      -6.703  60.688   4.127  1.00  0.00    -0.455 OA
BRANCH  11  12
ATOM     12  C   UNL     1      -6.355  59.887   3.028  1.00  0.00     0.303 C 
ATOM     13  O   UNL     1      -5.288  59.216   3.017  1.00  0.00    -0.253 OA
ATOM     14  C   UNL     1      -7.294  59.788   1.876  1.00  0.00     0.139 C 
ENDBRANCH  11  12
ENDBRANCH   1  11
TORSDOF 6
ENDMDL
MODEL 2
REMARK VINA RESULT:    -5.292     13.458     15.894
REMARK INTER + INTRA:          -7.422
REMARK INTER:                  -6.541
REMARK INTRA:                  -0.881
REMARK UNBOUND:                -0.275
REMARK SMILES C=C[C@](C)(CCC=C(C)C)OC(C)=O
REMARK SMILES IDX 3 1 4 2 5 3 6 4 7 5 9 6 8 7 10 8 2 9 1 10 11 11 12 12 14 13
REMARK SMILES IDX 13 14
REMARK H PARENT
REMARK Flexibility Score: inf
ROOT
ATOM      1  C   UNL     1       3.935  53.814   5.967  1.00  0.00     0.127 C 
ATOM      2  C   UNL     1       3.872  54.547   7.327  1.00  0.00     0.061 C 
ENDROOT
BRANCH   1   3
ATOM      3  C   UNL     1       5.183  52.887   5.876  1.00  0.00     0.057 C 
BRANCH   3   4
ATOM      4  C   UNL     1       5.688  52.352   7.230  1.00  0.00     0.032 C 
BRANCH   4   5
ATOM      5  C   UNL     1       5.296  50.906   7.408  1.00  0.00    -0.028 C 
ATOM      6  C   UNL     1       4.406  48.928   8.562  1.00  0.00     0.039 C 
ATOM      7  C   UNL     1       4.793  50.384   8.548  1.00  0.00    -0.080 C 
ATOM      8  C   UNL     1       4.626  51.210   9.803  1.00  0.00     0.039 C 
ENDBRANCH   4   5
ENDBRANCH   3   4
ENDBRANCH   1   3
BRANCH   1   9
ATOM      9  C   UNL     1       3.971  54.839   4.844  1.00  0.00     0.013 C 
ATOM     10  C   UNL     1       4.807  54.726   3.805  1.00  0.00     0.008 C 
ENDBRANCH   1   9
BRANCH   1  11
ATOM     11  O   UNL     1       2.747  53.029   5.771  1.00  0.00    -0.455 OA
BRANCH  11  12
ATOM     12  C   UNL     1       1.669  52.913   6.662  1.00  0.00     0.303 C 
ATOM     13  O   UNL     1       0.729  53.753   6.668  1.00  0.00    -0.253 OA
ATOM     14  C   UNL     1       1.611  51.743   7.582  1.00  0.00     0.139 C 
ENDBRANCH  11  12
ENDBRANCH   1  11
TORSDOF 6
ENDMDL
MODEL 3
REMARK VINA RESULT:    -5.237      1.813      3.226
REMARK INTER + INTRA:          -7.349
REMARK INTER:                  -6.536
REMARK INTRA:                  -0.812
REMARK UNBOUND:                -0.275
REMARK SMILES C=C[C@](C)(CCC=C(C)C)OC(C)=O
REMARK SMILES IDX 3 1 4 2 5 3 6 4 7 5 9 6 8 7 10 8 2 9 1 10 11 11 12 12 14 13
REMARK SMILES IDX 13 14
REMARK H PARENT
REMARK Flexibility Score: inf
ROOT
ATOM      1  C   UNL     1      -6.209  62.122   4.230  1.00  0.00     0.127 C 
ATOM      2  C   UNL     1      -5.707  61.697   5.630  1.00  0.00     0.061 C 
ENDROOT
BRANCH   1   3
ATOM      3  C   UNL     1      -7.758  62.004   4.120  1.00  0.00     0.057 C 
BRANCH   3   4
ATOM      4  C   UNL     1      -8.381  62.786   2.947  1.00  0.00     0.032 C 
BRANCH   4   5
ATOM      5  C   UNL     1      -9.559  63.602   3.422  1.00  0.00    -0.028 C 
ATOM      6  C   UNL     1     -11.050  65.549   3.569  1.00  0.00     0.039 C 
ATOM      7  C   UNL     1      -9.808  64.875   3.045  1.00  0.00    -0.080 C 
ATOM      8  C   UNL     1      -8.875  65.640   2.135  1.00  0.00     0.039 C 
ENDBRANCH   4   5
ENDBRANCH   3   4
ENDBRANCH   1   3
BRANCH   1   9
ATOM      9  C   UNL     1      -5.550  61.251   3.173  1.00  0.00     0.013 C 
ATOM     10  C   UNL     1      -5.842  59.951   3.039  1.00  0.00     0.008 C 
ENDBRANCH   1   9
BRANCH   1  11
ATOM     11  O   UNL     1      -5.817  63.476   3.952  1.00  0.00    -0.455 OA
BRANCH  11  12
ATOM     12  C   UNL     1      -5.647  64.504   4.893  1.00  0.00     0.303 C 
ATOM     13  O   UNL     1      -4.511  64.788   5.357  1.00  0.00    -0.253 OA
ATOM     14  C   UNL     1      -6.830  65.309   5.309  1.00  0.00     0.139 C 
ENDBRANCH  11  12
ENDBRANCH   1  11
TORSDOF 6
ENDMDL
MODEL 4
REMARK VINA RESULT:    -5.137      2.644      5.648
REMARK INTER + INTRA:          -7.213
REMARK INTER:                  -6.588
REMARK INTRA:                  -0.625
REMARK UNBOUND:                -0.275
REMARK SMILES C=C[C@](C)(CCC=C(C)C)OC(C)=O
REMARK SMILES IDX 3 1 4 2 5 3 6 4 7 5 9 6 8 7 10 8 2 9 1 10 11 11 12 12 14 13
REMARK SMILES IDX 13 14
REMARK H PARENT
REMARK Flexibility Score: inf
ROOT
ATOM      1  C   UNL     1      -9.316  64.878   3.526  1.00  0.00     0.127 C 
ATOM      2  C   UNL     1      -8.939  65.174   2.055  1.00  0.00     0.061 C 
ENDROOT
BRANCH   1   3
ATOM      3  C   UNL     1      -9.103  63.376   3.878  1.00  0.00     0.057 C 
BRANCH   3   4
ATOM      4  C   UNL     1      -8.552  62.516   2.724  1.00  0.00     0.032 C 
BRANCH   4   5
ATOM      5  C   UNL     1      -7.329  61.752   3.170  1.00  0.00    -0.028 C 
ATOM      6  C   UNL     1      -5.667  59.942   3.171  1.00  0.00     0.039 C 
ATOM      7  C   UNL     1      -6.937  60.567   2.653  1.00  0.00    -0.080 C 
ATOM      8  C   UNL     1      -7.738  59.850   1.590  1.00  0.00     0.039 C 
ENDBRANCH   4   5
ENDBRANCH   3   4
ENDBRANCH   1   3
BRANCH   1   9
ATOM      9  C   UNL     1     -10.769  65.261   3.759  1.00  0.00     0.013 C 
ATOM     10  C   UNL     1     -11.125  66.184   4.660  1.00  0.00     0.008 C 
ENDBRANCH   1   9
BRANCH   1  11
ATOM     11  O   UNL     1      -8.529  65.688   4.413  1.00  0.00    -0.455 OA
BRANCH  11  12
ATOM     12  C   UNL     1      -7.310  65.327   5.009  1.00  0.00     0.303 C 
ATOM     13  O   UNL     1      -6.292  65.064   4.315  1.00  0.00    -0.253 OA
ATOM     14  C   UNL     1      -7.207  65.309   6.496  1.00  0.00     0.139 C 
ENDBRANCH  11  12
ENDBRANCH   1  11
TORSDOF 6
ENDMDL
MODEL 5
REMARK VINA RESULT:    -5.102     11.664     13.965
REMARK INTER + INTRA:          -7.167
REMARK INTER:                  -6.035
REMARK INTRA:                  -1.132
REMARK UNBOUND:                -0.275
REMARK SMILES C=C[C@](C)(CCC=C(C)C)OC(C)=O
REMARK SMILES IDX 3 1 4 2 5 3 6 4 7 5 9 6 8 7 10 8 2 9 1 10 11 11 12 12 14 13
REMARK SMILES IDX 13 14
REMARK H PARENT
REMARK Flexibility Score: inf
ROOT
ATOM      1  C   UNL     1       4.009  53.273   6.631  1.00  0.00     0.127 C 
ATOM      2  C   UNL     1       5.387  52.643   6.321  1.00  0.00     0.061 C 
ENDROOT
BRANCH   1   3
ATOM      3  C   UNL     1       3.111  52.305   7.458  1.00  0.00     0.057 C 
BRANCH   3   4
ATOM      4  C   UNL     1       1.613  52.353   7.099  1.00  0.00     0.032 C 
BRANCH   4   5
ATOM      5  C   UNL     1       0.838  53.094   8.161  1.00  0.00    -0.028 C 
ATOM      6  C   UNL     1      -0.680  54.791   9.085  1.00  0.00     0.039 C 
ATOM      7  C   UNL     1       0.072  54.182   7.929  1.00  0.00    -0.080 C 
ATOM      8  C   UNL     1      -0.037  54.810   6.559  1.00  0.00     0.039 C 
ENDBRANCH   4   5
ENDBRANCH   3   4
ENDBRANCH   1   3
BRANCH   1   9
ATOM      9  C   UNL     1       3.315  53.631   5.327  1.00  0.00     0.013 C 
ATOM     10  C   UNL     1       3.479  54.821   4.737  1.00  0.00     0.008 C 
ENDBRANCH   1   9
BRANCH   1  11
ATOM     11  O   UNL     1       4.177  54.501   7.359  1.00  0.00    -0.455 OA
BRANCH  11  12
ATOM     12  C   UNL     1       4.233  54.640   8.755  1.00  0.00     0.303 C 
ATOM     13  O   UNL     1       5.153  54.107   9.432  1.00  0.00    -0.253 OA
ATOM     14  C   UNL     1       3.212  55.480   9.442  1.00  0.00     0.139 C 
ENDBRANCH  11  12
ENDBRANCH   1  11
TORSDOF 6
ENDMDL
MODEL 6
REMARK VINA RESULT:    -5.079     13.682     14.926
REMARK INTER + INTRA:          -7.135
REMARK INTER:                  -6.566
REMARK INTRA:                  -0.569
REMARK UNBOUND:                -0.275
REMARK SMILES C=C[C@](C)(CCC=C(C)C)OC(C)=O
REMARK SMILES IDX 3 1 4 2 5 3 6 4 7 5 9 6 8 7 10 8 2 9 1 10 11 11 12 12 14 13
REMARK SMILES IDX 13 14
REMARK H PARENT
REMARK Flexibility Score: inf
ROOT
ATOM      1  C   UNL     1       3.986  53.055   6.821  1.00  0.00     0.127 C 
ATOM      2  C   UNL     1       5.282  52.232   7.010  1.00  0.00     0.061 C 
ENDROOT
BRANCH   1   3
ATOM      3  C   UNL     1       4.086  54.444   7.519  1.00  0.00     0.057 C 
BRANCH   3   4
ATOM      4  C   UNL     1       3.689  54.446   9.008  1.00  0.00     0.032 C 
BRANCH   4   5
ATOM      5  C   UNL     1       4.838  54.924   9.861  1.00  0.00    -0.028 C 
ATOM      6  C   UNL     1       6.172  56.516  11.174  1.00  0.00     0.039 C 
ATOM      7  C   UNL     1       4.995  56.197  10.288  1.00  0.00    -0.080 C 
ATOM      8  C   UNL     1       4.041  57.300   9.893  1.00  0.00     0.039 C 
ENDBRANCH   4   5
ENDBRANCH   3   4
ENDBRANCH   1   3
BRANCH   1   9
ATOM      9  C   UNL     1       2.809  52.277   7.388  1.00  0.00     0.013 C 
ATOM     10  C   UNL     1       1.588  52.340   6.844  1.00  0.00     0.008 C 
ENDBRANCH   1   9
BRANCH   1  11
ATOM     11  O   UNL     1       3.719  53.246   5.422  1.00  0.00    -0.455 OA
BRANCH  11  12
ATOM     12  C   UNL     1       3.981  54.405   4.675  1.00  0.00     0.303 C 
ATOM     13  O   UNL     1       3.103  55.294   4.513  1.00  0.00    -0.253 OA
ATOM     14  C   UNL     1       5.344  54.610   4.109  1.00  0.00     0.139 C 
ENDBRANCH  11  12
ENDBRANCH   1  11
TORSDOF 6
ENDMDL
MODEL 7
REMARK VINA RESULT:    -5.068     13.889     15.320
REMARK INTER + INTRA:          -7.121
REMARK INTER:                  -6.439
REMARK INTRA:                  -0.682
REMARK UNBOUND:                -0.275
REMARK SMILES C=C[C@](C)(CCC=C(C)C)OC(C)=O
REMARK SMILES IDX 3 1 4 2 5 3 6 4 7 5 9 6 8 7 10 8 2 9 1 10 11 11 12 12 14 13
REMARK SMILES IDX 13 14
REMARK H PARENT
REMARK Flexibility Score: inf
ROOT
ATOM      1  C   UNL     1       3.353  53.340   6.705  1.00  0.00     0.127 C 
ATOM      2  C   UNL     1       1.998  52.639   6.452  1.00  0.00     0.061 C 
ENDROOT
BRANCH   1   3
ATOM      3  C   UNL     1       3.521  53.735   8.202  1.00  0.00     0.057 C 
BRANCH   3   4
ATOM      4  C   UNL     1       3.779  55.235   8.447  1.00  0.00     0.032 C 
BRANCH   4   5
ATOM      5  C   UNL     1       4.873  55.424   9.469  1.00  0.00    -0.028 C 
ATOM      6  C   UNL     1       6.099  56.519  11.295  1.00  0.00     0.039 C 
ATOM      7  C   UNL     1       4.973  56.490  10.293  1.00  0.00    -0.080 C 
ATOM      8  C   UNL     1       4.007  57.650  10.226  1.00  0.00     0.039 C 
ENDBRANCH   4   5
ENDBRANCH   3   4
ENDBRANCH   1   3
BRANCH   1   9
ATOM      9  C   UNL     1       3.448  54.581   5.831  1.00  0.00     0.013 C 
ATOM     10  C   UNL     1       4.219  54.624   4.738  1.00  0.00     0.008 C 
ENDBRANCH   1   9
BRANCH   1  11
ATOM     11  O   UNL     1       4.437  52.480   6.318  1.00  0.00    -0.455 OA
BRANCH  11  12
ATOM     12  C   UNL     1       5.164  51.626   7.162  1.00  0.00     0.303 C 
ATOM     13  O   UNL     1       4.671  50.546   7.586  1.00  0.00    -0.253 OA
ATOM     14  C   UNL     1       6.567  51.979   7.518  1.00  0.00     0.139 C 
ENDBRANCH  11  12
ENDBRANCH   1  11
TORSDOF 6
ENDMDL
MODEL 8
REMARK VINA RESULT:    -5.010     13.830     15.477
REMARK INTER + INTRA:          -7.042
REMARK INTER:                  -6.226
REMARK INTRA:                  -0.816
REMARK UNBOUND:                -0.275
REMARK SMILES C=C[C@](C)(CCC=C(C)C)OC(C)=O
REMARK SMILES IDX 3 1 4 2 5 3 6 4 7 5 9 6 8 7 10 8 2 9 1 10 11 11 12 12 14 13
REMARK SMILES IDX 13 14
REMARK H PARENT
REMARK Flexibility Score: inf
ROOT
ATOM      1  C   UNL     1       4.075  53.596   7.383  1.00  0.00     0.127 C 
ATOM      2  C   UNL     1       4.667  53.874   8.784  1.00  0.00     0.061 C 
ENDROOT
BRANCH   1   3
ATOM      3  C   UNL     1       2.547  53.301   7.457  1.00  0.00     0.057 C 
BRANCH   3   4
ATOM      4  C   UNL     1       2.152  51.860   7.081  1.00  0.00     0.032 C 
BRANCH   4   5
ATOM      5  C   UNL     1       1.460  51.182   8.239  1.00  0.00    -0.028 C 
ATOM      6  C   UNL     1       1.241  49.729  10.208  1.00  0.00     0.039 C 
ATOM      7  C   UNL     1       2.049  50.291   9.065  1.00  0.00    -0.080 C 
ATOM      8  C   UNL     1       3.475  49.834   8.868  1.00  0.00     0.039 C 
ENDBRANCH   4   5
ENDBRANCH   3   4
ENDBRANCH   1   3
BRANCH   1   9
ATOM      9  C   UNL     1       4.798  52.415   6.756  1.00  0.00     0.013 C 
ATOM     10  C   UNL     1       6.013  52.029   7.162  1.00  0.00     0.008 C 
ENDBRANCH   1   9
BRANCH   1  11
ATOM     11  O   UNL     1       4.298  54.722   6.518  1.00  0.00    -0.455 OA
BRANCH  11  12
ATOM     12  C   UNL     1       4.049  54.774   5.137  1.00  0.00     0.303 C 
ATOM     13  O   UNL     1       2.898  55.022   4.687  1.00  0.00    -0.253 OA
ATOM     14  C   UNL     1       5.181  54.585   4.188  1.00  0.00     0.139 C 
ENDBRANCH  11  12
ENDBRANCH   1  11
TORSDOF 6
ENDMDL
MODEL 9
REMARK VINA RESULT:    -4.956     13.589     15.757
REMARK INTER + INTRA:          -6.969
REMARK INTER:                  -6.003
REMARK INTRA:                  -0.966
REMARK UNBOUND:                -0.275
REMARK SMILES C=C[C@](C)(CCC=C(C)C)OC(C)=O
REMARK SMILES IDX 3 1 4 2 5 3 6 4 7 5 9 6 8 7 10 8 2 9 1 10 11 11 12 12 14 13
REMARK SMILES IDX 13 14
REMARK H PARENT
REMARK Flexibility Score: inf
ROOT
ATOM      1  C   UNL     1       4.104  53.377   6.853  1.00  0.00     0.127 C 
ATOM      2  C   UNL     1       5.315  52.496   6.470  1.00  0.00     0.061 C 
ENDROOT
BRANCH   1   3
ATOM      3  C   UNL     1       4.046  53.631   8.389  1.00  0.00     0.057 C 
BRANCH   3   4
ATOM      4  C   UNL     1       4.837  52.617   9.239  1.00  0.00     0.032 C 
BRANCH   4   5
ATOM      5  C   UNL     1       3.901  51.807  10.102  1.00  0.00    -0.028 C 
ATOM      6  C   UNL     1       2.617  49.838  10.818  1.00  0.00     0.039 C 
ATOM      7  C   UNL     1       3.525  50.535   9.838  1.00  0.00    -0.080 C 
ATOM      8  C   UNL     1       3.975  49.808   8.593  1.00  0.00     0.039 C 
ENDBRANCH   4   5
ENDBRANCH   3   4
ENDBRANCH   1   3
BRANCH   1   9
ATOM      9  C   UNL     1       2.823  52.698   6.395  1.00  0.00     0.013 C 
ATOM     10  C   UNL     1       1.709  52.705   7.138  1.00  0.00     0.008 C 
ENDBRANCH   1   9
BRANCH   1  11
ATOM     11  O   UNL     1       4.170  54.638   6.167  1.00  0.00    -0.455 OA
BRANCH  11  12
ATOM     12  C   UNL     1       3.851  54.870   4.820  1.00  0.00     0.303 C 
ATOM     13  O   UNL     1       2.723  55.317   4.480  1.00  0.00    -0.253 OA
ATOM     14  C   UNL     1       4.889  54.634   3.777  1.00  0.00     0.139 C 
ENDBRANCH  11  12
ENDBRANCH   1  11
TORSDOF 6
ENDMDL
