MODEL 1
REMARK VINA RESULT:    -1.104      0.000      0.000
REMARK INTER + INTRA:          -9.552
REMARK INTER:                  -2.911
REMARK INTRA:                  -6.640
REMARK UNBOUND:                -6.640
REMARK SMILES CCCCCCCCCCCCCCCCCCCCCCCCCCCCCC(=O)[O-]
REMARK SMILES IDX 16 1 17 2 18 3 19 4 20 5 21 6 22 7 23 8 24 9 25 10 26 11
REMARK SMILES IDX 27 12 28 13 29 14 30 15 31 16 32 17 15 18 14 19 13 20 12 21
REMARK SMILES IDX 11 22 10 23 9 24 8 25 7 26 6 27 5 28 4 29 3 30 2 31 1 32
REMARK H PARENT
REMARK Flexibility Score: inf
ROOT
ATOM      1  C   UNL     1     -17.795 -24.516  28.476  1.00  0.00     0.000 C 
ENDROOT
BRANCH   1   2
ATOM      2  C   UNL     1     -17.933 -24.884  29.961  1.00  0.00     0.000 C 
BRANCH   2   3
ATOM      3  C   UNL     1     -16.616 -25.456  30.507  1.00  0.00     0.000 C 
BRANCH   3   4
ATOM      4  C   UNL     1     -15.810 -24.429  31.319  1.00  0.00     0.000 C 
BRANCH   4   5
ATOM      5  C   UNL     1     -16.699 -23.349  31.956  1.00  0.00     0.000 C 
BRANCH   5   6
ATOM      6  C   UNL     1     -16.347 -21.930  31.477  1.00  0.00     0.000 C 
BRANCH   6   7
ATOM      7  C   UNL     1     -17.521 -21.197  30.791  1.00  0.00     0.000 C 
BRANCH   7   8
ATOM      8  C   UNL     1     -18.860 -21.462  31.497  1.00  0.00     0.000 C 
BRANCH   8   9
ATOM      9  C   UNL     1     -20.043 -21.153  30.569  1.00  0.00     0.000 C 
BRANCH   9  10
ATOM     10  C   UNL     1     -20.717 -22.448  30.091  1.00  0.00     0.000 C 
BRANCH  10  11
ATOM     11  C   UNL     1     -20.817 -22.537  28.557  1.00  0.00     0.000 C 
BRANCH  11  12
ATOM     12  C   UNL     1     -19.982 -21.494  27.786  1.00  0.00     0.000 C 
BRANCH  12  13
ATOM     13  C   UNL     1     -20.795 -20.512  26.919  1.00  0.00     0.006 C 
BRANCH  13  14
ATOM     14  C   UNL     1     -19.973 -19.777  25.849  1.00  0.00     0.053 C 
BRANCH  14  15
ATOM     15  C   UNL     1     -20.301 -18.316  25.797  1.00  0.00     0.041 C 
ATOM     16  O   UNL     1     -19.895 -17.608  24.838  1.00  0.00    -0.550 OA
ATOM     17  O   UNL     1     -21.077 -17.741  26.795  1.00  0.00    -0.550 OA
ENDBRANCH  14  15
ENDBRANCH  13  14
ENDBRANCH  12  13
ENDBRANCH  11  12
ENDBRANCH  10  11
ENDBRANCH   9  10
ENDBRANCH   8   9
ENDBRANCH   7   8
ENDBRANCH   6   7
ENDBRANCH   5   6
ENDBRANCH   4   5
ENDBRANCH   3   4
ENDBRANCH   2   3
ENDBRANCH   1   2
BRANCH   1  18
ATOM     18  C   UNL     1     -16.545 -25.133  27.827  1.00  0.00     0.000 C 
BRANCH  18  19
ATOM     19  C   UNL     1     -15.486 -24.079  27.466  1.00  0.00     0.000 C 
BRANCH  19  20
ATOM     20  C   UNL     1     -16.003 -22.661  27.750  1.00  0.00     0.000 C 
BRANCH  20  21
ATOM     21  C   UNL     1     -14.875 -21.673  28.102  1.00  0.00     0.000 C 
BRANCH  21  22
ATOM     22  C   UNL     1     -14.982 -20.288  27.430  1.00  0.00     0.000 C 
BRANCH  22  23
ATOM     23  C   UNL     1     -16.371 -19.936  26.865  1.00  0.00     0.000 C 
BRANCH  23  24
ATOM     24  C   UNL     1     -16.416 -19.962  25.328  1.00  0.00    -0.000 C 
BRANCH  24  25
ATOM     25  C   UNL     1     -15.079 -20.397  24.705  1.00  0.00    -0.000 C 
BRANCH  25  26
ATOM     26  C   UNL     1     -15.183 -21.718  23.930  1.00  0.00    -0.000 C 
BRANCH  26  27
ATOM     27  C   UNL     1     -16.577 -22.337  24.085  1.00  0.00    -0.000 C 
BRANCH  27  28
ATOM     28  C   UNL     1     -16.517 -23.868  23.968  1.00  0.00    -0.000 C 
BRANCH  28  29
ATOM     29  C   UNL     1     -17.817 -24.553  24.417  1.00  0.00    -0.000 C 
BRANCH  29  30
ATOM     30  C   UNL     1     -18.816 -23.570  25.052  1.00  0.00    -0.000 C 
BRANCH  30  31
ATOM     31  C   UNL     1     -20.223 -23.690  24.445  1.00  0.00    -0.003 C 
ATOM     32  C   UNL     1     -20.546 -22.555  23.472  1.00  0.00     0.004 C 
ENDBRANCH  30  31
ENDBRANCH  29  30
ENDBRANCH  28  29
ENDBRANCH  27  28
ENDBRANCH  26  27
ENDBRANCH  25  26
ENDBRANCH  24  25
ENDBRANCH  23  24
ENDBRANCH  22  23
ENDBRANCH  21  22
ENDBRANCH  20  21
ENDBRANCH  19  20
ENDBRANCH  18  19
ENDBRANCH   1  18
TORSDOF 28
ENDMDL
MODEL 2
REMARK VINA RESULT:    -1.058      3.593      6.518
REMARK INTER + INTRA:          -9.430
REMARK INTER:                  -2.630
REMARK INTRA:                  -6.799
REMARK UNBOUND:                -6.640
REMARK SMILES CCCCCCCCCCCCCCCCCCCCCCCCCCCCCC(=O)[O-]
REMARK SMILES IDX 16 1 17 2 18 3 19 4 20 5 21 6 22 7 23 8 24 9 25 10 26 11
REMARK SMILES IDX 27 12 28 13 29 14 30 15 31 16 32 17 15 18 14 19 13 20 12 21
REMARK SMILES IDX 11 22 10 23 9 24 8 25 7 26 6 27 5 28 4 29 3 30 2 31 1 32
REMARK H PARENT
REMARK Flexibility Score: inf
ROOT
ATOM      1  C   UNL     1     -19.438 -22.986  28.015  1.00  0.00     0.000 C 
ENDROOT
BRANCH   1   2
ATOM      2  C   UNL     1     -19.810 -21.498  27.950  1.00  0.00     0.000 C 
BRANCH   2   3
ATOM      3  C   UNL     1     -20.844 -21.241  26.841  1.00  0.00     0.000 C 
BRANCH   3   4
ATOM      4  C   UNL     1     -21.536 -22.527  26.363  1.00  0.00     0.000 C 
BRANCH   4   5
ATOM      5  C   UNL     1     -22.957 -22.681  26.929  1.00  0.00     0.000 C 
BRANCH   5   6
ATOM      6  C   UNL     1     -23.159 -24.009  27.679  1.00  0.00     0.000 C 
BRANCH   6   7
ATOM      7  C   UNL     1     -22.249 -25.150  27.174  1.00  0.00     0.000 C 
BRANCH   7   8
ATOM      8  C   UNL     1     -21.788 -26.070  28.316  1.00  0.00     0.000 C 
BRANCH   8   9
ATOM      9  C   UNL     1     -20.601 -26.938  27.878  1.00  0.00     0.000 C 
BRANCH   9  10
ATOM     10  C   UNL     1     -19.940 -26.367  26.615  1.00  0.00     0.000 C 
BRANCH  10  11
ATOM     11  C   UNL     1     -18.411 -26.235  26.749  1.00  0.00     0.000 C 
BRANCH  11  12
ATOM     12  C   UNL     1     -17.784 -27.055  27.896  1.00  0.00     0.000 C 
BRANCH  12  13
ATOM     13  C   UNL     1     -16.884 -26.254  28.859  1.00  0.00     0.006 C 
BRANCH  13  14
ATOM     14  C   UNL     1     -17.282 -26.362  30.339  1.00  0.00     0.053 C 
BRANCH  14  15
ATOM     15  C   UNL     1     -16.373 -27.279  31.098  1.00  0.00     0.041 C 
ATOM     16  O   UNL     1     -16.580 -28.521  31.098  1.00  0.00    -0.550 OA
ATOM     17  O   UNL     1     -15.283 -26.764  31.787  1.00  0.00    -0.550 OA
ENDBRANCH  14  15
ENDBRANCH  13  14
ENDBRANCH  12  13
ENDBRANCH  11  12
ENDBRANCH  10  11
ENDBRANCH   9  10
ENDBRANCH   8   9
ENDBRANCH   7   8
ENDBRANCH   6   7
ENDBRANCH   5   6
ENDBRANCH   4   5
ENDBRANCH   3   4
ENDBRANCH   2   3
ENDBRANCH   1   2
BRANCH   1  18
ATOM     18  C   UNL     1     -19.480 -23.547  29.446  1.00  0.00     0.000 C 
BRANCH  18  19
ATOM     19  C   UNL     1     -20.623 -22.949  30.281  1.00  0.00     0.000 C 
BRANCH  19  20
ATOM     20  C   UNL     1     -20.128 -22.534  31.674  1.00  0.00     0.000 C 
BRANCH  20  21
ATOM     21  C   UNL     1     -19.909 -21.015  31.803  1.00  0.00     0.000 C 
BRANCH  21  22
ATOM     22  C   UNL     1     -18.436 -20.571  31.907  1.00  0.00     0.000 C 
BRANCH  22  23
ATOM     23  C   UNL     1     -17.397 -21.703  31.803  1.00  0.00     0.000 C 
BRANCH  23  24
ATOM     24  C   UNL     1     -16.394 -21.491  30.657  1.00  0.00    -0.000 C 
BRANCH  24  25
ATOM     25  C   UNL     1     -15.966 -22.811  29.994  1.00  0.00    -0.000 C 
BRANCH  25  26
ATOM     26  C   UNL     1     -15.852 -22.702  28.466  1.00  0.00    -0.000 C 
BRANCH  26  27
ATOM     27  C   UNL     1     -15.930 -21.239  28.013  1.00  0.00    -0.000 C 
BRANCH  27  28
ATOM     28  C   UNL     1     -16.017 -21.139  26.482  1.00  0.00    -0.000 C 
BRANCH  28  29
ATOM     29  C   UNL     1     -16.574 -22.415  25.832  1.00  0.00    -0.000 C 
BRANCH  29  30
ATOM     30  C   UNL     1     -17.704 -22.124  24.828  1.00  0.00    -0.000 C 
BRANCH  30  31
ATOM     31  C   UNL     1     -18.487 -23.389  24.444  1.00  0.00    -0.003 C 
ATOM     32  C   UNL     1     -18.443 -23.678  22.942  1.00  0.00     0.004 C 
ENDBRANCH  30  31
ENDBRANCH  29  30
ENDBRANCH  28  29
ENDBRANCH  27  28
ENDBRANCH  26  27
ENDBRANCH  25  26
ENDBRANCH  24  25
ENDBRANCH  23  24
ENDBRANCH  22  23
ENDBRANCH  21  22
ENDBRANCH  20  21
ENDBRANCH  19  20
ENDBRANCH  18  19
ENDBRANCH   1  18
TORSDOF 28
ENDMDL
MODEL 3
REMARK VINA RESULT:    -1.043      2.140      5.241
REMARK INTER + INTRA:          -9.390
REMARK INTER:                  -2.751
REMARK INTRA:                  -6.639
REMARK UNBOUND:                -6.640
REMARK SMILES CCCCCCCCCCCCCCCCCCCCCCCCCCCCCC(=O)[O-]
REMARK SMILES IDX 16 1 17 2 18 3 19 4 20 5 21 6 22 7 23 8 24 9 25 10 26 11
REMARK SMILES IDX 27 12 28 13 29 14 30 15 31 16 32 17 15 18 14 19 13 20 12 21
REMARK SMILES IDX 11 22 10 23 9 24 8 25 7 26 6 27 5 28 4 29 3 30 2 31 1 32
REMARK H PARENT
REMARK Flexibility Score: inf
ROOT
ATOM      1  C   UNL     1     -19.028 -25.393  26.784  1.00  0.00     0.000 C 
ENDROOT
BRANCH   1   2
ATOM      2  C   UNL     1     -17.573 -24.904  26.735  1.00  0.00     0.000 C 
BRANCH   2   3
ATOM      3  C   UNL     1     -17.039 -24.638  28.151  1.00  0.00     0.000 C 
BRANCH   3   4
ATOM      4  C   UNL     1     -16.276 -25.836  28.736  1.00  0.00     0.000 C 
BRANCH   4   5
ATOM      5  C   UNL     1     -16.448 -25.963  30.258  1.00  0.00     0.000 C 
BRANCH   5   6
ATOM      6  C   UNL     1     -15.515 -25.026  31.044  1.00  0.00     0.000 C 
BRANCH   6   7
ATOM      7  C   UNL     1     -16.257 -24.089  32.023  1.00  0.00     0.000 C 
BRANCH   7   8
ATOM      8  C   UNL     1     -15.586 -22.711  32.125  1.00  0.00     0.000 C 
BRANCH   8   9
ATOM      9  C   UNL     1     -16.540 -21.599  31.667  1.00  0.00     0.000 C 
BRANCH   9  10
ATOM     10  C   UNL     1     -16.608 -21.532  30.134  1.00  0.00     0.000 C 
BRANCH  10  11
ATOM     11  C   UNL     1     -15.221 -21.629  29.471  1.00  0.00     0.000 C 
BRANCH  11  12
ATOM     12  C   UNL     1     -15.190 -21.269  27.971  1.00  0.00     0.000 C 
BRANCH  12  13
ATOM     13  C   UNL     1     -16.480 -20.627  27.422  1.00  0.00     0.006 C 
BRANCH  13  14
ATOM     14  C   UNL     1     -17.091 -21.357  26.215  1.00  0.00     0.053 C 
BRANCH  14  15
ATOM     15  C   UNL     1     -17.472 -20.407  25.121  1.00  0.00     0.041 C 
ATOM     16  O   UNL     1     -16.625 -19.601  24.655  1.00  0.00    -0.550 OA
ATOM     17  O   UNL     1     -18.759 -20.430  24.598  1.00  0.00    -0.550 OA
ENDBRANCH  14  15
ENDBRANCH  13  14
ENDBRANCH  12  13
ENDBRANCH  11  12
ENDBRANCH  10  11
ENDBRANCH   9  10
ENDBRANCH   8   9
ENDBRANCH   7   8
ENDBRANCH   6   7
ENDBRANCH   5   6
ENDBRANCH   4   5
ENDBRANCH   3   4
ENDBRANCH   2   3
ENDBRANCH   1   2
BRANCH   1  18
ATOM     18  C   UNL     1     -19.151 -26.912  26.578  1.00  0.00     0.000 C 
BRANCH  18  19
ATOM     19  C   UNL     1     -20.270 -27.535  27.428  1.00  0.00     0.000 C 
BRANCH  19  20
ATOM     20  C   UNL     1     -20.210 -27.024  28.875  1.00  0.00     0.000 C 
BRANCH  20  21
ATOM     21  C   UNL     1     -21.538 -26.403  29.346  1.00  0.00     0.000 C 
BRANCH  21  22
ATOM     22  C   UNL     1     -21.413 -25.367  30.482  1.00  0.00     0.000 C 
BRANCH  22  23
ATOM     23  C   UNL     1     -19.987 -25.150  31.021  1.00  0.00     0.000 C 
BRANCH  23  24
ATOM     24  C   UNL     1     -19.492 -23.706  30.839  1.00  0.00    -0.000 C 
BRANCH  24  25
ATOM     25  C   UNL     1     -20.636 -22.679  30.878  1.00  0.00    -0.000 C 
BRANCH  25  26
ATOM     26  C   UNL     1     -20.390 -21.476  29.957  1.00  0.00    -0.000 C 
BRANCH  26  27
ATOM     27  C   UNL     1     -19.835 -21.927  28.600  1.00  0.00    -0.000 C 
BRANCH  27  28
ATOM     28  C   UNL     1     -20.673 -21.359  27.444  1.00  0.00    -0.000 C 
BRANCH  28  29
ATOM     29  C   UNL     1     -21.237 -22.452  26.523  1.00  0.00    -0.000 C 
BRANCH  29  30
ATOM     30  C   UNL     1     -22.047 -23.514  27.289  1.00  0.00    -0.000 C 
BRANCH  30  31
ATOM     31  C   UNL     1     -23.513 -23.099  27.491  1.00  0.00    -0.003 C 
ATOM     32  C   UNL     1     -23.785 -22.552  28.893  1.00  0.00     0.004 C 
ENDBRANCH  30  31
ENDBRANCH  29  30
ENDBRANCH  28  29
ENDBRANCH  27  28
ENDBRANCH  26  27
ENDBRANCH  25  26
ENDBRANCH  24  25
ENDBRANCH  23  24
ENDBRANCH  22  23
ENDBRANCH  21  22
ENDBRANCH  20  21
ENDBRANCH  19  20
ENDBRANCH  18  19
ENDBRANCH   1  18
TORSDOF 28
ENDMDL
MODEL 4
REMARK VINA RESULT:    -1.029      3.078      6.807
REMARK INTER + INTRA:          -9.353
REMARK INTER:                  -2.909
REMARK INTRA:                  -6.444
REMARK UNBOUND:                -6.640
REMARK SMILES CCCCCCCCCCCCCCCCCCCCCCCCCCCCCC(=O)[O-]
REMARK SMILES IDX 16 1 17 2 18 3 19 4 20 5 21 6 22 7 23 8 24 9 25 10 26 11
REMARK SMILES IDX 27 12 28 13 29 14 30 15 31 16 32 17 15 18 14 19 13 20 12 21
REMARK SMILES IDX 11 22 10 23 9 24 8 25 7 26 6 27 5 28 4 29 3 30 2 31 1 32
REMARK H PARENT
REMARK Flexibility Score: inf
ROOT
ATOM      1  C   UNL     1     -16.855 -24.748  28.970  1.00  0.00     0.000 C 
ENDROOT
BRANCH   1   2
ATOM      2  C   UNL     1     -17.392 -23.585  28.122  1.00  0.00     0.000 C 
BRANCH   2   3
ATOM      3  C   UNL     1     -16.794 -23.620  26.707  1.00  0.00     0.000 C 
BRANCH   3   4
ATOM      4  C   UNL     1     -17.656 -24.414  25.714  1.00  0.00     0.000 C 
BRANCH   4   5
ATOM      5  C   UNL     1     -18.484 -23.506  24.790  1.00  0.00     0.000 C 
BRANCH   5   6
ATOM      6  C   UNL     1     -19.956 -23.398  25.226  1.00  0.00     0.000 C 
BRANCH   6   7
ATOM      7  C   UNL     1     -20.949 -24.011  24.215  1.00  0.00     0.000 C 
BRANCH   7   8
ATOM      8  C   UNL     1     -20.584 -25.459  23.850  1.00  0.00     0.000 C 
BRANCH   8   9
ATOM      9  C   UNL     1     -21.253 -26.454  24.808  1.00  0.00     0.000 C 
BRANCH   9  10
ATOM     10  C   UNL     1     -20.210 -27.138  25.703  1.00  0.00     0.000 C 
BRANCH  10  11
ATOM     11  C   UNL     1     -20.597 -27.119  27.194  1.00  0.00     0.000 C 
BRANCH  11  12
ATOM     12  C   UNL     1     -20.223 -25.825  27.948  1.00  0.00     0.000 C 
BRANCH  12  13
ATOM     13  C   UNL     1     -21.398 -24.866  28.227  1.00  0.00     0.006 C 
BRANCH  13  14
ATOM     14  C   UNL     1     -22.692 -25.559  28.680  1.00  0.00     0.053 C 
BRANCH  14  15
ATOM     15  C   UNL     1     -23.826 -25.301  27.735  1.00  0.00     0.041 C 
ATOM     16  O   UNL     1     -24.974 -25.755  27.981  1.00  0.00    -0.550 OA
ATOM     17  O   UNL     1     -23.618 -24.538  26.593  1.00  0.00    -0.550 OA
ENDBRANCH  14  15
ENDBRANCH  13  14
ENDBRANCH  12  13
ENDBRANCH  11  12
ENDBRANCH  10  11
ENDBRANCH   9  10
ENDBRANCH   8   9
ENDBRANCH   7   8
ENDBRANCH   6   7
ENDBRANCH   5   6
ENDBRANCH   4   5
ENDBRANCH   3   4
ENDBRANCH   2   3
ENDBRANCH   1   2
BRANCH   1  18
ATOM     18  C   UNL     1     -15.684 -24.332  29.875  1.00  0.00     0.000 C 
BRANCH  18  19
ATOM     19  C   UNL     1     -15.966 -24.594  31.363  1.00  0.00     0.000 C 
BRANCH  19  20
ATOM     20  C   UNL     1     -16.236 -23.281  32.111  1.00  0.00     0.000 C 
BRANCH  20  21
ATOM     21  C   UNL     1     -16.011 -22.035  31.234  1.00  0.00     0.000 C 
BRANCH  21  22
ATOM     22  C   UNL     1     -17.263 -21.167  30.993  1.00  0.00     0.000 C 
BRANCH  22  23
ATOM     23  C   UNL     1     -18.534 -21.624  31.732  1.00  0.00     0.000 C 
BRANCH  23  24
ATOM     24  C   UNL     1     -19.575 -22.258  30.795  1.00  0.00    -0.000 C 
BRANCH  24  25
ATOM     25  C   UNL     1     -20.388 -23.370  31.479  1.00  0.00    -0.000 C 
BRANCH  25  26
ATOM     26  C   UNL     1     -19.654 -24.719  31.502  1.00  0.00    -0.000 C 
BRANCH  26  27
ATOM     27  C   UNL     1     -20.599 -25.851  31.919  1.00  0.00    -0.000 C 
BRANCH  27  28
ATOM     28  C   UNL     1     -19.897 -27.215  31.838  1.00  0.00    -0.000 C 
BRANCH  28  29
ATOM     29  C   UNL     1     -18.804 -27.260  30.758  1.00  0.00    -0.000 C 
BRANCH  29  30
ATOM     30  C   UNL     1     -17.550 -28.026  31.215  1.00  0.00    -0.000 C 
BRANCH  30  31
ATOM     31  C   UNL     1     -16.900 -28.822  30.073  1.00  0.00    -0.003 C 
ATOM     32  C   UNL     1     -17.339 -28.337  28.690  1.00  0.00     0.004 C 
ENDBRANCH  30  31
ENDBRANCH  29  30
ENDBRANCH  28  29
ENDBRANCH  27  28
ENDBRANCH  26  27
ENDBRANCH  25  26
ENDBRANCH  24  25
ENDBRANCH  23  24
ENDBRANCH  22  23
ENDBRANCH  21  22
ENDBRANCH  20  21
ENDBRANCH  19  20
ENDBRANCH  18  19
ENDBRANCH   1  18
TORSDOF 28
ENDMDL
MODEL 5
REMARK VINA RESULT:    -1.027      3.473      6.519
REMARK INTER + INTRA:          -9.349
REMARK INTER:                  -2.472
REMARK INTRA:                  -6.878
REMARK UNBOUND:                -6.640
REMARK SMILES CCCCCCCCCCCCCCCCCCCCCCCCCCCCCC(=O)[O-]
REMARK SMILES IDX 16 1 17 2 18 3 19 4 20 5 21 6 22 7 23 8 24 9 25 10 26 11
REMARK SMILES IDX 27 12 28 13 29 14 30 15 31 16 32 17 15 18 14 19 13 20 12 21
REMARK SMILES IDX 11 22 10 23 9 24 8 25 7 26 6 27 5 28 4 29 3 30 2 31 1 32
REMARK H PARENT
REMARK Flexibility Score: inf
ROOT
ATOM      1  C   UNL     1     -19.374 -23.983  27.906  1.00  0.00     0.000 C 
ENDROOT
BRANCH   1   2
ATOM      2  C   UNL     1     -18.648 -22.636  27.766  1.00  0.00     0.000 C 
BRANCH   2   3
ATOM      3  C   UNL     1     -19.646 -21.506  27.470  1.00  0.00     0.000 C 
BRANCH   3   4
ATOM      4  C   UNL     1     -21.059 -22.024  27.158  1.00  0.00     0.000 C 
BRANCH   4   5
ATOM      5  C   UNL     1     -22.160 -21.055  27.619  1.00  0.00     0.000 C 
BRANCH   5   6
ATOM      6  C   UNL     1     -21.616 -19.898  28.476  1.00  0.00     0.000 C 
BRANCH   6   7
ATOM      7  C   UNL     1     -22.500 -18.632  28.442  1.00  0.00     0.000 C 
BRANCH   7   8
ATOM      8  C   UNL     1     -23.539 -18.622  29.574  1.00  0.00     0.000 C 
BRANCH   8   9
ATOM      9  C   UNL     1     -22.913 -19.069  30.902  1.00  0.00     0.000 C 
BRANCH   9  10
ATOM     10  C   UNL     1     -23.740 -20.189  31.549  1.00  0.00     0.000 C 
BRANCH  10  11
ATOM     11  C   UNL     1     -24.955 -20.602  30.697  1.00  0.00     0.000 C 
BRANCH  11  12
ATOM     12  C   UNL     1     -25.272 -22.112  30.701  1.00  0.00     0.000 C 
BRANCH  12  13
ATOM     13  C   UNL     1     -26.147 -22.603  29.530  1.00  0.00     0.006 C 
BRANCH  13  14
ATOM     14  C   UNL     1     -25.503 -22.443  28.144  1.00  0.00     0.053 C 
BRANCH  14  15
ATOM     15  C   UNL     1     -25.195 -23.767  27.513  1.00  0.00     0.041 C 
ATOM     16  O   UNL     1     -25.973 -24.743  27.674  1.00  0.00    -0.550 OA
ATOM     17  O   UNL     1     -24.059 -23.915  26.728  1.00  0.00    -0.550 OA
ENDBRANCH  14  15
ENDBRANCH  13  14
ENDBRANCH  12  13
ENDBRANCH  11  12
ENDBRANCH  10  11
ENDBRANCH   9  10
ENDBRANCH   8   9
ENDBRANCH   7   8
ENDBRANCH   6   7
ENDBRANCH   5   6
ENDBRANCH   4   5
ENDBRANCH   3   4
ENDBRANCH   2   3
ENDBRANCH   1   2
BRANCH   1  18
ATOM     18  C   UNL     1     -18.797 -24.854  29.034  1.00  0.00     0.000 C 
BRANCH  18  19
ATOM     19  C   UNL     1     -17.429 -24.355  29.524  1.00  0.00     0.000 C 
BRANCH  19  20
ATOM     20  C   UNL     1     -17.394 -24.263  31.057  1.00  0.00     0.000 C 
BRANCH  20  21
ATOM     21  C   UNL     1     -16.430 -23.177  31.569  1.00  0.00     0.000 C 
BRANCH  21  22
ATOM     22  C   UNL     1     -17.107 -21.907  32.124  1.00  0.00     0.000 C 
BRANCH  22  23
ATOM     23  C   UNL     1     -17.971 -21.126  31.116  1.00  0.00     0.000 C 
BRANCH  23  24
ATOM     24  C   UNL     1     -19.405 -20.885  31.618  1.00  0.00    -0.000 C 
BRANCH  24  25
ATOM     25  C   UNL     1     -20.414 -21.886  31.032  1.00  0.00    -0.000 C 
BRANCH  25  26
ATOM     26  C   UNL     1     -20.743 -23.035  31.996  1.00  0.00    -0.000 C 
BRANCH  26  27
ATOM     27  C   UNL     1     -22.101 -23.662  31.658  1.00  0.00    -0.000 C 
BRANCH  27  28
ATOM     28  C   UNL     1     -22.288 -23.789  30.139  1.00  0.00    -0.000 C 
BRANCH  28  29
ATOM     29  C   UNL     1     -22.535 -25.236  29.686  1.00  0.00    -0.000 C 
BRANCH  29  30
ATOM     30  C   UNL     1     -22.449 -26.244  30.846  1.00  0.00    -0.000 C 
BRANCH  30  31
ATOM     31  C   UNL     1     -21.207 -27.144  30.751  1.00  0.00    -0.003 C 
ATOM     32  C   UNL     1     -20.181 -26.852  31.848  1.00  0.00     0.004 C 
ENDBRANCH  30  31
ENDBRANCH  29  30
ENDBRANCH  28  29
ENDBRANCH  27  28
ENDBRANCH  26  27
ENDBRANCH  25  26
ENDBRANCH  24  25
ENDBRANCH  23  24
ENDBRANCH  22  23
ENDBRANCH  21  22
ENDBRANCH  20  21
ENDBRANCH  19  20
ENDBRANCH  18  19
ENDBRANCH   1  18
TORSDOF 28
ENDMDL
MODEL 6
REMARK VINA RESULT:    -1.019      2.997      5.888
REMARK INTER + INTRA:          -9.328
REMARK INTER:                  -2.816
REMARK INTRA:                  -6.512
REMARK UNBOUND:                -6.640
REMARK SMILES CCCCCCCCCCCCCCCCCCCCCCCCCCCCCC(=O)[O-]
REMARK SMILES IDX 16 1 17 2 18 3 19 4 20 5 21 6 22 7 23 8 24 9 25 10 26 11
REMARK SMILES IDX 27 12 28 13 29 14 30 15 31 16 32 17 15 18 14 19 13 20 12 21
REMARK SMILES IDX 11 22 10 23 9 24 8 25 7 26 6 27 5 28 4 29 3 30 2 31 1 32
REMARK H PARENT
REMARK Flexibility Score: inf
ROOT
ATOM      1  C   UNL     1     -22.788 -22.258  26.871  1.00  0.00     0.000 C 
ENDROOT
BRANCH   1   2
ATOM      2  C   UNL     1     -23.820 -22.000  27.979  1.00  0.00     0.000 C 
BRANCH   2   3
ATOM      3  C   UNL     1     -23.409 -20.794  28.838  1.00  0.00     0.000 C 
BRANCH   3   4
ATOM      4  C   UNL     1     -23.712 -20.993  30.330  1.00  0.00     0.000 C 
BRANCH   4   5
ATOM      5  C   UNL     1     -22.448 -21.270  31.160  1.00  0.00     0.000 C 
BRANCH   5   6
ATOM      6  C   UNL     1     -21.165 -20.767  30.477  1.00  0.00     0.000 C 
BRANCH   6   7
ATOM      7  C   UNL     1     -19.872 -21.130  31.240  1.00  0.00     0.000 C 
BRANCH   7   8
ATOM      8  C   UNL     1     -19.710 -22.648  31.413  1.00  0.00     0.000 C 
BRANCH   8   9
ATOM      9  C   UNL     1     -19.459 -23.334  30.064  1.00  0.00     0.000 C 
BRANCH   9  10
ATOM     10  C   UNL     1     -20.150 -24.704  30.008  1.00  0.00     0.000 C 
BRANCH  10  11
ATOM     11  C   UNL     1     -21.620 -24.613  29.560  1.00  0.00     0.000 C 
BRANCH  11  12
ATOM     12  C   UNL     1     -21.954 -25.372  28.259  1.00  0.00     0.000 C 
BRANCH  12  13
ATOM     13  C   UNL     1     -20.776 -26.140  27.626  1.00  0.00     0.006 C 
BRANCH  13  14
ATOM     14  C   UNL     1     -20.456 -25.736  26.179  1.00  0.00     0.053 C 
BRANCH  14  15
ATOM     15  C   UNL     1     -21.446 -26.301  25.207  1.00  0.00     0.041 C 
ATOM     16  O   UNL     1     -21.619 -27.546  25.129  1.00  0.00    -0.550 OA
ATOM     17  O   UNL     1     -22.195 -25.451  24.404  1.00  0.00    -0.550 OA
ENDBRANCH  14  15
ENDBRANCH  13  14
ENDBRANCH  12  13
ENDBRANCH  11  12
ENDBRANCH  10  11
ENDBRANCH   9  10
ENDBRANCH   8   9
ENDBRANCH   7   8
ENDBRANCH   6   7
ENDBRANCH   5   6
ENDBRANCH   4   5
ENDBRANCH   3   4
ENDBRANCH   2   3
ENDBRANCH   1   2
BRANCH   1  18
ATOM     18  C   UNL     1     -21.519 -21.405  27.032  1.00  0.00     0.000 C 
BRANCH  18  19
ATOM     19  C   UNL     1     -20.252 -22.136  26.559  1.00  0.00     0.000 C 
BRANCH  19  20
ATOM     20  C   UNL     1     -19.048 -21.184  26.526  1.00  0.00     0.000 C 
BRANCH  20  21
ATOM     21  C   UNL     1     -17.731 -21.871  26.931  1.00  0.00     0.000 C 
BRANCH  21  22
ATOM     22  C   UNL     1     -17.113 -21.377  28.256  1.00  0.00     0.000 C 
BRANCH  22  23
ATOM     23  C   UNL     1     -15.580 -21.481  28.346  1.00  0.00     0.000 C 
BRANCH  23  24
ATOM     24  C   UNL     1     -15.069 -21.541  29.796  1.00  0.00    -0.000 C 
BRANCH  24  25
ATOM     25  C   UNL     1     -16.211 -21.582  30.824  1.00  0.00    -0.000 C 
BRANCH  25  26
ATOM     26  C   UNL     1     -16.030 -22.688  31.874  1.00  0.00    -0.000 C 
BRANCH  26  27
ATOM     27  C   UNL     1     -14.982 -23.710  31.419  1.00  0.00    -0.000 C 
BRANCH  27  28
ATOM     28  C   UNL     1     -15.494 -25.147  31.609  1.00  0.00    -0.000 C 
BRANCH  28  29
ATOM     29  C   UNL     1     -16.437 -25.598  30.483  1.00  0.00    -0.000 C 
BRANCH  29  30
ATOM     30  C   UNL     1     -15.965 -25.139  29.092  1.00  0.00    -0.000 C 
BRANCH  30  31
ATOM     31  C   UNL     1     -17.061 -25.279  28.025  1.00  0.00    -0.003 C 
ATOM     32  C   UNL     1     -16.499 -25.322  26.603  1.00  0.00     0.004 C 
ENDBRANCH  30  31
ENDBRANCH  29  30
ENDBRANCH  28  29
ENDBRANCH  27  28
ENDBRANCH  26  27
ENDBRANCH  25  26
ENDBRANCH  24  25
ENDBRANCH  23  24
ENDBRANCH  22  23
ENDBRANCH  21  22
ENDBRANCH  20  21
ENDBRANCH  19  20
ENDBRANCH  18  19
ENDBRANCH   1  18
TORSDOF 28
ENDMDL
MODEL 7
REMARK VINA RESULT:    -1.006      2.540      5.514
REMARK INTER + INTRA:          -9.294
REMARK INTER:                  -2.864
REMARK INTRA:                  -6.430
REMARK UNBOUND:                -6.640
REMARK SMILES CCCCCCCCCCCCCCCCCCCCCCCCCCCCCC(=O)[O-]
REMARK SMILES IDX 16 1 17 2 18 3 19 4 20 5 21 6 22 7 23 8 24 9 25 10 26 11
REMARK SMILES IDX 27 12 28 13 29 14 30 15 31 16 32 17 15 18 14 19 13 20 12 21
REMARK SMILES IDX 11 22 10 23 9 24 8 25 7 26 6 27 5 28 4 29 3 30 2 31 1 32
REMARK H PARENT
REMARK Flexibility Score: inf
ROOT
ATOM      1  C   UNL     1     -20.204 -25.758  28.450  1.00  0.00     0.000 C 
ENDROOT
BRANCH   1   2
ATOM      2  C   UNL     1     -19.451 -27.054  28.112  1.00  0.00     0.000 C 
BRANCH   2   3
ATOM      3  C   UNL     1     -18.750 -27.618  29.358  1.00  0.00     0.000 C 
BRANCH   3   4
ATOM      4  C   UNL     1     -17.272 -27.208  29.448  1.00  0.00     0.000 C 
BRANCH   4   5
ATOM      5  C   UNL     1     -16.973 -26.336  30.678  1.00  0.00     0.000 C 
BRANCH   5   6
ATOM      6  C   UNL     1     -15.496 -25.914  30.764  1.00  0.00     0.000 C 
BRANCH   6   7
ATOM      7  C   UNL     1     -15.245 -24.725  31.717  1.00  0.00     0.000 C 
BRANCH   7   8
ATOM      8  C   UNL     1     -16.479 -23.819  31.849  1.00  0.00     0.000 C 
BRANCH   8   9
ATOM      9  C   UNL     1     -16.069 -22.351  32.027  1.00  0.00     0.000 C 
BRANCH   9  10
ATOM     10  C   UNL     1     -16.356 -21.543  30.754  1.00  0.00     0.000 C 
BRANCH  10  11
ATOM     11  C   UNL     1     -15.195 -21.590  29.743  1.00  0.00     0.000 C 
BRANCH  11  12
ATOM     12  C   UNL     1     -15.392 -22.572  28.569  1.00  0.00     0.000 C 
BRANCH  12  13
ATOM     13  C   UNL     1     -16.848 -22.744  28.093  1.00  0.00     0.006 C 
BRANCH  13  14
ATOM     14  C   UNL     1     -17.158 -24.114  27.471  1.00  0.00     0.053 C 
BRANCH  14  15
ATOM     15  C   UNL     1     -17.117 -24.072  25.974  1.00  0.00     0.041 C 
ATOM     16  O   UNL     1     -17.780 -24.901  25.297  1.00  0.00    -0.550 OA
ATOM     17  O   UNL     1     -16.365 -23.100  25.326  1.00  0.00    -0.550 OA
ENDBRANCH  14  15
ENDBRANCH  13  14
ENDBRANCH  12  13
ENDBRANCH  11  12
ENDBRANCH  10  11
ENDBRANCH   9  10
ENDBRANCH   8   9
ENDBRANCH   7   8
ENDBRANCH   6   7
ENDBRANCH   5   6
ENDBRANCH   4   5
ENDBRANCH   3   4
ENDBRANCH   2   3
ENDBRANCH   1   2
BRANCH   1  18
ATOM     18  C   UNL     1     -21.051 -25.880  29.728  1.00  0.00     0.000 C 
BRANCH  18  19
ATOM     19  C   UNL     1     -20.612 -24.894  30.822  1.00  0.00     0.000 C 
BRANCH  19  20
ATOM     20  C   UNL     1     -19.599 -23.878  30.273  1.00  0.00     0.000 C 
BRANCH  20  21
ATOM     21  C   UNL     1     -19.881 -22.439  30.743  1.00  0.00     0.000 C 
BRANCH  21  22
ATOM     22  C   UNL     1     -21.001 -22.299  31.793  1.00  0.00     0.000 C 
BRANCH  22  23
ATOM     23  C   UNL     1     -22.232 -21.492  31.340  1.00  0.00     0.000 C 
BRANCH  23  24
ATOM     24  C   UNL     1     -23.131 -22.271  30.364  1.00  0.00    -0.000 C 
BRANCH  24  25
ATOM     25  C   UNL     1     -22.935 -21.835  28.903  1.00  0.00    -0.000 C 
BRANCH  25  26
ATOM     26  C   UNL     1     -22.718 -23.020  27.950  1.00  0.00    -0.000 C 
BRANCH  26  27
ATOM     27  C   UNL     1     -21.917 -22.591  26.715  1.00  0.00    -0.000 C 
BRANCH  27  28
ATOM     28  C   UNL     1     -20.448 -22.320  27.076  1.00  0.00    -0.000 C 
BRANCH  28  29
ATOM     29  C   UNL     1     -20.035 -20.859  26.840  1.00  0.00    -0.000 C 
BRANCH  29  30
ATOM     30  C   UNL     1     -18.902 -20.722  25.808  1.00  0.00    -0.000 C 
BRANCH  30  31
ATOM     31  C   UNL     1     -19.429 -20.647  24.366  1.00  0.00    -0.003 C 
ATOM     32  C   UNL     1     -19.355 -21.990  23.639  1.00  0.00     0.004 C 
ENDBRANCH  30  31
ENDBRANCH  29  30
ENDBRANCH  28  29
ENDBRANCH  27  28
ENDBRANCH  26  27
ENDBRANCH  25  26
ENDBRANCH  24  25
ENDBRANCH  23  24
ENDBRANCH  22  23
ENDBRANCH  21  22
ENDBRANCH  20  21
ENDBRANCH  19  20
ENDBRANCH  18  19
ENDBRANCH   1  18
TORSDOF 28
ENDMDL
MODEL 8
REMARK VINA RESULT:    -1.006      3.878      6.425
REMARK INTER + INTRA:          -9.293
REMARK INTER:                  -3.002
REMARK INTRA:                  -6.291
REMARK UNBOUND:                -6.640
REMARK SMILES CCCCCCCCCCCCCCCCCCCCCCCCCCCCCC(=O)[O-]
REMARK SMILES IDX 16 1 17 2 18 3 19 4 20 5 21 6 22 7 23 8 24 9 25 10 26 11
REMARK SMILES IDX 27 12 28 13 29 14 30 15 31 16 32 17 15 18 14 19 13 20 12 21
REMARK SMILES IDX 11 22 10 23 9 24 8 25 7 26 6 27 5 28 4 29 3 30 2 31 1 32
REMARK H PARENT
REMARK Flexibility Score: inf
ROOT
ATOM      1  C   UNL     1     -20.685 -26.192  29.134  1.00  0.00     0.000 C 
ENDROOT
BRANCH   1   2
ATOM      2  C   UNL     1     -20.763 -25.148  30.259  1.00  0.00     0.000 C 
BRANCH   2   3
ATOM      3  C   UNL     1     -19.668 -25.396  31.309  1.00  0.00     0.000 C 
BRANCH   3   4
ATOM      4  C   UNL     1     -18.561 -24.332  31.280  1.00  0.00     0.000 C 
BRANCH   4   5
ATOM      5  C   UNL     1     -18.902 -23.147  30.361  1.00  0.00     0.000 C 
BRANCH   5   6
ATOM      6  C   UNL     1     -18.573 -21.785  30.998  1.00  0.00     0.000 C 
BRANCH   6   7
ATOM      7  C   UNL     1     -17.060 -21.481  31.064  1.00  0.00     0.000 C 
BRANCH   7   8
ATOM      8  C   UNL     1     -16.396 -21.544  29.680  1.00  0.00     0.000 C 
BRANCH   8   9
ATOM      9  C   UNL     1     -15.233 -22.544  29.672  1.00  0.00     0.000 C 
BRANCH   9  10
ATOM     10  C   UNL     1     -15.537 -23.731  28.746  1.00  0.00     0.000 C 
BRANCH  10  11
ATOM     11  C   UNL     1     -15.347 -25.093  29.440  1.00  0.00     0.000 C 
BRANCH  11  12
ATOM     12  C   UNL     1     -15.101 -25.021  30.961  1.00  0.00     0.000 C 
BRANCH  12  13
ATOM     13  C   UNL     1     -15.065 -26.382  31.686  1.00  0.00     0.006 C 
BRANCH  13  14
ATOM     14  C   UNL     1     -16.228 -27.322  31.333  1.00  0.00     0.053 C 
BRANCH  14  15
ATOM     15  C   UNL     1     -15.748 -28.695  30.972  1.00  0.00     0.041 C 
ATOM     16  O   UNL     1     -15.502 -29.539  31.873  1.00  0.00    -0.550 OA
ATOM     17  O   UNL     1     -15.596 -29.049  29.638  1.00  0.00    -0.550 OA
ENDBRANCH  14  15
ENDBRANCH  13  14
ENDBRANCH  12  13
ENDBRANCH  11  12
ENDBRANCH  10  11
ENDBRANCH   9  10
ENDBRANCH   8   9
ENDBRANCH   7   8
ENDBRANCH   6   7
ENDBRANCH   5   6
ENDBRANCH   4   5
ENDBRANCH   3   4
ENDBRANCH   2   3
ENDBRANCH   1   2
BRANCH   1  18
ATOM     18  C   UNL     1     -19.682 -27.317  29.437  1.00  0.00     0.000 C 
BRANCH  18  19
ATOM     19  C   UNL     1     -18.517 -27.354  28.434  1.00  0.00     0.000 C 
BRANCH  19  20
ATOM     20  C   UNL     1     -18.413 -26.030  27.663  1.00  0.00     0.000 C 
BRANCH  20  21
ATOM     21  C   UNL     1     -17.977 -26.224  26.199  1.00  0.00     0.000 C 
BRANCH  21  22
ATOM     22  C   UNL     1     -17.002 -25.158  25.658  1.00  0.00     0.000 C 
BRANCH  22  23
ATOM     23  C   UNL     1     -17.663 -23.959  24.952  1.00  0.00     0.000 C 
BRANCH  23  24
ATOM     24  C   UNL     1     -17.541 -22.652  25.753  1.00  0.00    -0.000 C 
BRANCH  24  25
ATOM     25  C   UNL     1     -18.570 -22.558  26.891  1.00  0.00    -0.000 C 
BRANCH  25  26
ATOM     26  C   UNL     1     -19.271 -21.193  26.951  1.00  0.00    -0.000 C 
BRANCH  26  27
ATOM     27  C   UNL     1     -20.692 -21.280  26.380  1.00  0.00    -0.000 C 
BRANCH  27  28
ATOM     28  C   UNL     1     -21.219 -22.722  26.431  1.00  0.00    -0.000 C 
BRANCH  28  29
ATOM     29  C   UNL     1     -22.060 -23.007  27.686  1.00  0.00    -0.000 C 
BRANCH  29  30
ATOM     30  C   UNL     1     -22.639 -21.727  28.315  1.00  0.00    -0.000 C 
BRANCH  30  31
ATOM     31  C   UNL     1     -22.198 -21.541  29.775  1.00  0.00    -0.003 C 
ATOM     32  C   UNL     1     -21.684 -20.129  30.061  1.00  0.00     0.004 C 
ENDBRANCH  30  31
ENDBRANCH  29  30
ENDBRANCH  28  29
ENDBRANCH  27  28
ENDBRANCH  26  27
ENDBRANCH  25  26
ENDBRANCH  24  25
ENDBRANCH  23  24
ENDBRANCH  22  23
ENDBRANCH  21  22
ENDBRANCH  20  21
ENDBRANCH  19  20
ENDBRANCH  18  19
ENDBRANCH   1  18
TORSDOF 28
ENDMDL
MODEL 9
REMARK VINA RESULT:    -1.004      4.773      7.435
REMARK INTER + INTRA:          -9.289
REMARK INTER:                  -2.709
REMARK INTRA:                  -6.580
REMARK UNBOUND:                -6.640
REMARK SMILES CCCCCCCCCCCCCCCCCCCCCCCCCCCCCC(=O)[O-]
REMARK SMILES IDX 16 1 17 2 18 3 19 4 20 5 21 6 22 7 23 8 24 9 25 10 26 11
REMARK SMILES IDX 27 12 28 13 29 14 30 15 31 16 32 17 15 18 14 19 13 20 12 21
REMARK SMILES IDX 11 22 10 23 9 24 8 25 7 26 6 27 5 28 4 29 3 30 2 31 1 32
REMARK H PARENT
REMARK Flexibility Score: inf
ROOT
ATOM      1  C   UNL     1     -17.268 -25.038  27.555  1.00  0.00     0.000 C 
ENDROOT
BRANCH   1   2
ATOM      2  C   UNL     1     -18.410 -26.021  27.256  1.00  0.00     0.000 C 
BRANCH   2   3
ATOM      3  C   UNL     1     -19.772 -25.312  27.320  1.00  0.00     0.000 C 
BRANCH   3   4
ATOM      4  C   UNL     1     -20.922 -26.261  27.687  1.00  0.00     0.000 C 
BRANCH   4   5
ATOM      5  C   UNL     1     -22.234 -25.516  27.981  1.00  0.00     0.000 C 
BRANCH   5   6
ATOM      6  C   UNL     1     -22.124 -23.999  27.745  1.00  0.00     0.000 C 
BRANCH   6   7
ATOM      7  C   UNL     1     -22.852 -23.151  28.810  1.00  0.00     0.000 C 
BRANCH   7   8
ATOM      8  C   UNL     1     -23.890 -23.970  29.593  1.00  0.00     0.000 C 
BRANCH   8   9
ATOM      9  C   UNL     1     -23.476 -24.124  31.062  1.00  0.00     0.000 C 
BRANCH   9  10
ATOM     10  C   UNL     1     -24.035 -25.426  31.655  1.00  0.00     0.000 C 
BRANCH  10  11
ATOM     11  C   UNL     1     -24.971 -26.170  30.684  1.00  0.00     0.000 C 
BRANCH  11  12
ATOM     12  C   UNL     1     -24.464 -27.551  30.219  1.00  0.00     0.000 C 
BRANCH  12  13
ATOM     13  C   UNL     1     -23.135 -28.010  30.852  1.00  0.00     0.006 C 
BRANCH  13  14
ATOM     14  C   UNL     1     -22.281 -28.919  29.954  1.00  0.00     0.053 C 
BRANCH  14  15
ATOM     15  C   UNL     1     -22.758 -30.339  29.979  1.00  0.00     0.041 C 
ATOM     16  O   UNL     1     -22.638 -31.031  31.024  1.00  0.00    -0.550 OA
ATOM     17  O   UNL     1     -23.358 -30.891  28.855  1.00  0.00    -0.550 OA
ENDBRANCH  14  15
ENDBRANCH  13  14
ENDBRANCH  12  13
ENDBRANCH  11  12
ENDBRANCH  10  11
ENDBRANCH   9  10
ENDBRANCH   8   9
ENDBRANCH   7   8
ENDBRANCH   6   7
ENDBRANCH   5   6
ENDBRANCH   4   5
ENDBRANCH   3   4
ENDBRANCH   2   3
ENDBRANCH   1   2
BRANCH   1  18
ATOM     18  C   UNL     1     -16.784 -25.117  29.013  1.00  0.00     0.000 C 
BRANCH  18  19
ATOM     19  C   UNL     1     -15.288 -24.793  29.156  1.00  0.00     0.000 C 
BRANCH  19  20
ATOM     20  C   UNL     1     -14.904 -24.611  30.632  1.00  0.00     0.000 C 
BRANCH  20  21
ATOM     21  C   UNL     1     -16.108 -24.257  31.524  1.00  0.00     0.000 C 
BRANCH  21  22
ATOM     22  C   UNL     1     -16.085 -22.837  32.125  1.00  0.00     0.000 C 
BRANCH  22  23
ATOM     23  C   UNL     1     -16.230 -21.689  31.108  1.00  0.00     0.000 C 
BRANCH  23  24
ATOM     24  C   UNL     1     -17.584 -21.703  30.379  1.00  0.00    -0.000 C 
BRANCH  24  25
ATOM     25  C   UNL     1     -18.758 -21.345  31.306  1.00  0.00    -0.000 C 
BRANCH  25  26
ATOM     26  C   UNL     1     -20.022 -22.164  31.012  1.00  0.00    -0.000 C 
BRANCH  26  27
ATOM     27  C   UNL     1     -19.662 -23.571  30.519  1.00  0.00    -0.000 C 
BRANCH  27  28
ATOM     28  C   UNL     1     -19.869 -24.614  31.628  1.00  0.00    -0.000 C 
BRANCH  28  29
ATOM     29  C   UNL     1     -20.103 -26.030  31.080  1.00  0.00    -0.000 C 
BRANCH  29  30
ATOM     30  C   UNL     1     -18.911 -26.970  31.332  1.00  0.00    -0.000 C 
BRANCH  30  31
ATOM     31  C   UNL     1     -18.719 -27.991  30.200  1.00  0.00    -0.003 C 
ATOM     32  C   UNL     1     -17.299 -28.560  30.152  1.00  0.00     0.004 C 
ENDBRANCH  30  31
ENDBRANCH  29  30
ENDBRANCH  28  29
ENDBRANCH  27  28
ENDBRANCH  26  27
ENDBRANCH  25  26
ENDBRANCH  24  25
ENDBRANCH  23  24
ENDBRANCH  22  23
ENDBRANCH  21  22
ENDBRANCH  20  21
ENDBRANCH  19  20
ENDBRANCH  18  19
ENDBRANCH   1  18
TORSDOF 28
ENDMDL
