MODEL 1
REMARK VINA RESULT:    -5.830      0.000      0.000
REMARK INTER + INTRA:         -14.977
REMARK INTER:                 -12.647
REMARK INTRA:                  -2.330
REMARK UNBOUND:                -2.330
REMARK SMILES CCCCCCCCCCCCCCCCCCCCCC(=O)[O-]
REMARK SMILES IDX 12 1 11 2 10 3 9 4 8 5 7 6 6 7 5 8 4 9 3 10 2 11 1 12 13 13
REMARK SMILES IDX 14 14 15 15 16 16 17 17 18 18 19 19 20 20 21 21 22 22 23 23
REMARK SMILES IDX 24 24
REMARK H PARENT
REMARK Flexibility Score: inf
ROOT
ATOM      1  C   UNL     1      54.514  29.985  42.559  1.00  0.00     0.000 C 
ENDROOT
BRANCH   1   2
ATOM      2  C   UNL     1      55.200  30.841  43.636  1.00  0.00     0.000 C 
BRANCH   2   3
ATOM      3  C   UNL     1      54.945  32.349  43.457  1.00  0.00     0.000 C 
BRANCH   3   4
ATOM      4  C   UNL     1      55.856  33.051  42.433  1.00  0.00    -0.000 C 
BRANCH   4   5
ATOM      5  C   UNL     1      55.431  34.501  42.147  1.00  0.00    -0.000 C 
BRANCH   5   6
ATOM      6  C   UNL     1      56.157  35.529  43.035  1.00  0.00    -0.000 C 
BRANCH   6   7
ATOM      7  C   UNL     1      55.885  37.004  42.686  1.00  0.00    -0.000 C 
BRANCH   7   8
ATOM      8  C   UNL     1      55.176  37.180  41.333  1.00  0.00    -0.000 C 
BRANCH   8   9
ATOM      9  C   UNL     1      56.063  37.865  40.278  1.00  0.00    -0.000 C 
BRANCH   9  10
ATOM     10  C   UNL     1      56.015  37.227  38.875  1.00  0.00    -0.000 C 
BRANCH  10  11
ATOM     11  C   UNL     1      57.105  37.710  37.902  1.00  0.00    -0.003 C 
ATOM     12  C   UNL     1      58.247  38.443  38.604  1.00  0.00     0.004 C 
ENDBRANCH  10  11
ENDBRANCH   9  10
ENDBRANCH   8   9
ENDBRANCH   7   8
ENDBRANCH   6   7
ENDBRANCH   5   6
ENDBRANCH   4   5
ENDBRANCH   3   4
ENDBRANCH   2   3
ENDBRANCH   1   2
BRANCH   1  13
ATOM     13  C   UNL     1      53.127  29.525  43.024  1.00  0.00     0.000 C 
BRANCH  13  14
ATOM     14  C   UNL     1      52.051  29.889  41.991  1.00  0.00     0.000 C 
BRANCH  14  15
ATOM     15  C   UNL     1      50.708  30.256  42.640  1.00  0.00     0.000 C 
BRANCH  15  16
ATOM     16  C   UNL     1      50.304  31.716  42.378  1.00  0.00     0.000 C 
BRANCH  16  17
ATOM     17  C   UNL     1      51.491  32.689  42.474  1.00  0.00     0.000 C 
BRANCH  17  18
ATOM     18  C   UNL     1      51.288  33.800  43.526  1.00  0.00     0.000 C 
BRANCH  18  19
ATOM     19  C   UNL     1      52.239  34.990  43.306  1.00  0.00     0.000 C 
BRANCH  19  20
ATOM     20  C   UNL     1      52.265  35.958  44.499  1.00  0.00     0.006 C 
BRANCH  20  21
ATOM     21  C   UNL     1      53.392  35.641  45.492  1.00  0.00     0.053 C 
BRANCH  21  22
ATOM     22  C   UNL     1      53.361  36.595  46.644  1.00  0.00     0.041 C 
ATOM     23  O   UNL     1      52.967  37.780  46.473  1.00  0.00    -0.550 OA
ATOM     24  O   UNL     1      53.739  36.169  47.912  1.00  0.00    -0.550 OA
ENDBRANCH  21  22
ENDBRANCH  20  21
ENDBRANCH  19  20
ENDBRANCH  18  19
ENDBRANCH  17  18
ENDBRANCH  16  17
ENDBRANCH  15  16
ENDBRANCH  14  15
ENDBRANCH  13  14
ENDBRANCH   1  13
TORSDOF 20
ENDMDL
MODEL 2
REMARK VINA RESULT:    -5.806      4.553      7.846
REMARK INTER + INTRA:         -14.925
REMARK INTER:                 -12.287
REMARK INTRA:                  -2.638
REMARK UNBOUND:                -2.330
REMARK SMILES CCCCCCCCCCCCCCCCCCCCCC(=O)[O-]
REMARK SMILES IDX 12 1 11 2 10 3 9 4 8 5 7 6 6 7 5 8 4 9 3 10 2 11 1 12 13 13
REMARK SMILES IDX 14 14 15 15 16 16 17 17 18 18 19 19 20 20 21 21 22 22 23 23
REMARK SMILES IDX 24 24
REMARK H PARENT
REMARK Flexibility Score: inf
ROOT
ATOM      1  C   UNL     1      59.279  38.500  38.764  1.00  0.00     0.000 C 
ENDROOT
BRANCH   1   2
ATOM      2  C   UNL     1      60.276  37.745  37.871  1.00  0.00     0.000 C 
BRANCH   2   3
ATOM      3  C   UNL     1      59.621  37.140  36.616  1.00  0.00     0.000 C 
BRANCH   3   4
ATOM      4  C   UNL     1      60.602  36.628  35.546  1.00  0.00    -0.000 C 
BRANCH   4   5
ATOM      5  C   UNL     1      60.830  37.638  34.408  1.00  0.00    -0.000 C 
BRANCH   5   6
ATOM      6  C   UNL     1      61.903  38.691  34.742  1.00  0.00    -0.000 C 
BRANCH   6   7
ATOM      7  C   UNL     1      61.474  40.154  34.527  1.00  0.00    -0.000 C 
BRANCH   7   8
ATOM      8  C   UNL     1      60.273  40.561  35.396  1.00  0.00    -0.000 C 
BRANCH   8   9
ATOM      9  C   UNL     1      58.990  40.785  34.576  1.00  0.00    -0.000 C 
BRANCH   9  10
ATOM     10  C   UNL     1      57.769  39.967  35.045  1.00  0.00    -0.000 C 
BRANCH  10  11
ATOM     11  C   UNL     1      57.371  38.803  34.119  1.00  0.00    -0.003 C 
ATOM     12  C   UNL     1      56.430  37.803  34.790  1.00  0.00     0.004 C 
ENDBRANCH  10  11
ENDBRANCH   9  10
ENDBRANCH   8   9
ENDBRANCH   7   8
ENDBRANCH   6   7
ENDBRANCH   5   6
ENDBRANCH   4   5
ENDBRANCH   3   4
ENDBRANCH   2   3
ENDBRANCH   1   2
BRANCH   1  13
ATOM     13  C   UNL     1      57.833  38.186  38.360  1.00  0.00     0.000 C 
BRANCH  13  14
ATOM     14  C   UNL     1      56.859  38.518  39.500  1.00  0.00     0.000 C 
BRANCH  14  15
ATOM     15  C   UNL     1      56.081  37.287  39.990  1.00  0.00     0.000 C 
BRANCH  15  16
ATOM     16  C   UNL     1      56.252  37.041  41.498  1.00  0.00     0.000 C 
BRANCH  16  17
ATOM     17  C   UNL     1      54.960  36.545  42.170  1.00  0.00     0.000 C 
BRANCH  17  18
ATOM     18  C   UNL     1      55.019  36.583  43.712  1.00  0.00     0.000 C 
BRANCH  18  19
ATOM     19  C   UNL     1      54.537  37.929  44.280  1.00  0.00     0.000 C 
BRANCH  19  20
ATOM     20  C   UNL     1      53.109  38.283  43.834  1.00  0.00     0.006 C 
BRANCH  20  21
ATOM     21  C   UNL     1      52.968  39.755  43.420  1.00  0.00     0.053 C 
BRANCH  21  22
ATOM     22  C   UNL     1      53.392  39.942  41.997  1.00  0.00     0.041 C 
ATOM     23  O   UNL     1      54.116  40.922  41.677  1.00  0.00    -0.550 OA
ATOM     24  O   UNL     1      53.012  39.019  41.030  1.00  0.00    -0.550 OA
ENDBRANCH  21  22
ENDBRANCH  20  21
ENDBRANCH  19  20
ENDBRANCH  18  19
ENDBRANCH  17  18
ENDBRANCH  16  17
ENDBRANCH  15  16
ENDBRANCH  14  15
ENDBRANCH  13  14
ENDBRANCH   1  13
TORSDOF 20
ENDMDL
MODEL 3
REMARK VINA RESULT:    -5.773      3.368      7.807
REMARK INTER + INTRA:         -14.852
REMARK INTER:                 -12.067
REMARK INTRA:                  -2.785
REMARK UNBOUND:                -2.330
REMARK SMILES CCCCCCCCCCCCCCCCCCCCCC(=O)[O-]
REMARK SMILES IDX 12 1 11 2 10 3 9 4 8 5 7 6 6 7 5 8 4 9 3 10 2 11 1 12 13 13
REMARK SMILES IDX 14 14 15 15 16 16 17 17 18 18 19 19 20 20 21 21 22 22 23 23
REMARK SMILES IDX 24 24
REMARK H PARENT
REMARK Flexibility Score: inf
ROOT
ATOM      1  C   UNL     1      58.943  38.166  38.974  1.00  0.00     0.000 C 
ENDROOT
BRANCH   1   2
ATOM      2  C   UNL     1      59.964  38.572  37.899  1.00  0.00     0.000 C 
BRANCH   2   3
ATOM      3  C   UNL     1      60.826  37.392  37.413  1.00  0.00     0.000 C 
BRANCH   3   4
ATOM      4  C   UNL     1      60.416  36.796  36.055  1.00  0.00    -0.000 C 
BRANCH   4   5
ATOM      5  C   UNL     1      61.468  37.026  34.956  1.00  0.00    -0.000 C 
BRANCH   5   6
ATOM      6  C   UNL     1      61.135  38.220  34.042  1.00  0.00    -0.000 C 
BRANCH   6   7
ATOM      7  C   UNL     1      61.726  39.570  34.489  1.00  0.00    -0.000 C 
BRANCH   7   8
ATOM      8  C   UNL     1      60.659  40.555  34.994  1.00  0.00    -0.000 C 
BRANCH   8   9
ATOM      9  C   UNL     1      59.342  40.468  34.202  1.00  0.00    -0.000 C 
BRANCH   9  10
ATOM     10  C   UNL     1      58.095  40.135  35.047  1.00  0.00    -0.000 C 
BRANCH  10  11
ATOM     11  C   UNL     1      57.066  39.224  34.356  1.00  0.00    -0.003 C 
ATOM     12  C   UNL     1      57.340  37.737  34.581  1.00  0.00     0.004 C 
ENDBRANCH  10  11
ENDBRANCH   9  10
ENDBRANCH   8   9
ENDBRANCH   7   8
ENDBRANCH   6   7
ENDBRANCH   5   6
ENDBRANCH   4   5
ENDBRANCH   3   4
ENDBRANCH   2   3
ENDBRANCH   1   2
BRANCH   1  13
ATOM     13  C   UNL     1      57.540  38.674  38.619  1.00  0.00     0.000 C 
BRANCH  13  14
ATOM     14  C   UNL     1      56.619  37.512  38.219  1.00  0.00     0.000 C 
BRANCH  14  15
ATOM     15  C   UNL     1      55.746  37.022  39.384  1.00  0.00     0.000 C 
BRANCH  15  16
ATOM     16  C   UNL     1      55.533  38.102  40.457  1.00  0.00     0.000 C 
BRANCH  16  17
ATOM     17  C   UNL     1      54.167  37.986  41.155  1.00  0.00     0.000 C 
BRANCH  17  18
ATOM     18  C   UNL     1      54.118  36.875  42.225  1.00  0.00     0.000 C 
BRANCH  18  19
ATOM     19  C   UNL     1      55.393  36.842  43.087  1.00  0.00     0.000 C 
BRANCH  19  20
ATOM     20  C   UNL     1      56.191  35.540  42.916  1.00  0.00     0.006 C 
BRANCH  20  21
ATOM     21  C   UNL     1      55.381  34.438  42.217  1.00  0.00     0.053 C 
BRANCH  21  22
ATOM     22  C   UNL     1      54.972  33.385  43.199  1.00  0.00     0.041 C 
ATOM     23  O   UNL     1      54.152  33.658  44.115  1.00  0.00    -0.550 OA
ATOM     24  O   UNL     1      55.475  32.094  43.085  1.00  0.00    -0.550 OA
ENDBRANCH  21  22
ENDBRANCH  20  21
ENDBRANCH  19  20
ENDBRANCH  18  19
ENDBRANCH  17  18
ENDBRANCH  16  17
ENDBRANCH  15  16
ENDBRANCH  14  15
ENDBRANCH  13  14
ENDBRANCH   1  13
TORSDOF 20
ENDMDL
MODEL 4
REMARK VINA RESULT:    -5.735      3.649      7.335
REMARK INTER + INTRA:         -14.770
REMARK INTER:                 -12.307
REMARK INTRA:                  -2.463
REMARK UNBOUND:                -2.330
REMARK SMILES CCCCCCCCCCCCCCCCCCCCCC(=O)[O-]
REMARK SMILES IDX 12 1 11 2 10 3 9 4 8 5 7 6 6 7 5 8 4 9 3 10 2 11 1 12 13 13
REMARK SMILES IDX 14 14 15 15 16 16 17 17 18 18 19 19 20 20 21 21 22 22 23 23
REMARK SMILES IDX 24 24
REMARK H PARENT
REMARK Flexibility Score: inf
ROOT
ATOM      1  C   UNL     1      58.296  38.477  38.548  1.00  0.00     0.000 C 
ENDROOT
BRANCH   1   2
ATOM      2  C   UNL     1      59.648  38.071  37.942  1.00  0.00     0.000 C 
BRANCH   2   3
ATOM      3  C   UNL     1      59.507  37.120  36.739  1.00  0.00     0.000 C 
BRANCH   3   4
ATOM      4  C   UNL     1      60.833  36.649  36.116  1.00  0.00    -0.000 C 
BRANCH   4   5
ATOM      5  C   UNL     1      61.219  37.441  34.855  1.00  0.00    -0.000 C 
BRANCH   5   6
ATOM      6  C   UNL     1      61.941  38.765  35.172  1.00  0.00    -0.000 C 
BRANCH   6   7
ATOM      7  C   UNL     1      61.304  40.022  34.550  1.00  0.00    -0.000 C 
BRANCH   7   8
ATOM      8  C   UNL     1      60.095  40.540  35.346  1.00  0.00    -0.000 C 
BRANCH   8   9
ATOM      9  C   UNL     1      58.851  40.758  34.467  1.00  0.00    -0.000 C 
BRANCH   9  10
ATOM     10  C   UNL     1      57.694  39.769  34.722  1.00  0.00    -0.000 C 
BRANCH  10  11
ATOM     11  C   UNL     1      57.739  38.484  33.876  1.00  0.00    -0.003 C 
ATOM     12  C   UNL     1      56.572  37.540  34.163  1.00  0.00     0.004 C 
ENDBRANCH  10  11
ENDBRANCH   9  10
ENDBRANCH   8   9
ENDBRANCH   7   8
ENDBRANCH   6   7
ENDBRANCH   5   6
ENDBRANCH   4   5
ENDBRANCH   3   4
ENDBRANCH   2   3
ENDBRANCH   1   2
BRANCH   1  13
ATOM     13  C   UNL     1      57.139  37.761  37.840  1.00  0.00     0.000 C 
BRANCH  13  14
ATOM     14  C   UNL     1      56.124  37.217  38.856  1.00  0.00     0.000 C 
BRANCH  14  15
ATOM     15  C   UNL     1      55.981  38.121  40.090  1.00  0.00     0.000 C 
BRANCH  15  16
ATOM     16  C   UNL     1      54.999  37.554  41.128  1.00  0.00     0.000 C 
BRANCH  16  17
ATOM     17  C   UNL     1      54.115  38.639  41.767  1.00  0.00     0.000 C 
BRANCH  17  18
ATOM     18  C   UNL     1      52.762  38.103  42.279  1.00  0.00     0.000 C 
BRANCH  18  19
ATOM     19  C   UNL     1      52.733  36.565  42.344  1.00  0.00     0.000 C 
BRANCH  19  20
ATOM     20  C   UNL     1      52.319  36.037  43.727  1.00  0.00     0.006 C 
BRANCH  20  21
ATOM     21  C   UNL     1      51.826  37.152  44.661  1.00  0.00     0.053 C 
BRANCH  21  22
ATOM     22  C   UNL     1      52.753  37.307  45.826  1.00  0.00     0.041 C 
ATOM     23  O   UNL     1      53.082  38.457  46.223  1.00  0.00    -0.550 OA
ATOM     24  O   UNL     1      53.230  36.184  46.492  1.00  0.00    -0.550 OA
ENDBRANCH  21  22
ENDBRANCH  20  21
ENDBRANCH  19  20
ENDBRANCH  18  19
ENDBRANCH  17  18
ENDBRANCH  16  17
ENDBRANCH  15  16
ENDBRANCH  14  15
ENDBRANCH  13  14
ENDBRANCH   1  13
TORSDOF 20
ENDMDL
MODEL 5
REMARK VINA RESULT:    -5.717      3.049      7.256
REMARK INTER + INTRA:         -14.730
REMARK INTER:                 -12.306
REMARK INTRA:                  -2.424
REMARK UNBOUND:                -2.330
REMARK SMILES CCCCCCCCCCCCCCCCCCCCCC(=O)[O-]
REMARK SMILES IDX 12 1 11 2 10 3 9 4 8 5 7 6 6 7 5 8 4 9 3 10 2 11 1 12 13 13
REMARK SMILES IDX 14 14 15 15 16 16 17 17 18 18 19 19 20 20 21 21 22 22 23 23
REMARK SMILES IDX 24 24
REMARK H PARENT
REMARK Flexibility Score: inf
ROOT
ATOM      1  C   UNL     1      57.160  37.746  37.793  1.00  0.00     0.000 C 
ENDROOT
BRANCH   1   2
ATOM      2  C   UNL     1      58.167  38.684  38.477  1.00  0.00     0.000 C 
BRANCH   2   3
ATOM      3  C   UNL     1      59.575  38.072  38.592  1.00  0.00     0.000 C 
BRANCH   3   4
ATOM      4  C   UNL     1      60.714  38.938  38.024  1.00  0.00    -0.000 C 
BRANCH   4   5
ATOM      5  C   UNL     1      60.247  39.888  36.908  1.00  0.00    -0.000 C 
BRANCH   5   6
ATOM      6  C   UNL     1      61.011  39.686  35.586  1.00  0.00    -0.000 C 
BRANCH   6   7
ATOM      7  C   UNL     1      61.653  38.298  35.405  1.00  0.00    -0.000 C 
BRANCH   7   8
ATOM      8  C   UNL     1      60.869  37.395  34.439  1.00  0.00    -0.000 C 
BRANCH   8   9
ATOM      9  C   UNL     1      59.483  37.002  34.981  1.00  0.00    -0.000 C 
BRANCH   9  10
ATOM     10  C   UNL     1      58.299  37.367  34.061  1.00  0.00    -0.000 C 
BRANCH  10  11
ATOM     11  C   UNL     1      57.652  38.734  34.344  1.00  0.00    -0.003 C 
ATOM     12  C   UNL     1      56.135  38.724  34.168  1.00  0.00     0.004 C 
ENDBRANCH  10  11
ENDBRANCH   9  10
ENDBRANCH   8   9
ENDBRANCH   7   8
ENDBRANCH   6   7
ENDBRANCH   5   6
ENDBRANCH   4   5
ENDBRANCH   3   4
ENDBRANCH   2   3
ENDBRANCH   1   2
BRANCH   1  13
ATOM     13  C   UNL     1      56.141  37.203  38.803  1.00  0.00     0.000 C 
BRANCH  13  14
ATOM     14  C   UNL     1      56.220  37.969  40.131  1.00  0.00     0.000 C 
BRANCH  14  15
ATOM     15  C   UNL     1      55.250  37.422  41.189  1.00  0.00     0.000 C 
BRANCH  15  16
ATOM     16  C   UNL     1      55.864  36.287  42.024  1.00  0.00     0.000 C 
BRANCH  16  17
ATOM     17  C   UNL     1      55.875  36.595  43.531  1.00  0.00     0.000 C 
BRANCH  17  18
ATOM     18  C   UNL     1      54.645  37.400  43.999  1.00  0.00     0.000 C 
BRANCH  18  19
ATOM     19  C   UNL     1      53.938  36.737  45.195  1.00  0.00     0.000 C 
BRANCH  19  20
ATOM     20  C   UNL     1      53.489  35.298  44.896  1.00  0.00     0.006 C 
BRANCH  20  21
ATOM     21  C   UNL     1      52.387  35.233  43.829  1.00  0.00     0.053 C 
BRANCH  21  22
ATOM     22  C   UNL     1      52.591  34.051  42.935  1.00  0.00     0.041 C 
ATOM     23  O   UNL     1      53.752  33.606  42.731  1.00  0.00    -0.550 OA
ATOM     24  O   UNL     1      51.498  33.422  42.351  1.00  0.00    -0.550 OA
ENDBRANCH  21  22
ENDBRANCH  20  21
ENDBRANCH  19  20
ENDBRANCH  18  19
ENDBRANCH  17  18
ENDBRANCH  16  17
ENDBRANCH  15  16
ENDBRANCH  14  15
ENDBRANCH  13  14
ENDBRANCH   1  13
TORSDOF 20
ENDMDL
MODEL 6
REMARK VINA RESULT:    -5.680      3.338      7.837
REMARK INTER + INTRA:         -14.652
REMARK INTER:                 -12.024
REMARK INTRA:                  -2.628
REMARK UNBOUND:                -2.330
REMARK SMILES CCCCCCCCCCCCCCCCCCCCCC(=O)[O-]
REMARK SMILES IDX 12 1 11 2 10 3 9 4 8 5 7 6 6 7 5 8 4 9 3 10 2 11 1 12 13 13
REMARK SMILES IDX 14 14 15 15 16 16 17 17 18 18 19 19 20 20 21 21 22 22 23 23
REMARK SMILES IDX 24 24
REMARK H PARENT
REMARK Flexibility Score: inf
ROOT
ATOM      1  C   UNL     1      58.865  38.826  37.838  1.00  0.00     0.000 C 
ENDROOT
BRANCH   1   2
ATOM      2  C   UNL     1      60.217  38.402  38.433  1.00  0.00     0.000 C 
BRANCH   2   3
ATOM      3  C   UNL     1      61.370  39.342  38.036  1.00  0.00     0.000 C 
BRANCH   3   4
ATOM      4  C   UNL     1      61.251  39.971  36.636  1.00  0.00    -0.000 C 
BRANCH   4   5
ATOM      5  C   UNL     1      62.402  39.569  35.698  1.00  0.00    -0.000 C 
BRANCH   5   6
ATOM      6  C   UNL     1      61.964  38.594  34.589  1.00  0.00    -0.000 C 
BRANCH   6   7
ATOM      7  C   UNL     1      61.353  37.270  35.085  1.00  0.00    -0.000 C 
BRANCH   7   8
ATOM      8  C   UNL     1      59.986  36.964  34.450  1.00  0.00    -0.000 C 
BRANCH   8   9
ATOM      9  C   UNL     1      59.269  38.226  33.941  1.00  0.00    -0.000 C 
BRANCH   9  10
ATOM     10  C   UNL     1      57.731  38.193  34.062  1.00  0.00    -0.000 C 
BRANCH  10  11
ATOM     11  C   UNL     1      57.076  39.545  34.398  1.00  0.00    -0.003 C 
ATOM     12  C   UNL     1      58.089  40.614  34.804  1.00  0.00     0.004 C 
ENDBRANCH  10  11
ENDBRANCH   9  10
ENDBRANCH   8   9
ENDBRANCH   7   8
ENDBRANCH   6   7
ENDBRANCH   5   6
ENDBRANCH   4   5
ENDBRANCH   3   4
ENDBRANCH   2   3
ENDBRANCH   1   2
BRANCH   1  13
ATOM     13  C   UNL     1      57.982  37.605  37.552  1.00  0.00     0.000 C 
BRANCH  13  14
ATOM     14  C   UNL     1      56.678  37.667  38.361  1.00  0.00     0.000 C 
BRANCH  14  15
ATOM     15  C   UNL     1      56.892  38.192  39.789  1.00  0.00     0.000 C 
BRANCH  15  16
ATOM     16  C   UNL     1      55.574  38.346  40.565  1.00  0.00     0.000 C 
BRANCH  16  17
ATOM     17  C   UNL     1      55.152  37.053  41.284  1.00  0.00     0.000 C 
BRANCH  17  18
ATOM     18  C   UNL     1      56.081  36.673  42.457  1.00  0.00     0.000 C 
BRANCH  18  19
ATOM     19  C   UNL     1      55.733  35.297  43.051  1.00  0.00     0.000 C 
BRANCH  19  20
ATOM     20  C   UNL     1      54.336  35.262  43.691  1.00  0.00     0.006 C 
BRANCH  20  21
ATOM     21  C   UNL     1      54.187  36.273  44.837  1.00  0.00     0.053 C 
BRANCH  21  22
ATOM     22  C   UNL     1      53.048  37.205  44.569  1.00  0.00     0.041 C 
ATOM     23  O   UNL     1      51.885  36.910  44.955  1.00  0.00    -0.550 OA
ATOM     24  O   UNL     1      53.274  38.413  43.919  1.00  0.00    -0.550 OA
ENDBRANCH  21  22
ENDBRANCH  20  21
ENDBRANCH  19  20
ENDBRANCH  18  19
ENDBRANCH  17  18
ENDBRANCH  16  17
ENDBRANCH  15  16
ENDBRANCH  14  15
ENDBRANCH  13  14
ENDBRANCH   1  13
TORSDOF 20
ENDMDL
MODEL 7
REMARK VINA RESULT:    -5.660      2.497      7.072
REMARK INTER + INTRA:         -14.607
REMARK INTER:                 -12.375
REMARK INTRA:                  -2.231
REMARK UNBOUND:                -2.330
REMARK SMILES CCCCCCCCCCCCCCCCCCCCCC(=O)[O-]
REMARK SMILES IDX 12 1 11 2 10 3 9 4 8 5 7 6 6 7 5 8 4 9 3 10 2 11 1 12 13 13
REMARK SMILES IDX 14 14 15 15 16 16 17 17 18 18 19 19 20 20 21 21 22 22 23 23
REMARK SMILES IDX 24 24
REMARK H PARENT
REMARK Flexibility Score: inf
ROOT
ATOM      1  C   UNL     1      51.234  36.264  46.136  1.00  0.00     0.000 C 
ENDROOT
BRANCH   1   2
ATOM      2  C   UNL     1      51.271  34.915  45.401  1.00  0.00     0.000 C 
BRANCH   2   3
ATOM      3  C   UNL     1      52.098  34.960  44.103  1.00  0.00     0.000 C 
BRANCH   3   4
ATOM      4  C   UNL     1      53.511  34.358  44.204  1.00  0.00    -0.000 C 
BRANCH   4   5
ATOM      5  C   UNL     1      53.929  33.592  42.938  1.00  0.00    -0.000 C 
BRANCH   5   6
ATOM      6  C   UNL     1      55.284  32.874  43.087  1.00  0.00    -0.000 C 
BRANCH   6   7
ATOM      7  C   UNL     1      55.212  31.460  43.694  1.00  0.00    -0.000 C 
BRANCH   7   8
ATOM      8  C   UNL     1      54.672  30.411  42.708  1.00  0.00    -0.000 C 
BRANCH   8   9
ATOM      9  C   UNL     1      53.338  29.794  43.165  1.00  0.00    -0.000 C 
BRANCH   9  10
ATOM     10  C   UNL     1      52.274  29.653  42.056  1.00  0.00    -0.000 C 
BRANCH  10  11
ATOM     11  C   UNL     1      50.897  30.249  42.397  1.00  0.00    -0.003 C 
ATOM     12  C   UNL     1      50.863  31.773  42.287  1.00  0.00     0.004 C 
ENDBRANCH  10  11
ENDBRANCH   9  10
ENDBRANCH   8   9
ENDBRANCH   7   8
ENDBRANCH   6   7
ENDBRANCH   5   6
ENDBRANCH   4   5
ENDBRANCH   3   4
ENDBRANCH   2   3
ENDBRANCH   1   2
BRANCH   1  13
ATOM     13  C   UNL     1      52.144  36.243  47.369  1.00  0.00     0.000 C 
BRANCH  13  14
ATOM     14  C   UNL     1      53.431  37.042  47.117  1.00  0.00     0.000 C 
BRANCH  14  15
ATOM     15  C   UNL     1      53.300  38.517  47.526  1.00  0.00     0.000 C 
BRANCH  15  16
ATOM     16  C   UNL     1      53.900  39.475  46.483  1.00  0.00     0.000 C 
BRANCH  16  17
ATOM     17  C   UNL     1      54.152  38.795  45.126  1.00  0.00     0.000 C 
BRANCH  17  18
ATOM     18  C   UNL     1      52.914  38.790  44.205  1.00  0.00     0.000 C 
BRANCH  18  19
ATOM     19  C   UNL     1      53.041  39.804  43.054  1.00  0.00     0.000 C 
BRANCH  19  20
ATOM     20  C   UNL     1      53.508  39.156  41.741  1.00  0.00     0.006 C 
BRANCH  20  21
ATOM     21  C   UNL     1      53.840  37.665  41.903  1.00  0.00     0.053 C 
BRANCH  21  22
ATOM     22  C   UNL     1      55.137  37.341  41.232  1.00  0.00     0.041 C 
ATOM     23  O   UNL     1      55.709  38.201  40.512  1.00  0.00    -0.550 OA
ATOM     24  O   UNL     1      55.729  36.097  41.426  1.00  0.00    -0.550 OA
ENDBRANCH  21  22
ENDBRANCH  20  21
ENDBRANCH  19  20
ENDBRANCH  18  19
ENDBRANCH  17  18
ENDBRANCH  16  17
ENDBRANCH  15  16
ENDBRANCH  14  15
ENDBRANCH  13  14
ENDBRANCH   1  13
TORSDOF 20
ENDMDL
MODEL 8
REMARK VINA RESULT:    -5.620      2.386      5.707
REMARK INTER + INTRA:         -14.522
REMARK INTER:                 -12.053
REMARK INTRA:                  -2.469
REMARK UNBOUND:                -2.330
REMARK SMILES CCCCCCCCCCCCCCCCCCCCCC(=O)[O-]
REMARK SMILES IDX 12 1 11 2 10 3 9 4 8 5 7 6 6 7 5 8 4 9 3 10 2 11 1 12 13 13
REMARK SMILES IDX 14 14 15 15 16 16 17 17 18 18 19 19 20 20 21 21 22 22 23 23
REMARK SMILES IDX 24 24
REMARK H PARENT
REMARK Flexibility Score: inf
ROOT
ATOM      1  C   UNL     1      55.297  37.154  41.143  1.00  0.00     0.000 C 
ENDROOT
BRANCH   1   2
ATOM      2  C   UNL     1      55.879  37.501  39.764  1.00  0.00     0.000 C 
BRANCH   2   3
ATOM      3  C   UNL     1      57.123  38.404  39.846  1.00  0.00     0.000 C 
BRANCH   3   4
ATOM      4  C   UNL     1      57.900  38.571  38.528  1.00  0.00    -0.000 C 
BRANCH   4   5
ATOM      5  C   UNL     1      57.686  37.402  37.552  1.00  0.00    -0.000 C 
BRANCH   5   6
ATOM      6  C   UNL     1      57.551  37.856  36.086  1.00  0.00    -0.000 C 
BRANCH   6   7
ATOM      7  C   UNL     1      58.752  37.518  35.183  1.00  0.00    -0.000 C 
BRANCH   7   8
ATOM      8  C   UNL     1      59.817  36.667  35.894  1.00  0.00    -0.000 C 
BRANCH   8   9
ATOM      9  C   UNL     1      61.245  36.965  35.403  1.00  0.00    -0.000 C 
BRANCH   9  10
ATOM     10  C   UNL     1      61.523  38.446  35.071  1.00  0.00    -0.000 C 
BRANCH  10  11
ATOM     11  C   UNL     1      61.943  39.314  36.271  1.00  0.00    -0.003 C 
ATOM     12  C   UNL     1      60.824  40.231  36.764  1.00  0.00     0.004 C 
ENDBRANCH  10  11
ENDBRANCH   9  10
ENDBRANCH   8   9
ENDBRANCH   7   8
ENDBRANCH   6   7
ENDBRANCH   5   6
ENDBRANCH   4   5
ENDBRANCH   3   4
ENDBRANCH   2   3
ENDBRANCH   1   2
BRANCH   1  13
ATOM     13  C   UNL     1      56.411  36.996  42.186  1.00  0.00     0.000 C 
BRANCH  13  14
ATOM     14  C   UNL     1      56.097  35.848  43.157  1.00  0.00     0.000 C 
BRANCH  14  15
ATOM     15  C   UNL     1      55.632  34.574  42.436  1.00  0.00     0.000 C 
BRANCH  15  16
ATOM     16  C   UNL     1      54.486  33.863  43.173  1.00  0.00     0.000 C 
BRANCH  16  17
ATOM     17  C   UNL     1      53.105  34.451  42.835  1.00  0.00     0.000 C 
BRANCH  17  18
ATOM     18  C   UNL     1      52.577  35.427  43.907  1.00  0.00     0.000 C 
BRANCH  18  19
ATOM     19  C   UNL     1      52.244  36.810  43.321  1.00  0.00     0.000 C 
BRANCH  19  20
ATOM     20  C   UNL     1      52.648  37.963  44.253  1.00  0.00     0.006 C 
BRANCH  20  21
ATOM     21  C   UNL     1      53.670  37.533  45.315  1.00  0.00     0.053 C 
BRANCH  21  22
ATOM     22  C   UNL     1      53.119  37.744  46.690  1.00  0.00     0.041 C 
ATOM     23  O   UNL     1      52.202  36.998  47.125  1.00  0.00    -0.550 OA
ATOM     24  O   UNL     1      53.638  38.746  47.503  1.00  0.00    -0.550 OA
ENDBRANCH  21  22
ENDBRANCH  20  21
ENDBRANCH  19  20
ENDBRANCH  18  19
ENDBRANCH  17  18
ENDBRANCH  16  17
ENDBRANCH  15  16
ENDBRANCH  14  15
ENDBRANCH  13  14
ENDBRANCH   1  13
TORSDOF 20
ENDMDL
MODEL 9
REMARK VINA RESULT:    -5.577      4.759      9.736
REMARK INTER + INTRA:         -14.427
REMARK INTER:                 -11.900
REMARK INTRA:                  -2.527
REMARK UNBOUND:                -2.330
REMARK SMILES CCCCCCCCCCCCCCCCCCCCCC(=O)[O-]
REMARK SMILES IDX 12 1 11 2 10 3 9 4 8 5 7 6 6 7 5 8 4 9 3 10 2 11 1 12 13 13
REMARK SMILES IDX 14 14 15 15 16 16 17 17 18 18 19 19 20 20 21 21 22 22 23 23
REMARK SMILES IDX 24 24
REMARK H PARENT
REMARK Flexibility Score: inf
ROOT
ATOM      1  C   UNL     1      56.395  37.800  39.959  1.00  0.00     0.000 C 
ENDROOT
BRANCH   1   2
ATOM      2  C   UNL     1      55.060  38.108  40.655  1.00  0.00     0.000 C 
BRANCH   2   3
ATOM      3  C   UNL     1      54.730  37.119  41.787  1.00  0.00     0.000 C 
BRANCH   3   4
ATOM      4  C   UNL     1      55.936  36.650  42.621  1.00  0.00    -0.000 C 
BRANCH   4   5
ATOM      5  C   UNL     1      55.923  35.137  42.897  1.00  0.00    -0.000 C 
BRANCH   5   6
ATOM      6  C   UNL     1      54.502  34.548  42.965  1.00  0.00    -0.000 C 
BRANCH   6   7
ATOM      7  C   UNL     1      53.818  34.645  44.342  1.00  0.00    -0.000 C 
BRANCH   7   8
ATOM      8  C   UNL     1      52.452  35.350  44.285  1.00  0.00    -0.000 C 
BRANCH   8   9
ATOM      9  C   UNL     1      52.387  36.600  45.181  1.00  0.00    -0.000 C 
BRANCH   9  10
ATOM     10  C   UNL     1      53.756  37.136  45.649  1.00  0.00    -0.000 C 
BRANCH  10  11
ATOM     11  C   UNL     1      54.089  38.564  45.182  1.00  0.00    -0.003 C 
ATOM     12  C   UNL     1      52.957  39.210  44.384  1.00  0.00     0.004 C 
ENDBRANCH  10  11
ENDBRANCH   9  10
ENDBRANCH   8   9
ENDBRANCH   7   8
ENDBRANCH   6   7
ENDBRANCH   5   6
ENDBRANCH   4   5
ENDBRANCH   3   4
ENDBRANCH   2   3
ENDBRANCH   1   2
BRANCH   1  13
ATOM     13  C   UNL     1      56.169  37.344  38.513  1.00  0.00     0.000 C 
BRANCH  13  14
ATOM     14  C   UNL     1      57.378  37.691  37.631  1.00  0.00     0.000 C 
BRANCH  14  15
ATOM     15  C   UNL     1      58.339  38.680  38.308  1.00  0.00     0.000 C 
BRANCH  15  16
ATOM     16  C   UNL     1      59.793  38.181  38.315  1.00  0.00     0.000 C 
BRANCH  16  17
ATOM     17  C   UNL     1      60.374  38.020  36.900  1.00  0.00     0.000 C 
BRANCH  17  18
ATOM     18  C   UNL     1      61.293  39.187  36.479  1.00  0.00     0.000 C 
BRANCH  18  19
ATOM     19  C   UNL     1      60.493  40.429  36.045  1.00  0.00     0.000 C 
BRANCH  19  20
ATOM     20  C   UNL     1      59.766  40.228  34.706  1.00  0.00     0.006 C 
BRANCH  20  21
ATOM     21  C   UNL     1      58.245  40.399  34.829  1.00  0.00     0.053 C 
BRANCH  21  22
ATOM     22  C   UNL     1      57.538  39.181  34.324  1.00  0.00     0.041 C 
ATOM     23  O   UNL     1      56.282  39.174  34.224  1.00  0.00    -0.550 OA
ATOM     24  O   UNL     1      58.267  38.062  33.936  1.00  0.00    -0.550 OA
ENDBRANCH  21  22
ENDBRANCH  20  21
ENDBRANCH  19  20
ENDBRANCH  18  19
ENDBRANCH  17  18
ENDBRANCH  16  17
ENDBRANCH  15  16
ENDBRANCH  14  15
ENDBRANCH  13  14
ENDBRANCH   1  13
TORSDOF 20
ENDMDL
