MODEL 1
REMARK VINA RESULT:    -4.866      0.000      0.000
REMARK INTER + INTRA:         -12.333
REMARK INTER:                  -9.417
REMARK INTRA:                  -2.916
REMARK UNBOUND:                -2.916
REMARK SMILES CCCCCCCCCCCCCCCCCC(=O)[O-]
REMARK SMILES IDX 10 1 11 2 12 3 13 4 14 5 15 6 16 7 17 8 18 9 19 10 20 11
REMARK SMILES IDX 9 12 8 13 7 14 6 15 5 16 4 17 3 18 2 19 1 20
REMARK H PARENT
REMARK Flexibility Score: inf
ROOT
ATOM      1  C   UNL     1     -34.305  39.222  41.863  1.00  0.00     0.000 C 
ENDROOT
BRANCH   1   2
ATOM      2  C   UNL     1     -33.385  39.475  40.658  1.00  0.00     0.000 C 
BRANCH   2   3
ATOM      3  C   UNL     1     -33.959  40.519  39.684  1.00  0.00     0.000 C 
BRANCH   3   4
ATOM      4  C   UNL     1     -35.185  41.251  40.257  1.00  0.00     0.000 C 
BRANCH   4   5
ATOM      5  C   UNL     1     -34.974  42.772  40.353  1.00  0.00     0.000 C 
BRANCH   5   6
ATOM      6  C   UNL     1     -33.493  43.178  40.265  1.00  0.00     0.000 C 
BRANCH   6   7
ATOM      7  C   UNL     1     -33.189  44.370  39.338  1.00  0.00     0.006 C 
BRANCH   7   8
ATOM      8  C   UNL     1     -34.003  44.374  38.030  1.00  0.00     0.053 C 
BRANCH   8   9
ATOM      9  C   UNL     1     -33.421  45.284  36.989  1.00  0.00     0.041 C 
ATOM     10  O   UNL     1     -32.219  45.651  37.064  1.00  0.00    -0.550 OA
ATOM     11  O   UNL     1     -34.220  45.763  35.958  1.00  0.00    -0.550 OA
ENDBRANCH   8   9
ENDBRANCH   7   8
ENDBRANCH   6   7
ENDBRANCH   5   6
ENDBRANCH   4   5
ENDBRANCH   3   4
ENDBRANCH   2   3
ENDBRANCH   1   2
BRANCH   1  12
ATOM     12  C   UNL     1     -33.528  39.048  43.179  1.00  0.00     0.000 C 
BRANCH  12  13
ATOM     13  C   UNL     1     -33.902  40.117  44.229  1.00  0.00    -0.000 C 
BRANCH  13  14
ATOM     14  C   UNL     1     -33.737  41.564  43.725  1.00  0.00    -0.000 C 
BRANCH  14  15
ATOM     15  C   UNL     1     -34.922  42.498  44.032  1.00  0.00    -0.000 C 
BRANCH  15  16
ATOM     16  C   UNL     1     -36.245  41.781  44.367  1.00  0.00    -0.000 C 
BRANCH  16  17
ATOM     17  C   UNL     1     -37.227  41.756  43.187  1.00  0.00    -0.000 C 
BRANCH  17  18
ATOM     18  C   UNL     1     -37.732  40.329  42.925  1.00  0.00    -0.000 C 
BRANCH  18  19
ATOM     19  C   UNL     1     -37.542  39.403  44.137  1.00  0.00    -0.003 C 
ATOM     20  C   UNL     1     -37.230  37.962  43.736  1.00  0.00     0.004 C 
ENDBRANCH  18  19
ENDBRANCH  17  18
ENDBRANCH  16  17
ENDBRANCH  15  16
ENDBRANCH  14  15
ENDBRANCH  13  14
ENDBRANCH  12  13
ENDBRANCH   1  12
TORSDOF 16
ENDMDL
MODEL 2
REMARK VINA RESULT:    -4.841      1.661      3.694
REMARK INTER + INTRA:         -12.285
REMARK INTER:                  -9.437
REMARK INTRA:                  -2.848
REMARK UNBOUND:                -2.916
REMARK SMILES CCCCCCCCCCCCCCCCCC(=O)[O-]
REMARK SMILES IDX 10 1 11 2 12 3 13 4 14 5 15 6 16 7 17 8 18 9 19 10 20 11
REMARK SMILES IDX 9 12 8 13 7 14 6 15 5 16 4 17 3 18 2 19 1 20
REMARK H PARENT
REMARK Flexibility Score: inf
ROOT
ATOM      1  C   UNL     1     -37.542  40.133  42.434  1.00  0.00     0.000 C 
ENDROOT
BRANCH   1   2
ATOM      2  C   UNL     1     -37.584  41.429  43.259  1.00  0.00     0.000 C 
BRANCH   2   3
ATOM      3  C   UNL     1     -36.493  41.476  44.343  1.00  0.00     0.000 C 
BRANCH   3   4
ATOM      4  C   UNL     1     -35.299  42.360  43.943  1.00  0.00     0.000 C 
BRANCH   4   5
ATOM      5  C   UNL     1     -35.603  43.249  42.725  1.00  0.00     0.000 C 
BRANCH   5   6
ATOM      6  C   UNL     1     -34.673  42.969  41.532  1.00  0.00     0.000 C 
BRANCH   6   7
ATOM      7  C   UNL     1     -35.173  43.483  40.168  1.00  0.00     0.006 C 
BRANCH   7   8
ATOM      8  C   UNL     1     -34.067  43.626  39.106  1.00  0.00     0.053 C 
BRANCH   8   9
ATOM      9  C   UNL     1     -34.291  44.794  38.192  1.00  0.00     0.041 C 
ATOM     10  O   UNL     1     -35.071  45.724  38.527  1.00  0.00    -0.550 OA
ATOM     11  O   UNL     1     -33.672  44.834  36.949  1.00  0.00    -0.550 OA
ENDBRANCH   8   9
ENDBRANCH   7   8
ENDBRANCH   6   7
ENDBRANCH   5   6
ENDBRANCH   4   5
ENDBRANCH   3   4
ENDBRANCH   2   3
ENDBRANCH   1   2
BRANCH   1  12
ATOM     12  C   UNL     1     -37.386  40.391  40.925  1.00  0.00     0.000 C 
BRANCH  12  13
ATOM     13  C   UNL     1     -36.042  39.869  40.374  1.00  0.00    -0.000 C 
BRANCH  13  14
ATOM     14  C   UNL     1     -35.346  38.853  41.301  1.00  0.00    -0.000 C 
BRANCH  14  15
ATOM     15  C   UNL     1     -34.015  39.333  41.909  1.00  0.00    -0.000 C 
BRANCH  15  16
ATOM     16  C   UNL     1     -33.781  38.915  43.373  1.00  0.00    -0.000 C 
BRANCH  16  17
ATOM     17  C   UNL     1     -34.620  37.697  43.788  1.00  0.00    -0.000 C 
BRANCH  17  18
ATOM     18  C   UNL     1     -35.512  38.031  44.993  1.00  0.00    -0.000 C 
BRANCH  18  19
ATOM     19  C   UNL     1     -34.741  38.734  46.123  1.00  0.00    -0.003 C 
ATOM     20  C   UNL     1     -34.723  37.923  47.418  1.00  0.00     0.004 C 
ENDBRANCH  18  19
ENDBRANCH  17  18
ENDBRANCH  16  17
ENDBRANCH  15  16
ENDBRANCH  14  15
ENDBRANCH  13  14
ENDBRANCH  12  13
ENDBRANCH   1  12
TORSDOF 16
ENDMDL
MODEL 3
REMARK VINA RESULT:    -4.816      6.337      9.314
REMARK INTER + INTRA:         -12.237
REMARK INTER:                  -9.526
REMARK INTRA:                  -2.711
REMARK UNBOUND:                -2.916
REMARK SMILES CCCCCCCCCCCCCCCCCC(=O)[O-]
REMARK SMILES IDX 10 1 11 2 12 3 13 4 14 5 15 6 16 7 17 8 18 9 19 10 20 11
REMARK SMILES IDX 9 12 8 13 7 14 6 15 5 16 4 17 3 18 2 19 1 20
REMARK H PARENT
REMARK Flexibility Score: inf
ROOT
ATOM      1  C   UNL     1     -37.981  38.790  42.217  1.00  0.00     0.000 C 
ENDROOT
BRANCH   1   2
ATOM      2  C   UNL     1     -37.610  40.213  42.661  1.00  0.00     0.000 C 
BRANCH   2   3
ATOM      3  C   UNL     1     -38.299  40.621  43.975  1.00  0.00     0.000 C 
BRANCH   3   4
ATOM      4  C   UNL     1     -38.903  39.421  44.724  1.00  0.00     0.000 C 
BRANCH   4   5
ATOM      5  C   UNL     1     -38.350  39.276  46.153  1.00  0.00     0.000 C 
BRANCH   5   6
ATOM      6  C   UNL     1     -38.719  37.932  46.804  1.00  0.00     0.000 C 
BRANCH   6   7
ATOM      7  C   UNL     1     -39.096  38.002  48.296  1.00  0.00     0.006 C 
BRANCH   7   8
ATOM      8  C   UNL     1     -40.591  38.269  48.556  1.00  0.00     0.053 C 
BRANCH   8   9
ATOM      9  C   UNL     1     -41.218  37.234  49.441  1.00  0.00     0.041 C 
ATOM     10  O   UNL     1     -41.197  36.018  49.113  1.00  0.00    -0.550 OA
ATOM     11  O   UNL     1     -41.867  37.617  50.608  1.00  0.00    -0.550 OA
ENDBRANCH   8   9
ENDBRANCH   7   8
ENDBRANCH   6   7
ENDBRANCH   5   6
ENDBRANCH   4   5
ENDBRANCH   3   4
ENDBRANCH   2   3
ENDBRANCH   1   2
BRANCH   1  12
ATOM     12  C   UNL     1     -36.786  37.822  42.258  1.00  0.00     0.000 C 
BRANCH  12  13
ATOM     13  C   UNL     1     -37.063  36.581  43.133  1.00  0.00    -0.000 C 
BRANCH  13  14
ATOM     14  C   UNL     1     -36.196  36.514  44.405  1.00  0.00    -0.000 C 
BRANCH  14  15
ATOM     15  C   UNL     1     -34.880  37.313  44.338  1.00  0.00    -0.000 C 
BRANCH  15  16
ATOM     16  C   UNL     1     -34.817  38.541  45.267  1.00  0.00    -0.000 C 
BRANCH  16  17
ATOM     17  C   UNL     1     -34.398  39.824  44.536  1.00  0.00    -0.000 C 
BRANCH  17  18
ATOM     18  C   UNL     1     -33.462  39.504  43.361  1.00  0.00    -0.000 C 
BRANCH  18  19
ATOM     19  C   UNL     1     -33.923  40.152  42.045  1.00  0.00    -0.003 C 
ATOM     20  C   UNL     1     -33.527  39.336  40.815  1.00  0.00     0.004 C 
ENDBRANCH  18  19
ENDBRANCH  17  18
ENDBRANCH  16  17
ENDBRANCH  15  16
ENDBRANCH  14  15
ENDBRANCH  13  14
ENDBRANCH  12  13
ENDBRANCH   1  12
TORSDOF 16
ENDMDL
MODEL 4
REMARK VINA RESULT:    -4.815      5.044      7.847
REMARK INTER + INTRA:         -12.234
REMARK INTER:                  -8.954
REMARK INTRA:                  -3.280
REMARK UNBOUND:                -2.916
REMARK SMILES CCCCCCCCCCCCCCCCCC(=O)[O-]
REMARK SMILES IDX 10 1 11 2 12 3 13 4 14 5 15 6 16 7 17 8 18 9 19 10 20 11
REMARK SMILES IDX 9 12 8 13 7 14 6 15 5 16 4 17 3 18 2 19 1 20
REMARK H PARENT
REMARK Flexibility Score: inf
ROOT
ATOM      1  C   UNL     1     -37.775  38.322  42.607  1.00  0.00     0.000 C 
ENDROOT
BRANCH   1   2
ATOM      2  C   UNL     1     -37.757  39.858  42.660  1.00  0.00     0.000 C 
BRANCH   2   3
ATOM      3  C   UNL     1     -38.188  40.407  44.031  1.00  0.00     0.000 C 
BRANCH   3   4
ATOM      4  C   UNL     1     -38.696  39.306  44.977  1.00  0.00     0.000 C 
BRANCH   4   5
ATOM      5  C   UNL     1     -38.120  39.433  46.398  1.00  0.00     0.000 C 
BRANCH   5   6
ATOM      6  C   UNL     1     -37.818  38.071  47.046  1.00  0.00     0.000 C 
BRANCH   6   7
ATOM      7  C   UNL     1     -37.439  36.943  46.067  1.00  0.00     0.006 C 
BRANCH   7   8
ATOM      8  C   UNL     1     -36.195  36.137  46.488  1.00  0.00     0.053 C 
BRANCH   8   9
ATOM      9  C   UNL     1     -35.842  35.062  45.503  1.00  0.00     0.041 C 
ATOM     10  O   UNL     1     -34.704  34.523  45.530  1.00  0.00    -0.550 OA
ATOM     11  O   UNL     1     -36.755  34.687  44.525  1.00  0.00    -0.550 OA
ENDBRANCH   8   9
ENDBRANCH   7   8
ENDBRANCH   6   7
ENDBRANCH   5   6
ENDBRANCH   4   5
ENDBRANCH   3   4
ENDBRANCH   2   3
ENDBRANCH   1   2
BRANCH   1  12
ATOM     12  C   UNL     1     -36.364  37.709  42.609  1.00  0.00     0.000 C 
BRANCH  12  13
ATOM     13  C   UNL     1     -35.283  38.719  42.171  1.00  0.00    -0.000 C 
BRANCH  13  14
ATOM     14  C   UNL     1     -34.081  38.796  43.134  1.00  0.00    -0.000 C 
BRANCH  14  15
ATOM     15  C   UNL     1     -34.444  38.760  44.631  1.00  0.00    -0.000 C 
BRANCH  15  16
ATOM     16  C   UNL     1     -34.656  40.140  45.281  1.00  0.00    -0.000 C 
BRANCH  16  17
ATOM     17  C   UNL     1     -33.953  41.274  44.521  1.00  0.00    -0.000 C 
BRANCH  17  18
ATOM     18  C   UNL     1     -34.812  42.548  44.519  1.00  0.00    -0.000 C 
BRANCH  18  19
ATOM     19  C   UNL     1     -35.476  42.811  43.158  1.00  0.00    -0.003 C 
ATOM     20  C   UNL     1     -34.618  42.344  41.982  1.00  0.00     0.004 C 
ENDBRANCH  18  19
ENDBRANCH  17  18
ENDBRANCH  16  17
ENDBRANCH  15  16
ENDBRANCH  14  15
ENDBRANCH  13  14
ENDBRANCH  12  13
ENDBRANCH   1  12
TORSDOF 16
ENDMDL
MODEL 5
REMARK VINA RESULT:    -4.802      6.765      9.391
REMARK INTER + INTRA:         -12.210
REMARK INTER:                  -9.484
REMARK INTRA:                  -2.727
REMARK UNBOUND:                -2.916
REMARK SMILES CCCCCCCCCCCCCCCCCC(=O)[O-]
REMARK SMILES IDX 10 1 11 2 12 3 13 4 14 5 15 6 16 7 17 8 18 9 19 10 20 11
REMARK SMILES IDX 9 12 8 13 7 14 6 15 5 16 4 17 3 18 2 19 1 20
REMARK H PARENT
REMARK Flexibility Score: inf
ROOT
ATOM      1  C   UNL     1     -37.283  39.584  41.872  1.00  0.00     0.000 C 
ENDROOT
BRANCH   1   2
ATOM      2  C   UNL     1     -38.340  39.118  42.887  1.00  0.00     0.000 C 
BRANCH   2   3
ATOM      3  C   UNL     1     -38.206  39.825  44.247  1.00  0.00     0.000 C 
BRANCH   3   4
ATOM      4  C   UNL     1     -38.918  39.066  45.380  1.00  0.00     0.000 C 
BRANCH   4   5
ATOM      5  C   UNL     1     -38.331  39.386  46.766  1.00  0.00     0.000 C 
BRANCH   5   6
ATOM      6  C   UNL     1     -38.422  38.201  47.743  1.00  0.00     0.000 C 
BRANCH   6   7
ATOM      7  C   UNL     1     -39.701  37.348  47.630  1.00  0.00     0.006 C 
BRANCH   7   8
ATOM      8  C   UNL     1     -40.868  37.846  48.503  1.00  0.00     0.053 C 
BRANCH   8   9
ATOM      9  C   UNL     1     -41.240  36.872  49.582  1.00  0.00     0.041 C 
ATOM     10  O   UNL     1     -40.983  35.647  49.449  1.00  0.00    -0.550 OA
ATOM     11  O   UNL     1     -41.912  37.313  50.715  1.00  0.00    -0.550 OA
ENDBRANCH   8   9
ENDBRANCH   7   8
ENDBRANCH   6   7
ENDBRANCH   5   6
ENDBRANCH   4   5
ENDBRANCH   3   4
ENDBRANCH   2   3
ENDBRANCH   1   2
BRANCH   1  12
ATOM     12  C   UNL     1     -36.182  38.537  41.635  1.00  0.00     0.000 C 
BRANCH  12  13
ATOM     13  C   UNL     1     -34.795  39.026  42.104  1.00  0.00    -0.000 C 
BRANCH  13  14
ATOM     14  C   UNL     1     -34.274  38.298  43.359  1.00  0.00    -0.000 C 
BRANCH  14  15
ATOM     15  C   UNL     1     -34.417  39.088  44.674  1.00  0.00    -0.000 C 
BRANCH  15  16
ATOM     16  C   UNL     1     -35.119  38.327  45.815  1.00  0.00    -0.000 C 
BRANCH  16  17
ATOM     17  C   UNL     1     -34.757  36.835  45.850  1.00  0.00    -0.000 C 
BRANCH  17  18
ATOM     18  C   UNL     1     -36.014  35.970  46.031  1.00  0.00    -0.000 C 
BRANCH  18  19
ATOM     19  C   UNL     1     -36.995  36.100  44.855  1.00  0.00    -0.003 C 
ATOM     20  C   UNL     1     -36.525  35.351  43.609  1.00  0.00     0.004 C 
ENDBRANCH  18  19
ENDBRANCH  17  18
ENDBRANCH  16  17
ENDBRANCH  15  16
ENDBRANCH  14  15
ENDBRANCH  13  14
ENDBRANCH  12  13
ENDBRANCH   1  12
TORSDOF 16
ENDMDL
MODEL 6
REMARK VINA RESULT:    -4.785      4.336      6.924
REMARK INTER + INTRA:         -12.176
REMARK INTER:                  -8.952
REMARK INTRA:                  -3.224
REMARK UNBOUND:                -2.916
REMARK SMILES CCCCCCCCCCCCCCCCCC(=O)[O-]
REMARK SMILES IDX 10 1 11 2 12 3 13 4 14 5 15 6 16 7 17 8 18 9 19 10 20 11
REMARK SMILES IDX 9 12 8 13 7 14 6 15 5 16 4 17 3 18 2 19 1 20
REMARK H PARENT
REMARK Flexibility Score: inf
ROOT
ATOM      1  C   UNL     1     -34.478  40.221  44.650  1.00  0.00     0.000 C 
ENDROOT
BRANCH   1   2
ATOM      2  C   UNL     1     -33.691  39.143  43.888  1.00  0.00     0.000 C 
BRANCH   2   3
ATOM      3  C   UNL     1     -34.606  38.077  43.258  1.00  0.00     0.000 C 
BRANCH   3   4
ATOM      4  C   UNL     1     -35.450  38.633  42.097  1.00  0.00     0.000 C 
BRANCH   4   5
ATOM      5  C   UNL     1     -36.961  38.475  42.336  1.00  0.00     0.000 C 
BRANCH   5   6
ATOM      6  C   UNL     1     -37.685  39.822  42.502  1.00  0.00     0.000 C 
BRANCH   6   7
ATOM      7  C   UNL     1     -38.277  40.087  43.900  1.00  0.00     0.006 C 
BRANCH   7   8
ATOM      8  C   UNL     1     -37.980  38.978  44.929  1.00  0.00     0.053 C 
BRANCH   8   9
ATOM      9  C   UNL     1     -37.949  39.491  46.338  1.00  0.00     0.041 C 
ATOM     10  O   UNL     1     -37.308  40.538  46.621  1.00  0.00    -0.550 OA
ATOM     11  O   UNL     1     -38.591  38.786  47.349  1.00  0.00    -0.550 OA
ENDBRANCH   8   9
ENDBRANCH   7   8
ENDBRANCH   6   7
ENDBRANCH   5   6
ENDBRANCH   4   5
ENDBRANCH   3   4
ENDBRANCH   2   3
ENDBRANCH   1   2
BRANCH   1  12
ATOM     12  C   UNL     1     -34.146  41.647  44.177  1.00  0.00     0.000 C 
BRANCH  12  13
ATOM     13  C   UNL     1     -35.410  42.511  43.982  1.00  0.00    -0.000 C 
BRANCH  13  14
ATOM     14  C   UNL     1     -35.507  43.160  42.587  1.00  0.00    -0.000 C 
BRANCH  14  15
ATOM     15  C   UNL     1     -35.149  42.232  41.411  1.00  0.00    -0.000 C 
BRANCH  15  16
ATOM     16  C   UNL     1     -34.159  42.827  40.391  1.00  0.00    -0.000 C 
BRANCH  16  17
ATOM     17  C   UNL     1     -32.715  42.356  40.615  1.00  0.00    -0.000 C 
BRANCH  17  18
ATOM     18  C   UNL     1     -32.637  40.822  40.647  1.00  0.00    -0.000 C 
BRANCH  18  19
ATOM     19  C   UNL     1     -31.380  40.309  41.366  1.00  0.00    -0.003 C 
ATOM     20  C   UNL     1     -30.873  41.278  42.433  1.00  0.00     0.004 C 
ENDBRANCH  18  19
ENDBRANCH  17  18
ENDBRANCH  16  17
ENDBRANCH  15  16
ENDBRANCH  14  15
ENDBRANCH  13  14
ENDBRANCH  12  13
ENDBRANCH   1  12
TORSDOF 16
ENDMDL
MODEL 7
REMARK VINA RESULT:    -4.768      6.650      9.607
REMARK INTER + INTRA:         -12.144
REMARK INTER:                  -9.285
REMARK INTRA:                  -2.859
REMARK UNBOUND:                -2.916
REMARK SMILES CCCCCCCCCCCCCCCCCC(=O)[O-]
REMARK SMILES IDX 10 1 11 2 12 3 13 4 14 5 15 6 16 7 17 8 18 9 19 10 20 11
REMARK SMILES IDX 9 12 8 13 7 14 6 15 5 16 4 17 3 18 2 19 1 20
REMARK H PARENT
REMARK Flexibility Score: inf
ROOT
ATOM      1  C   UNL     1     -35.310  37.165  45.029  1.00  0.00     0.000 C 
ENDROOT
BRANCH   1   2
ATOM      2  C   UNL     1     -34.878  37.917  46.298  1.00  0.00     0.000 C 
BRANCH   2   3
ATOM      3  C   UNL     1     -35.912  37.805  47.432  1.00  0.00     0.000 C 
BRANCH   3   4
ATOM      4  C   UNL     1     -37.343  37.588  46.910  1.00  0.00     0.000 C 
BRANCH   4   5
ATOM      5  C   UNL     1     -38.312  38.696  47.359  1.00  0.00     0.000 C 
BRANCH   5   6
ATOM      6  C   UNL     1     -39.715  38.549  46.746  1.00  0.00     0.000 C 
BRANCH   6   7
ATOM      7  C   UNL     1     -40.704  37.689  47.556  1.00  0.00     0.006 C 
BRANCH   7   8
ATOM      8  C   UNL     1     -40.739  38.021  49.060  1.00  0.00     0.053 C 
BRANCH   8   9
ATOM      9  C   UNL     1     -41.141  36.846  49.902  1.00  0.00     0.041 C 
ATOM     10  O   UNL     1     -40.778  35.682  49.585  1.00  0.00    -0.550 OA
ATOM     11  O   UNL     1     -41.953  37.031  51.014  1.00  0.00    -0.550 OA
ENDBRANCH   8   9
ENDBRANCH   7   8
ENDBRANCH   6   7
ENDBRANCH   5   6
ENDBRANCH   4   5
ENDBRANCH   3   4
ENDBRANCH   2   3
ENDBRANCH   1   2
BRANCH   1  12
ATOM     12  C   UNL     1     -34.662  37.729  43.753  1.00  0.00     0.000 C 
BRANCH  12  13
ATOM     13  C   UNL     1     -35.702  38.310  42.771  1.00  0.00    -0.000 C 
BRANCH  13  14
ATOM     14  C   UNL     1     -37.161  38.122  43.233  1.00  0.00    -0.000 C 
BRANCH  14  15
ATOM     15  C   UNL     1     -37.891  39.421  43.625  1.00  0.00    -0.000 C 
BRANCH  15  16
ATOM     16  C   UNL     1     -36.989  40.666  43.730  1.00  0.00    -0.000 C 
BRANCH  16  17
ATOM     17  C   UNL     1     -36.662  41.046  45.181  1.00  0.00    -0.000 C 
BRANCH  17  18
ATOM     18  C   UNL     1     -35.254  41.652  45.285  1.00  0.00    -0.000 C 
BRANCH  18  19
ATOM     19  C   UNL     1     -34.533  41.708  43.929  1.00  0.00    -0.003 C 
ATOM     20  C   UNL     1     -33.125  41.118  43.985  1.00  0.00     0.004 C 
ENDBRANCH  18  19
ENDBRANCH  17  18
ENDBRANCH  16  17
ENDBRANCH  15  16
ENDBRANCH  14  15
ENDBRANCH  13  14
ENDBRANCH  12  13
ENDBRANCH   1  12
TORSDOF 16
ENDMDL
MODEL 8
REMARK VINA RESULT:    -4.733      1.760      3.405
REMARK INTER + INTRA:         -12.077
REMARK INTER:                  -9.262
REMARK INTRA:                  -2.814
REMARK UNBOUND:                -2.916
REMARK SMILES CCCCCCCCCCCCCCCCCC(=O)[O-]
REMARK SMILES IDX 10 1 11 2 12 3 13 4 14 5 15 6 16 7 17 8 18 9 19 10 20 11
REMARK SMILES IDX 9 12 8 13 7 14 6 15 5 16 4 17 3 18 2 19 1 20
REMARK H PARENT
REMARK Flexibility Score: inf
ROOT
ATOM      1  C   UNL     1     -31.287  41.020  43.602  1.00  0.00     0.000 C 
ENDROOT
BRANCH   1   2
ATOM      2  C   UNL     1     -32.619  41.687  43.977  1.00  0.00     0.000 C 
BRANCH   2   3
ATOM      3  C   UNL     1     -33.776  40.678  44.084  1.00  0.00     0.000 C 
BRANCH   3   4
ATOM      4  C   UNL     1     -35.158  41.351  44.004  1.00  0.00     0.000 C 
BRANCH   4   5
ATOM      5  C   UNL     1     -35.112  42.712  43.289  1.00  0.00     0.000 C 
BRANCH   5   6
ATOM      6  C   UNL     1     -35.438  42.612  41.789  1.00  0.00     0.000 C 
BRANCH   6   7
ATOM      7  C   UNL     1     -35.127  43.872  40.959  1.00  0.00     0.006 C 
BRANCH   7   8
ATOM      8  C   UNL     1     -34.275  43.604  39.704  1.00  0.00     0.053 C 
BRANCH   8   9
ATOM      9  C   UNL     1     -33.754  44.865  39.078  1.00  0.00     0.041 C 
ATOM     10  O   UNL     1     -32.517  45.096  39.050  1.00  0.00    -0.550 OA
ATOM     11  O   UNL     1     -34.639  45.805  38.566  1.00  0.00    -0.550 OA
ENDBRANCH   8   9
ENDBRANCH   7   8
ENDBRANCH   6   7
ENDBRANCH   5   6
ENDBRANCH   4   5
ENDBRANCH   3   4
ENDBRANCH   2   3
ENDBRANCH   1   2
BRANCH   1  12
ATOM     12  C   UNL     1     -30.624  41.664  42.371  1.00  0.00     0.000 C 
BRANCH  12  13
ATOM     13  C   UNL     1     -31.547  41.656  41.134  1.00  0.00    -0.000 C 
BRANCH  13  14
ATOM     14  C   UNL     1     -31.949  40.241  40.671  1.00  0.00    -0.000 C 
BRANCH  14  15
ATOM     15  C   UNL     1     -33.345  40.140  40.029  1.00  0.00    -0.000 C 
BRANCH  15  16
ATOM     16  C   UNL     1     -34.286  39.107  40.679  1.00  0.00    -0.000 C 
BRANCH  16  17
ATOM     17  C   UNL     1     -35.734  39.222  40.183  1.00  0.00    -0.000 C 
BRANCH  17  18
ATOM     18  C   UNL     1     -36.726  39.054  41.344  1.00  0.00    -0.000 C 
BRANCH  18  19
ATOM     19  C   UNL     1     -36.177  38.156  42.464  1.00  0.00    -0.003 C 
ATOM     20  C   UNL     1     -37.178  37.950  43.600  1.00  0.00     0.004 C 
ENDBRANCH  18  19
ENDBRANCH  17  18
ENDBRANCH  16  17
ENDBRANCH  15  16
ENDBRANCH  14  15
ENDBRANCH  13  14
ENDBRANCH  12  13
ENDBRANCH   1  12
TORSDOF 16
ENDMDL
MODEL 9
REMARK VINA RESULT:    -4.732      5.693      8.582
REMARK INTER + INTRA:         -12.074
REMARK INTER:                  -8.957
REMARK INTRA:                  -3.117
REMARK UNBOUND:                -2.916
REMARK SMILES CCCCCCCCCCCCCCCCCC(=O)[O-]
REMARK SMILES IDX 10 1 11 2 12 3 13 4 14 5 15 6 16 7 17 8 18 9 19 10 20 11
REMARK SMILES IDX 9 12 8 13 7 14 6 15 5 16 4 17 3 18 2 19 1 20
REMARK H PARENT
REMARK Flexibility Score: inf
ROOT
ATOM      1  C   UNL     1     -37.445  38.364  42.534  1.00  0.00     0.000 C 
ENDROOT
BRANCH   1   2
ATOM      2  C   UNL     1     -36.028  37.864  42.855  1.00  0.00     0.000 C 
BRANCH   2   3
ATOM      3  C   UNL     1     -35.923  37.248  44.261  1.00  0.00     0.000 C 
BRANCH   3   4
ATOM      4  C   UNL     1     -37.260  37.278  45.022  1.00  0.00     0.000 C 
BRANCH   4   5
ATOM      5  C   UNL     1     -37.073  37.452  46.539  1.00  0.00     0.000 C 
BRANCH   5   6
ATOM      6  C   UNL     1     -38.028  38.497  47.144  1.00  0.00     0.000 C 
BRANCH   6   7
ATOM      7  C   UNL     1     -39.315  38.760  46.340  1.00  0.00     0.006 C 
BRANCH   7   8
ATOM      8  C   UNL     1     -40.604  38.296  47.046  1.00  0.00     0.053 C 
BRANCH   8   9
ATOM      9  C   UNL     1     -40.342  37.277  48.115  1.00  0.00     0.041 C 
ATOM     10  O   UNL     1     -40.278  36.053  47.826  1.00  0.00    -0.550 OA
ATOM     11  O   UNL     1     -40.213  37.676  49.440  1.00  0.00    -0.550 OA
ENDBRANCH   8   9
ENDBRANCH   7   8
ENDBRANCH   6   7
ENDBRANCH   5   6
ENDBRANCH   4   5
ENDBRANCH   3   4
ENDBRANCH   2   3
ENDBRANCH   1   2
BRANCH   1  12
ATOM     12  C   UNL     1     -37.503  39.884  42.302  1.00  0.00     0.000 C 
BRANCH  12  13
ATOM     13  C   UNL     1     -38.049  40.645  43.529  1.00  0.00    -0.000 C 
BRANCH  13  14
ATOM     14  C   UNL     1     -37.071  41.696  44.091  1.00  0.00    -0.000 C 
BRANCH  14  15
ATOM     15  C   UNL     1     -36.427  41.327  45.441  1.00  0.00    -0.000 C 
BRANCH  15  16
ATOM     16  C   UNL     1     -35.084  40.579  45.337  1.00  0.00    -0.000 C 
BRANCH  16  17
ATOM     17  C   UNL     1     -34.044  41.331  44.495  1.00  0.00    -0.000 C 
BRANCH  17  18
ATOM     18  C   UNL     1     -33.376  40.391  43.480  1.00  0.00    -0.000 C 
BRANCH  18  19
ATOM     19  C   UNL     1     -33.815  40.675  42.035  1.00  0.00    -0.003 C 
ATOM     20  C   UNL     1     -34.244  42.126  41.822  1.00  0.00     0.004 C 
ENDBRANCH  18  19
ENDBRANCH  17  18
ENDBRANCH  16  17
ENDBRANCH  15  16
ENDBRANCH  14  15
ENDBRANCH  13  14
ENDBRANCH  12  13
ENDBRANCH   1  12
TORSDOF 16
ENDMDL
