MODEL 1
REMARK VINA RESULT:    -6.315      0.000      0.000
REMARK INTER + INTRA:          -7.153
REMARK INTER:                  -6.869
REMARK INTRA:                  -0.284
REMARK UNBOUND:                -0.284
REMARK SMILES C[C@H]1[C@H](C)CC[C@]2(C(=O)[O-])CC[C@@]3(C)C(=CC[C@@H]4[C@]5(C)CC[C@@H](O)C(C)(C)[C@@H]5CC[C@@]43C)[C@H]12
REMARK SMILES IDX 7 1 6 2 11 3 33 4 5 5 12 6 15 7 2 8 3 9 13 10 16 11 1 12
REMARK SMILES IDX 4 13 14 14 31 15 17 16 18 17 30 18 32 19 19 20 29 21 28 22
REMARK SMILES IDX 21 23 20 24 25 25 22 26 23 27 26 28 27 29 8 30 9 31 10 32
REMARK SMILES IDX 24 33
REMARK H PARENT 24 34
REMARK Flexibility Score: inf
ROOT
ATOM      1  C   UNL     1      30.596  -2.414 106.276  1.00  0.00     0.017 C 
ATOM      2  C   UNL     1      32.108  -1.813 105.917  1.00  0.00     0.014 C 
ATOM      3  C   UNL     1      29.605  -2.843 105.134  1.00  0.00     0.014 C 
ATOM      4  C   UNL     1      30.005  -1.235 107.175  1.00  0.00     0.030 C 
ATOM      5  C   UNL     1      33.053  -1.270 107.137  1.00  0.00     0.004 C 
ATOM      6  C   UNL     1      28.220  -2.150 104.868  1.00  0.00     0.013 C 
ATOM      7  C   UNL     1      29.033  -0.227 106.062  1.00  0.00    -0.063 C 
ATOM      8  C   UNL     1      31.138  -1.166 108.643  1.00  0.00    -0.003 C 
ATOM      9  C   UNL     1      32.426  -0.259 108.126  1.00  0.00    -0.011 C 
ATOM     10  C   UNL     1      28.498  -0.601 104.539  1.00  0.00    -0.006 C 
ATOM     11  C   UNL     1      29.148   1.111 105.868  1.00  0.00    -0.027 C 
ATOM     12  C   UNL     1      32.071  -1.927 110.012  1.00  0.00     0.008 C 
ATOM     13  C   UNL     1      32.297   1.341 107.860  1.00  0.00     0.008 C 
ATOM     14  C   UNL     1      27.022  -0.275 103.872  1.00  0.00     0.017 C 
ATOM     15  C   UNL     1      29.535   0.036 103.268  1.00  0.00    -0.020 C 
ATOM     16  C   UNL     1      30.453   1.422 105.141  1.00  0.00     0.032 C 
ATOM     17  C   UNL     1      30.819   0.567 103.846  1.00  0.00     0.006 C 
ATOM     18  C   UNL     1      29.140   1.505 102.576  1.00  0.00     0.008 C 
ATOM     19  C   UNL     1      29.877  -1.035 102.170  1.00  0.00     0.012 C 
ATOM     20  C   UNL     1      32.186   1.108 103.030  1.00  0.00    -0.025 C 
ATOM     21  C   UNL     1      30.099   1.858 101.373  1.00  0.00     0.005 C 
ATOM     22  C   UNL     1      31.715   1.859 101.646  1.00  0.00     0.003 C 
ATOM     23  C   UNL     1      33.140   2.049 103.905  1.00  0.00     0.010 C 
ATOM     24  C   UNL     1      33.145  -0.104 102.665  1.00  0.00     0.012 C 
ATOM     25  C   UNL     1      32.583   3.214 101.316  1.00  0.00    -0.006 C 
ATOM     26  C   UNL     1      32.820   3.554 103.854  1.00  0.00     0.033 C 
ATOM     27  C   UNL     1      32.379   4.207 102.498  1.00  0.00     0.120 C 
ATOM     28  C   UNL     1      34.125   2.978 101.090  1.00  0.00     0.014 C 
ATOM     29  C   UNL     1      32.072   3.910 100.006  1.00  0.00     0.014 C 
ENDROOT
BRANCH   1  30
ATOM     30  C   UNL     1      30.662  -3.736 107.052  1.00  0.00     0.048 C 
ATOM     31  O   UNL     1      29.625  -4.192 107.679  1.00  0.00    -0.550 OA
ATOM     32  O   UNL     1      31.833  -4.552 107.046  1.00  0.00    -0.550 OA
ENDBRANCH   1  30
BRANCH  27  33
ATOM     33  O   UNL     1      33.289   5.310 102.298  1.00  0.00    -0.393 OA
ATOM     34  H   UNL     1      34.040   5.110 102.893  1.00  0.00     0.210 HD
ENDBRANCH  27  33
TORSDOF 2
ENDMDL
MODEL 2
REMARK VINA RESULT:    -5.985      4.652      8.413
REMARK INTER + INTRA:          -6.793
REMARK INTER:                  -6.509
REMARK INTRA:                  -0.284
REMARK UNBOUND:                -0.284
REMARK SMILES C[C@H]1[C@H](C)CC[C@]2(C(=O)[O-])CC[C@@]3(C)C(=CC[C@@H]4[C@]5(C)CC[C@@H](O)C(C)(C)[C@@H]5CC[C@@]43C)[C@H]12
REMARK SMILES IDX 7 1 6 2 11 3 33 4 5 5 12 6 15 7 2 8 3 9 13 10 16 11 1 12
REMARK SMILES IDX 4 13 14 14 31 15 17 16 18 17 30 18 32 19 19 20 29 21 28 22
REMARK SMILES IDX 21 23 20 24 25 25 22 26 23 27 26 28 27 29 8 30 9 31 10 32
REMARK SMILES IDX 24 33
REMARK H PARENT 24 34
REMARK Flexibility Score: inf
ROOT
ATOM      1  C   UNL     1      28.563  -2.719 104.650  1.00  0.00     0.017 C 
ATOM      2  C   UNL     1      27.790  -4.189 104.522  1.00  0.00     0.014 C 
ATOM      3  C   UNL     1      27.779  -1.429 105.085  1.00  0.00     0.014 C 
ATOM      4  C   UNL     1      29.194  -2.578 103.190  1.00  0.00     0.030 C 
ATOM      5  C   UNL     1      28.625  -5.474 103.951  1.00  0.00     0.004 C 
ATOM      6  C   UNL     1      27.583  -0.169 104.165  1.00  0.00     0.013 C 
ATOM      7  C   UNL     1      28.037  -1.572 102.266  1.00  0.00    -0.063 C 
ATOM      8  C   UNL     1      30.360  -4.014 103.054  1.00  0.00    -0.003 C 
ATOM      9  C   UNL     1      29.393  -5.289 102.621  1.00  0.00    -0.011 C 
ATOM     10  C   UNL     1      26.796  -0.639 102.844  1.00  0.00    -0.006 C 
ATOM     11  C   UNL     1      27.466  -1.880 101.075  1.00  0.00    -0.027 C 
ATOM     12  C   UNL     1      31.696  -5.086 103.677  1.00  0.00     0.008 C 
ATOM     13  C   UNL     1      28.724  -5.395 101.140  1.00  0.00     0.008 C 
ATOM     14  C   UNL     1      26.340   0.867 102.343  1.00  0.00     0.017 C 
ATOM     15  C   UNL     1      25.236  -1.450 102.780  1.00  0.00    -0.020 C 
ATOM     16  C   UNL     1      26.461  -3.014 101.256  1.00  0.00     0.032 C 
ATOM     17  C   UNL     1      25.408  -2.907 102.448  1.00  0.00     0.006 C 
ATOM     18  C   UNL     1      24.249  -1.178 101.460  1.00  0.00     0.008 C 
ATOM     19  C   UNL     1      24.433  -1.326 104.126  1.00  0.00     0.012 C 
ATOM     20  C   UNL     1      24.244  -4.122 102.448  1.00  0.00    -0.025 C 
ATOM     21  C   UNL     1      22.845  -1.878 101.630  1.00  0.00     0.005 C 
ATOM     22  C   UNL     1      22.814  -3.485 101.947  1.00  0.00     0.003 C 
ATOM     23  C   UNL     1      24.643  -5.408 101.582  1.00  0.00     0.010 C 
ATOM     24  C   UNL     1      24.063  -4.733 103.902  1.00  0.00     0.012 C 
ATOM     25  C   UNL     1      21.975  -4.485 100.948  1.00  0.00    -0.006 C 
ATOM     26  C   UNL     1      24.238  -5.363 100.098  1.00  0.00     0.033 C 
ATOM     27  C   UNL     1      22.855  -4.745  99.690  1.00  0.00     0.120 C 
ATOM     28  C   UNL     1      21.552  -5.862 101.586  1.00  0.00     0.014 C 
ATOM     29  C   UNL     1      20.638  -3.818 100.472  1.00  0.00     0.014 C 
ENDROOT
BRANCH   1  30
ATOM     30  C   UNL     1      29.649  -2.723 105.735  1.00  0.00     0.048 C 
ATOM     31  O   UNL     1      30.546  -1.790 105.782  1.00  0.00    -0.550 OA
ATOM     32  O   UNL     1      29.663  -3.697 106.778  1.00  0.00    -0.550 OA
ENDBRANCH   1  30
BRANCH  27  33
ATOM     33  O   UNL     1      22.201  -5.768  98.909  1.00  0.00    -0.393 OA
ATOM     34  H   UNL     1      22.341  -6.587  99.425  1.00  0.00     0.210 HD
ENDBRANCH  27  33
TORSDOF 2
ENDMDL
MODEL 3
REMARK VINA RESULT:    -5.935      4.623      8.343
REMARK INTER + INTRA:          -6.739
REMARK INTER:                  -6.457
REMARK INTRA:                  -0.283
REMARK UNBOUND:                -0.284
REMARK SMILES C[C@H]1[C@H](C)CC[C@]2(C(=O)[O-])CC[C@@]3(C)C(=CC[C@@H]4[C@]5(C)CC[C@@H](O)C(C)(C)[C@@H]5CC[C@@]43C)[C@H]12
REMARK SMILES IDX 7 1 6 2 11 3 33 4 5 5 12 6 15 7 2 8 3 9 13 10 16 11 1 12
REMARK SMILES IDX 4 13 14 14 31 15 17 16 18 17 30 18 32 19 19 20 29 21 28 22
REMARK SMILES IDX 21 23 20 24 25 25 22 26 23 27 26 28 27 29 8 30 9 31 10 32
REMARK SMILES IDX 24 33
REMARK H PARENT 24 34
REMARK Flexibility Score: inf
ROOT
ATOM      1  C   UNL     1      29.089  -1.797 103.438  1.00  0.00     0.017 C 
ATOM      2  C   UNL     1      28.638  -3.328 102.960  1.00  0.00     0.014 C 
ATOM      3  C   UNL     1      28.182  -0.953 104.404  1.00  0.00     0.014 C 
ATOM      4  C   UNL     1      29.292  -1.084 102.024  1.00  0.00     0.030 C 
ATOM      5  C   UNL     1      29.558  -4.116 101.860  1.00  0.00     0.004 C 
ATOM      6  C   UNL     1      27.501   0.406 104.005  1.00  0.00     0.013 C 
ATOM      7  C   UNL     1      27.755  -0.226 101.698  1.00  0.00    -0.063 C 
ATOM      8  C   UNL     1      30.664  -2.039 101.221  1.00  0.00    -0.003 C 
ATOM      9  C   UNL     1      29.913  -3.360 100.558  1.00  0.00    -0.011 C 
ATOM     10  C   UNL     1      26.529   0.123 102.756  1.00  0.00    -0.006 C 
ATOM     11  C   UNL     1      26.985  -0.336 100.588  1.00  0.00    -0.027 C 
ATOM     12  C   UNL     1      32.310  -2.824 101.214  1.00  0.00     0.008 C 
ATOM     13  C   UNL     1      28.935  -3.231  99.264  1.00  0.00     0.008 C 
ATOM     14  C   UNL     1      25.653   1.518 102.870  1.00  0.00     0.017 C 
ATOM     15  C   UNL     1      25.210  -1.040 102.691  1.00  0.00    -0.020 C 
ATOM     16  C   UNL     1      26.320  -1.710 100.548  1.00  0.00     0.032 C 
ATOM     17  C   UNL     1      25.599  -2.239 101.868  1.00  0.00     0.006 C 
ATOM     18  C   UNL     1      23.891  -0.699 101.724  1.00  0.00     0.008 C 
ATOM     19  C   UNL     1      24.760  -1.528 104.116  1.00  0.00     0.012 C 
ATOM     20  C   UNL     1      24.757  -3.680 101.660  1.00  0.00    -0.025 C 
ATOM     21  C   UNL     1      22.755  -1.782 101.887  1.00  0.00     0.005 C 
ATOM     22  C   UNL     1      23.146  -3.356 101.650  1.00  0.00     0.003 C 
ATOM     23  C   UNL     1      25.191  -4.508 100.361  1.00  0.00     0.010 C 
ATOM     24  C   UNL     1      25.077  -4.698 102.836  1.00  0.00     0.012 C 
ATOM     25  C   UNL     1      22.316  -4.230 100.533  1.00  0.00    -0.006 C 
ATOM     26  C   UNL     1      24.429  -4.166  99.068  1.00  0.00     0.033 C 
ATOM     27  C   UNL     1      22.890  -3.871  99.130  1.00  0.00     0.120 C 
ATOM     28  C   UNL     1      22.367  -5.791 100.737  1.00  0.00     0.014 C 
ATOM     29  C   UNL     1      20.792  -3.858 100.541  1.00  0.00     0.014 C 
ENDROOT
BRANCH   1  30
ATOM     30  C   UNL     1      30.386  -1.800 104.259  1.00  0.00     0.048 C 
ATOM     31  O   UNL     1      31.047  -0.705 104.463  1.00  0.00    -0.550 OA
ATOM     32  O   UNL     1      30.867  -2.983 104.897  1.00  0.00    -0.550 OA
ENDBRANCH   1  30
BRANCH  27  33
ATOM     33  O   UNL     1      22.294  -4.776  98.175  1.00  0.00    -0.393 OA
ATOM     34  H   UNL     1      22.671  -4.497  97.316  1.00  0.00     0.210 HD
ENDBRANCH  27  33
TORSDOF 2
ENDMDL
MODEL 4
REMARK VINA RESULT:    -5.886      4.809      7.929
REMARK INTER + INTRA:          -6.686
REMARK INTER:                  -6.406
REMARK INTRA:                  -0.280
REMARK UNBOUND:                -0.284
REMARK SMILES C[C@H]1[C@H](C)CC[C@]2(C(=O)[O-])CC[C@@]3(C)C(=CC[C@@H]4[C@]5(C)CC[C@@H](O)C(C)(C)[C@@H]5CC[C@@]43C)[C@H]12
REMARK SMILES IDX 7 1 6 2 11 3 33 4 5 5 12 6 15 7 2 8 3 9 13 10 16 11 1 12
REMARK SMILES IDX 4 13 14 14 31 15 17 16 18 17 30 18 32 19 19 20 29 21 28 22
REMARK SMILES IDX 21 23 20 24 25 25 22 26 23 27 26 28 27 29 8 30 9 31 10 32
REMARK SMILES IDX 24 33
REMARK H PARENT 24 34
REMARK Flexibility Score: inf
ROOT
ATOM      1  C   UNL     1      25.143  -5.046 100.647  1.00  0.00     0.017 C 
ATOM      2  C   UNL     1      24.829  -4.438 102.166  1.00  0.00     0.014 C 
ATOM      3  C   UNL     1      26.591  -5.507 100.245  1.00  0.00     0.014 C 
ATOM      4  C   UNL     1      24.613  -3.854  99.726  1.00  0.00     0.030 C 
ATOM      5  C   UNL     1      23.333  -3.862 102.492  1.00  0.00     0.004 C 
ATOM      6  C   UNL     1      27.444  -4.832  99.110  1.00  0.00     0.013 C 
ATOM      7  C   UNL     1      26.059  -2.878  99.329  1.00  0.00    -0.063 C 
ATOM      8  C   UNL     1      22.802  -3.746 100.115  1.00  0.00    -0.003 C 
ATOM      9  C   UNL     1      22.733  -2.837 101.500  1.00  0.00    -0.011 C 
ATOM     10  C   UNL     1      27.655  -3.288  99.503  1.00  0.00    -0.006 C 
ATOM     11  C   UNL     1      26.213  -1.544  99.516  1.00  0.00    -0.027 C 
ATOM     12  C   UNL     1      21.149  -4.470 100.367  1.00  0.00     0.008 C 
ATOM     13  C   UNL     1      23.064  -1.244 101.499  1.00  0.00     0.008 C 
ATOM     14  C   UNL     1      28.900  -2.989  98.459  1.00  0.00     0.017 C 
ATOM     15  C   UNL     1      28.368  -2.667 100.986  1.00  0.00    -0.020 C 
ATOM     16  C   UNL     1      26.314  -1.235 101.007  1.00  0.00     0.032 C 
ATOM     17  C   UNL     1      27.305  -2.112 101.896  1.00  0.00     0.006 C 
ATOM     18  C   UNL     1      29.195  -1.216 100.929  1.00  0.00     0.008 C 
ATOM     19  C   UNL     1      29.187  -3.757 101.769  1.00  0.00     0.012 C 
ATOM     20  C   UNL     1      27.464  -1.575 103.482  1.00  0.00    -0.025 C 
ATOM     21  C   UNL     1      29.874  -0.878 102.313  1.00  0.00     0.005 C 
ATOM     22  C   UNL     1      28.932  -0.856 103.653  1.00  0.00     0.003 C 
ATOM     23  C   UNL     1      26.284  -0.607 103.965  1.00  0.00     0.010 C 
ATOM     24  C   UNL     1      27.353  -2.785 104.504  1.00  0.00     0.012 C 
ATOM     25  C   UNL     1      28.886   0.500 104.579  1.00  0.00    -0.006 C 
ATOM     26  C   UNL     1      26.501   0.893 103.698  1.00  0.00     0.033 C 
ATOM     27  C   UNL     1      27.930   1.515 103.885  1.00  0.00     0.120 C 
ATOM     28  C   UNL     1      28.420   0.274 106.068  1.00  0.00     0.014 C 
ATOM     29  C   UNL     1      30.303   1.165 104.683  1.00  0.00     0.014 C 
ENDROOT
BRANCH   1  30
ATOM     30  C   UNL     1      24.385  -6.351 100.371  1.00  0.00     0.048 C 
ATOM     31  O   UNL     1      24.308  -6.836  99.173  1.00  0.00    -0.550 OA
ATOM     32  O   UNL     1      23.812  -7.122 101.427  1.00  0.00    -0.550 OA
ENDBRANCH   1  30
BRANCH  27  33
ATOM     33  O   UNL     1      27.742   2.622 104.793  1.00  0.00    -0.393 OA
ATOM     34  H   UNL     1      26.781   2.616 104.980  1.00  0.00     0.210 HD
ENDBRANCH  27  33
TORSDOF 2
ENDMDL
MODEL 5
REMARK VINA RESULT:    -5.851      2.221      6.876
REMARK INTER + INTRA:          -6.647
REMARK INTER:                  -6.366
REMARK INTRA:                  -0.281
REMARK UNBOUND:                -0.284
REMARK SMILES C[C@H]1[C@H](C)CC[C@]2(C(=O)[O-])CC[C@@]3(C)C(=CC[C@@H]4[C@]5(C)CC[C@@H](O)C(C)(C)[C@@H]5CC[C@@]43C)[C@H]12
REMARK SMILES IDX 7 1 6 2 11 3 33 4 5 5 12 6 15 7 2 8 3 9 13 10 16 11 1 12
REMARK SMILES IDX 4 13 14 14 31 15 17 16 18 17 30 18 32 19 19 20 29 21 28 22
REMARK SMILES IDX 21 23 20 24 25 25 22 26 23 27 26 28 27 29 8 30 9 31 10 32
REMARK SMILES IDX 24 33
REMARK H PARENT 24 34
REMARK Flexibility Score: inf
ROOT
ATOM      1  C   UNL     1      30.901   2.807 103.929  1.00  0.00     0.017 C 
ATOM      2  C   UNL     1      31.810   1.471 104.334  1.00  0.00     0.014 C 
ATOM      3  C   UNL     1      29.530   3.098 104.639  1.00  0.00     0.014 C 
ATOM      4  C   UNL     1      30.732   2.595 102.355  1.00  0.00     0.030 C 
ATOM      5  C   UNL     1      33.168   1.151 103.482  1.00  0.00     0.004 C 
ATOM      6  C   UNL     1      28.144   3.115 103.898  1.00  0.00     0.013 C 
ATOM      7  C   UNL     1      29.142   1.800 102.150  1.00  0.00    -0.063 C 
ATOM      8  C   UNL     1      32.465   2.655 101.696  1.00  0.00    -0.003 C 
ATOM      9  C   UNL     1      33.050   1.123 101.940  1.00  0.00    -0.011 C 
ATOM     10  C   UNL     1      27.912   1.662 103.251  1.00  0.00    -0.006 C 
ATOM     11  C   UNL     1      28.893   0.645 101.484  1.00  0.00    -0.027 C 
ATOM     12  C   UNL     1      34.125   3.394 101.556  1.00  0.00     0.008 C 
ATOM     13  C   UNL     1      32.518  -0.148 101.072  1.00  0.00     0.008 C 
ATOM     14  C   UNL     1      26.289   1.823 102.987  1.00  0.00     0.017 C 
ATOM     15  C   UNL     1      27.914   0.120 104.098  1.00  0.00    -0.020 C 
ATOM     16  C   UNL     1      29.476  -0.537 102.253  1.00  0.00     0.032 C 
ATOM     17  C   UNL     1      29.183  -0.639 103.817  1.00  0.00     0.006 C 
ATOM     18  C   UNL     1      26.949  -1.113 103.514  1.00  0.00     0.008 C 
ATOM     19  C   UNL     1      27.752   0.281 105.653  1.00  0.00     0.012 C 
ATOM     20  C   UNL     1      29.726  -2.064 104.526  1.00  0.00    -0.025 C 
ATOM     21  C   UNL     1      26.976  -2.373 104.465  1.00  0.00     0.005 C 
ATOM     22  C   UNL     1      28.430  -3.023 104.847  1.00  0.00     0.003 C 
ATOM     23  C   UNL     1      30.827  -2.844 103.665  1.00  0.00     0.010 C 
ATOM     24  C   UNL     1      30.501  -1.765 105.879  1.00  0.00     0.012 C 
ATOM     25  C   UNL     1      28.706  -4.612 104.530  1.00  0.00    -0.006 C 
ATOM     26  C   UNL     1      30.279  -3.854 102.641  1.00  0.00     0.033 C 
ATOM     27  C   UNL     1      29.041  -4.742 103.015  1.00  0.00     0.120 C 
ATOM     28  C   UNL     1      29.859  -5.269 105.380  1.00  0.00     0.014 C 
ATOM     29  C   UNL     1      27.431  -5.477 104.819  1.00  0.00     0.014 C 
ENDROOT
BRANCH   1  30
ATOM     30  C   UNL     1      31.625   4.123 104.245  1.00  0.00     0.048 C 
ATOM     31  O   UNL     1      31.204   5.248 103.760  1.00  0.00    -0.550 OA
ATOM     32  O   UNL     1      32.730   4.173 105.147  1.00  0.00    -0.550 OA
ENDBRANCH   1  30
BRANCH  27  33
ATOM     33  O   UNL     1      29.468  -6.101 102.782  1.00  0.00    -0.393 OA
ATOM     34  H   UNL     1      29.562  -6.479 103.679  1.00  0.00     0.210 HD
ENDBRANCH  27  33
TORSDOF 2
ENDMDL
MODEL 6
REMARK VINA RESULT:    -5.832      3.033      6.642
REMARK INTER + INTRA:          -6.626
REMARK INTER:                  -6.343
REMARK INTRA:                  -0.284
REMARK UNBOUND:                -0.284
REMARK SMILES C[C@H]1[C@H](C)CC[C@]2(C(=O)[O-])CC[C@@]3(C)C(=CC[C@@H]4[C@]5(C)CC[C@@H](O)C(C)(C)[C@@H]5CC[C@@]43C)[C@H]12
REMARK SMILES IDX 7 1 6 2 11 3 33 4 5 5 12 6 15 7 2 8 3 9 13 10 16 11 1 12
REMARK SMILES IDX 4 13 14 14 31 15 17 16 18 17 30 18 32 19 19 20 29 21 28 22
REMARK SMILES IDX 21 23 20 24 25 25 22 26 23 27 26 28 27 29 8 30 9 31 10 32
REMARK SMILES IDX 24 33
REMARK H PARENT 24 34
REMARK Flexibility Score: inf
ROOT
ATOM      1  C   UNL     1      31.142   0.675 104.156  1.00  0.00     0.017 C 
ATOM      2  C   UNL     1      30.267   1.080 102.797  1.00  0.00     0.014 C 
ATOM      3  C   UNL     1      31.591  -0.808 104.415  1.00  0.00     0.014 C 
ATOM      4  C   UNL     1      30.185   1.226 105.309  1.00  0.00     0.030 C 
ATOM      5  C   UNL     1      29.723   2.614 102.635  1.00  0.00     0.004 C 
ATOM      6  C   UNL     1      31.105  -1.672 105.635  1.00  0.00     0.013 C 
ATOM      7  C   UNL     1      29.226  -0.185 105.848  1.00  0.00    -0.063 C 
ATOM      8  C   UNL     1      30.104   3.054 105.003  1.00  0.00    -0.003 C 
ATOM      9  C   UNL     1      28.948   3.223 103.828  1.00  0.00    -0.011 C 
ATOM     10  C   UNL     1      29.504  -1.791 105.549  1.00  0.00    -0.006 C 
ATOM     11  C   UNL     1      27.875  -0.266 105.924  1.00  0.00    -0.027 C 
ATOM     12  C   UNL     1      30.856   4.679 104.662  1.00  0.00     0.008 C 
ATOM     13  C   UNL     1      27.369   2.971 104.134  1.00  0.00     0.008 C 
ATOM     14  C   UNL     1      29.347  -3.061 106.594  1.00  0.00     0.017 C 
ATOM     15  C   UNL     1      28.565  -2.413 104.197  1.00  0.00    -0.020 C 
ATOM     16  C   UNL     1      27.275  -0.292 104.521  1.00  0.00     0.032 C 
ATOM     17  C   UNL     1      27.904  -1.288 103.448  1.00  0.00     0.006 C 
ATOM     18  C   UNL     1      27.110  -3.169 104.516  1.00  0.00     0.008 C 
ATOM     19  C   UNL     1      29.434  -3.253 103.191  1.00  0.00     0.012 C 
ATOM     20  C   UNL     1      27.058  -1.357 101.995  1.00  0.00    -0.025 C 
ATOM     21  C   UNL     1      26.470  -3.775 103.207  1.00  0.00     0.005 C 
ATOM     22  C   UNL     1      26.239  -2.780 101.926  1.00  0.00     0.003 C 
ATOM     23  C   UNL     1      26.082  -0.113 101.749  1.00  0.00     0.010 C 
ATOM     24  C   UNL     1      28.049  -1.264 100.758  1.00  0.00     0.012 C 
ATOM     25  C   UNL     1      24.732  -2.630 101.288  1.00  0.00    -0.006 C 
ATOM     26  C   UNL     1      24.654  -0.267 102.300  1.00  0.00     0.033 C 
ATOM     27  C   UNL     1      23.928  -1.654 102.197  1.00  0.00     0.120 C 
ATOM     28  C   UNL     1      24.688  -2.117  99.799  1.00  0.00     0.014 C 
ATOM     29  C   UNL     1      23.982  -4.007 101.276  1.00  0.00     0.014 C 
ENDROOT
BRANCH   1  30
ATOM     30  C   UNL     1      32.517   1.357 104.190  1.00  0.00     0.048 C 
ATOM     31  O   UNL     1      33.208   1.407 105.284  1.00  0.00    -0.550 OA
ATOM     32  O   UNL     1      33.122   1.884 103.009  1.00  0.00    -0.550 OA
ENDBRANCH   1  30
BRANCH  27  33
ATOM     33  O   UNL     1      22.677  -1.376 101.533  1.00  0.00    -0.393 OA
ATOM     34  H   UNL     1      22.579  -2.109 100.892  1.00  0.00     0.210 HD
ENDBRANCH  27  33
TORSDOF 2
ENDMDL
MODEL 7
REMARK VINA RESULT:    -5.779      3.130      4.732
REMARK INTER + INTRA:          -6.570
REMARK INTER:                  -6.286
REMARK INTRA:                  -0.284
REMARK UNBOUND:                -0.284
REMARK SMILES C[C@H]1[C@H](C)CC[C@]2(C(=O)[O-])CC[C@@]3(C)C(=CC[C@@H]4[C@]5(C)CC[C@@H](O)C(C)(C)[C@@H]5CC[C@@]43C)[C@H]12
REMARK SMILES IDX 7 1 6 2 11 3 33 4 5 5 12 6 15 7 2 8 3 9 13 10 16 11 1 12
REMARK SMILES IDX 4 13 14 14 31 15 17 16 18 17 30 18 32 19 19 20 29 21 28 22
REMARK SMILES IDX 21 23 20 24 25 25 22 26 23 27 26 28 27 29 8 30 9 31 10 32
REMARK SMILES IDX 24 33
REMARK H PARENT 24 34
REMARK Flexibility Score: inf
ROOT
ATOM      1  C   UNL     1      29.200  -2.212 100.903  1.00  0.00     0.017 C 
ATOM      2  C   UNL     1      30.658  -1.408 100.966  1.00  0.00     0.014 C 
ATOM      3  C   UNL     1      27.869  -1.446 100.567  1.00  0.00     0.014 C 
ATOM      4  C   UNL     1      29.160  -2.883 102.351  1.00  0.00     0.030 C 
ATOM      5  C   UNL     1      31.993  -2.228 101.437  1.00  0.00     0.004 C 
ATOM      6  C   UNL     1      26.663  -1.304 101.564  1.00  0.00     0.013 C 
ATOM      7  C   UNL     1      28.187  -1.775 103.364  1.00  0.00    -0.063 C 
ATOM      8  C   UNL     1      30.626  -4.019 102.370  1.00  0.00    -0.003 C 
ATOM      9  C   UNL     1      31.904  -3.034 102.754  1.00  0.00    -0.011 C 
ATOM     10  C   UNL     1      27.194  -0.541 102.876  1.00  0.00    -0.006 C 
ATOM     11  C   UNL     1      28.553  -1.228 104.550  1.00  0.00    -0.027 C 
ATOM     12  C   UNL     1      31.688  -5.314 101.650  1.00  0.00     0.008 C 
ATOM     13  C   UNL     1      32.084  -2.402 104.243  1.00  0.00     0.008 C 
ATOM     14  C   UNL     1      25.711  -0.132 103.478  1.00  0.00     0.017 C 
ATOM     15  C   UNL     1      27.973   1.035 102.935  1.00  0.00    -0.020 C 
ATOM     16  C   UNL     1      29.652  -0.192 104.330  1.00  0.00     0.032 C 
ATOM     17  C   UNL     1      29.452   0.889 103.176  1.00  0.00     0.006 C 
ATOM     18  C   UNL     1      27.760   1.982 104.295  1.00  0.00     0.008 C 
ATOM     19  C   UNL     1      27.753   1.870 101.621  1.00  0.00     0.012 C 
ATOM     20  C   UNL     1      30.639   2.080 103.135  1.00  0.00    -0.025 C 
ATOM     21  C   UNL     1      28.419   3.405 104.122  1.00  0.00     0.005 C 
ATOM     22  C   UNL     1      30.003   3.481 103.712  1.00  0.00     0.003 C 
ATOM     23  C   UNL     1      31.982   1.689 103.913  1.00  0.00     0.010 C 
ATOM     24  C   UNL     1      31.158   2.313 101.653  1.00  0.00     0.012 C 
ATOM     25  C   UNL     1      31.042   4.317 104.673  1.00  0.00    -0.006 C 
ATOM     26  C   UNL     1      32.018   2.054 105.407  1.00  0.00     0.033 C 
ATOM     27  C   UNL     1      31.395   3.411 105.888  1.00  0.00     0.120 C 
ATOM     28  C   UNL     1      32.369   4.788 103.966  1.00  0.00     0.014 C 
ATOM     29  C   UNL     1      30.376   5.626 105.223  1.00  0.00     0.014 C 
ENDROOT
BRANCH   1  30
ATOM     30  C   UNL     1      29.162  -3.269  99.791  1.00  0.00     0.048 C 
ATOM     31  O   UNL     1      28.248  -4.186  99.775  1.00  0.00    -0.550 OA
ATOM     32  O   UNL     1      30.073  -3.234  98.692  1.00  0.00    -0.550 OA
ENDBRANCH   1  30
BRANCH  27  33
ATOM     33  O   UNL     1      32.449   4.068 106.625  1.00  0.00    -0.393 OA
ATOM     34  H   UNL     1      32.750   3.391 107.265  1.00  0.00     0.210 HD
ENDBRANCH  27  33
TORSDOF 2
ENDMDL
MODEL 8
REMARK VINA RESULT:    -5.702      3.005      7.281
REMARK INTER + INTRA:          -6.486
REMARK INTER:                  -6.223
REMARK INTRA:                  -0.263
REMARK UNBOUND:                -0.284
REMARK SMILES C[C@H]1[C@H](C)CC[C@]2(C(=O)[O-])CC[C@@]3(C)C(=CC[C@@H]4[C@]5(C)CC[C@@H](O)C(C)(C)[C@@H]5CC[C@@]43C)[C@H]12
REMARK SMILES IDX 7 1 6 2 11 3 33 4 5 5 12 6 15 7 2 8 3 9 13 10 16 11 1 12
REMARK SMILES IDX 4 13 14 14 31 15 17 16 18 17 30 18 32 19 19 20 29 21 28 22
REMARK SMILES IDX 21 23 20 24 25 25 22 26 23 27 26 28 27 29 8 30 9 31 10 32
REMARK SMILES IDX 24 33
REMARK H PARENT 24 34
REMARK Flexibility Score: inf
ROOT
ATOM      1  C   UNL     1      31.179   1.190 103.431  1.00  0.00     0.017 C 
ATOM      2  C   UNL     1      31.398  -0.447 103.651  1.00  0.00     0.014 C 
ATOM      3  C   UNL     1      30.165   1.996 104.321  1.00  0.00     0.014 C 
ATOM      4  C   UNL     1      30.795   1.241 101.883  1.00  0.00     0.030 C 
ATOM      5  C   UNL     1      32.375  -1.259 102.622  1.00  0.00     0.004 C 
ATOM      6  C   UNL     1      28.885   2.716 103.760  1.00  0.00     0.013 C 
ATOM      7  C   UNL     1      29.007   1.279 101.835  1.00  0.00    -0.063 C 
ATOM      8  C   UNL     1      32.295   0.576 101.017  1.00  0.00    -0.003 C 
ATOM      9  C   UNL     1      32.125  -1.071 101.107  1.00  0.00    -0.011 C 
ATOM     10  C   UNL     1      27.952   1.601 103.072  1.00  0.00    -0.006 C 
ATOM     11  C   UNL     1      28.195   0.438 101.147  1.00  0.00    -0.027 C 
ATOM     12  C   UNL     1      34.089   0.492 100.710  1.00  0.00     0.008 C 
ATOM     13  C   UNL     1      30.993  -1.865 100.248  1.00  0.00     0.008 C 
ATOM     14  C   UNL     1      26.572   2.507 103.020  1.00  0.00     0.017 C 
ATOM     15  C   UNL     1      27.315   0.148 103.831  1.00  0.00    -0.020 C 
ATOM     16  C   UNL     1      28.230  -0.952 101.776  1.00  0.00     0.032 C 
ATOM     17  C   UNL     1      28.060  -1.070 103.357  1.00  0.00     0.006 C 
ATOM     18  C   UNL     1      25.843  -0.446 103.310  1.00  0.00     0.008 C 
ATOM     19  C   UNL     1      27.381   0.204 105.401  1.00  0.00     0.012 C 
ATOM     20  C   UNL     1      27.942  -2.651 103.919  1.00  0.00    -0.025 C 
ATOM     21  C   UNL     1      25.367  -1.671 104.183  1.00  0.00     0.005 C 
ATOM     22  C   UNL     1      26.383  -2.946 104.347  1.00  0.00     0.003 C 
ATOM     23  C   UNL     1      28.478  -3.752 102.888  1.00  0.00     0.010 C 
ATOM     24  C   UNL     1      28.881  -2.877 105.179  1.00  0.00     0.012 C 
ATOM     25  C   UNL     1      25.865  -4.445 103.918  1.00  0.00    -0.006 C 
ATOM     26  C   UNL     1      27.440  -4.293 101.890  1.00  0.00     0.033 C 
ATOM     27  C   UNL     1      25.969  -4.556 102.368  1.00  0.00     0.120 C 
ATOM     28  C   UNL     1      26.652  -5.637 104.583  1.00  0.00     0.014 C 
ATOM     29  C   UNL     1      24.364  -4.662 104.318  1.00  0.00     0.014 C 
ENDROOT
BRANCH   1  30
ATOM     30  C   UNL     1      32.453   1.994 103.723  1.00  0.00     0.048 C 
ATOM     31  O   UNL     1      33.398   1.501 104.458  1.00  0.00    -0.550 OA
ATOM     32  O   UNL     1      32.684   3.273 103.133  1.00  0.00    -0.550 OA
ENDBRANCH   1  30
BRANCH  27  33
ATOM     33  O   UNL     1      25.698  -5.929 102.014  1.00  0.00    -0.393 OA
ATOM     34  H   UNL     1      26.096  -6.446 102.743  1.00  0.00     0.210 HD
ENDBRANCH  27  33
TORSDOF 2
ENDMDL
MODEL 9
REMARK VINA RESULT:    -5.697      2.269      3.132
REMARK INTER + INTRA:          -6.481
REMARK INTER:                  -6.197
REMARK INTRA:                  -0.284
REMARK UNBOUND:                -0.284
REMARK SMILES C[C@H]1[C@H](C)CC[C@]2(C(=O)[O-])CC[C@@]3(C)C(=CC[C@@H]4[C@]5(C)CC[C@@H](O)C(C)(C)[C@@H]5CC[C@@]43C)[C@H]12
REMARK SMILES IDX 7 1 6 2 11 3 33 4 5 5 12 6 15 7 2 8 3 9 13 10 16 11 1 12
REMARK SMILES IDX 4 13 14 14 31 15 17 16 18 17 30 18 32 19 19 20 29 21 28 22
REMARK SMILES IDX 21 23 20 24 25 25 22 26 23 27 26 28 27 29 8 30 9 31 10 32
REMARK SMILES IDX 24 33
REMARK H PARENT 24 34
REMARK Flexibility Score: inf
ROOT
ATOM      1  C   UNL     1      30.729  -2.860 103.587  1.00  0.00     0.017 C 
ATOM      2  C   UNL     1      32.035  -1.826 103.572  1.00  0.00     0.014 C 
ATOM      3  C   UNL     1      29.436  -2.541 102.754  1.00  0.00     0.014 C 
ATOM      4  C   UNL     1      30.431  -2.951 105.153  1.00  0.00     0.030 C 
ATOM      5  C   UNL     1      33.308  -2.145 104.549  1.00  0.00     0.004 C 
ATOM      6  C   UNL     1      28.024  -2.278 103.392  1.00  0.00     0.013 C 
ATOM      7  C   UNL     1      29.133  -1.757 105.461  1.00  0.00    -0.063 C 
ATOM      8  C   UNL     1      31.970  -3.697 105.871  1.00  0.00    -0.003 C 
ATOM      9  C   UNL     1      33.007  -2.415 106.043  1.00  0.00    -0.011 C 
ATOM     10  C   UNL     1      28.150  -1.002 104.362  1.00  0.00    -0.006 C 
ATOM     11  C   UNL     1      29.153  -0.756 106.375  1.00  0.00    -0.027 C 
ATOM     12  C   UNL     1      33.306  -4.937 105.916  1.00  0.00     0.008 C 
ATOM     13  C   UNL     1      32.767  -1.261 107.165  1.00  0.00     0.008 C 
ATOM     14  C   UNL     1      26.532  -0.694 104.490  1.00  0.00     0.017 C 
ATOM     15  C   UNL     1      28.715   0.605 103.921  1.00  0.00    -0.020 C 
ATOM     16  C   UNL     1      30.152   0.318 105.952  1.00  0.00     0.032 C 
ATOM     17  C   UNL     1      30.105   0.843 104.447  1.00  0.00     0.006 C 
ATOM     18  C   UNL     1      28.090   1.923 104.735  1.00  0.00     0.008 C 
ATOM     19  C   UNL     1      28.713   0.843 102.367  1.00  0.00     0.012 C 
ATOM     20  C   UNL     1      31.129   2.140 104.139  1.00  0.00    -0.025 C 
ATOM     21  C   UNL     1      28.609   3.283 104.125  1.00  0.00     0.005 C 
ATOM     22  C   UNL     1      30.226   3.506 103.994  1.00  0.00     0.003 C 
ATOM     23  C   UNL     1      32.292   2.325 105.224  1.00  0.00     0.010 C 
ATOM     24  C   UNL     1      31.948   1.911 102.799  1.00  0.00     0.012 C 
ATOM     25  C   UNL     1      30.916   4.817 104.705  1.00  0.00    -0.006 C 
ATOM     26  C   UNL     1      31.940   3.211 106.433  1.00  0.00     0.033 C 
ATOM     27  C   UNL     1      31.077   4.504 106.222  1.00  0.00     0.120 C 
ATOM     28  C   UNL     1      32.310   5.243 104.106  1.00  0.00     0.014 C 
ATOM     29  C   UNL     1      30.000   6.083 104.568  1.00  0.00     0.014 C 
ENDROOT
BRANCH   1  30
ATOM     30  C   UNL     1      31.067  -4.237 102.998  1.00  0.00     0.048 C 
ATOM     31  O   UNL     1      30.289  -5.253 103.193  1.00  0.00    -0.550 OA
ATOM     32  O   UNL     1      32.197  -4.432 102.147  1.00  0.00    -0.550 OA
ENDBRANCH   1  30
BRANCH  27  33
ATOM     33  O   UNL     1      31.853   5.573 106.804  1.00  0.00    -0.393 OA
ATOM     34  H   UNL     1      32.507   5.798 106.112  1.00  0.00     0.210 HD
ENDBRANCH  27  33
TORSDOF 2
ENDMDL
