MODEL 1
REMARK VINA RESULT:    -5.384      0.000      0.000
REMARK INTER + INTRA:          -9.715
REMARK INTER:                  -8.846
REMARK INTRA:                  -0.869
REMARK UNBOUND:                -0.869
REMARK SMILES C[C@H]1O[C@H](OC[C@@H]2O[C@@H](Oc3c(-c4ccc(O)c(O)c4)oc4cc(O)cc(O)c4c3=O)[C@@H](O)[C@@H](O)[C@H]2O)[C@@H](O)[C@H](O)[C@@H]1O
REMARK SMILES IDX 7 1 36 2 34 3 32 4 9 5 8 6 6 7 5 8 4 9 1 10 2 11 42 12 3 13
REMARK SMILES IDX 40 14 38 15 43 16 41 18 39 20 37 22 35 24 10 26 11 27 12 28
REMARK SMILES IDX 30 29 21 30 29 31 31 32 22 33 27 34 23 35 26 36 24 37 13 38
REMARK SMILES IDX 20 39 14 40 18 41 15 42 16 43 19 44 17 46 28 48 25 50 33 52
REMARK H PARENT 43 17 41 19 39 21 37 23 35 25 19 45 17 47 28 49 25 51 33 53
REMARK Flexibility Score: inf
ROOT
ATOM      1  C   UNL     1      18.965  18.683  19.295  1.00  0.00     0.180 C 
ATOM      2  C   UNL     1      17.420  18.567  19.303  1.00  0.00     0.177 C 
ATOM      3  C   UNL     1      17.020  17.089  19.471  1.00  0.00     0.180 C 
ATOM      4  C   UNL     1      17.744  16.243  18.407  1.00  0.00     0.214 C 
ATOM      5  C   UNL     1      19.266  16.526  18.394  1.00  0.00     0.339 C 
ATOM      6  O   UNL     1      19.518  17.914  18.235  1.00  0.00    -0.332 OA
ENDROOT
BRANCH   1   7
ATOM      7  C   UNL     1      19.423  20.137  19.103  1.00  0.00     0.198 C 
BRANCH   7   8
ATOM      8  O   UNL     1      19.603  20.766  20.361  1.00  0.00    -0.347 OA
BRANCH   8   9
ATOM      9  C   UNL     1      20.796  21.535  20.384  1.00  0.00     0.281 C 
ATOM     10  C   UNL     1      20.593  23.151  17.084  1.00  0.00     0.041 C 
ATOM     11  C   UNL     1      20.192  22.855  18.529  1.00  0.00     0.150 C 
ATOM     12  C   UNL     1      20.086  24.152  19.362  1.00  0.00     0.174 C 
ATOM     13  O   UNL     1      21.166  21.985  19.085  1.00  0.00    -0.344 OA
ATOM     14  C   UNL     1      19.713  23.809  20.813  1.00  0.00     0.179 C 
ATOM     15  C   UNL     1      20.646  22.713  21.373  1.00  0.00     0.202 C 
BRANCH  12  16
ATOM     16  O   UNL     1      19.106  25.008  18.829  1.00  0.00    -0.388 OA
ATOM     17  H   UNL     1      19.499  25.920  18.801  1.00  0.00     0.211 HD
ENDBRANCH  12  16
BRANCH  14  18
ATOM     18  O   UNL     1      18.376  23.373  20.861  1.00  0.00    -0.387 OA
ATOM     19  H   UNL     1      18.145  23.051  19.951  1.00  0.00     0.211 HD
ENDBRANCH  14  18
BRANCH  15  20
ATOM     20  O   UNL     1      21.899  23.251  21.719  1.00  0.00    -0.385 OA
ATOM     21  H   UNL     1      22.009  23.178  22.704  1.00  0.00     0.211 HD
ENDBRANCH  15  20
ENDBRANCH   8   9
ENDBRANCH   7   8
ENDBRANCH   1   7
BRANCH   2  22
ATOM     22  O   UNL     1      16.875  19.336  20.343  1.00  0.00    -0.387 OA
ATOM     23  H   UNL     1      17.624  19.848  20.750  1.00  0.00     0.211 HD
ENDBRANCH   2  22
BRANCH   3  24
ATOM     24  O   UNL     1      17.353  16.634  20.760  1.00  0.00    -0.387 OA
ATOM     25  H   UNL     1      17.002  15.709  20.844  1.00  0.00     0.211 HD
ENDBRANCH   3  24
BRANCH   5  26
ATOM     26  O   UNL     1      19.911  15.999  19.559  1.00  0.00    -0.454 OA
BRANCH  26  27
ATOM     27  C   UNL     1      21.211  16.363  19.950  1.00  0.00     0.214 A 
ATOM     28  C   UNL     1      21.445  16.822  21.255  1.00  0.00     0.180 A 
ATOM     29  C   UNL     1      22.289  16.325  19.048  1.00  0.00     0.239 A 
ATOM     30  O   UNL     1      22.665  17.183  21.630  1.00  0.00    -0.452 OA
ATOM     31  C   UNL     1      23.576  16.749  19.464  1.00  0.00     0.111 A 
ATOM     32  O   UNL     1      22.090  15.911  17.881  1.00  0.00    -0.285 OA
ATOM     33  C   UNL     1      23.715  17.148  20.820  1.00  0.00     0.146 A 
ATOM     34  C   UNL     1      24.735  16.772  18.627  1.00  0.00     0.134 A 
ATOM     35  C   UNL     1      24.965  17.502  21.333  1.00  0.00     0.094 A 
ATOM     36  C   UNL     1      25.980  17.097  19.181  1.00  0.00     0.093 A 
ATOM     37  C   UNL     1      26.100  17.463  20.522  1.00  0.00     0.123 A 
BRANCH  28  38
ATOM     38  C   UNL     1      20.362  16.901  22.246  1.00  0.00     0.025 A 
ATOM     39  C   UNL     1      20.133  15.840  23.134  1.00  0.00     0.062 A 
ATOM     40  C   UNL     1      19.596  18.069  22.351  1.00  0.00     0.016 A 
ATOM     41  C   UNL     1      19.121  15.931  24.102  1.00  0.00     0.158 A 
ATOM     42  C   UNL     1      18.582  18.160  23.309  1.00  0.00     0.051 A 
ATOM     43  C   UNL     1      18.338  17.094  24.183  1.00  0.00     0.157 A 
BRANCH  41  44
ATOM     44  O   UNL     1      18.898  14.875  24.982  1.00  0.00    -0.504 OA
ATOM     45  H   UNL     1      18.482  15.023  25.894  1.00  0.00     0.293 HD
ENDBRANCH  41  44
BRANCH  43  46
ATOM     46  O   UNL     1      17.318  17.213  25.127  1.00  0.00    -0.504 OA
ATOM     47  H   UNL     1      16.356  16.973  24.912  1.00  0.00     0.293 HD
ENDBRANCH  43  46
ENDBRANCH  28  38
BRANCH  34  48
ATOM     48  O   UNL     1      24.717  16.509  17.253  1.00  0.00    -0.507 OA
ATOM     49  H   UNL     1      24.285  17.098  16.558  1.00  0.00     0.293 HD
ENDBRANCH  34  48
BRANCH  37  50
ATOM     50  O   UNL     1      27.352  17.794  21.035  1.00  0.00    -0.508 OA
ATOM     51  H   UNL     1      27.802  17.229  21.746  1.00  0.00     0.293 HD
ENDBRANCH  37  50
ENDBRANCH  26  27
ENDBRANCH   5  26
BRANCH   4  52
ATOM     52  O   UNL     1      17.462  14.875  18.555  1.00  0.00    -0.384 OA
ATOM     53  H   UNL     1      16.597  14.791  19.036  1.00  0.00     0.211 HD
ENDBRANCH   4  52
TORSDOF 16
ENDMDL
MODEL 2
REMARK VINA RESULT:    -5.249      0.873      1.831
REMARK INTER + INTRA:          -9.493
REMARK INTER:                  -8.014
REMARK INTRA:                  -1.479
REMARK UNBOUND:                -0.869
REMARK SMILES C[C@H]1O[C@H](OC[C@@H]2O[C@@H](Oc3c(-c4ccc(O)c(O)c4)oc4cc(O)cc(O)c4c3=O)[C@@H](O)[C@@H](O)[C@H]2O)[C@@H](O)[C@H](O)[C@@H]1O
REMARK SMILES IDX 7 1 36 2 34 3 32 4 9 5 8 6 6 7 5 8 4 9 1 10 2 11 42 12 3 13
REMARK SMILES IDX 40 14 38 15 43 16 41 18 39 20 37 22 35 24 10 26 11 27 12 28
REMARK SMILES IDX 30 29 21 30 29 31 31 32 22 33 27 34 23 35 26 36 24 37 13 38
REMARK SMILES IDX 20 39 14 40 18 41 15 42 16 43 19 44 17 46 28 48 25 50 33 52
REMARK H PARENT 43 17 41 19 39 21 37 23 35 25 19 45 17 47 28 49 25 51 33 53
REMARK Flexibility Score: inf
ROOT
ATOM      1  C   UNL     1      18.874  18.652  19.152  1.00  0.00     0.180 C 
ATOM      2  C   UNL     1      17.329  18.604  19.250  1.00  0.00     0.177 C 
ATOM      3  C   UNL     1      16.879  17.159  19.534  1.00  0.00     0.180 C 
ATOM      4  C   UNL     1      17.507  16.218  18.489  1.00  0.00     0.214 C 
ATOM      5  C   UNL     1      19.036  16.432  18.377  1.00  0.00     0.339 C 
ATOM      6  O   UNL     1      19.336  17.795  18.115  1.00  0.00    -0.332 OA
ENDROOT
BRANCH   1   7
ATOM      7  C   UNL     1      19.379  20.070  18.842  1.00  0.00     0.198 C 
BRANCH   7   8
ATOM      8  O   UNL     1      19.349  20.869  20.014  1.00  0.00    -0.347 OA
BRANCH   8   9
ATOM      9  C   UNL     1      18.502  21.995  19.844  1.00  0.00     0.281 C 
ATOM     10  C   UNL     1      17.966  22.943  23.360  1.00  0.00     0.041 C 
ATOM     11  C   UNL     1      18.753  22.741  22.064  1.00  0.00     0.150 C 
ATOM     12  C   UNL     1      19.499  24.030  21.651  1.00  0.00     0.174 C 
ATOM     13  O   UNL     1      17.838  22.350  21.052  1.00  0.00    -0.344 OA
ATOM     14  C   UNL     1      20.250  23.795  20.331  1.00  0.00     0.179 C 
ATOM     15  C   UNL     1      19.311  23.181  19.270  1.00  0.00     0.202 C 
BRANCH  12  16
ATOM     16  O   UNL     1      20.423  24.409  22.641  1.00  0.00    -0.388 OA
ATOM     17  H   UNL     1      19.964  24.324  23.517  1.00  0.00     0.211 HD
ENDBRANCH  12  16
BRANCH  14  18
ATOM     18  O   UNL     1      21.342  22.939  20.560  1.00  0.00    -0.387 OA
ATOM     19  H   UNL     1      21.342  22.724  21.529  1.00  0.00     0.211 HD
ENDBRANCH  14  18
BRANCH  15  20
ATOM     20  O   UNL     1      18.460  24.162  18.726  1.00  0.00    -0.385 OA
ATOM     21  H   UNL     1      17.754  23.704  18.199  1.00  0.00     0.211 HD
ENDBRANCH  15  20
ENDBRANCH   8   9
ENDBRANCH   7   8
ENDBRANCH   1   7
BRANCH   2  22
ATOM     22  O   UNL     1      16.875  19.459  20.266  1.00  0.00    -0.387 OA
ATOM     23  H   UNL     1      16.313  20.156  19.831  1.00  0.00     0.211 HD
ENDBRANCH   2  22
BRANCH   3  24
ATOM     24  O   UNL     1      17.266  16.770  20.829  1.00  0.00    -0.387 OA
ATOM     25  H   UNL     1      16.454  16.805  21.400  1.00  0.00     0.211 HD
ENDBRANCH   3  24
BRANCH   5  26
ATOM     26  O   UNL     1      19.725  15.950  19.537  1.00  0.00    -0.454 OA
BRANCH  26  27
ATOM     27  C   UNL     1      21.050  16.301  19.847  1.00  0.00     0.214 A 
ATOM     28  C   UNL     1      21.359  16.802  21.121  1.00  0.00     0.180 A 
ATOM     29  C   UNL     1      22.079  16.209  18.894  1.00  0.00     0.239 A 
ATOM     30  O   UNL     1      22.603  17.151  21.420  1.00  0.00    -0.452 OA
ATOM     31  C   UNL     1      23.393  16.620  19.227  1.00  0.00     0.111 A 
ATOM     32  O   UNL     1      21.812  15.756  17.754  1.00  0.00    -0.285 OA
ATOM     33  C   UNL     1      23.610  17.065  20.558  1.00  0.00     0.146 A 
ATOM     34  C   UNL     1      24.508  16.589  18.332  1.00  0.00     0.134 A 
ATOM     35  C   UNL     1      24.891  17.412  20.994  1.00  0.00     0.094 A 
ATOM     36  C   UNL     1      25.785  16.908  18.809  1.00  0.00     0.093 A 
ATOM     37  C   UNL     1      25.981  17.319  20.128  1.00  0.00     0.123 A 
BRANCH  28  38
ATOM     38  C   UNL     1      20.330  16.939  22.162  1.00  0.00     0.025 A 
ATOM     39  C   UNL     1      20.094  15.895  23.068  1.00  0.00     0.062 A 
ATOM     40  C   UNL     1      19.628  18.143  22.294  1.00  0.00     0.016 A 
ATOM     41  C   UNL     1      19.135  16.041  24.083  1.00  0.00     0.158 A 
ATOM     42  C   UNL     1      18.667  18.290  23.300  1.00  0.00     0.051 A 
ATOM     43  C   UNL     1      18.414  17.241  24.192  1.00  0.00     0.157 A 
BRANCH  41  44
ATOM     44  O   UNL     1      18.905  15.002  24.981  1.00  0.00    -0.504 OA
ATOM     45  H   UNL     1      19.658  14.586  25.516  1.00  0.00     0.293 HD
ENDBRANCH  41  44
BRANCH  43  46
ATOM     46  O   UNL     1      17.448  17.415  25.184  1.00  0.00    -0.504 OA
ATOM     47  H   UNL     1      17.695  17.512  26.162  1.00  0.00     0.293 HD
ENDBRANCH  43  46
ENDBRANCH  28  38
BRANCH  34  48
ATOM     48  O   UNL     1      24.413  16.277  16.972  1.00  0.00    -0.507 OA
ATOM     49  H   UNL     1      23.594  16.419  16.402  1.00  0.00     0.293 HD
ENDBRANCH  34  48
BRANCH  37  50
ATOM     50  O   UNL     1      27.264  17.643  20.564  1.00  0.00    -0.508 OA
ATOM     51  H   UNL     1      27.724  18.499  20.275  1.00  0.00     0.293 HD
ENDBRANCH  37  50
ENDBRANCH  26  27
ENDBRANCH   5  26
BRANCH   4  52
ATOM     52  O   UNL     1      17.179  14.875  18.740  1.00  0.00    -0.384 OA
ATOM     53  H   UNL     1      17.580  14.619  19.612  1.00  0.00     0.211 HD
ENDBRANCH   4  52
TORSDOF 16
ENDMDL
