MODEL 1
REMARK VINA RESULT:    13.430      0.000      0.000
REMARK INTER + INTRA:          30.122
REMARK INTER:                  30.703
REMARK INTRA:                  -0.581
REMARK UNBOUND:                -0.581
REMARK SMILES CCCCCCCCCCCCCCCCCCCCCCCC(=O)[O-]
REMARK SMILES IDX 13 1 14 2 15 3 16 4 17 5 18 6 19 7 20 8 21 9 22 10 23 11
REMARK SMILES IDX 24 12 25 13 26 14 12 15 11 16 10 17 9 18 8 19 7 20 6 21 5 22
REMARK SMILES IDX 4 23 3 24 2 25 1 26
REMARK H PARENT
REMARK Flexibility Score: inf
ROOT
ATOM      1  C   UNL     1      -6.861  16.488 -11.491  1.00  0.00     0.000 C 
ENDROOT
BRANCH   1   2
ATOM      2  C   UNL     1      -7.340  15.593 -12.648  1.00  0.00     0.000 C 
BRANCH   2   3
ATOM      3  C   UNL     1      -8.869  15.431 -12.678  1.00  0.00     0.000 C 
BRANCH   3   4
ATOM      4  C   UNL     1      -9.315  13.988 -12.392  1.00  0.00     0.000 C 
BRANCH   4   5
ATOM      5  C   UNL     1     -10.446  13.957 -11.356  1.00  0.00     0.000 C 
BRANCH   5   6
ATOM      6  C   UNL     1     -10.485  15.262 -10.549  1.00  0.00     0.000 C 
BRANCH   6   7
ATOM      7  C   UNL     1     -10.165  15.047  -9.060  1.00  0.00     0.000 C 
BRANCH   7   8
ATOM      8  C   UNL     1      -9.092  16.017  -8.542  1.00  0.00     0.000 C 
BRANCH   8   9
ATOM      9  C   UNL     1      -9.607  16.816  -7.340  1.00  0.00     0.000 C 
BRANCH   9  10
ATOM     10  C   UNL     1     -11.138  16.775  -7.263  1.00  0.00     0.006 C 
BRANCH  10  11
ATOM     11  C   UNL     1     -11.609  16.414  -5.851  1.00  0.00     0.053 C 
BRANCH  11  12
ATOM     12  C   UNL     1     -12.828  15.548  -5.910  1.00  0.00     0.041 C 
ATOM     13  O   UNL     1     -13.791  15.858  -6.658  1.00  0.00    -0.550 OA
ATOM     14  O   UNL     1     -12.883  14.375  -5.165  1.00  0.00    -0.550 OA
ENDBRANCH  11  12
ENDBRANCH  10  11
ENDBRANCH   9  10
ENDBRANCH   8   9
ENDBRANCH   7   8
ENDBRANCH   6   7
ENDBRANCH   5   6
ENDBRANCH   4   5
ENDBRANCH   3   4
ENDBRANCH   2   3
ENDBRANCH   1   2
BRANCH   1  15
ATOM     15  C   UNL     1      -5.749  15.829 -10.660  1.00  0.00     0.000 C 
BRANCH  15  16
ATOM     16  C   UNL     1      -5.087  14.648 -11.395  1.00  0.00     0.000 C 
BRANCH  16  17
ATOM     17  C   UNL     1      -4.017  13.947 -10.543  1.00  0.00     0.000 C 
BRANCH  17  18
ATOM     18  C   UNL     1      -2.729  14.779 -10.408  1.00  0.00    -0.000 C 
BRANCH  18  19
ATOM     19  C   UNL     1      -3.009  16.205  -9.888  1.00  0.00    -0.000 C 
BRANCH  19  20
ATOM     20  C   UNL     1      -3.300  17.225 -11.001  1.00  0.00    -0.000 C 
BRANCH  20  21
ATOM     21  C   UNL     1      -3.115  18.681 -10.541  1.00  0.00    -0.000 C 
BRANCH  21  22
ATOM     22  C   UNL     1      -4.387  19.525 -10.726  1.00  0.00    -0.000 C 
BRANCH  22  23
ATOM     23  C   UNL     1      -4.079  20.966 -11.163  1.00  0.00    -0.000 C 
BRANCH  23  24
ATOM     24  C   UNL     1      -5.370  21.718 -11.522  1.00  0.00    -0.000 C 
BRANCH  24  25
ATOM     25  C   UNL     1      -6.590  20.789 -11.611  1.00  0.00    -0.003 C 
ATOM     26  C   UNL     1      -6.827  20.254 -13.024  1.00  0.00     0.004 C 
ENDBRANCH  24  25
ENDBRANCH  23  24
ENDBRANCH  22  23
ENDBRANCH  21  22
ENDBRANCH  20  21
ENDBRANCH  19  20
ENDBRANCH  18  19
ENDBRANCH  17  18
ENDBRANCH  16  17
ENDBRANCH  15  16
ENDBRANCH   1  15
TORSDOF 22
ENDMDL
MODEL 2
REMARK VINA RESULT:    13.802      3.358      7.886
REMARK INTER + INTRA:          30.971
REMARK INTER:                  30.251
REMARK INTRA:                   0.721
REMARK UNBOUND:                -0.581
REMARK SMILES CCCCCCCCCCCCCCCCCCCCCCCC(=O)[O-]
REMARK SMILES IDX 13 1 14 2 15 3 16 4 17 5 18 6 19 7 20 8 21 9 22 10 23 11
REMARK SMILES IDX 24 12 25 13 26 14 12 15 11 16 10 17 9 18 8 19 7 20 6 21 5 22
REMARK SMILES IDX 4 23 3 24 2 25 1 26
REMARK H PARENT
REMARK Flexibility Score: inf
ROOT
ATOM      1  C   UNL     1      -7.319  16.876 -11.763  1.00  0.00     0.000 C 
ENDROOT
BRANCH   1   2
ATOM      2  C   UNL     1      -6.144  16.427 -10.875  1.00  0.00     0.000 C 
BRANCH   2   3
ATOM      3  C   UNL     1      -5.326  15.289 -11.507  1.00  0.00     0.000 C 
BRANCH   3   4
ATOM      4  C   UNL     1      -4.458  14.546 -10.479  1.00  0.00     0.000 C 
BRANCH   4   5
ATOM      5  C   UNL     1      -3.031  15.110 -10.453  1.00  0.00     0.000 C 
BRANCH   5   6
ATOM      6  C   UNL     1      -3.027  16.567  -9.967  1.00  0.00     0.000 C 
BRANCH   6   7
ATOM      7  C   UNL     1      -3.367  17.565 -11.087  1.00  0.00     0.000 C 
BRANCH   7   8
ATOM      8  C   UNL     1      -2.993  19.009 -10.722  1.00  0.00     0.000 C 
BRANCH   8   9
ATOM      9  C   UNL     1      -4.166  19.962 -10.976  1.00  0.00     0.000 C 
BRANCH   9  10
ATOM     10  C   UNL     1      -5.508  19.272 -10.704  1.00  0.00     0.006 C 
BRANCH  10  11
ATOM     11  C   UNL     1      -6.679  20.135 -11.185  1.00  0.00     0.053 C 
BRANCH  11  12
ATOM     12  C   UNL     1      -6.184  21.269 -12.027  1.00  0.00     0.041 C 
ATOM     13  O   UNL     1      -6.565  21.384 -13.221  1.00  0.00    -0.550 OA
ATOM     14  O   UNL     1      -5.332  22.220 -11.480  1.00  0.00    -0.550 OA
ENDBRANCH  11  12
ENDBRANCH  10  11
ENDBRANCH   9  10
ENDBRANCH   8   9
ENDBRANCH   7   8
ENDBRANCH   6   7
ENDBRANCH   5   6
ENDBRANCH   4   5
ENDBRANCH   3   4
ENDBRANCH   2   3
ENDBRANCH   1   2
BRANCH   1  15
ATOM     15  C   UNL     1      -7.816  15.755 -12.689  1.00  0.00     0.000 C 
BRANCH  15  16
ATOM     16  C   UNL     1      -9.305  15.426 -12.469  1.00  0.00     0.000 C 
BRANCH  16  17
ATOM     17  C   UNL     1      -9.522  14.003 -11.930  1.00  0.00     0.000 C 
BRANCH  17  18
ATOM     18  C   UNL     1     -10.684  13.922 -10.925  1.00  0.00    -0.000 C 
BRANCH  18  19
ATOM     19  C   UNL     1     -10.635  15.061  -9.884  1.00  0.00    -0.000 C 
BRANCH  19  20
ATOM     20  C   UNL     1      -9.269  15.213  -9.195  1.00  0.00    -0.000 C 
BRANCH  20  21
ATOM     21  C   UNL     1      -9.298  16.211  -8.025  1.00  0.00    -0.000 C 
BRANCH  21  22
ATOM     22  C   UNL     1     -10.600  17.027  -7.978  1.00  0.00    -0.000 C 
BRANCH  22  23
ATOM     23  C   UNL     1     -11.347  16.869  -6.645  1.00  0.00    -0.000 C 
BRANCH  23  24
ATOM     24  C   UNL     1     -12.407  15.759  -6.737  1.00  0.00    -0.000 C 
BRANCH  24  25
ATOM     25  C   UNL     1     -13.096  15.488  -5.391  1.00  0.00    -0.003 C 
ATOM     26  C   UNL     1     -13.130  14.002  -5.031  1.00  0.00     0.004 C 
ENDBRANCH  24  25
ENDBRANCH  23  24
ENDBRANCH  22  23
ENDBRANCH  21  22
ENDBRANCH  20  21
ENDBRANCH  19  20
ENDBRANCH  18  19
ENDBRANCH  17  18
ENDBRANCH  16  17
ENDBRANCH  15  16
ENDBRANCH   1  15
TORSDOF 22
ENDMDL
MODEL 3
REMARK VINA RESULT:    14.146      0.837      1.454
REMARK INTER + INTRA:          31.759
REMARK INTER:                  31.342
REMARK INTRA:                   0.417
REMARK UNBOUND:                -0.581
REMARK SMILES CCCCCCCCCCCCCCCCCCCCCCCC(=O)[O-]
REMARK SMILES IDX 13 1 14 2 15 3 16 4 17 5 18 6 19 7 20 8 21 9 22 10 23 11
REMARK SMILES IDX 24 12 25 13 26 14 12 15 11 16 10 17 9 18 8 19 7 20 6 21 5 22
REMARK SMILES IDX 4 23 3 24 2 25 1 26
REMARK H PARENT
REMARK Flexibility Score: inf
ROOT
ATOM      1  C   UNL     1      -5.869  16.039 -10.621  1.00  0.00     0.000 C 
ENDROOT
BRANCH   1   2
ATOM      2  C   UNL     1      -6.929  16.567 -11.606  1.00  0.00     0.000 C 
BRANCH   2   3
ATOM      3  C   UNL     1      -7.357  15.509 -12.636  1.00  0.00     0.000 C 
BRANCH   3   4
ATOM      4  C   UNL     1      -8.882  15.451 -12.822  1.00  0.00     0.000 C 
BRANCH   4   5
ATOM      5  C   UNL     1      -9.476  14.222 -12.121  1.00  0.00     0.000 C 
BRANCH   5   6
ATOM      6  C   UNL     1     -10.648  14.623 -11.214  1.00  0.00     0.000 C 
BRANCH   6   7
ATOM      7  C   UNL     1     -10.262  14.651  -9.726  1.00  0.00     0.000 C 
BRANCH   7   8
ATOM      8  C   UNL     1      -9.405  15.873  -9.362  1.00  0.00     0.000 C 
BRANCH   8   9
ATOM      9  C   UNL     1      -9.605  16.269  -7.895  1.00  0.00     0.000 C 
BRANCH   9  10
ATOM     10  C   UNL     1     -10.967  16.943  -7.686  1.00  0.00     0.006 C 
BRANCH  10  11
ATOM     11  C   UNL     1     -12.050  15.909  -7.361  1.00  0.00     0.053 C 
BRANCH  11  12
ATOM     12  C   UNL     1     -12.338  15.894  -5.893  1.00  0.00     0.041 C 
ATOM     13  O   UNL     1     -13.248  15.156  -5.433  1.00  0.00    -0.550 OA
ATOM     14  O   UNL     1     -11.573  16.666  -5.027  1.00  0.00    -0.550 OA
ENDBRANCH  11  12
ENDBRANCH  10  11
ENDBRANCH   9  10
ENDBRANCH   8   9
ENDBRANCH   7   8
ENDBRANCH   6   7
ENDBRANCH   5   6
ENDBRANCH   4   5
ENDBRANCH   3   4
ENDBRANCH   2   3
ENDBRANCH   1   2
BRANCH   1  15
ATOM     15  C   UNL     1      -5.036  14.893 -11.215  1.00  0.00     0.000 C 
BRANCH  15  16
ATOM     16  C   UNL     1      -4.193  14.166 -10.150  1.00  0.00     0.000 C 
BRANCH  16  17
ATOM     17  C   UNL     1      -2.713  14.579 -10.185  1.00  0.00     0.000 C 
BRANCH  17  18
ATOM     18  C   UNL     1      -2.513  16.085  -9.943  1.00  0.00    -0.000 C 
BRANCH  18  19
ATOM     19  C   UNL     1      -3.386  16.947 -10.880  1.00  0.00    -0.000 C 
BRANCH  19  20
ATOM     20  C   UNL     1      -3.244  18.460 -10.645  1.00  0.00    -0.000 C 
BRANCH  20  21
ATOM     21  C   UNL     1      -4.534  19.237 -10.954  1.00  0.00    -0.000 C 
BRANCH  21  22
ATOM     22  C   UNL     1      -4.308  20.757 -11.013  1.00  0.00    -0.000 C 
BRANCH  22  23
ATOM     23  C   UNL     1      -5.562  21.521 -11.466  1.00  0.00    -0.000 C 
BRANCH  23  24
ATOM     24  C   UNL     1      -6.677  20.549 -11.882  1.00  0.00    -0.000 C 
BRANCH  24  25
ATOM     25  C   UNL     1      -6.960  20.588 -13.392  1.00  0.00    -0.003 C 
ATOM     26  C   UNL     1      -6.536  21.905 -14.042  1.00  0.00     0.004 C 
ENDBRANCH  24  25
ENDBRANCH  23  24
ENDBRANCH  22  23
ENDBRANCH  21  22
ENDBRANCH  20  21
ENDBRANCH  19  20
ENDBRANCH  18  19
ENDBRANCH  17  18
ENDBRANCH  16  17
ENDBRANCH  15  16
ENDBRANCH   1  15
TORSDOF 22
ENDMDL
MODEL 4
REMARK VINA RESULT:    14.285      3.130      7.842
REMARK INTER + INTRA:          32.076
REMARK INTER:                  31.959
REMARK INTRA:                   0.117
REMARK UNBOUND:                -0.581
REMARK SMILES CCCCCCCCCCCCCCCCCCCCCCCC(=O)[O-]
REMARK SMILES IDX 13 1 14 2 15 3 16 4 17 5 18 6 19 7 20 8 21 9 22 10 23 11
REMARK SMILES IDX 24 12 25 13 26 14 12 15 11 16 10 17 9 18 8 19 7 20 6 21 5 22
REMARK SMILES IDX 4 23 3 24 2 25 1 26
REMARK H PARENT
REMARK Flexibility Score: inf
ROOT
ATOM      1  C   UNL     1      -6.267  15.269 -11.241  1.00  0.00     0.000 C 
ENDROOT
BRANCH   1   2
ATOM      2  C   UNL     1      -4.740  15.083 -11.309  1.00  0.00     0.000 C 
BRANCH   2   3
ATOM      3  C   UNL     1      -4.223  14.058 -10.286  1.00  0.00     0.000 C 
BRANCH   3   4
ATOM      4  C   UNL     1      -2.737  14.259  -9.949  1.00  0.00     0.000 C 
BRANCH   4   5
ATOM      5  C   UNL     1      -2.261  15.656 -10.369  1.00  0.00     0.000 C 
BRANCH   5   6
ATOM      6  C   UNL     1      -3.416  16.667 -10.310  1.00  0.00     0.000 C 
BRANCH   6   7
ATOM      7  C   UNL     1      -3.101  17.970 -11.064  1.00  0.00     0.000 C 
BRANCH   7   8
ATOM      8  C   UNL     1      -4.064  19.109 -10.699  1.00  0.00     0.000 C 
BRANCH   8   9
ATOM      9  C   UNL     1      -5.521  18.638 -10.759  1.00  0.00     0.000 C 
BRANCH   9  10
ATOM     10  C   UNL     1      -6.488  19.829 -10.769  1.00  0.00     0.006 C 
BRANCH  10  11
ATOM     11  C   UNL     1      -6.006  20.921 -11.728  1.00  0.00     0.053 C 
BRANCH  11  12
ATOM     12  C   UNL     1      -6.677  20.785 -13.059  1.00  0.00     0.041 C 
ATOM     13  O   UNL     1      -6.685  21.750 -13.867  1.00  0.00    -0.550 OA
ATOM     14  O   UNL     1      -7.261  19.577 -13.422  1.00  0.00    -0.550 OA
ENDBRANCH  11  12
ENDBRANCH  10  11
ENDBRANCH   9  10
ENDBRANCH   8   9
ENDBRANCH   7   8
ENDBRANCH   6   7
ENDBRANCH   5   6
ENDBRANCH   4   5
ENDBRANCH   3   4
ENDBRANCH   2   3
ENDBRANCH   1   2
BRANCH   1  15
ATOM     15  C   UNL     1      -6.910  15.357 -12.633  1.00  0.00     0.000 C 
BRANCH  15  16
ATOM     16  C   UNL     1      -8.170  16.244 -12.645  1.00  0.00     0.000 C 
BRANCH  16  17
ATOM     17  C   UNL     1      -9.469  15.424 -12.659  1.00  0.00     0.000 C 
BRANCH  17  18
ATOM     18  C   UNL     1      -9.436  14.245 -11.670  1.00  0.00    -0.000 C 
BRANCH  18  19
ATOM     19  C   UNL     1     -10.791  14.046 -10.957  1.00  0.00    -0.000 C 
BRANCH  19  20
ATOM     20  C   UNL     1     -11.032  15.026  -9.797  1.00  0.00    -0.000 C 
BRANCH  20  21
ATOM     21  C   UNL     1      -9.769  15.280  -8.957  1.00  0.00    -0.000 C 
BRANCH  21  22
ATOM     22  C   UNL     1      -9.844  16.594  -8.161  1.00  0.00    -0.000 C 
BRANCH  22  23
ATOM     23  C   UNL     1     -11.258  16.880  -7.630  1.00  0.00    -0.000 C 
BRANCH  23  24
ATOM     24  C   UNL     1     -11.475  16.216  -6.261  1.00  0.00    -0.000 C 
BRANCH  24  25
ATOM     25  C   UNL     1     -12.919  15.731  -6.063  1.00  0.00    -0.003 C 
ATOM     26  C   UNL     1     -13.011  14.477  -5.194  1.00  0.00     0.004 C 
ENDBRANCH  24  25
ENDBRANCH  23  24
ENDBRANCH  22  23
ENDBRANCH  21  22
ENDBRANCH  20  21
ENDBRANCH  19  20
ENDBRANCH  18  19
ENDBRANCH  17  18
ENDBRANCH  16  17
ENDBRANCH  15  16
ENDBRANCH   1  15
TORSDOF 22
ENDMDL
MODEL 5
REMARK VINA RESULT:    15.254      2.938      7.894
REMARK INTER + INTRA:          34.291
REMARK INTER:                  35.733
REMARK INTRA:                  -1.442
REMARK UNBOUND:                -0.581
REMARK SMILES CCCCCCCCCCCCCCCCCCCCCCCC(=O)[O-]
REMARK SMILES IDX 13 1 14 2 15 3 16 4 17 5 18 6 19 7 20 8 21 9 22 10 23 11
REMARK SMILES IDX 24 12 25 13 26 14 12 15 11 16 10 17 9 18 8 19 7 20 6 21 5 22
REMARK SMILES IDX 4 23 3 24 2 25 1 26
REMARK H PARENT
REMARK Flexibility Score: inf
ROOT
ATOM      1  C   UNL     1      -8.351  17.713 -13.565  1.00  0.00     0.000 C 
ENDROOT
BRANCH   1   2
ATOM      2  C   UNL     1      -7.265  18.719 -13.141  1.00  0.00     0.000 C 
BRANCH   2   3
ATOM      3  C   UNL     1      -7.437  20.092 -13.810  1.00  0.00     0.000 C 
BRANCH   3   4
ATOM      4  C   UNL     1      -6.524  21.165 -13.197  1.00  0.00     0.000 C 
BRANCH   4   5
ATOM      5  C   UNL     1      -6.374  20.962 -11.684  1.00  0.00     0.000 C 
BRANCH   5   6
ATOM      6  C   UNL     1      -5.197  21.782 -11.135  1.00  0.00     0.000 C 
BRANCH   6   7
ATOM      7  C   UNL     1      -3.928  20.936 -10.934  1.00  0.00     0.000 C 
BRANCH   7   8
ATOM      8  C   UNL     1      -4.189  19.433 -11.116  1.00  0.00     0.000 C 
BRANCH   8   9
ATOM      9  C   UNL     1      -2.990  18.605 -10.637  1.00  0.00     0.000 C 
BRANCH   9  10
ATOM     10  C   UNL     1      -3.442  17.252 -10.074  1.00  0.00     0.006 C 
BRANCH  10  11
ATOM     11  C   UNL     1      -3.296  16.143 -11.120  1.00  0.00     0.053 C 
BRANCH  11  12
ATOM     12  C   UNL     1      -4.083  14.935 -10.718  1.00  0.00     0.041 C 
ATOM     13  O   UNL     1      -3.542  14.022 -10.041  1.00  0.00    -0.550 OA
ATOM     14  O   UNL     1      -5.427  14.837 -11.058  1.00  0.00    -0.550 OA
ENDBRANCH  11  12
ENDBRANCH  10  11
ENDBRANCH   9  10
ENDBRANCH   8   9
ENDBRANCH   7   8
ENDBRANCH   6   7
ENDBRANCH   5   6
ENDBRANCH   4   5
ENDBRANCH   3   4
ENDBRANCH   2   3
ENDBRANCH   1   2
BRANCH   1  15
ATOM     15  C   UNL     1      -8.136  16.322 -12.949  1.00  0.00     0.000 C 
BRANCH  15  16
ATOM     16  C   UNL     1      -9.417  15.467 -12.963  1.00  0.00     0.000 C 
BRANCH  16  17
ATOM     17  C   UNL     1      -9.317  14.239 -12.045  1.00  0.00     0.000 C 
BRANCH  17  18
ATOM     18  C   UNL     1     -10.571  14.048 -11.173  1.00  0.00    -0.000 C 
BRANCH  18  19
ATOM     19  C   UNL     1     -10.345  14.517  -9.719  1.00  0.00    -0.000 C 
BRANCH  19  20
ATOM     20  C   UNL     1      -9.653  15.886  -9.609  1.00  0.00    -0.000 C 
BRANCH  20  21
ATOM     21  C   UNL     1      -8.902  16.070  -8.280  1.00  0.00    -0.000 C 
BRANCH  21  22
ATOM     22  C   UNL     1      -9.812  16.595  -7.156  1.00  0.00    -0.000 C 
BRANCH  22  23
ATOM     23  C   UNL     1     -11.222  16.948  -7.657  1.00  0.00    -0.000 C 
BRANCH  23  24
ATOM     24  C   UNL     1     -12.263  15.961  -7.106  1.00  0.00    -0.000 C 
BRANCH  24  25
ATOM     25  C   UNL     1     -12.148  15.769  -5.586  1.00  0.00    -0.003 C 
ATOM     26  C   UNL     1     -13.073  14.674  -5.054  1.00  0.00     0.004 C 
ENDBRANCH  24  25
ENDBRANCH  23  24
ENDBRANCH  22  23
ENDBRANCH  21  22
ENDBRANCH  20  21
ENDBRANCH  19  20
ENDBRANCH  18  19
ENDBRANCH  17  18
ENDBRANCH  16  17
ENDBRANCH  15  16
ENDBRANCH   1  15
TORSDOF 22
ENDMDL
MODEL 6
REMARK VINA RESULT:    15.986      1.036      2.788
REMARK INTER + INTRA:          35.964
REMARK INTER:                  36.659
REMARK INTRA:                  -0.695
REMARK UNBOUND:                -0.581
REMARK SMILES CCCCCCCCCCCCCCCCCCCCCCCC(=O)[O-]
REMARK SMILES IDX 13 1 14 2 15 3 16 4 17 5 18 6 19 7 20 8 21 9 22 10 23 11
REMARK SMILES IDX 24 12 25 13 26 14 12 15 11 16 10 17 9 18 8 19 7 20 6 21 5 22
REMARK SMILES IDX 4 23 3 24 2 25 1 26
REMARK H PARENT
REMARK Flexibility Score: inf
ROOT
ATOM      1  C   UNL     1      -4.305  13.918 -10.549  1.00  0.00     0.000 C 
ENDROOT
BRANCH   1   2
ATOM      2  C   UNL     1      -5.053  14.863 -11.507  1.00  0.00     0.000 C 
BRANCH   2   3
ATOM      3  C   UNL     1      -6.337  15.439 -10.888  1.00  0.00     0.000 C 
BRANCH   3   4
ATOM      4  C   UNL     1      -6.742  16.783 -11.513  1.00  0.00     0.000 C 
BRANCH   4   5
ATOM      5  C   UNL     1      -7.887  16.602 -12.517  1.00  0.00     0.000 C 
BRANCH   5   6
ATOM      6  C   UNL     1      -8.387  15.150 -12.520  1.00  0.00     0.000 C 
BRANCH   6   7
ATOM      7  C   UNL     1      -9.853  15.028 -12.074  1.00  0.00     0.000 C 
BRANCH   7   8
ATOM      8  C   UNL     1      -9.988  14.618 -10.600  1.00  0.00     0.000 C 
BRANCH   8   9
ATOM      9  C   UNL     1     -10.347  15.823  -9.724  1.00  0.00     0.000 C 
BRANCH   9  10
ATOM     10  C   UNL     1     -11.152  15.392  -8.491  1.00  0.00     0.006 C 
BRANCH  10  11
ATOM     11  C   UNL     1     -11.624  16.607  -7.688  1.00  0.00     0.053 C 
BRANCH  11  12
ATOM     12  C   UNL     1     -11.981  16.207  -6.291  1.00  0.00     0.041 C 
ATOM     13  O   UNL     1     -11.255  16.559  -5.325  1.00  0.00    -0.550 OA
ATOM     14  O   UNL     1     -13.140  15.476  -6.053  1.00  0.00    -0.550 OA
ENDBRANCH  11  12
ENDBRANCH  10  11
ENDBRANCH   9  10
ENDBRANCH   8   9
ENDBRANCH   7   8
ENDBRANCH   6   7
ENDBRANCH   5   6
ENDBRANCH   4   5
ENDBRANCH   3   4
ENDBRANCH   2   3
ENDBRANCH   1   2
BRANCH   1  15
ATOM     15  C   UNL     1      -2.787  14.153 -10.559  1.00  0.00     0.000 C 
BRANCH  15  16
ATOM     16  C   UNL     1      -2.366  15.322  -9.648  1.00  0.00     0.000 C 
BRANCH  16  17
ATOM     17  C   UNL     1      -3.313  16.527  -9.759  1.00  0.00     0.000 C 
BRANCH  17  18
ATOM     18  C   UNL     1      -3.292  17.170 -11.157  1.00  0.00    -0.000 C 
BRANCH  18  19
ATOM     19  C   UNL     1      -3.082  18.697 -11.092  1.00  0.00    -0.000 C 
BRANCH  19  20
ATOM     20  C   UNL     1      -4.373  19.491 -10.832  1.00  0.00    -0.000 C 
BRANCH  20  21
ATOM     21  C   UNL     1      -4.160  21.013 -10.892  1.00  0.00    -0.000 C 
BRANCH  21  22
ATOM     22  C   UNL     1      -5.324  21.744 -11.582  1.00  0.00    -0.000 C 
BRANCH  22  23
ATOM     23  C   UNL     1      -6.603  20.894 -11.640  1.00  0.00    -0.000 C 
BRANCH  23  24
ATOM     24  C   UNL     1      -6.830  20.340 -13.055  1.00  0.00    -0.000 C 
BRANCH  24  25
ATOM     25  C   UNL     1      -6.311  21.285 -14.150  1.00  0.00    -0.003 C 
ATOM     26  C   UNL     1      -7.330  22.353 -14.545  1.00  0.00     0.004 C 
ENDBRANCH  24  25
ENDBRANCH  23  24
ENDBRANCH  22  23
ENDBRANCH  21  22
ENDBRANCH  20  21
ENDBRANCH  19  20
ENDBRANCH  18  19
ENDBRANCH  17  18
ENDBRANCH  16  17
ENDBRANCH  15  16
ENDBRANCH   1  15
TORSDOF 22
ENDMDL
MODEL 7
REMARK VINA RESULT:    16.056      4.349      8.608
REMARK INTER + INTRA:          36.124
REMARK INTER:                  36.345
REMARK INTRA:                  -0.221
REMARK UNBOUND:                -0.581
REMARK SMILES CCCCCCCCCCCCCCCCCCCCCCCC(=O)[O-]
REMARK SMILES IDX 13 1 14 2 15 3 16 4 17 5 18 6 19 7 20 8 21 9 22 10 23 11
REMARK SMILES IDX 24 12 25 13 26 14 12 15 11 16 10 17 9 18 8 19 7 20 6 21 5 22
REMARK SMILES IDX 4 23 3 24 2 25 1 26
REMARK H PARENT
REMARK Flexibility Score: inf
ROOT
ATOM      1  C   UNL     1      -3.375  17.056 -11.067  1.00  0.00     0.000 C 
ENDROOT
BRANCH   1   2
ATOM      2  C   UNL     1      -3.153  18.545 -10.745  1.00  0.00     0.000 C 
BRANCH   2   3
ATOM      3  C   UNL     1      -4.375  19.413 -11.087  1.00  0.00     0.000 C 
BRANCH   3   4
ATOM      4  C   UNL     1      -4.105  20.913 -10.893  1.00  0.00     0.000 C 
BRANCH   4   5
ATOM      5  C   UNL     1      -5.262  21.757 -11.445  1.00  0.00     0.000 C 
BRANCH   5   6
ATOM      6  C   UNL     1      -6.545  20.920 -11.554  1.00  0.00     0.000 C 
BRANCH   6   7
ATOM      7  C   UNL     1      -6.794  20.402 -12.980  1.00  0.00     0.000 C 
BRANCH   7   8
ATOM      8  C   UNL     1      -6.415  21.432 -14.056  1.00  0.00     0.000 C 
BRANCH   8   9
ATOM      9  C   UNL     1      -6.959  21.020 -15.428  1.00  0.00     0.000 C 
BRANCH   9  10
ATOM     10  C   UNL     1      -5.890  20.287 -16.249  1.00  0.00     0.006 C 
BRANCH  10  11
ATOM     11  C   UNL     1      -6.474  19.751 -17.560  1.00  0.00     0.053 C 
BRANCH  11  12
ATOM     12  C   UNL     1      -5.811  18.465 -17.943  1.00  0.00     0.041 C 
ATOM     13  O   UNL     1      -6.504  17.473 -18.288  1.00  0.00    -0.550 OA
ATOM     14  O   UNL     1      -4.424  18.376 -17.955  1.00  0.00    -0.550 OA
ENDBRANCH  11  12
ENDBRANCH  10  11
ENDBRANCH   9  10
ENDBRANCH   8   9
ENDBRANCH   7   8
ENDBRANCH   6   7
ENDBRANCH   5   6
ENDBRANCH   4   5
ENDBRANCH   3   4
ENDBRANCH   2   3
ENDBRANCH   1   2
BRANCH   1  15
ATOM     15  C   UNL     1      -2.756  16.128 -10.011  1.00  0.00     0.000 C 
BRANCH  15  16
ATOM     16  C   UNL     1      -3.335  14.701 -10.069  1.00  0.00     0.000 C 
BRANCH  16  17
ATOM     17  C   UNL     1      -4.742  14.660 -10.685  1.00  0.00     0.000 C 
BRANCH  17  18
ATOM     18  C   UNL     1      -5.594  15.882 -10.297  1.00  0.00    -0.000 C 
BRANCH  18  19
ATOM     19  C   UNL     1      -6.810  16.064 -11.230  1.00  0.00    -0.000 C 
BRANCH  19  20
ATOM     20  C   UNL     1      -8.141  16.257 -10.485  1.00  0.00    -0.000 C 
BRANCH  20  21
ATOM     21  C   UNL     1      -7.950  16.552  -8.988  1.00  0.00    -0.000 C 
BRANCH  21  22
ATOM     22  C   UNL     1      -9.076  15.961  -8.122  1.00  0.00    -0.000 C 
BRANCH  22  23
ATOM     23  C   UNL     1     -10.226  16.955  -7.895  1.00  0.00    -0.000 C 
BRANCH  23  24
ATOM     24  C   UNL     1     -11.012  16.603  -6.622  1.00  0.00    -0.000 C 
BRANCH  24  25
ATOM     25  C   UNL     1     -12.311  15.841  -6.922  1.00  0.00    -0.003 C 
ATOM     26  C   UNL     1     -13.108  15.504  -5.661  1.00  0.00     0.004 C 
ENDBRANCH  24  25
ENDBRANCH  23  24
ENDBRANCH  22  23
ENDBRANCH  21  22
ENDBRANCH  20  21
ENDBRANCH  19  20
ENDBRANCH  18  19
ENDBRANCH  17  18
ENDBRANCH  16  17
ENDBRANCH  15  16
ENDBRANCH   1  15
TORSDOF 22
ENDMDL
MODEL 8
REMARK VINA RESULT:    16.081      2.084      4.688
REMARK INTER + INTRA:          36.183
REMARK INTER:                  34.880
REMARK INTRA:                   1.302
REMARK UNBOUND:                -0.581
REMARK SMILES CCCCCCCCCCCCCCCCCCCCCCCC(=O)[O-]
REMARK SMILES IDX 13 1 14 2 15 3 16 4 17 5 18 6 19 7 20 8 21 9 22 10 23 11
REMARK SMILES IDX 24 12 25 13 26 14 12 15 11 16 10 17 9 18 8 19 7 20 6 21 5 22
REMARK SMILES IDX 4 23 3 24 2 25 1 26
REMARK H PARENT
REMARK Flexibility Score: inf
ROOT
ATOM      1  C   UNL     1      -3.338  16.934 -10.909  1.00  0.00     0.000 C 
ENDROOT
BRANCH   1   2
ATOM      2  C   UNL     1      -2.747  15.865  -9.973  1.00  0.00     0.000 C 
BRANCH   2   3
ATOM      3  C   UNL     1      -3.420  14.493 -10.140  1.00  0.00     0.000 C 
BRANCH   3   4
ATOM      4  C   UNL     1      -4.895  14.607 -10.556  1.00  0.00     0.000 C 
BRANCH   4   5
ATOM      5  C   UNL     1      -5.125  15.838 -11.443  1.00  0.00     0.000 C 
BRANCH   5   6
ATOM      6  C   UNL     1      -6.177  16.769 -10.824  1.00  0.00     0.000 C 
BRANCH   6   7
ATOM      7  C   UNL     1      -7.451  16.021 -10.396  1.00  0.00     0.000 C 
BRANCH   7   8
ATOM      8  C   UNL     1      -8.074  16.602  -9.118  1.00  0.00     0.000 C 
BRANCH   8   9
ATOM      9  C   UNL     1      -9.423  15.940  -8.813  1.00  0.00     0.000 C 
BRANCH   9  10
ATOM     10  C   UNL     1     -10.008  16.459  -7.494  1.00  0.00     0.006 C 
BRANCH  10  11
ATOM     11  C   UNL     1     -11.539  16.474  -7.539  1.00  0.00     0.053 C 
BRANCH  11  12
ATOM     12  C   UNL     1     -12.106  16.215  -6.178  1.00  0.00     0.041 C 
ATOM     13  O   UNL     1     -13.139  15.509  -6.046  1.00  0.00    -0.550 OA
ATOM     14  O   UNL     1     -11.469  16.724  -5.052  1.00  0.00    -0.550 OA
ENDBRANCH  11  12
ENDBRANCH  10  11
ENDBRANCH   9  10
ENDBRANCH   8   9
ENDBRANCH   7   8
ENDBRANCH   6   7
ENDBRANCH   5   6
ENDBRANCH   4   5
ENDBRANCH   3   4
ENDBRANCH   2   3
ENDBRANCH   1   2
BRANCH   1  15
ATOM     15  C   UNL     1      -3.169  18.358 -10.357  1.00  0.00     0.000 C 
BRANCH  15  16
ATOM     16  C   UNL     1      -3.560  19.438 -11.383  1.00  0.00     0.000 C 
BRANCH  16  17
ATOM     17  C   UNL     1      -3.964  20.763 -10.719  1.00  0.00     0.000 C 
BRANCH  17  18
ATOM     18  C   UNL     1      -5.274  21.335 -11.290  1.00  0.00    -0.000 C 
BRANCH  18  19
ATOM     19  C   UNL     1      -6.321  20.234 -11.560  1.00  0.00    -0.000 C 
BRANCH  19  20
ATOM     20  C   UNL     1      -6.867  20.235 -12.997  1.00  0.00    -0.000 C 
BRANCH  20  21
ATOM     21  C   UNL     1      -6.734  21.604 -13.686  1.00  0.00    -0.000 C 
BRANCH  21  22
ATOM     22  C   UNL     1      -6.729  21.494 -15.220  1.00  0.00    -0.000 C 
BRANCH  22  23
ATOM     23  C   UNL     1      -6.034  20.217 -15.716  1.00  0.00    -0.000 C 
BRANCH  23  24
ATOM     24  C   UNL     1      -6.068  20.134 -17.251  1.00  0.00    -0.000 C 
BRANCH  24  25
ATOM     25  C   UNL     1      -5.420  18.848 -17.787  1.00  0.00    -0.003 C 
ATOM     26  C   UNL     1      -6.443  17.763 -18.121  1.00  0.00     0.004 C 
ENDBRANCH  24  25
ENDBRANCH  23  24
ENDBRANCH  22  23
ENDBRANCH  21  22
ENDBRANCH  20  21
ENDBRANCH  19  20
ENDBRANCH  18  19
ENDBRANCH  17  18
ENDBRANCH  16  17
ENDBRANCH  15  16
ENDBRANCH   1  15
TORSDOF 22
ENDMDL
MODEL 9
REMARK VINA RESULT:    16.177      4.774      8.907
REMARK INTER + INTRA:          36.402
REMARK INTER:                  35.347
REMARK INTRA:                   1.054
REMARK UNBOUND:                -0.581
REMARK SMILES CCCCCCCCCCCCCCCCCCCCCCCC(=O)[O-]
REMARK SMILES IDX 13 1 14 2 15 3 16 4 17 5 18 6 19 7 20 8 21 9 22 10 23 11
REMARK SMILES IDX 24 12 25 13 26 14 12 15 11 16 10 17 9 18 8 19 7 20 6 21 5 22
REMARK SMILES IDX 4 23 3 24 2 25 1 26
REMARK H PARENT
REMARK Flexibility Score: inf
ROOT
ATOM      1  C   UNL     1      -3.625  17.382 -11.110  1.00  0.00     0.000 C 
ENDROOT
BRANCH   1   2
ATOM      2  C   UNL     1      -3.044  18.761 -10.751  1.00  0.00     0.000 C 
BRANCH   2   3
ATOM      3  C   UNL     1      -4.064  19.898 -10.930  1.00  0.00     0.000 C 
BRANCH   3   4
ATOM      4  C   UNL     1      -5.508  19.442 -10.667  1.00  0.00     0.000 C 
BRANCH   4   5
ATOM      5  C   UNL     1      -6.428  19.830 -11.832  1.00  0.00     0.000 C 
BRANCH   5   6
ATOM      6  C   UNL     1      -6.458  21.353 -12.021  1.00  0.00     0.000 C 
BRANCH   6   7
ATOM      7  C   UNL     1      -5.223  22.048 -11.426  1.00  0.00     0.000 C 
BRANCH   7   8
ATOM      8  C   UNL     1      -5.189  23.553 -11.732  1.00  0.00     0.000 C 
BRANCH   8   9
ATOM      9  C   UNL     1      -3.772  24.116 -11.569  1.00  0.00     0.000 C 
BRANCH   9  10
ATOM     10  C   UNL     1      -3.780  25.650 -11.599  1.00  0.00     0.006 C 
BRANCH  10  11
ATOM     11  C   UNL     1      -5.156  26.201 -11.214  1.00  0.00     0.053 C 
BRANCH  11  12
ATOM     12  C   UNL     1      -5.040  27.617 -10.741  1.00  0.00     0.041 C 
ATOM     13  O   UNL     1      -5.335  28.568 -11.510  1.00  0.00    -0.550 OA
ATOM     14  O   UNL     1      -4.644  27.882  -9.435  1.00  0.00    -0.550 OA
ENDBRANCH  11  12
ENDBRANCH  10  11
ENDBRANCH   9  10
ENDBRANCH   8   9
ENDBRANCH   7   8
ENDBRANCH   6   7
ENDBRANCH   5   6
ENDBRANCH   4   5
ENDBRANCH   3   4
ENDBRANCH   2   3
ENDBRANCH   1   2
BRANCH   1  15
ATOM     15  C   UNL     1      -3.369  16.333 -10.017  1.00  0.00     0.000 C 
BRANCH  15  16
ATOM     16  C   UNL     1      -3.735  14.907 -10.471  1.00  0.00     0.000 C 
BRANCH  16  17
ATOM     17  C   UNL     1      -5.129  14.833 -11.114  1.00  0.00     0.000 C 
BRANCH  17  18
ATOM     18  C   UNL     1      -5.798  16.213 -11.240  1.00  0.00    -0.000 C 
BRANCH  18  19
ATOM     19  C   UNL     1      -7.073  16.323 -10.376  1.00  0.00    -0.000 C 
BRANCH  19  20
ATOM     20  C   UNL     1      -6.822  16.126  -8.872  1.00  0.00    -0.000 C 
BRANCH  20  21
ATOM     21  C   UNL     1      -8.087  15.706  -8.106  1.00  0.00    -0.000 C 
BRANCH  21  22
ATOM     22  C   UNL     1      -9.145  16.821  -8.057  1.00  0.00    -0.000 C 
BRANCH  22  23
ATOM     23  C   UNL     1     -10.580  16.275  -8.130  1.00  0.00    -0.000 C 
BRANCH  23  24
ATOM     24  C   UNL     1     -11.505  17.028  -7.161  1.00  0.00    -0.000 C 
BRANCH  24  25
ATOM     25  C   UNL     1     -11.798  16.227  -5.883  1.00  0.00    -0.003 C 
ATOM     26  C   UNL     1     -13.121  15.465  -5.950  1.00  0.00     0.004 C 
ENDBRANCH  24  25
ENDBRANCH  23  24
ENDBRANCH  22  23
ENDBRANCH  21  22
ENDBRANCH  20  21
ENDBRANCH  19  20
ENDBRANCH  18  19
ENDBRANCH  17  18
ENDBRANCH  16  17
ENDBRANCH  15  16
ENDBRANCH   1  15
TORSDOF 22
ENDMDL
