MODEL 1
REMARK VINA RESULT:    -4.780      0.000      0.000
REMARK INTER + INTRA:          -6.283
REMARK INTER:                  -5.897
REMARK INTRA:                  -0.385
REMARK UNBOUND:                -0.385
REMARK SMILES Oc1cc(O)c2cc(O)c(-c3cc(O)c(O)c(O)c3)[o+]c2c1
REMARK SMILES IDX 10 1 20 2 21 3 22 4 2 5 3 6 4 7 6 8 7 9 8 10 11 11 12 12
REMARK SMILES IDX 13 13 19 14 15 15 17 16 14 17 16 19 18 21 9 23 1 25 5 27
REMARK H PARENT 14 18 16 20 18 22 9 24 1 26 5 28
REMARK Flexibility Score: inf
ROOT
ATOM      1  C   UNL     1     -32.790  29.247  -1.976  1.00  0.00     0.402 A 
ATOM      2  O   UNL     1     -33.737  29.991  -1.412  1.00  0.00    -0.202 OA
ATOM      3  C   UNL     1     -34.162  31.142  -1.921  1.00  0.00     0.368 A 
ATOM      4  C   UNL     1     -35.161  31.856  -1.254  1.00  0.00     0.162 A 
ATOM      5  C   UNL     1     -35.622  33.069  -1.764  1.00  0.00     0.128 A 
ATOM      6  C   UNL     1     -35.082  33.576  -2.951  1.00  0.00     0.093 A 
ATOM      7  C   UNL     1     -34.080  32.882  -3.639  1.00  0.00     0.136 A 
ATOM      8  C   UNL     1     -33.609  31.645  -3.124  1.00  0.00     0.125 A 
ATOM      9  C   UNL     1     -32.618  30.874  -3.754  1.00  0.00     0.078 A 
ATOM     10  C   UNL     1     -32.208  29.663  -3.188  1.00  0.00     0.223 A 
ENDROOT
BRANCH   1  11
ATOM     11  C   UNL     1     -32.397  27.986  -1.305  1.00  0.00     0.091 A 
ATOM     12  C   UNL     1     -33.162  26.828  -1.511  1.00  0.00     0.068 A 
ATOM     13  C   UNL     1     -32.828  25.628  -0.875  1.00  0.00     0.162 A 
ATOM     14  C   UNL     1     -31.307  27.937  -0.419  1.00  0.00     0.068 A 
ATOM     15  C   UNL     1     -31.723  25.578  -0.007  1.00  0.00     0.200 A 
ATOM     16  C   UNL     1     -30.965  26.739   0.223  1.00  0.00     0.162 A 
BRANCH  13  17
ATOM     17  O   UNL     1     -33.604  24.495  -1.118  1.00  0.00    -0.504 OA
ATOM     18  H   UNL     1     -34.452  24.532  -1.669  1.00  0.00     0.293 HD
ENDBRANCH  13  17
BRANCH  15  19
ATOM     19  O   UNL     1     -31.394  24.377   0.622  1.00  0.00    -0.502 OA
ATOM     20  H   UNL     1     -30.495  23.929   0.495  1.00  0.00     0.293 HD
ENDBRANCH  15  19
BRANCH  16  21
ATOM     21  O   UNL     1     -29.878  26.700   1.095  1.00  0.00    -0.504 OA
ATOM     22  H   UNL     1     -29.976  26.381   2.053  1.00  0.00     0.293 HD
ENDBRANCH  16  21
ENDBRANCH   1  11
BRANCH  10  23
ATOM     23  O   UNL     1     -31.260  28.872  -3.838  1.00  0.00    -0.500 OA
ATOM     24  H   UNL     1     -30.502  28.428  -3.334  1.00  0.00     0.294 HD
ENDBRANCH  10  23
BRANCH   5  25
ATOM     25  O   UNL     1     -36.619  33.765  -1.084  1.00  0.00    -0.507 OA
ATOM     26  H   UNL     1     -37.156  33.333  -0.341  1.00  0.00     0.293 HD
ENDBRANCH   5  25
BRANCH   7  27
ATOM     27  O   UNL     1     -33.589  33.457  -4.816  1.00  0.00    -0.507 OA
ATOM     28  H   UNL     1     -33.394  32.943  -5.663  1.00  0.00     0.293 HD
ENDBRANCH   7  27
TORSDOF 7
ENDMDL
MODEL 2
REMARK VINA RESULT:    -4.638      3.730      6.218
REMARK INTER + INTRA:          -6.108
REMARK INTER:                  -5.754
REMARK INTRA:                  -0.354
REMARK UNBOUND:                -0.385
REMARK SMILES Oc1cc(O)c2cc(O)c(-c3cc(O)c(O)c(O)c3)[o+]c2c1
REMARK SMILES IDX 10 1 20 2 21 3 22 4 2 5 3 6 4 7 6 8 7 9 8 10 11 11 12 12
REMARK SMILES IDX 13 13 19 14 15 15 17 16 14 17 16 19 18 21 9 23 1 25 5 27
REMARK H PARENT 14 18 16 20 18 22 9 24 1 26 5 28
REMARK Flexibility Score: inf
ROOT
ATOM      1  C   UNL     1     -34.725  31.726  -2.811  1.00  0.00     0.402 A 
ATOM      2  O   UNL     1     -33.915  30.728  -3.150  1.00  0.00    -0.202 OA
ATOM      3  C   UNL     1     -32.722  30.912  -3.708  1.00  0.00     0.368 A 
ATOM      4  C   UNL     1     -31.943  29.799  -4.033  1.00  0.00     0.162 A 
ATOM      5  C   UNL     1     -30.689  29.964  -4.622  1.00  0.00     0.128 A 
ATOM      6  C   UNL     1     -30.209  31.250  -4.890  1.00  0.00     0.093 A 
ATOM      7  C   UNL     1     -30.970  32.383  -4.575  1.00  0.00     0.136 A 
ATOM      8  C   UNL     1     -32.246  32.219  -3.973  1.00  0.00     0.125 A 
ATOM      9  C   UNL     1     -33.072  33.296  -3.611  1.00  0.00     0.078 A 
ATOM     10  C   UNL     1     -34.315  33.056  -3.017  1.00  0.00     0.223 A 
ENDROOT
BRANCH   1  11
ATOM     11  C   UNL     1     -36.034  31.390  -2.204  1.00  0.00     0.091 A 
ATOM     12  C   UNL     1     -37.120  31.078  -3.035  1.00  0.00     0.068 A 
ATOM     13  C   UNL     1     -38.374  30.778  -2.491  1.00  0.00     0.162 A 
ATOM     14  C   UNL     1     -36.228  31.435  -0.813  1.00  0.00     0.068 A 
ATOM     15  C   UNL     1     -38.557  30.802  -1.098  1.00  0.00     0.200 A 
ATOM     16  C   UNL     1     -37.480  31.137  -0.259  1.00  0.00     0.162 A 
BRANCH  13  17
ATOM     17  O   UNL     1     -39.424  30.458  -3.350  1.00  0.00    -0.504 OA
ATOM     18  H   UNL     1     -40.370  30.323  -3.017  1.00  0.00     0.293 HD
ENDBRANCH  13  17
BRANCH  15  19
ATOM     19  O   UNL     1     -39.809  30.500  -0.562  1.00  0.00    -0.502 OA
ATOM     20  H   UNL     1     -40.246  29.594  -0.686  1.00  0.00     0.293 HD
ENDBRANCH  15  19
BRANCH  16  21
ATOM     21  O   UNL     1     -37.660  31.178   1.123  1.00  0.00    -0.504 OA
ATOM     22  H   UNL     1     -37.334  30.429   1.724  1.00  0.00     0.293 HD
ENDBRANCH  16  21
ENDBRANCH   1  11
BRANCH  10  23
ATOM     23  O   UNL     1     -35.114  34.125  -2.611  1.00  0.00    -0.500 OA
ATOM     24  H   UNL     1     -35.061  34.503  -1.673  1.00  0.00     0.294 HD
ENDBRANCH  10  23
BRANCH   5  25
ATOM     25  O   UNL     1     -29.926  28.841  -4.939  1.00  0.00    -0.507 OA
ATOM     26  H   UNL     1     -30.096  27.944  -4.500  1.00  0.00     0.293 HD
ENDBRANCH   5  25
BRANCH   7  27
ATOM     27  O   UNL     1     -30.422  33.633  -4.878  1.00  0.00    -0.507 OA
ATOM     28  H   UNL     1     -29.551  33.978  -4.502  1.00  0.00     0.293 HD
ENDBRANCH   7  27
TORSDOF 7
ENDMDL
MODEL 3
REMARK VINA RESULT:    -4.584      1.020      2.085
REMARK INTER + INTRA:          -6.041
REMARK INTER:                  -5.905
REMARK INTRA:                  -0.136
REMARK UNBOUND:                -0.385
REMARK SMILES Oc1cc(O)c2cc(O)c(-c3cc(O)c(O)c(O)c3)[o+]c2c1
REMARK SMILES IDX 10 1 20 2 21 3 22 4 2 5 3 6 4 7 6 8 7 9 8 10 11 11 12 12
REMARK SMILES IDX 13 13 19 14 15 15 17 16 14 17 16 19 18 21 9 23 1 25 5 27
REMARK H PARENT 14 18 16 20 18 22 9 24 1 26 5 28
REMARK Flexibility Score: inf
ROOT
ATOM      1  C   UNL     1     -32.208  29.026  -1.869  1.00  0.00     0.402 A 
ATOM      2  O   UNL     1     -33.247  29.834  -1.681  1.00  0.00    -0.202 OA
ATOM      3  C   UNL     1     -33.346  31.038  -2.234  1.00  0.00     0.368 A 
ATOM      4  C   UNL     1     -34.476  31.817  -1.975  1.00  0.00     0.162 A 
ATOM      5  C   UNL     1     -34.604  33.086  -2.539  1.00  0.00     0.128 A 
ATOM      6  C   UNL     1     -33.595  33.583  -3.370  1.00  0.00     0.093 A 
ATOM      7  C   UNL     1     -32.451  32.824  -3.646  1.00  0.00     0.136 A 
ATOM      8  C   UNL     1     -32.318  31.531  -3.075  1.00  0.00     0.125 A 
ATOM      9  C   UNL     1     -31.214  30.694  -3.308  1.00  0.00     0.078 A 
ATOM     10  C   UNL     1     -31.157  29.430  -2.713  1.00  0.00     0.223 A 
ENDROOT
BRANCH   1  11
ATOM     11  C   UNL     1     -32.211  27.710  -1.189  1.00  0.00     0.091 A 
ATOM     12  C   UNL     1     -31.138  27.361  -0.356  1.00  0.00     0.068 A 
ATOM     13  C   UNL     1     -31.103  26.117   0.282  1.00  0.00     0.162 A 
ATOM     14  C   UNL     1     -33.239  26.776  -1.407  1.00  0.00     0.068 A 
ATOM     15  C   UNL     1     -32.145  25.195   0.078  1.00  0.00     0.200 A 
ATOM     16  C   UNL     1     -33.213  25.527  -0.774  1.00  0.00     0.162 A 
BRANCH  13  17
ATOM     17  O   UNL     1     -30.027  25.814   1.115  1.00  0.00    -0.504 OA
ATOM     18  H   UNL     1     -29.092  26.158   0.934  1.00  0.00     0.293 HD
ENDBRANCH  13  17
BRANCH  15  19
ATOM     19  O   UNL     1     -32.105  23.957   0.720  1.00  0.00    -0.502 OA
ATOM     20  H   UNL     1     -32.313  23.091   0.237  1.00  0.00     0.293 HD
ENDBRANCH  15  19
BRANCH  16  21
ATOM     21  O   UNL     1     -34.241  24.611  -0.992  1.00  0.00    -0.504 OA
ATOM     22  H   UNL     1     -35.048  24.562  -0.380  1.00  0.00     0.293 HD
ENDBRANCH  16  21
ENDBRANCH   1  11
BRANCH  10  23
ATOM     23  O   UNL     1     -30.085  28.578  -2.983  1.00  0.00    -0.500 OA
ATOM     24  H   UNL     1     -29.532  28.167  -2.240  1.00  0.00     0.294 HD
ENDBRANCH  10  23
BRANCH   5  25
ATOM     25  O   UNL     1     -35.739  33.847  -2.268  1.00  0.00    -0.507 OA
ATOM     26  H   UNL     1     -35.678  34.739  -1.791  1.00  0.00     0.293 HD
ENDBRANCH   5  25
BRANCH   7  27
ATOM     27  O   UNL     1     -31.486  33.393  -4.483  1.00  0.00    -0.507 OA
ATOM     28  H   UNL     1     -30.631  33.820  -4.159  1.00  0.00     0.293 HD
ENDBRANCH   7  27
TORSDOF 7
ENDMDL
MODEL 4
REMARK VINA RESULT:    -4.428      2.008      3.317
REMARK INTER + INTRA:          -5.849
REMARK INTER:                  -5.696
REMARK INTRA:                  -0.153
REMARK UNBOUND:                -0.385
REMARK SMILES Oc1cc(O)c2cc(O)c(-c3cc(O)c(O)c(O)c3)[o+]c2c1
REMARK SMILES IDX 10 1 20 2 21 3 22 4 2 5 3 6 4 7 6 8 7 9 8 10 11 11 12 12
REMARK SMILES IDX 13 13 19 14 15 15 17 16 14 17 16 19 18 21 9 23 1 25 5 27
REMARK H PARENT 14 18 16 20 18 22 9 24 1 26 5 28
REMARK Flexibility Score: inf
ROOT
ATOM      1  C   UNL     1     -32.416  28.340  -1.400  1.00  0.00     0.402 A 
ATOM      2  O   UNL     1     -31.663  28.758  -2.412  1.00  0.00    -0.202 OA
ATOM      3  C   UNL     1     -31.600  30.028  -2.801  1.00  0.00     0.368 A 
ATOM      4  C   UNL     1     -30.782  30.370  -3.880  1.00  0.00     0.162 A 
ATOM      5  C   UNL     1     -30.700  31.694  -4.311  1.00  0.00     0.128 A 
ATOM      6  C   UNL     1     -31.441  32.686  -3.660  1.00  0.00     0.093 A 
ATOM      7  C   UNL     1     -32.269  32.370  -2.576  1.00  0.00     0.136 A 
ATOM      8  C   UNL     1     -32.354  31.023  -2.133  1.00  0.00     0.125 A 
ATOM      9  C   UNL     1     -33.147  30.616  -1.048  1.00  0.00     0.078 A 
ATOM     10  C   UNL     1     -33.175  29.271  -0.667  1.00  0.00     0.223 A 
ENDROOT
BRANCH   1  11
ATOM     11  C   UNL     1     -32.408  26.896  -1.069  1.00  0.00     0.091 A 
ATOM     12  C   UNL     1     -33.616  26.183  -1.062  1.00  0.00     0.068 A 
ATOM     13  C   UNL     1     -33.642  24.824  -0.733  1.00  0.00     0.162 A 
ATOM     14  C   UNL     1     -31.222  26.236  -0.704  1.00  0.00     0.068 A 
ATOM     15  C   UNL     1     -32.450  24.163  -0.390  1.00  0.00     0.200 A 
ATOM     16  C   UNL     1     -31.238  24.875  -0.371  1.00  0.00     0.162 A 
BRANCH  13  17
ATOM     17  O   UNL     1     -34.860  24.147  -0.752  1.00  0.00    -0.504 OA
ATOM     18  H   UNL     1     -35.517  24.197   0.017  1.00  0.00     0.293 HD
ENDBRANCH  13  17
BRANCH  15  19
ATOM     19  O   UNL     1     -32.482  22.806  -0.065  1.00  0.00    -0.502 OA
ATOM     20  H   UNL     1     -32.064  22.098  -0.657  1.00  0.00     0.293 HD
ENDBRANCH  15  19
BRANCH  16  21
ATOM     21  O   UNL     1     -30.054  24.229  -0.017  1.00  0.00    -0.504 OA
ATOM     22  H   UNL     1     -30.060  23.339   0.470  1.00  0.00     0.293 HD
ENDBRANCH  16  21
ENDBRANCH   1  11
BRANCH  10  23
ATOM     23  O   UNL     1     -33.923  28.874   0.442  1.00  0.00    -0.500 OA
ATOM     24  H   UNL     1     -34.146  29.517   1.192  1.00  0.00     0.294 HD
ENDBRANCH  10  23
BRANCH   5  25
ATOM     25  O   UNL     1     -29.877  32.015  -5.389  1.00  0.00    -0.507 OA
ATOM     26  H   UNL     1     -29.193  31.360  -5.748  1.00  0.00     0.293 HD
ENDBRANCH   5  25
BRANCH   7  27
ATOM     27  O   UNL     1     -32.980  33.416  -1.981  1.00  0.00    -0.507 OA
ATOM     28  H   UNL     1     -32.694  33.893  -1.138  1.00  0.00     0.293 HD
ENDBRANCH   7  27
TORSDOF 7
ENDMDL
MODEL 5
REMARK VINA RESULT:    -4.218      2.430      3.437
REMARK INTER + INTRA:          -5.590
REMARK INTER:                  -5.291
REMARK INTRA:                  -0.299
REMARK UNBOUND:                -0.385
REMARK SMILES Oc1cc(O)c2cc(O)c(-c3cc(O)c(O)c(O)c3)[o+]c2c1
REMARK SMILES IDX 10 1 20 2 21 3 22 4 2 5 3 6 4 7 6 8 7 9 8 10 11 11 12 12
REMARK SMILES IDX 13 13 19 14 15 15 17 16 14 17 16 19 18 21 9 23 1 25 5 27
REMARK H PARENT 14 18 16 20 18 22 9 24 1 26 5 28
REMARK Flexibility Score: inf
ROOT
ATOM      1  C   UNL     1     -31.758  27.545  -1.246  1.00  0.00     0.402 A 
ATOM      2  O   UNL     1     -32.430  28.119  -2.240  1.00  0.00    -0.202 OA
ATOM      3  C   UNL     1     -32.169  29.342  -2.688  1.00  0.00     0.368 A 
ATOM      4  C   UNL     1     -32.933  29.862  -3.736  1.00  0.00     0.162 A 
ATOM      5  C   UNL     1     -32.683  31.145  -4.223  1.00  0.00     0.128 A 
ATOM      6  C   UNL     1     -31.661  31.917  -3.660  1.00  0.00     0.093 A 
ATOM      7  C   UNL     1     -30.880  31.420  -2.608  1.00  0.00     0.136 A 
ATOM      8  C   UNL     1     -31.131  30.114  -2.112  1.00  0.00     0.125 A 
ATOM      9  C   UNL     1     -30.391  29.529  -1.070  1.00  0.00     0.078 A 
ATOM     10  C   UNL     1     -30.693  28.235  -0.638  1.00  0.00     0.223 A 
ENDROOT
BRANCH   1  11
ATOM     11  C   UNL     1     -32.151  26.178  -0.832  1.00  0.00     0.091 A 
ATOM     12  C   UNL     1     -33.313  25.996  -0.067  1.00  0.00     0.068 A 
ATOM     13  C   UNL     1     -33.697  24.720   0.357  1.00  0.00     0.162 A 
ATOM     14  C   UNL     1     -31.352  25.063  -1.138  1.00  0.00     0.068 A 
ATOM     15  C   UNL     1     -32.907  23.605   0.029  1.00  0.00     0.200 A 
ATOM     16  C   UNL     1     -31.728  23.780  -0.717  1.00  0.00     0.162 A 
BRANCH  13  17
ATOM     17  O   UNL     1     -34.867  24.579   1.102  1.00  0.00    -0.504 OA
ATOM     18  H   UNL     1     -35.373  23.704   1.150  1.00  0.00     0.293 HD
ENDBRANCH  13  17
BRANCH  15  19
ATOM     19  O   UNL     1     -33.297  22.334   0.453  1.00  0.00    -0.502 OA
ATOM     20  H   UNL     1     -34.097  21.854   0.058  1.00  0.00     0.293 HD
ENDBRANCH  15  19
BRANCH  16  21
ATOM     21  O   UNL     1     -30.932  22.680  -1.032  1.00  0.00    -0.504 OA
ATOM     22  H   UNL     1     -30.354  22.225  -0.334  1.00  0.00     0.293 HD
ENDBRANCH  16  21
ENDBRANCH   1  11
BRANCH  10  23
ATOM     23  O   UNL     1     -29.927  27.634   0.362  1.00  0.00    -0.500 OA
ATOM     24  H   UNL     1     -30.053  26.662   0.617  1.00  0.00     0.294 HD
ENDBRANCH  10  23
BRANCH   5  25
ATOM     25  O   UNL     1     -33.456  31.645  -5.269  1.00  0.00    -0.507 OA
ATOM     26  H   UNL     1     -33.091  32.334  -5.916  1.00  0.00     0.293 HD
ENDBRANCH   5  25
BRANCH   7  27
ATOM     27  O   UNL     1     -29.881  32.254  -2.098  1.00  0.00    -0.507 OA
ATOM     28  H   UNL     1     -29.355  32.917  -2.650  1.00  0.00     0.293 HD
ENDBRANCH   7  27
TORSDOF 7
ENDMDL
MODEL 6
REMARK VINA RESULT:    -4.196      1.626      7.061
REMARK INTER + INTRA:          -5.563
REMARK INTER:                  -5.184
REMARK INTRA:                  -0.379
REMARK UNBOUND:                -0.385
REMARK SMILES Oc1cc(O)c2cc(O)c(-c3cc(O)c(O)c(O)c3)[o+]c2c1
REMARK SMILES IDX 10 1 20 2 21 3 22 4 2 5 3 6 4 7 6 8 7 9 8 10 11 11 12 12
REMARK SMILES IDX 13 13 19 14 15 15 17 16 14 17 16 19 18 21 9 23 1 25 5 27
REMARK H PARENT 14 18 16 20 18 22 9 24 1 26 5 28
REMARK Flexibility Score: inf
ROOT
ATOM      1  C   UNL     1     -32.369  28.323  -1.833  1.00  0.00     0.402 A 
ATOM      2  O   UNL     1     -33.238  27.379  -1.484  1.00  0.00    -0.202 OA
ATOM      3  C   UNL     1     -32.887  26.251  -0.875  1.00  0.00     0.368 A 
ATOM      4  C   UNL     1     -33.874  25.316  -0.551  1.00  0.00     0.162 A 
ATOM      5  C   UNL     1     -33.533  24.122   0.084  1.00  0.00     0.128 A 
ATOM      6  C   UNL     1     -32.196  23.858   0.399  1.00  0.00     0.093 A 
ATOM      7  C   UNL     1     -31.187  24.778   0.085  1.00  0.00     0.136 A 
ATOM      8  C   UNL     1     -31.531  25.995  -0.560  1.00  0.00     0.125 A 
ATOM      9  C   UNL     1     -30.589  26.980  -0.901  1.00  0.00     0.078 A 
ATOM     10  C   UNL     1     -31.004  28.157  -1.531  1.00  0.00     0.223 A 
ENDROOT
BRANCH   1  11
ATOM     11  C   UNL     1     -32.884  29.533  -2.515  1.00  0.00     0.091 A 
ATOM     12  C   UNL     1     -32.944  29.562  -3.916  1.00  0.00     0.068 A 
ATOM     13  C   UNL     1     -33.406  30.699  -4.588  1.00  0.00     0.162 A 
ATOM     14  C   UNL     1     -33.258  30.677  -1.790  1.00  0.00     0.068 A 
ATOM     15  C   UNL     1     -33.801  31.833  -3.858  1.00  0.00     0.200 A 
ATOM     16  C   UNL     1     -33.721  31.821  -2.454  1.00  0.00     0.162 A 
BRANCH  13  17
ATOM     17  O   UNL     1     -33.466  30.682  -5.981  1.00  0.00    -0.504 OA
ATOM     18  H   UNL     1     -33.382  31.526  -6.534  1.00  0.00     0.293 HD
ENDBRANCH  13  17
BRANCH  15  19
ATOM     19  O   UNL     1     -34.262  32.962  -4.535  1.00  0.00    -0.502 OA
ATOM     20  H   UNL     1     -34.518  32.938  -5.514  1.00  0.00     0.293 HD
ENDBRANCH  15  19
BRANCH  16  21
ATOM     21  O   UNL     1     -34.096  32.949  -1.725  1.00  0.00    -0.504 OA
ATOM     22  H   UNL     1     -33.983  33.885  -2.098  1.00  0.00     0.293 HD
ENDBRANCH  16  21
ENDBRANCH   1  11
BRANCH  10  23
ATOM     23  O   UNL     1     -30.077  29.158  -1.825  1.00  0.00    -0.500 OA
ATOM     24  H   UNL     1     -29.710  29.770  -1.106  1.00  0.00     0.294 HD
ENDBRANCH  10  23
BRANCH   5  25
ATOM     25  O   UNL     1     -34.531  23.203   0.400  1.00  0.00    -0.507 OA
ATOM     26  H   UNL     1     -35.225  23.397   1.111  1.00  0.00     0.293 HD
ENDBRANCH   5  25
BRANCH   7  27
ATOM     27  O   UNL     1     -29.875  24.438   0.429  1.00  0.00    -0.507 OA
ATOM     28  H   UNL     1     -29.181  25.098   0.749  1.00  0.00     0.293 HD
ENDBRANCH   7  27
TORSDOF 7
ENDMDL
MODEL 7
REMARK VINA RESULT:    -4.183      1.655      7.195
REMARK INTER + INTRA:          -5.546
REMARK INTER:                  -5.167
REMARK INTRA:                  -0.380
REMARK UNBOUND:                -0.385
REMARK SMILES Oc1cc(O)c2cc(O)c(-c3cc(O)c(O)c(O)c3)[o+]c2c1
REMARK SMILES IDX 10 1 20 2 21 3 22 4 2 5 3 6 4 7 6 8 7 9 8 10 11 11 12 12
REMARK SMILES IDX 13 13 19 14 15 15 17 16 14 17 16 19 18 21 9 23 1 25 5 27
REMARK H PARENT 14 18 16 20 18 22 9 24 1 26 5 28
REMARK Flexibility Score: inf
ROOT
ATOM      1  C   UNL     1     -32.330  28.207  -1.797  1.00  0.00     0.402 A 
ATOM      2  O   UNL     1     -33.204  27.263  -1.458  1.00  0.00    -0.202 OA
ATOM      3  C   UNL     1     -32.863  26.144  -0.828  1.00  0.00     0.368 A 
ATOM      4  C   UNL     1     -33.853  25.208  -0.518  1.00  0.00     0.162 A 
ATOM      5  C   UNL     1     -33.522  24.023   0.140  1.00  0.00     0.128 A 
ATOM      6  C   UNL     1     -32.192  23.769   0.491  1.00  0.00     0.093 A 
ATOM      7  C   UNL     1     -31.180  24.690   0.191  1.00  0.00     0.136 A 
ATOM      8  C   UNL     1     -31.513  25.898  -0.476  1.00  0.00     0.125 A 
ATOM      9  C   UNL     1     -30.568  26.884  -0.805  1.00  0.00     0.078 A 
ATOM     10  C   UNL     1     -30.973  28.051  -1.459  1.00  0.00     0.223 A 
ENDROOT
BRANCH   1  11
ATOM     11  C   UNL     1     -32.834  29.407  -2.505  1.00  0.00     0.091 A 
ATOM     12  C   UNL     1     -33.252  30.521  -1.763  1.00  0.00     0.068 A 
ATOM     13  C   UNL     1     -33.751  31.660  -2.404  1.00  0.00     0.162 A 
ATOM     14  C   UNL     1     -32.957  29.432  -3.905  1.00  0.00     0.068 A 
ATOM     15  C   UNL     1     -33.852  31.689  -3.805  1.00  0.00     0.200 A 
ATOM     16  C   UNL     1     -33.457  30.567  -4.556  1.00  0.00     0.162 A 
BRANCH  13  17
ATOM     17  O   UNL     1     -34.142  32.753  -1.631  1.00  0.00    -0.504 OA
ATOM     18  H   UNL     1     -35.097  33.089  -1.618  1.00  0.00     0.293 HD
ENDBRANCH  13  17
BRANCH  15  19
ATOM     19  O   UNL     1     -34.349  32.829  -4.438  1.00  0.00    -0.502 OA
ATOM     20  H   UNL     1     -35.334  33.063  -4.434  1.00  0.00     0.293 HD
ENDBRANCH  15  19
BRANCH  16  21
ATOM     21  O   UNL     1     -33.569  30.584  -5.945  1.00  0.00    -0.504 OA
ATOM     22  H   UNL     1     -34.383  30.974  -6.408  1.00  0.00     0.293 HD
ENDBRANCH  16  21
ENDBRANCH   1  11
BRANCH  10  23
ATOM     23  O   UNL     1     -30.044  29.053  -1.741  1.00  0.00    -0.500 OA
ATOM     24  H   UNL     1     -29.303  29.290  -1.092  1.00  0.00     0.294 HD
ENDBRANCH  10  23
BRANCH   5  25
ATOM     25  O   UNL     1     -34.524  23.103   0.441  1.00  0.00    -0.507 OA
ATOM     26  H   UNL     1     -35.420  23.120  -0.031  1.00  0.00     0.293 HD
ENDBRANCH   5  25
BRANCH   7  27
ATOM     27  O   UNL     1     -29.876  24.361   0.572  1.00  0.00    -0.507 OA
ATOM     28  H   UNL     1     -29.219  25.012   0.976  1.00  0.00     0.293 HD
ENDBRANCH   7  27
TORSDOF 7
ENDMDL
MODEL 8
REMARK VINA RESULT:    -4.160      4.271      5.270
REMARK INTER + INTRA:          -5.519
REMARK INTER:                  -5.784
REMARK INTRA:                   0.266
REMARK UNBOUND:                -0.385
REMARK SMILES Oc1cc(O)c2cc(O)c(-c3cc(O)c(O)c(O)c3)[o+]c2c1
REMARK SMILES IDX 10 1 20 2 21 3 22 4 2 5 3 6 4 7 6 8 7 9 8 10 11 11 12 12
REMARK SMILES IDX 13 13 19 14 15 15 17 16 14 17 16 19 18 21 9 23 1 25 5 27
REMARK H PARENT 14 18 16 20 18 22 9 24 1 26 5 28
REMARK Flexibility Score: inf
ROOT
ATOM      1  C   UNL     1     -34.471  31.737  -2.532  1.00  0.00     0.402 A 
ATOM      2  O   UNL     1     -35.623  31.099  -2.352  1.00  0.00    -0.202 OA
ATOM      3  C   UNL     1     -36.543  31.485  -1.474  1.00  0.00     0.368 A 
ATOM      4  C   UNL     1     -37.722  30.746  -1.353  1.00  0.00     0.162 A 
ATOM      5  C   UNL     1     -38.703  31.127  -0.438  1.00  0.00     0.128 A 
ATOM      6  C   UNL     1     -38.506  32.256   0.365  1.00  0.00     0.093 A 
ATOM      7  C   UNL     1     -37.332  33.014   0.265  1.00  0.00     0.136 A 
ATOM      8  C   UNL     1     -36.333  32.630  -0.668  1.00  0.00     0.125 A 
ATOM      9  C   UNL     1     -35.132  33.337  -0.847  1.00  0.00     0.078 A 
ATOM     10  C   UNL     1     -34.196  32.900  -1.789  1.00  0.00     0.223 A 
ENDROOT
BRANCH   1  11
ATOM     11  C   UNL     1     -33.522  31.202  -3.536  1.00  0.00     0.091 A 
ATOM     12  C   UNL     1     -33.985  30.313  -4.518  1.00  0.00     0.068 A 
ATOM     13  C   UNL     1     -33.109  29.775  -5.466  1.00  0.00     0.162 A 
ATOM     14  C   UNL     1     -32.154  31.519  -3.492  1.00  0.00     0.068 A 
ATOM     15  C   UNL     1     -31.745  30.113  -5.431  1.00  0.00     0.200 A 
ATOM     16  C   UNL     1     -31.267  30.984  -4.436  1.00  0.00     0.162 A 
BRANCH  13  17
ATOM     17  O   UNL     1     -33.611  28.907  -6.435  1.00  0.00    -0.504 OA
ATOM     18  H   UNL     1     -34.586  28.639  -6.463  1.00  0.00     0.293 HD
ENDBRANCH  13  17
BRANCH  15  19
ATOM     19  O   UNL     1     -30.877  29.574  -6.381  1.00  0.00    -0.502 OA
ATOM     20  H   UNL     1     -30.811  29.941  -7.323  1.00  0.00     0.293 HD
ENDBRANCH  15  19
BRANCH  16  21
ATOM     21  O   UNL     1     -29.913  31.310  -4.387  1.00  0.00    -0.504 OA
ATOM     22  H   UNL     1     -29.452  31.538  -3.513  1.00  0.00     0.293 HD
ENDBRANCH  16  21
ENDBRANCH   1  11
BRANCH  10  23
ATOM     23  O   UNL     1     -33.026  33.630  -2.003  1.00  0.00    -0.500 OA
ATOM     24  H   UNL     1     -32.217  33.525  -1.404  1.00  0.00     0.294 HD
ENDBRANCH  10  23
BRANCH   5  25
ATOM     25  O   UNL     1     -39.873  30.377  -0.332  1.00  0.00    -0.507 OA
ATOM     26  H   UNL     1     -40.054  29.788   0.471  1.00  0.00     0.293 HD
ENDBRANCH   5  25
BRANCH   7  27
ATOM     27  O   UNL     1     -37.209  34.125   1.104  1.00  0.00    -0.507 OA
ATOM     28  H   UNL     1     -36.932  35.045   0.795  1.00  0.00     0.293 HD
ENDBRANCH   7  27
TORSDOF 7
ENDMDL
MODEL 9
REMARK VINA RESULT:    -4.102      2.962      7.759
REMARK INTER + INTRA:          -5.447
REMARK INTER:                  -5.132
REMARK INTRA:                  -0.315
REMARK UNBOUND:                -0.385
REMARK SMILES Oc1cc(O)c2cc(O)c(-c3cc(O)c(O)c(O)c3)[o+]c2c1
REMARK SMILES IDX 10 1 20 2 21 3 22 4 2 5 3 6 4 7 6 8 7 9 8 10 11 11 12 12
REMARK SMILES IDX 13 13 19 14 15 15 17 16 14 17 16 19 18 21 9 23 1 25 5 27
REMARK H PARENT 14 18 16 20 18 22 9 24 1 26 5 28
REMARK Flexibility Score: inf
ROOT
ATOM      1  C   UNL     1     -31.819  27.415  -1.082  1.00  0.00     0.402 A 
ATOM      2  O   UNL     1     -31.104  26.377  -1.506  1.00  0.00    -0.202 OA
ATOM      3  C   UNL     1     -31.324  25.127  -1.109  1.00  0.00     0.368 A 
ATOM      4  C   UNL     1     -30.517  24.102  -1.607  1.00  0.00     0.162 A 
ATOM      5  C   UNL     1     -30.724  22.783  -1.204  1.00  0.00     0.128 A 
ATOM      6  C   UNL     1     -31.745  22.483  -0.296  1.00  0.00     0.093 A 
ATOM      7  C   UNL     1     -32.568  23.492   0.219  1.00  0.00     0.136 A 
ATOM      8  C   UNL     1     -32.362  24.836  -0.190  1.00  0.00     0.125 A 
ATOM      9  C   UNL     1     -33.146  25.910   0.263  1.00  0.00     0.078 A 
ATOM     10  C   UNL     1     -32.886  27.207  -0.189  1.00  0.00     0.223 A 
ENDROOT
BRANCH   1  11
ATOM     11  C   UNL     1     -31.469  28.761  -1.593  1.00  0.00     0.091 A 
ATOM     12  C   UNL     1     -30.838  29.679  -0.740  1.00  0.00     0.068 A 
ATOM     13  C   UNL     1     -30.516  30.965  -1.188  1.00  0.00     0.162 A 
ATOM     14  C   UNL     1     -31.810  29.160  -2.896  1.00  0.00     0.068 A 
ATOM     15  C   UNL     1     -30.838  31.352  -2.500  1.00  0.00     0.200 A 
ATOM     16  C   UNL     1     -31.492  30.446  -3.354  1.00  0.00     0.162 A 
BRANCH  13  17
ATOM     17  O   UNL     1     -29.875  31.843  -0.315  1.00  0.00    -0.504 OA
ATOM     18  H   UNL     1     -28.882  31.786  -0.126  1.00  0.00     0.293 HD
ENDBRANCH  13  17
BRANCH  15  19
ATOM     19  O   UNL     1     -30.511  32.635  -2.941  1.00  0.00    -0.502 OA
ATOM     20  H   UNL     1     -30.372  33.407  -2.300  1.00  0.00     0.293 HD
ENDBRANCH  15  19
BRANCH  16  21
ATOM     21  O   UNL     1     -31.828  30.829  -4.651  1.00  0.00    -0.504 OA
ATOM     22  H   UNL     1     -32.388  31.655  -4.833  1.00  0.00     0.293 HD
ENDBRANCH  16  21
ENDBRANCH   1  11
BRANCH  10  23
ATOM     23  O   UNL     1     -33.695  28.266   0.222  1.00  0.00    -0.500 OA
ATOM     24  H   UNL     1     -34.496  28.122   0.825  1.00  0.00     0.294 HD
ENDBRANCH  10  23
BRANCH   5  25
ATOM     25  O   UNL     1     -29.908  21.773  -1.713  1.00  0.00    -0.507 OA
ATOM     26  H   UNL     1     -29.061  21.985  -2.226  1.00  0.00     0.293 HD
ENDBRANCH   5  25
BRANCH   7  27
ATOM     27  O   UNL     1     -33.563  23.112   1.125  1.00  0.00    -0.507 OA
ATOM     28  H   UNL     1     -33.875  22.162   1.263  1.00  0.00     0.293 HD
ENDBRANCH   7  27
TORSDOF 7
ENDMDL
