MODEL 1
REMARK VINA RESULT:    -3.650      0.000      0.000
REMARK INTER + INTRA:          -6.672
REMARK INTER:                  -5.783
REMARK INTRA:                  -0.889
REMARK UNBOUND:                -0.889
REMARK SMILES CCCCCCCCCCCC(=O)[O-]
REMARK SMILES IDX 7 1 8 2 9 3 10 4 11 5 12 6 13 7 14 8 6 9 5 10 4 11 3 12 2 13
REMARK SMILES IDX 1 14
REMARK H PARENT
REMARK Flexibility Score: inf
ROOT
ATOM      1  C   UNL     1      24.652  21.563  60.013  1.00  0.00     0.000 C 
ENDROOT
BRANCH   1   2
ATOM      2  C   UNL     1      23.775  21.788  58.769  1.00  0.00     0.000 C 
BRANCH   2   3
ATOM      3  C   UNL     1      23.026  20.517  58.336  1.00  0.00     0.000 C 
BRANCH   3   4
ATOM      4  C   UNL     1      23.851  19.638  57.383  1.00  0.00     0.006 C 
BRANCH   4   5
ATOM      5  C   UNL     1      24.940  20.460  56.686  1.00  0.00     0.053 C 
BRANCH   5   6
ATOM      6  C   UNL     1      26.282  19.832  56.890  1.00  0.00     0.041 C 
ATOM      7  O   UNL     1      27.200  20.010  56.047  1.00  0.00    -0.550 OA
ATOM      8  O   UNL     1      26.504  19.007  57.985  1.00  0.00    -0.550 OA
ENDBRANCH   5   6
ENDBRANCH   4   5
ENDBRANCH   3   4
ENDBRANCH   2   3
ENDBRANCH   1   2
BRANCH   1   9
ATOM      9  C   UNL     1      26.075  22.125  59.848  1.00  0.00     0.000 C 
BRANCH   9  10
ATOM     10  C   UNL     1      27.078  21.694  60.937  1.00  0.00    -0.000 C 
BRANCH  10  11
ATOM     11  C   UNL     1      26.539  21.732  62.380  1.00  0.00    -0.000 C 
BRANCH  11  12
ATOM     12  C   UNL     1      26.612  20.392  63.134  1.00  0.00    -0.000 C 
BRANCH  12  13
ATOM     13  C   UNL     1      25.319  20.067  63.897  1.00  0.00    -0.003 C 
ATOM     14  C   UNL     1      24.279  21.168  63.710  1.00  0.00     0.004 C 
ENDBRANCH  12  13
ENDBRANCH  11  12
ENDBRANCH  10  11
ENDBRANCH   9  10
ENDBRANCH   1   9
TORSDOF 10
ENDMDL
MODEL 2
REMARK VINA RESULT:    -3.546      1.689      2.884
REMARK INTER + INTRA:          -6.508
REMARK INTER:                  -5.605
REMARK INTRA:                  -0.903
REMARK UNBOUND:                -0.889
REMARK SMILES CCCCCCCCCCCC(=O)[O-]
REMARK SMILES IDX 7 1 8 2 9 3 10 4 11 5 12 6 13 7 14 8 6 9 5 10 4 11 3 12 2 13
REMARK SMILES IDX 1 14
REMARK H PARENT
REMARK Flexibility Score: inf
ROOT
ATOM      1  C   UNL     1      27.117  21.048  60.931  1.00  0.00     0.000 C 
ENDROOT
BRANCH   1   2
ATOM      2  C   UNL     1      27.597  22.125  59.943  1.00  0.00     0.000 C 
BRANCH   2   3
ATOM      3  C   UNL     1      27.314  21.751  58.479  1.00  0.00     0.000 C 
BRANCH   3   4
ATOM      4  C   UNL     1      26.178  20.726  58.337  1.00  0.00     0.006 C 
BRANCH   4   5
ATOM      5  C   UNL     1      26.539  19.649  57.309  1.00  0.00     0.053 C 
BRANCH   5   6
ATOM      6  C   UNL     1      26.574  20.229  55.931  1.00  0.00     0.041 C 
ATOM      7  O   UNL     1      27.667  20.328  55.313  1.00  0.00    -0.550 OA
ATOM      8  O   UNL     1      25.408  20.707  55.349  1.00  0.00    -0.550 OA
ENDBRANCH   5   6
ENDBRANCH   4   5
ENDBRANCH   3   4
ENDBRANCH   2   3
ENDBRANCH   1   2
BRANCH   1   9
ATOM      9  C   UNL     1      26.765  21.622  62.315  1.00  0.00     0.000 C 
BRANCH   9  10
ATOM     10  C   UNL     1      26.320  20.582  63.362  1.00  0.00    -0.000 C 
BRANCH  10  11
ATOM     11  C   UNL     1      24.835  20.652  63.769  1.00  0.00    -0.000 C 
BRANCH  11  12
ATOM     12  C   UNL     1      24.070  21.869  63.220  1.00  0.00    -0.000 C 
BRANCH  12  13
ATOM     13  C   UNL     1      22.973  21.481  62.218  1.00  0.00    -0.003 C 
ATOM     14  C   UNL     1      23.431  21.719  60.782  1.00  0.00     0.004 C 
ENDBRANCH  12  13
ENDBRANCH  11  12
ENDBRANCH  10  11
ENDBRANCH   9  10
ENDBRANCH   1   9
TORSDOF 10
ENDMDL
MODEL 3
REMARK VINA RESULT:    -3.481      0.931      2.268
REMARK INTER + INTRA:          -6.405
REMARK INTER:                  -5.541
REMARK INTRA:                  -0.864
REMARK UNBOUND:                -0.889
REMARK SMILES CCCCCCCCCCCC(=O)[O-]
REMARK SMILES IDX 7 1 8 2 9 3 10 4 11 5 12 6 13 7 14 8 6 9 5 10 4 11 3 12 2 13
REMARK SMILES IDX 1 14
REMARK H PARENT
REMARK Flexibility Score: inf
ROOT
ATOM      1  C   UNL     1      23.501  21.970  61.022  1.00  0.00     0.000 C 
ENDROOT
BRANCH   1   2
ATOM      2  C   UNL     1      23.156  21.053  59.837  1.00  0.00     0.000 C 
BRANCH   2   3
ATOM      3  C   UNL     1      23.444  21.711  58.477  1.00  0.00     0.000 C 
BRANCH   3   4
ATOM      4  C   UNL     1      24.929  21.641  58.086  1.00  0.00     0.006 C 
BRANCH   4   5
ATOM      5  C   UNL     1      25.125  20.771  56.841  1.00  0.00     0.053 C 
BRANCH   5   6
ATOM      6  C   UNL     1      26.350  19.924  56.980  1.00  0.00     0.041 C 
ATOM      7  O   UNL     1      27.236  19.939  56.085  1.00  0.00    -0.550 OA
ATOM      8  O   UNL     1      26.490  19.079  58.073  1.00  0.00    -0.550 OA
ENDBRANCH   5   6
ENDBRANCH   4   5
ENDBRANCH   3   4
ENDBRANCH   2   3
ENDBRANCH   1   2
BRANCH   1   9
ATOM      9  C   UNL     1      22.981  21.429  62.366  1.00  0.00     0.000 C 
BRANCH   9  10
ATOM     10  C   UNL     1      24.000  21.457  63.522  1.00  0.00    -0.000 C 
BRANCH  10  11
ATOM     11  C   UNL     1      25.108  20.388  63.448  1.00  0.00    -0.000 C 
BRANCH  11  12
ATOM     12  C   UNL     1      26.542  20.929  63.588  1.00  0.00    -0.000 C 
BRANCH  12  13
ATOM     13  C   UNL     1      26.878  22.003  62.543  1.00  0.00    -0.003 C 
ATOM     14  C   UNL     1      26.967  21.399  61.144  1.00  0.00     0.004 C 
ENDBRANCH  12  13
ENDBRANCH  11  12
ENDBRANCH  10  11
ENDBRANCH   9  10
ENDBRANCH   1   9
TORSDOF 10
ENDMDL
MODEL 4
REMARK VINA RESULT:    -3.418      1.731      2.638
REMARK INTER + INTRA:          -6.304
REMARK INTER:                  -5.587
REMARK INTRA:                  -0.717
REMARK UNBOUND:                -0.889
REMARK SMILES CCCCCCCCCCCC(=O)[O-]
REMARK SMILES IDX 7 1 8 2 9 3 10 4 11 5 12 6 13 7 14 8 6 9 5 10 4 11 3 12 2 13
REMARK SMILES IDX 1 14
REMARK H PARENT
REMARK Flexibility Score: inf
ROOT
ATOM      1  C   UNL     1      27.259  21.288  60.547  1.00  0.00     0.000 C 
ENDROOT
BRANCH   1   2
ATOM      2  C   UNL     1      27.782  21.915  59.243  1.00  0.00     0.000 C 
BRANCH   2   3
ATOM      3  C   UNL     1      26.836  21.680  58.054  1.00  0.00     0.000 C 
BRANCH   3   4
ATOM      4  C   UNL     1      26.503  20.194  57.845  1.00  0.00     0.006 C 
BRANCH   4   5
ATOM      5  C   UNL     1      25.854  19.967  56.476  1.00  0.00     0.053 C 
BRANCH   5   6
ATOM      6  C   UNL     1      26.654  20.629  55.399  1.00  0.00     0.041 C 
ATOM      7  O   UNL     1      27.850  20.290  55.200  1.00  0.00    -0.550 OA
ATOM      8  O   UNL     1      26.095  21.656  54.650  1.00  0.00    -0.550 OA
ENDBRANCH   5   6
ENDBRANCH   4   5
ENDBRANCH   3   4
ENDBRANCH   2   3
ENDBRANCH   1   2
BRANCH   1   9
ATOM      9  C   UNL     1      26.149  22.125  61.208  1.00  0.00     0.000 C 
BRANCH   9  10
ATOM     10  C   UNL     1      24.716  21.599  60.992  1.00  0.00    -0.000 C 
BRANCH  10  11
ATOM     11  C   UNL     1      23.889  21.400  62.278  1.00  0.00    -0.000 C 
BRANCH  11  12
ATOM     12  C   UNL     1      24.703  21.426  63.584  1.00  0.00    -0.000 C 
BRANCH  12  13
ATOM     13  C   UNL     1      25.075  20.023  64.082  1.00  0.00    -0.003 C 
ATOM     14  C   UNL     1      26.548  19.718  63.817  1.00  0.00     0.004 C 
ENDBRANCH  12  13
ENDBRANCH  11  12
ENDBRANCH  10  11
ENDBRANCH   9  10
ENDBRANCH   1   9
TORSDOF 10
ENDMDL
MODEL 5
REMARK VINA RESULT:    -3.385      3.081      6.476
REMARK INTER + INTRA:          -6.253
REMARK INTER:                  -5.741
REMARK INTRA:                  -0.512
REMARK UNBOUND:                -0.889
REMARK SMILES CCCCCCCCCCCC(=O)[O-]
REMARK SMILES IDX 7 1 8 2 9 3 10 4 11 5 12 6 13 7 14 8 6 9 5 10 4 11 3 12 2 13
REMARK SMILES IDX 1 14
REMARK H PARENT
REMARK Flexibility Score: inf
ROOT
ATOM      1  C   UNL     1      26.318  20.731  58.565  1.00  0.00     0.000 C 
ENDROOT
BRANCH   1   2
ATOM      2  C   UNL     1      27.400  20.793  59.658  1.00  0.00     0.000 C 
BRANCH   2   3
ATOM      3  C   UNL     1      27.181  21.956  60.639  1.00  0.00     0.000 C 
BRANCH   3   4
ATOM      4  C   UNL     1      26.049  21.683  61.642  1.00  0.00     0.006 C 
BRANCH   4   5
ATOM      5  C   UNL     1      26.601  21.080  62.938  1.00  0.00     0.053 C 
BRANCH   5   6
ATOM      6  C   UNL     1      25.536  20.309  63.653  1.00  0.00     0.041 C 
ATOM      7  O   UNL     1      25.644  19.063  63.795  1.00  0.00    -0.550 OA
ATOM      8  O   UNL     1      24.401  20.960  64.117  1.00  0.00    -0.550 OA
ENDBRANCH   5   6
ENDBRANCH   4   5
ENDBRANCH   3   4
ENDBRANCH   2   3
ENDBRANCH   1   2
BRANCH   1   9
ATOM      9  C   UNL     1      26.632  19.692  57.474  1.00  0.00     0.000 C 
BRANCH   9  10
ATOM     10  C   UNL     1      26.872  20.274  56.067  1.00  0.00    -0.000 C 
BRANCH  10  11
ATOM     11  C   UNL     1      25.680  21.042  55.461  1.00  0.00    -0.000 C 
BRANCH  11  12
ATOM     12  C   UNL     1      24.351  20.267  55.442  1.00  0.00    -0.000 C 
BRANCH  12  13
ATOM     13  C   UNL     1      24.455  18.924  54.705  1.00  0.00    -0.003 C 
ATOM     14  C   UNL     1      23.740  17.817  55.476  1.00  0.00     0.004 C 
ENDBRANCH  12  13
ENDBRANCH  11  12
ENDBRANCH  10  11
ENDBRANCH   9  10
ENDBRANCH   1   9
TORSDOF 10
ENDMDL
MODEL 6
REMARK VINA RESULT:    -3.356      1.963      2.606
REMARK INTER + INTRA:          -6.207
REMARK INTER:                  -5.579
REMARK INTRA:                  -0.628
REMARK UNBOUND:                -0.889
REMARK SMILES CCCCCCCCCCCC(=O)[O-]
REMARK SMILES IDX 7 1 8 2 9 3 10 4 11 5 12 6 13 7 14 8 6 9 5 10 4 11 3 12 2 13
REMARK SMILES IDX 1 14
REMARK H PARENT
REMARK Flexibility Score: inf
ROOT
ATOM      1  C   UNL     1      26.708  20.664  58.743  1.00  0.00     0.000 C 
ENDROOT
BRANCH   1   2
ATOM      2  C   UNL     1      26.918  21.498  57.468  1.00  0.00     0.000 C 
BRANCH   2   3
ATOM      3  C   UNL     1      27.072  20.627  56.211  1.00  0.00     0.000 C 
BRANCH   3   4
ATOM      4  C   UNL     1      25.971  20.885  55.170  1.00  0.00     0.006 C 
BRANCH   4   5
ATOM      5  C   UNL     1      24.599  20.470  55.711  1.00  0.00     0.053 C 
BRANCH   5   6
ATOM      6  C   UNL     1      24.400  18.995  55.558  1.00  0.00     0.041 C 
ATOM      7  O   UNL     1      24.205  18.497  54.419  1.00  0.00    -0.550 OA
ATOM      8  O   UNL     1      24.378  18.178  56.681  1.00  0.00    -0.550 OA
ENDBRANCH   5   6
ENDBRANCH   4   5
ENDBRANCH   3   4
ENDBRANCH   2   3
ENDBRANCH   1   2
BRANCH   1   9
ATOM      9  C   UNL     1      27.657  21.070  59.885  1.00  0.00     0.000 C 
BRANCH   9  10
ATOM     10  C   UNL     1      27.056  22.042  60.920  1.00  0.00    -0.000 C 
BRANCH  10  11
ATOM     11  C   UNL     1      25.573  21.800  61.265  1.00  0.00    -0.000 C 
BRANCH  11  12
ATOM     12  C   UNL     1      25.303  21.417  62.731  1.00  0.00    -0.000 C 
BRANCH  12  13
ATOM     13  C   UNL     1      26.464  20.641  63.368  1.00  0.00    -0.003 C 
ATOM     14  C   UNL     1      25.971  19.348  64.013  1.00  0.00     0.004 C 
ENDBRANCH  12  13
ENDBRANCH  11  12
ENDBRANCH  10  11
ENDBRANCH   9  10
ENDBRANCH   1   9
TORSDOF 10
ENDMDL
MODEL 7
REMARK VINA RESULT:    -3.190      2.768      5.619
REMARK INTER + INTRA:          -5.943
REMARK INTER:                  -4.985
REMARK INTRA:                  -0.958
REMARK UNBOUND:                -0.889
REMARK SMILES CCCCCCCCCCCC(=O)[O-]
REMARK SMILES IDX 7 1 8 2 9 3 10 4 11 5 12 6 13 7 14 8 6 9 5 10 4 11 3 12 2 13
REMARK SMILES IDX 1 14
REMARK H PARENT
REMARK Flexibility Score: inf
ROOT
ATOM      1  C   UNL     1      26.433  21.616  60.188  1.00  0.00     0.000 C 
ENDROOT
BRANCH   1   2
ATOM      2  C   UNL     1      24.946  21.766  59.822  1.00  0.00     0.000 C 
BRANCH   2   3
ATOM      3  C   UNL     1      24.013  21.454  61.004  1.00  0.00     0.000 C 
BRANCH   3   4
ATOM      4  C   UNL     1      24.471  22.117  62.313  1.00  0.00     0.006 C 
BRANCH   4   5
ATOM      5  C   UNL     1      24.359  21.141  63.488  1.00  0.00     0.053 C 
BRANCH   5   6
ATOM      6  C   UNL     1      25.616  20.340  63.626  1.00  0.00     0.041 C 
ATOM      7  O   UNL     1      25.557  19.095  63.799  1.00  0.00    -0.550 OA
ATOM      8  O   UNL     1      26.849  20.977  63.615  1.00  0.00    -0.550 OA
ENDBRANCH   5   6
ENDBRANCH   4   5
ENDBRANCH   3   4
ENDBRANCH   2   3
ENDBRANCH   1   2
BRANCH   1   9
ATOM      9  C   UNL     1      27.289  21.117  59.010  1.00  0.00     0.000 C 
BRANCH   9  10
ATOM     10  C   UNL     1      26.657  19.985  58.175  1.00  0.00    -0.000 C 
BRANCH  10  11
ATOM     11  C   UNL     1      26.566  20.258  56.661  1.00  0.00    -0.000 C 
BRANCH  11  12
ATOM     12  C   UNL     1      25.302  19.707  55.977  1.00  0.00    -0.000 C 
BRANCH  12  13
ATOM     13  C   UNL     1      24.011  20.342  56.511  1.00  0.00    -0.003 C 
ATOM     14  C   UNL     1      23.189  19.330  57.307  1.00  0.00     0.004 C 
ENDBRANCH  12  13
ENDBRANCH  11  12
ENDBRANCH  10  11
ENDBRANCH   9  10
ENDBRANCH   1   9
TORSDOF 10
ENDMDL
MODEL 8
REMARK VINA RESULT:    -3.130      1.427      1.916
REMARK INTER + INTRA:          -5.848
REMARK INTER:                  -5.059
REMARK INTRA:                  -0.789
REMARK UNBOUND:                -0.889
REMARK SMILES CCCCCCCCCCCC(=O)[O-]
REMARK SMILES IDX 7 1 8 2 9 3 10 4 11 5 12 6 13 7 14 8 6 9 5 10 4 11 3 12 2 13
REMARK SMILES IDX 1 14
REMARK H PARENT
REMARK Flexibility Score: inf
ROOT
ATOM      1  C   UNL     1      26.875  20.809  58.832  1.00  0.00     0.000 C 
ENDROOT
BRANCH   1   2
ATOM      2  C   UNL     1      25.922  21.955  58.452  1.00  0.00     0.000 C 
BRANCH   2   3
ATOM      3  C   UNL     1      24.445  21.528  58.481  1.00  0.00     0.000 C 
BRANCH   3   4
ATOM      4  C   UNL     1      24.189  20.222  57.713  1.00  0.00     0.006 C 
BRANCH   4   5
ATOM      5  C   UNL     1      23.899  20.504  56.236  1.00  0.00     0.053 C 
BRANCH   5   6
ATOM      6  C   UNL     1      24.938  19.868  55.367  1.00  0.00     0.041 C 
ATOM      7  O   UNL     1      26.036  20.450  55.163  1.00  0.00    -0.550 OA
ATOM      8  O   UNL     1      24.673  18.657  54.741  1.00  0.00    -0.550 OA
ENDBRANCH   5   6
ENDBRANCH   4   5
ENDBRANCH   3   4
ENDBRANCH   2   3
ENDBRANCH   1   2
BRANCH   1   9
ATOM      9  C   UNL     1      27.449  20.958  60.253  1.00  0.00     0.000 C 
BRANCH   9  10
ATOM     10  C   UNL     1      26.866  22.125  61.075  1.00  0.00    -0.000 C 
BRANCH  10  11
ATOM     11  C   UNL     1      26.762  21.872  62.592  1.00  0.00    -0.000 C 
BRANCH  11  12
ATOM     12  C   UNL     1      25.327  21.718  63.126  1.00  0.00    -0.000 C 
BRANCH  12  13
ATOM     13  C   UNL     1      25.096  20.374  63.833  1.00  0.00    -0.003 C 
ATOM     14  C   UNL     1      26.350  19.504  63.781  1.00  0.00     0.004 C 
ENDBRANCH  12  13
ENDBRANCH  11  12
ENDBRANCH  10  11
ENDBRANCH   9  10
ENDBRANCH   1   9
TORSDOF 10
ENDMDL
MODEL 9
REMARK VINA RESULT:    -3.106      1.570      2.539
REMARK INTER + INTRA:          -5.811
REMARK INTER:                  -5.077
REMARK INTRA:                  -0.734
REMARK UNBOUND:                -0.889
REMARK SMILES CCCCCCCCCCCC(=O)[O-]
REMARK SMILES IDX 7 1 8 2 9 3 10 4 11 5 12 6 13 7 14 8 6 9 5 10 4 11 3 12 2 13
REMARK SMILES IDX 1 14
REMARK H PARENT
REMARK Flexibility Score: inf
ROOT
ATOM      1  C   UNL     1      24.681  21.390  60.135  1.00  0.00     0.000 C 
ENDROOT
BRANCH   1   2
ATOM      2  C   UNL     1      25.069  22.081  58.817  1.00  0.00     0.000 C 
BRANCH   2   3
ATOM      3  C   UNL     1      26.540  21.845  58.437  1.00  0.00     0.000 C 
BRANCH   3   4
ATOM      4  C   UNL     1      26.696  21.008  57.157  1.00  0.00     0.006 C 
BRANCH   4   5
ATOM      5  C   UNL     1      26.254  19.561  57.394  1.00  0.00     0.053 C 
BRANCH   5   6
ATOM      6  C   UNL     1      25.108  19.209  56.500  1.00  0.00     0.041 C 
ATOM      7  O   UNL     1      24.703  20.030  55.635  1.00  0.00    -0.550 OA
ATOM      8  O   UNL     1      24.453  17.995  56.656  1.00  0.00    -0.550 OA
ENDBRANCH   5   6
ENDBRANCH   4   5
ENDBRANCH   3   4
ENDBRANCH   2   3
ENDBRANCH   1   2
BRANCH   1   9
ATOM      9  C   UNL     1      23.221  21.656  60.541  1.00  0.00     0.000 C 
BRANCH   9  10
ATOM     10  C   UNL     1      22.943  21.604  62.056  1.00  0.00    -0.000 C 
BRANCH  10  11
ATOM     11  C   UNL     1      24.165  21.866  62.958  1.00  0.00    -0.000 C 
BRANCH  11  12
ATOM     12  C   UNL     1      24.778  20.609  63.601  1.00  0.00    -0.000 C 
BRANCH  12  13
ATOM     13  C   UNL     1      26.309  20.673  63.692  1.00  0.00    -0.003 C 
ATOM     14  C   UNL     1      26.850  21.913  62.984  1.00  0.00     0.004 C 
ENDBRANCH  12  13
ENDBRANCH  11  12
ENDBRANCH  10  11
ENDBRANCH   9  10
ENDBRANCH   1   9
TORSDOF 10
ENDMDL
