MODEL 1
REMARK VINA RESULT:    -3.725      0.000      0.000
REMARK INTER + INTRA:          -3.834
REMARK INTER:                  -3.834
REMARK INTRA:                   0.000
REMARK UNBOUND:                 0.000
REMARK SMILES CC1(C)[C@H]2CC[C@](C)(C2)[C@H]1O
REMARK SMILES IDX 1 1 2 2 4 3 5 4 6 5 7 6 9 7 10 8 8 9 3 10 11 11
REMARK H PARENT 11 12
REMARK Flexibility Score: inf
ROOT
ATOM      1  C   UNL     1       8.022   0.042  -2.148  1.00  0.00     0.014 C 
ATOM      2  C   UNL     1       6.926   0.962  -1.558  1.00  0.00    -0.006 C 
ATOM      3  C   UNL     1       7.382   2.460  -1.633  1.00  0.00    -0.002 C 
ATOM      4  C   UNL     1       6.215   3.415  -1.304  1.00  0.00     0.005 C 
ATOM      5  C   UNL     1       5.970   3.151   0.190  1.00  0.00     0.010 C 
ATOM      6  C   UNL     1       7.104   2.161   0.551  1.00  0.00    -0.006 C 
ATOM      7  C   UNL     1       8.213   2.620  -0.371  1.00  0.00     0.013 C 
ATOM      8  C   UNL     1       6.794   0.751  -0.013  1.00  0.00     0.126 C 
ATOM      9  C   UNL     1       7.484   2.168   2.036  1.00  0.00     0.014 C 
ATOM     10  C   UNL     1       5.616   0.679  -2.339  1.00  0.00     0.014 C 
ENDROOT
BRANCH   8  11
ATOM     11  O   UNL     1       5.522   0.308   0.391  1.00  0.00    -0.392 OA
ATOM     12  H   UNL     1       5.039   0.047  -0.437  1.00  0.00     0.211 HD
ENDBRANCH   8  11
TORSDOF 1
ENDMDL
MODEL 2
REMARK VINA RESULT:    -3.621      1.649      3.180
REMARK INTER + INTRA:          -3.727
REMARK INTER:                  -3.727
REMARK INTRA:                   0.000
REMARK UNBOUND:                 0.000
REMARK SMILES CC1(C)[C@H]2CC[C@](C)(C2)[C@H]1O
REMARK SMILES IDX 1 1 2 2 4 3 5 4 6 5 7 6 9 7 10 8 8 9 3 10 11 11
REMARK H PARENT 11 12
REMARK Flexibility Score: inf
ROOT
ATOM      1  C   UNL     1       7.618  -0.190   0.972  1.00  0.00     0.014 C 
ATOM      2  C   UNL     1       7.336   1.289   0.618  1.00  0.00    -0.006 C 
ATOM      3  C   UNL     1       5.882   1.441   0.053  1.00  0.00    -0.002 C 
ATOM      4  C   UNL     1       5.478   2.926  -0.057  1.00  0.00     0.005 C 
ATOM      5  C   UNL     1       6.393   3.446  -1.176  1.00  0.00     0.010 C 
ATOM      6  C   UNL     1       7.124   2.163  -1.642  1.00  0.00    -0.006 C 
ATOM      7  C   UNL     1       6.060   1.110  -1.420  1.00  0.00     0.013 C 
ATOM      8  C   UNL     1       8.198   1.744  -0.607  1.00  0.00     0.126 C 
ATOM      9  C   UNL     1       7.641   2.232  -3.083  1.00  0.00     0.014 C 
ATOM     10  C   UNL     1       7.586   2.127   1.900  1.00  0.00     0.014 C 
ENDROOT
BRANCH   8  11
ATOM     11  O   UNL     1       9.073   2.807  -0.320  1.00  0.00    -0.392 OA
ATOM     12  H   UNL     1       8.581   3.642  -0.538  1.00  0.00     0.211 HD
ENDBRANCH   8  11
TORSDOF 1
ENDMDL
MODEL 3
REMARK VINA RESULT:    -3.471      1.516      2.355
REMARK INTER + INTRA:          -3.572
REMARK INTER:                  -3.572
REMARK INTRA:                   0.000
REMARK UNBOUND:                 0.000
REMARK SMILES CC1(C)[C@H]2CC[C@](C)(C2)[C@H]1O
REMARK SMILES IDX 1 1 2 2 4 3 5 4 6 5 7 6 9 7 10 8 8 9 3 10 11 11
REMARK H PARENT 11 12
REMARK Flexibility Score: inf
ROOT
ATOM      1  C   UNL     1       8.827   3.676  -1.508  1.00  0.00     0.014 C 
ATOM      2  C   UNL     1       7.487   2.905  -1.433  1.00  0.00    -0.006 C 
ATOM      3  C   UNL     1       6.737   3.256  -0.102  1.00  0.00    -0.002 C 
ATOM      4  C   UNL     1       5.290   2.719  -0.119  1.00  0.00     0.005 C 
ATOM      5  C   UNL     1       5.492   1.197  -0.069  1.00  0.00     0.010 C 
ATOM      6  C   UNL     1       7.026   1.061   0.085  1.00  0.00    -0.006 C 
ATOM      7  C   UNL     1       7.360   2.294   0.896  1.00  0.00     0.013 C 
ATOM      8  C   UNL     1       7.736   1.370  -1.258  1.00  0.00     0.126 C 
ATOM      9  C   UNL     1       7.470  -0.253   0.736  1.00  0.00     0.014 C 
ATOM     10  C   UNL     1       6.676   3.263  -2.707  1.00  0.00     0.014 C 
ENDROOT
BRANCH   8  11
ATOM     11  O   UNL     1       7.212   0.589  -2.304  1.00  0.00    -0.392 OA
ATOM     12  H   UNL     1       6.795  -0.205  -1.879  1.00  0.00     0.211 HD
ENDBRANCH   8  11
TORSDOF 1
ENDMDL
MODEL 4
REMARK VINA RESULT:    -3.455     13.255     14.158
REMARK INTER + INTRA:          -3.556
REMARK INTER:                  -3.556
REMARK INTRA:                   0.000
REMARK UNBOUND:                 0.000
REMARK SMILES CC1(C)[C@H]2CC[C@](C)(C2)[C@H]1O
REMARK SMILES IDX 1 1 2 2 4 3 5 4 6 5 7 6 9 7 10 8 8 9 3 10 11 11
REMARK H PARENT 11 12
REMARK Flexibility Score: inf
ROOT
ATOM      1  C   UNL     1      -5.639  -6.719   4.438  1.00  0.00     0.014 C 
ATOM      2  C   UNL     1      -4.403  -5.789   4.468  1.00  0.00    -0.006 C 
ATOM      3  C   UNL     1      -3.486  -6.149   5.687  1.00  0.00    -0.002 C 
ATOM      4  C   UNL     1      -2.125  -5.427   5.593  1.00  0.00     0.005 C 
ATOM      5  C   UNL     1      -2.505  -3.954   5.806  1.00  0.00     0.010 C 
ATOM      6  C   UNL     1      -4.021  -4.034   6.109  1.00  0.00    -0.006 C 
ATOM      7  C   UNL     1      -4.119  -5.364   6.824  1.00  0.00     0.013 C 
ATOM      8  C   UNL     1      -4.819  -4.319   4.811  1.00  0.00     0.126 C 
ATOM      9  C   UNL     1      -4.555  -2.849   6.920  1.00  0.00     0.014 C 
ATOM     10  C   UNL     1      -3.687  -5.929   3.099  1.00  0.00     0.014 C 
ENDROOT
BRANCH   8  11
ATOM     11  O   UNL     1      -4.503  -3.391   3.803  1.00  0.00    -0.392 OA
ATOM     12  H   UNL     1      -5.124  -3.572   3.050  1.00  0.00     0.211 HD
ENDBRANCH   8  11
TORSDOF 1
ENDMDL
MODEL 5
REMARK VINA RESULT:    -3.446      0.906      3.319
REMARK INTER + INTRA:          -3.546
REMARK INTER:                  -3.546
REMARK INTRA:                   0.000
REMARK UNBOUND:                 0.000
REMARK SMILES CC1(C)[C@H]2CC[C@](C)(C2)[C@H]1O
REMARK SMILES IDX 1 1 2 2 4 3 5 4 6 5 7 6 9 7 10 8 8 9 3 10 11 11
REMARK H PARENT 11 12
REMARK Flexibility Score: inf
ROOT
ATOM      1  C   UNL     1       5.832   3.657   0.041  1.00  0.00     0.014 C 
ATOM      2  C   UNL     1       6.637   2.344  -0.114  1.00  0.00    -0.006 C 
ATOM      3  C   UNL     1       7.567   2.427  -1.374  1.00  0.00    -0.002 C 
ATOM      4  C   UNL     1       8.570   1.255  -1.405  1.00  0.00     0.005 C 
ATOM      5  C   UNL     1       7.665   0.039  -1.660  1.00  0.00     0.010 C 
ATOM      6  C   UNL     1       6.273   0.687  -1.857  1.00  0.00    -0.006 C 
ATOM      7  C   UNL     1       6.639   2.006  -2.501  1.00  0.00     0.013 C 
ATOM      8  C   UNL     1       5.694   1.154  -0.497  1.00  0.00     0.126 C 
ATOM      9  C   UNL     1       5.304  -0.165  -2.685  1.00  0.00     0.014 C 
ATOM     10  C   UNL     1       7.416   2.120   1.209  1.00  0.00     0.014 C 
ENDROOT
BRANCH   8  11
ATOM     11  O   UNL     1       5.693   0.109   0.444  1.00  0.00    -0.392 OA
ATOM     12  H   UNL     1       5.115   0.407   1.194  1.00  0.00     0.211 HD
ENDBRANCH   8  11
TORSDOF 1
ENDMDL
MODEL 6
REMARK VINA RESULT:    -3.426      1.450      2.352
REMARK INTER + INTRA:          -3.526
REMARK INTER:                  -3.526
REMARK INTRA:                   0.000
REMARK UNBOUND:                 0.000
REMARK SMILES CC1(C)[C@H]2CC[C@](C)(C2)[C@H]1O
REMARK SMILES IDX 1 1 2 2 4 3 5 4 6 5 7 6 9 7 10 8 8 9 3 10 11 11
REMARK H PARENT 11 12
REMARK Flexibility Score: inf
ROOT
ATOM      1  C   UNL     1       8.007   3.872  -2.266  1.00  0.00     0.014 C 
ATOM      2  C   UNL     1       7.604   2.498  -1.680  1.00  0.00    -0.006 C 
ATOM      3  C   UNL     1       6.101   2.523  -1.232  1.00  0.00    -0.002 C 
ATOM      4  C   UNL     1       5.596   1.104  -0.895  1.00  0.00     0.005 C 
ATOM      5  C   UNL     1       6.382   0.757   0.378  1.00  0.00     0.010 C 
ATOM      6  C   UNL     1       7.153   2.067   0.671  1.00  0.00    -0.006 C 
ATOM      7  C   UNL     1       6.180   3.110   0.167  1.00  0.00     0.013 C 
ATOM      8  C   UNL     1       8.332   2.236  -0.320  1.00  0.00     0.126 C 
ATOM      9  C   UNL     1       7.546   2.239   2.142  1.00  0.00     0.014 C 
ATOM     10  C   UNL     1       7.903   1.428  -2.762  1.00  0.00     0.014 C 
ENDROOT
BRANCH   8  11
ATOM     11  O   UNL     1       9.158   1.097  -0.330  1.00  0.00    -0.392 OA
ATOM     12  H   UNL     1      10.078   1.419  -0.517  1.00  0.00     0.211 HD
ENDBRANCH   8  11
TORSDOF 1
ENDMDL
MODEL 7
REMARK VINA RESULT:    -3.377      1.607      2.918
REMARK INTER + INTRA:          -3.475
REMARK INTER:                  -3.475
REMARK INTRA:                   0.000
REMARK UNBOUND:                 0.000
REMARK SMILES CC1(C)[C@H]2CC[C@](C)(C2)[C@H]1O
REMARK SMILES IDX 1 1 2 2 4 3 5 4 6 5 7 6 9 7 10 8 8 9 3 10 11 11
REMARK H PARENT 11 12
REMARK Flexibility Score: inf
ROOT
ATOM      1  C   UNL     1       5.165  -0.535  -0.747  1.00  0.00     0.014 C 
ATOM      2  C   UNL     1       6.334   0.472  -0.860  1.00  0.00    -0.006 C 
ATOM      3  C   UNL     1       6.320   1.455   0.361  1.00  0.00    -0.002 C 
ATOM      4  C   UNL     1       7.616   2.291   0.420  1.00  0.00     0.005 C 
ATOM      5  C   UNL     1       7.494   3.195  -0.817  1.00  0.00     0.010 C 
ATOM      6  C   UNL     1       6.088   2.840  -1.361  1.00  0.00    -0.006 C 
ATOM      7  C   UNL     1       5.339   2.527  -0.085  1.00  0.00     0.013 C 
ATOM      8  C   UNL     1       6.110   1.455  -2.058  1.00  0.00     0.126 C 
ATOM      9  C   UNL     1       5.451   3.950  -2.203  1.00  0.00     0.014 C 
ATOM     10  C   UNL     1       7.644  -0.352  -0.968  1.00  0.00     0.014 C 
ENDROOT
BRANCH   8  11
ATOM     11  O   UNL     1       7.117   1.392  -3.038  1.00  0.00    -0.392 OA
ATOM     12  H   UNL     1       7.957   1.687  -2.597  1.00  0.00     0.211 HD
ENDBRANCH   8  11
TORSDOF 1
ENDMDL
MODEL 8
REMARK VINA RESULT:    -3.361      1.970      3.272
REMARK INTER + INTRA:          -3.460
REMARK INTER:                  -3.460
REMARK INTRA:                   0.000
REMARK UNBOUND:                 0.000
REMARK SMILES CC1(C)[C@H]2CC[C@](C)(C2)[C@H]1O
REMARK SMILES IDX 1 1 2 2 4 3 5 4 6 5 7 6 9 7 10 8 8 9 3 10 11 11
REMARK H PARENT 11 12
REMARK Flexibility Score: inf
ROOT
ATOM      1  C   UNL     1       8.491   0.848  -2.607  1.00  0.00     0.014 C 
ATOM      2  C   UNL     1       7.895   1.821  -1.562  1.00  0.00    -0.006 C 
ATOM      3  C   UNL     1       6.469   1.337  -1.126  1.00  0.00    -0.002 C 
ATOM      4  C   UNL     1       5.963   2.126   0.101  1.00  0.00     0.005 C 
ATOM      5  C   UNL     1       5.745   3.536  -0.469  1.00  0.00     0.010 C 
ATOM      6  C   UNL     1       6.045   3.345  -1.975  1.00  0.00    -0.006 C 
ATOM      7  C   UNL     1       5.573   1.926  -2.202  1.00  0.00     0.013 C 
ATOM      8  C   UNL     1       7.570   3.208  -2.212  1.00  0.00     0.126 C 
ATOM      9  C   UNL     1       5.365   4.380  -2.879  1.00  0.00     0.014 C 
ATOM     10  C   UNL     1       8.901   1.906  -0.384  1.00  0.00     0.014 C 
ENDROOT
BRANCH   8  11
ATOM     11  O   UNL     1       8.275   4.281  -1.637  1.00  0.00    -0.392 OA
ATOM     12  H   UNL     1       8.282   5.007  -2.314  1.00  0.00     0.211 HD
ENDBRANCH   8  11
TORSDOF 1
ENDMDL
MODEL 9
REMARK VINA RESULT:    -3.327     11.389     12.591
REMARK INTER + INTRA:          -3.424
REMARK INTER:                  -3.424
REMARK INTRA:                   0.000
REMARK UNBOUND:                 0.000
REMARK SMILES CC1(C)[C@H]2CC[C@](C)(C2)[C@H]1O
REMARK SMILES IDX 1 1 2 2 4 3 5 4 6 5 7 6 9 7 10 8 8 9 3 10 11 11
REMARK H PARENT 11 12
REMARK Flexibility Score: inf
ROOT
ATOM      1  C   UNL     1      -5.185  -2.519  -6.470  1.00  0.00     0.014 C 
ATOM      2  C   UNL     1      -3.641  -2.421  -6.506  1.00  0.00    -0.006 C 
ATOM      3  C   UNL     1      -3.089  -3.090  -7.812  1.00  0.00    -0.002 C 
ATOM      4  C   UNL     1      -1.591  -2.777  -8.010  1.00  0.00     0.005 C 
ATOM      5  C   UNL     1      -0.927  -3.548  -6.859  1.00  0.00     0.010 C 
ATOM      6  C   UNL     1      -2.121  -4.298  -6.219  1.00  0.00    -0.006 C 
ATOM      7  C   UNL     1      -2.999  -4.557  -7.424  1.00  0.00     0.013 C 
ATOM      8  C   UNL     1      -2.999  -3.320  -5.397  1.00  0.00     0.126 C 
ATOM      9  C   UNL     1      -1.720  -5.565  -5.456  1.00  0.00     0.014 C 
ATOM     10  C   UNL     1      -3.270  -0.920  -6.383  1.00  0.00     0.014 C 
ENDROOT
BRANCH   8  11
ATOM     11  O   UNL     1      -2.228  -2.603  -4.464  1.00  0.00    -0.392 OA
ATOM     12  H   UNL     1      -1.449  -3.177  -4.244  1.00  0.00     0.211 HD
ENDBRANCH   8  11
TORSDOF 1
ENDMDL
