MODEL 1
REMARK VINA RESULT:    -6.836      0.000      0.000
REMARK INTER + INTRA:          -8.300
REMARK INTER:                  -8.034
REMARK INTRA:                  -0.266
REMARK UNBOUND:                -0.266
REMARK SMILES O=c1c(O)c(-c2ccc(O)cc2)oc2cc(O)cc(O)c12
REMARK SMILES IDX 5 1 3 2 2 3 1 4 21 5 19 6 18 7 16 8 15 9 14 10 13 11 6 12
REMARK SMILES IDX 7 13 8 14 9 15 12 16 11 17 10 18 4 20 20 22 17 24
REMARK H PARENT 10 19 4 21 20 23 17 25
REMARK Flexibility Score: inf
ROOT
ATOM      1  C   UNL     1     -36.716 -13.219 -10.639  1.00  0.00     0.180 A 
ATOM      2  C   UNL     1     -37.593 -12.932 -11.700  1.00  0.00     0.208 A 
ATOM      3  C   UNL     1     -37.398 -13.571 -12.935  1.00  0.00     0.238 A 
ATOM      4  O   UNL     1     -38.219 -13.351 -13.864  1.00  0.00    -0.285 OA
ATOM      5  C   UNL     1     -36.322 -14.475 -13.099  1.00  0.00     0.111 A 
ATOM      6  C   UNL     1     -36.007 -15.148 -14.319  1.00  0.00     0.134 A 
ATOM      7  C   UNL     1     -34.998 -16.119 -14.331  1.00  0.00     0.093 A 
ATOM      8  C   UNL     1     -34.249 -16.394 -13.184  1.00  0.00     0.123 A 
ATOM      9  C   UNL     1     -34.510 -15.700 -12.005  1.00  0.00     0.094 A 
ATOM     10  C   UNL     1     -35.534 -14.751 -11.952  1.00  0.00     0.146 A 
ATOM     11  O   UNL     1     -35.756 -14.120 -10.806  1.00  0.00    -0.452 OA
ENDROOT
BRANCH   1  12
ATOM     12  C   UNL     1     -36.841 -12.567  -9.316  1.00  0.00     0.021 A 
ATOM     13  C   UNL     1     -37.758 -13.074  -8.379  1.00  0.00     0.016 A 
ATOM     14  C   UNL     1     -37.877 -12.488  -7.116  1.00  0.00     0.047 A 
ATOM     15  C   UNL     1     -37.070 -11.396  -6.767  1.00  0.00     0.115 A 
ATOM     16  C   UNL     1     -36.020 -11.484  -8.951  1.00  0.00     0.016 A 
ATOM     17  C   UNL     1     -36.141 -10.900  -7.687  1.00  0.00     0.047 A 
BRANCH  15  18
ATOM     18  O   UNL     1     -37.180 -10.804  -5.511  1.00  0.00    -0.508 OA
ATOM     19  H   UNL     1     -36.398 -10.322  -5.082  1.00  0.00     0.293 HD
ENDBRANCH  15  18
ENDBRANCH   1  12
BRANCH   2  20
ATOM     20  O   UNL     1     -38.663 -12.053 -11.511  1.00  0.00    -0.502 OA
ATOM     21  H   UNL     1     -38.806 -11.549 -10.645  1.00  0.00     0.293 HD
ENDBRANCH   2  20
BRANCH   6  22
ATOM     22  O   UNL     1     -36.631 -14.881 -15.541  1.00  0.00    -0.507 OA
ATOM     23  H   UNL     1     -36.160 -14.847 -16.432  1.00  0.00     0.293 HD
ENDBRANCH   6  22
BRANCH   8  24
ATOM     24  O   UNL     1     -33.238 -17.351 -13.209  1.00  0.00    -0.508 OA
ATOM     25  H   UNL     1     -33.082 -17.978 -12.428  1.00  0.00     0.293 HD
ENDBRANCH   8  24
TORSDOF 5
ENDMDL
MODEL 2
REMARK VINA RESULT:    -6.554      4.051      6.061
REMARK INTER + INTRA:          -7.969
REMARK INTER:                  -8.411
REMARK INTRA:                   0.442
REMARK UNBOUND:                -0.266
REMARK SMILES O=c1c(O)c(-c2ccc(O)cc2)oc2cc(O)cc(O)c12
REMARK SMILES IDX 5 1 3 2 2 3 1 4 21 5 19 6 18 7 16 8 15 9 14 10 13 11 6 12
REMARK SMILES IDX 7 13 8 14 9 15 12 16 11 17 10 18 4 20 20 22 17 24
REMARK H PARENT 10 19 4 21 20 23 17 25
REMARK Flexibility Score: inf
ROOT
ATOM      1  C   UNL     1     -36.844 -12.888  -7.871  1.00  0.00     0.180 A 
ATOM      2  C   UNL     1     -37.082 -11.808  -7.001  1.00  0.00     0.208 A 
ATOM      3  C   UNL     1     -36.409 -10.596  -7.224  1.00  0.00     0.238 A 
ATOM      4  O   UNL     1     -36.666  -9.617  -6.476  1.00  0.00    -0.285 OA
ATOM      5  C   UNL     1     -35.498 -10.483  -8.302  1.00  0.00     0.111 A 
ATOM      6  C   UNL     1     -34.732  -9.314  -8.596  1.00  0.00     0.134 A 
ATOM      7  C   UNL     1     -33.960  -9.271  -9.764  1.00  0.00     0.093 A 
ATOM      8  C   UNL     1     -33.875 -10.377 -10.612  1.00  0.00     0.123 A 
ATOM      9  C   UNL     1     -34.572 -11.543 -10.301  1.00  0.00     0.094 A 
ATOM     10  C   UNL     1     -35.379 -11.604  -9.163  1.00  0.00     0.146 A 
ATOM     11  O   UNL     1     -36.034 -12.730  -8.910  1.00  0.00    -0.452 OA
ENDROOT
BRANCH   1  12
ATOM     12  C   UNL     1     -37.496 -14.205  -7.686  1.00  0.00     0.021 A 
ATOM     13  C   UNL     1     -36.933 -15.345  -8.285  1.00  0.00     0.016 A 
ATOM     14  C   UNL     1     -37.519 -16.601  -8.105  1.00  0.00     0.047 A 
ATOM     15  C   UNL     1     -38.665 -16.737  -7.311  1.00  0.00     0.115 A 
ATOM     16  C   UNL     1     -38.635 -14.352  -6.873  1.00  0.00     0.016 A 
ATOM     17  C   UNL     1     -39.218 -15.610  -6.694  1.00  0.00     0.047 A 
BRANCH  15  18
ATOM     18  O   UNL     1     -39.258 -17.984  -7.125  1.00  0.00    -0.508 OA
ATOM     19  H   UNL     1     -39.056 -18.550  -6.309  1.00  0.00     0.293 HD
ENDBRANCH  15  18
ENDBRANCH   1  12
BRANCH   2  20
ATOM     20  O   UNL     1     -38.001 -11.934  -5.957  1.00  0.00    -0.502 OA
ATOM     21  H   UNL     1     -38.119 -11.223  -5.247  1.00  0.00     0.293 HD
ENDBRANCH   2  20
BRANCH   6  22
ATOM     22  O   UNL     1     -34.674  -8.189  -7.767  1.00  0.00    -0.507 OA
ATOM     23  H   UNL     1     -34.082  -7.389  -7.925  1.00  0.00     0.293 HD
ENDBRANCH   6  22
BRANCH   8  24
ATOM     24  O   UNL     1     -33.092 -10.331 -11.763  1.00  0.00    -0.508 OA
ATOM     25  H   UNL     1     -32.652  -9.471 -12.071  1.00  0.00     0.293 HD
ENDBRANCH   8  24
TORSDOF 5
ENDMDL
MODEL 3
REMARK VINA RESULT:    -6.492      1.655      3.096
REMARK INTER + INTRA:          -7.897
REMARK INTER:                  -7.608
REMARK INTRA:                  -0.289
REMARK UNBOUND:                -0.266
REMARK SMILES O=c1c(O)c(-c2ccc(O)cc2)oc2cc(O)cc(O)c12
REMARK SMILES IDX 5 1 3 2 2 3 1 4 21 5 19 6 18 7 16 8 15 9 14 10 13 11 6 12
REMARK SMILES IDX 7 13 8 14 9 15 12 16 11 17 10 18 4 20 20 22 17 24
REMARK H PARENT 10 19 4 21 20 23 17 25
REMARK Flexibility Score: inf
ROOT
ATOM      1  C   UNL     1     -36.085 -14.587 -10.650  1.00  0.00     0.180 A 
ATOM      2  C   UNL     1     -34.750 -15.015 -10.763  1.00  0.00     0.208 A 
ATOM      3  C   UNL     1     -34.356 -15.716 -11.914  1.00  0.00     0.238 A 
ATOM      4  O   UNL     1     -33.148 -16.049 -12.034  1.00  0.00    -0.285 OA
ATOM      5  C   UNL     1     -35.303 -15.994 -12.928  1.00  0.00     0.111 A 
ATOM      6  C   UNL     1     -35.022 -16.732 -14.119  1.00  0.00     0.134 A 
ATOM      7  C   UNL     1     -36.001 -16.835 -15.114  1.00  0.00     0.093 A 
ATOM      8  C   UNL     1     -37.272 -16.283 -14.934  1.00  0.00     0.123 A 
ATOM      9  C   UNL     1     -37.574 -15.612 -13.751  1.00  0.00     0.094 A 
ATOM     10  C   UNL     1     -36.606 -15.462 -12.755  1.00  0.00     0.146 A 
ATOM     11  O   UNL     1     -36.932 -14.807 -11.648  1.00  0.00    -0.452 OA
ENDROOT
BRANCH   1  12
ATOM     12  C   UNL     1     -36.582 -13.866  -9.457  1.00  0.00     0.021 A 
ATOM     13  C   UNL     1     -37.094 -14.596  -8.370  1.00  0.00     0.016 A 
ATOM     14  C   UNL     1     -37.548 -13.936  -7.224  1.00  0.00     0.047 A 
ATOM     15  C   UNL     1     -37.482 -12.538  -7.144  1.00  0.00     0.115 A 
ATOM     16  C   UNL     1     -36.500 -12.465  -9.360  1.00  0.00     0.016 A 
ATOM     17  C   UNL     1     -36.954 -11.807  -8.212  1.00  0.00     0.047 A 
BRANCH  15  18
ATOM     18  O   UNL     1     -37.931 -11.870  -6.007  1.00  0.00    -0.508 OA
ATOM     19  H   UNL     1     -37.317 -11.686  -5.223  1.00  0.00     0.293 HD
ENDBRANCH  15  18
ENDBRANCH   1  12
BRANCH   2  20
ATOM     20  O   UNL     1     -33.827 -14.711  -9.760  1.00  0.00    -0.502 OA
ATOM     21  H   UNL     1     -33.902 -13.882  -9.184  1.00  0.00     0.293 HD
ENDBRANCH   2  20
BRANCH   6  22
ATOM     22  O   UNL     1     -33.817 -17.401 -14.356  1.00  0.00    -0.507 OA
ATOM     23  H   UNL     1     -33.102 -17.562 -13.663  1.00  0.00     0.293 HD
ENDBRANCH   6  22
BRANCH   8  24
ATOM     24  O   UNL     1     -38.245 -16.403 -15.924  1.00  0.00    -0.508 OA
ATOM     25  H   UNL     1     -38.055 -16.152 -16.887  1.00  0.00     0.293 HD
ENDBRANCH   8  24
TORSDOF 5
ENDMDL
MODEL 4
REMARK VINA RESULT:    -6.303     10.192     13.486
REMARK INTER + INTRA:          -7.674
REMARK INTER:                  -7.398
REMARK INTRA:                  -0.276
REMARK UNBOUND:                -0.266
REMARK SMILES O=c1c(O)c(-c2ccc(O)cc2)oc2cc(O)cc(O)c12
REMARK SMILES IDX 5 1 3 2 2 3 1 4 21 5 19 6 18 7 16 8 15 9 14 10 13 11 6 12
REMARK SMILES IDX 7 13 8 14 9 15 12 16 11 17 10 18 4 20 20 22 17 24
REMARK H PARENT 10 19 4 21 20 23 17 25
REMARK Flexibility Score: inf
ROOT
ATOM      1  C   UNL     1     -28.418 -13.782  -3.095  1.00  0.00     0.180 A 
ATOM      2  C   UNL     1     -29.482 -12.900  -2.832  1.00  0.00     0.208 A 
ATOM      3  C   UNL     1     -29.322 -11.918  -1.841  1.00  0.00     0.238 A 
ATOM      4  O   UNL     1     -30.257 -11.098  -1.648  1.00  0.00    -0.285 OA
ATOM      5  C   UNL     1     -28.109 -11.840  -1.116  1.00  0.00     0.111 A 
ATOM      6  C   UNL     1     -27.853 -10.910  -0.062  1.00  0.00     0.134 A 
ATOM      7  C   UNL     1     -26.572 -10.837   0.498  1.00  0.00     0.093 A 
ATOM      8  C   UNL     1     -25.556 -11.704   0.088  1.00  0.00     0.123 A 
ATOM      9  C   UNL     1     -25.813 -12.654  -0.898  1.00  0.00     0.094 A 
ATOM     10  C   UNL     1     -27.072 -12.728  -1.501  1.00  0.00     0.146 A 
ATOM     11  O   UNL     1     -27.271 -13.641  -2.443  1.00  0.00    -0.452 OA
ENDROOT
BRANCH   1  12
ATOM     12  C   UNL     1     -28.520 -14.859  -4.106  1.00  0.00     0.021 A 
ATOM     13  C   UNL     1     -28.239 -14.572  -5.453  1.00  0.00     0.016 A 
ATOM     14  C   UNL     1     -28.307 -15.578  -6.420  1.00  0.00     0.047 A 
ATOM     15  C   UNL     1     -28.642 -16.888  -6.052  1.00  0.00     0.115 A 
ATOM     16  C   UNL     1     -28.836 -16.180  -3.741  1.00  0.00     0.016 A 
ATOM     17  C   UNL     1     -28.902 -17.185  -4.711  1.00  0.00     0.047 A 
BRANCH  15  18
ATOM     18  O   UNL     1     -28.714 -17.899  -7.007  1.00  0.00    -0.508 OA
ATOM     19  H   UNL     1     -28.289 -18.806  -6.853  1.00  0.00     0.293 HD
ENDBRANCH  15  18
ENDBRANCH   1  12
BRANCH   2  20
ATOM     20  O   UNL     1     -30.662 -12.981  -3.575  1.00  0.00    -0.502 OA
ATOM     21  H   UNL     1     -31.576 -13.026  -3.142  1.00  0.00     0.293 HD
ENDBRANCH   2  20
BRANCH   6  22
ATOM     22  O   UNL     1     -28.823 -10.064   0.484  1.00  0.00    -0.507 OA
ATOM     23  H   UNL     1     -29.779 -10.327   0.666  1.00  0.00     0.293 HD
ENDBRANCH   6  22
BRANCH   8  24
ATOM     24  O   UNL     1     -24.288 -11.634   0.661  1.00  0.00    -0.508 OA
ATOM     25  H   UNL     1     -23.977 -10.809   1.161  1.00  0.00     0.293 HD
ENDBRANCH   8  24
TORSDOF 5
ENDMDL
MODEL 5
REMARK VINA RESULT:    -6.191      1.812      6.796
REMARK INTER + INTRA:          -7.543
REMARK INTER:                  -7.296
REMARK INTRA:                  -0.247
REMARK UNBOUND:                -0.266
REMARK SMILES O=c1c(O)c(-c2ccc(O)cc2)oc2cc(O)cc(O)c12
REMARK SMILES IDX 5 1 3 2 2 3 1 4 21 5 19 6 18 7 16 8 15 9 14 10 13 11 6 12
REMARK SMILES IDX 7 13 8 14 9 15 12 16 11 17 10 18 4 20 20 22 17 24
REMARK H PARENT 10 19 4 21 20 23 17 25
REMARK Flexibility Score: inf
ROOT
ATOM      1  C   UNL     1     -36.002 -13.400 -11.306  1.00  0.00     0.180 A 
ATOM      2  C   UNL     1     -34.991 -12.434 -11.463  1.00  0.00     0.208 A 
ATOM      3  C   UNL     1     -34.812 -11.469 -10.460  1.00  0.00     0.238 A 
ATOM      4  O   UNL     1     -33.872 -10.641 -10.579  1.00  0.00    -0.285 OA
ATOM      5  C   UNL     1     -35.654 -11.471  -9.321  1.00  0.00     0.111 A 
ATOM      6  C   UNL     1     -35.587 -10.514  -8.262  1.00  0.00     0.134 A 
ATOM      7  C   UNL     1     -36.383 -10.689  -7.123  1.00  0.00     0.093 A 
ATOM      8  C   UNL     1     -37.288 -11.749  -7.033  1.00  0.00     0.123 A 
ATOM      9  C   UNL     1     -37.403 -12.653  -8.087  1.00  0.00     0.094 A 
ATOM     10  C   UNL     1     -36.597 -12.525  -9.222  1.00  0.00     0.146 A 
ATOM     11  O   UNL     1     -36.731 -13.414 -10.198  1.00  0.00    -0.452 OA
ENDROOT
BRANCH   1  12
ATOM     12  C   UNL     1     -36.268 -14.434 -12.332  1.00  0.00     0.021 A 
ATOM     13  C   UNL     1     -37.332 -14.256 -13.234  1.00  0.00     0.016 A 
ATOM     14  C   UNL     1     -37.587 -15.208 -14.225  1.00  0.00     0.047 A 
ATOM     15  C   UNL     1     -36.774 -16.344 -14.336  1.00  0.00     0.115 A 
ATOM     16  C   UNL     1     -35.444 -15.566 -12.464  1.00  0.00     0.016 A 
ATOM     17  C   UNL     1     -35.701 -16.517 -13.456  1.00  0.00     0.047 A 
BRANCH  15  18
ATOM     18  O   UNL     1     -37.019 -17.300 -15.319  1.00  0.00    -0.508 OA
ATOM     19  H   UNL     1     -37.053 -17.053 -16.302  1.00  0.00     0.293 HD
ENDBRANCH  15  18
ENDBRANCH   1  12
BRANCH   2  20
ATOM     20  O   UNL     1     -34.158 -12.464 -12.584  1.00  0.00    -0.502 OA
ATOM     21  H   UNL     1     -33.549 -13.246 -12.789  1.00  0.00     0.293 HD
ENDBRANCH   2  20
BRANCH   6  22
ATOM     22  O   UNL     1     -34.784  -9.370  -8.293  1.00  0.00    -0.507 OA
ATOM     23  H   UNL     1     -33.781  -9.369  -8.189  1.00  0.00     0.293 HD
ENDBRANCH   6  22
BRANCH   8  24
ATOM     24  O   UNL     1     -38.087 -11.907  -5.903  1.00  0.00    -0.508 OA
ATOM     25  H   UNL     1     -38.611 -12.759  -5.740  1.00  0.00     0.293 HD
ENDBRANCH   8  24
TORSDOF 5
ENDMDL
MODEL 6
REMARK VINA RESULT:    -6.169      3.103      7.241
REMARK INTER + INTRA:          -7.518
REMARK INTER:                  -7.262
REMARK INTRA:                  -0.256
REMARK UNBOUND:                -0.266
REMARK SMILES O=c1c(O)c(-c2ccc(O)cc2)oc2cc(O)cc(O)c12
REMARK SMILES IDX 5 1 3 2 2 3 1 4 21 5 19 6 18 7 16 8 15 9 14 10 13 11 6 12
REMARK SMILES IDX 7 13 8 14 9 15 12 16 11 17 10 18 4 20 20 22 17 24
REMARK H PARENT 10 19 4 21 20 23 17 25
REMARK Flexibility Score: inf
ROOT
ATOM      1  C   UNL     1     -35.563 -11.530  -9.266  1.00  0.00     0.180 A 
ATOM      2  C   UNL     1     -36.258 -11.211  -8.085  1.00  0.00     0.208 A 
ATOM      3  C   UNL     1     -35.963 -10.008  -7.426  1.00  0.00     0.238 A 
ATOM      4  O   UNL     1     -36.626  -9.702  -6.401  1.00  0.00    -0.285 OA
ATOM      5  C   UNL     1     -34.968  -9.145  -7.945  1.00  0.00     0.111 A 
ATOM      6  C   UNL     1     -34.560  -7.919  -7.337  1.00  0.00     0.134 A 
ATOM      7  C   UNL     1     -33.658  -7.083  -8.007  1.00  0.00     0.093 A 
ATOM      8  C   UNL     1     -33.101  -7.459  -9.231  1.00  0.00     0.123 A 
ATOM      9  C   UNL     1     -33.447  -8.681  -9.804  1.00  0.00     0.094 A 
ATOM     10  C   UNL     1     -34.372  -9.520  -9.177  1.00  0.00     0.146 A 
ATOM     11  O   UNL     1     -34.682 -10.670  -9.762  1.00  0.00    -0.452 OA
ENDROOT
BRANCH   1  12
ATOM     12  C   UNL     1     -35.800 -12.792 -10.002  1.00  0.00     0.021 A 
ATOM     13  C   UNL     1     -36.514 -12.763 -11.213  1.00  0.00     0.016 A 
ATOM     14  C   UNL     1     -36.729 -13.939 -11.937  1.00  0.00     0.047 A 
ATOM     15  C   UNL     1     -36.222 -15.158 -11.467  1.00  0.00     0.115 A 
ATOM     16  C   UNL     1     -35.276 -14.016  -9.548  1.00  0.00     0.016 A 
ATOM     17  C   UNL     1     -35.493 -15.191 -10.274  1.00  0.00     0.047 A 
BRANCH  15  18
ATOM     18  O   UNL     1     -36.431 -16.336 -12.179  1.00  0.00    -0.508 OA
ATOM     19  H   UNL     1     -37.281 -16.492 -12.709  1.00  0.00     0.293 HD
ENDBRANCH  15  18
ENDBRANCH   1  12
BRANCH   2  20
ATOM     20  O   UNL     1     -37.252 -12.066  -7.602  1.00  0.00    -0.502 OA
ATOM     21  H   UNL     1     -38.097 -11.724  -7.161  1.00  0.00     0.293 HD
ENDBRANCH   2  20
BRANCH   6  22
ATOM     22  O   UNL     1     -34.986  -7.495  -6.074  1.00  0.00    -0.507 OA
ATOM     23  H   UNL     1     -35.863  -7.750  -5.648  1.00  0.00     0.293 HD
ENDBRANCH   6  22
BRANCH   8  24
ATOM     24  O   UNL     1     -32.193  -6.627  -9.883  1.00  0.00    -0.508 OA
ATOM     25  H   UNL     1     -31.208  -6.625  -9.641  1.00  0.00     0.293 HD
ENDBRANCH   8  24
TORSDOF 5
ENDMDL
MODEL 7
REMARK VINA RESULT:    -6.149      3.681      5.808
REMARK INTER + INTRA:          -7.493
REMARK INTER:                  -7.211
REMARK INTRA:                  -0.282
REMARK UNBOUND:                -0.266
REMARK SMILES O=c1c(O)c(-c2ccc(O)cc2)oc2cc(O)cc(O)c12
REMARK SMILES IDX 5 1 3 2 2 3 1 4 21 5 19 6 18 7 16 8 15 9 14 10 13 11 6 12
REMARK SMILES IDX 7 13 8 14 9 15 12 16 11 17 10 18 4 20 20 22 17 24
REMARK H PARENT 10 19 4 21 20 23 17 25
REMARK Flexibility Score: inf
ROOT
ATOM      1  C   UNL     1     -37.303 -15.076  -7.778  1.00  0.00     0.180 A 
ATOM      2  C   UNL     1     -37.691 -13.891  -7.127  1.00  0.00     0.208 A 
ATOM      3  C   UNL     1     -37.173 -12.667  -7.579  1.00  0.00     0.238 A 
ATOM      4  O   UNL     1     -37.564 -11.605  -7.028  1.00  0.00    -0.285 OA
ATOM      5  C   UNL     1     -36.264 -12.644  -8.665  1.00  0.00     0.111 A 
ATOM      6  C   UNL     1     -35.647 -11.463  -9.180  1.00  0.00     0.134 A 
ATOM      7  C   UNL     1     -34.865 -11.543 -10.339  1.00  0.00     0.093 A 
ATOM      8  C   UNL     1     -34.626 -12.769 -10.963  1.00  0.00     0.123 A 
ATOM      9  C   UNL     1     -35.175 -13.935 -10.434  1.00  0.00     0.094 A 
ATOM     10  C   UNL     1     -35.989 -13.883  -9.299  1.00  0.00     0.146 A 
ATOM     11  O   UNL     1     -36.501 -15.015  -8.833  1.00  0.00    -0.452 OA
ENDROOT
BRANCH   1  12
ATOM     12  C   UNL     1     -37.786 -16.407  -7.343  1.00  0.00     0.021 A 
ATOM     13  C   UNL     1     -37.132 -17.070  -6.291  1.00  0.00     0.016 A 
ATOM     14  C   UNL     1     -37.585 -18.317  -5.850  1.00  0.00     0.047 A 
ATOM     15  C   UNL     1     -38.707 -18.910  -6.444  1.00  0.00     0.115 A 
ATOM     16  C   UNL     1     -38.924 -16.999  -7.921  1.00  0.00     0.016 A 
ATOM     17  C   UNL     1     -39.375 -18.245  -7.477  1.00  0.00     0.047 A 
BRANCH  15  18
ATOM     18  O   UNL     1     -39.166 -20.152  -6.013  1.00  0.00    -0.508 OA
ATOM     19  H   UNL     1     -40.152 -20.326  -5.853  1.00  0.00     0.293 HD
ENDBRANCH  15  18
ENDBRANCH   1  12
BRANCH   2  20
ATOM     20  O   UNL     1     -38.605 -13.935  -6.072  1.00  0.00    -0.502 OA
ATOM     21  H   UNL     1     -38.568 -14.641  -5.348  1.00  0.00     0.293 HD
ENDBRANCH   2  20
BRANCH   6  22
ATOM     22  O   UNL     1     -35.746 -10.205  -8.579  1.00  0.00    -0.507 OA
ATOM     23  H   UNL     1     -35.728 -10.040  -7.584  1.00  0.00     0.293 HD
ENDBRANCH   6  22
BRANCH   8  24
ATOM     24  O   UNL     1     -33.835 -12.841 -12.108  1.00  0.00    -0.508 OA
ATOM     25  H   UNL     1     -32.901 -12.447 -12.132  1.00  0.00     0.293 HD
ENDBRANCH   8  24
TORSDOF 5
ENDMDL
MODEL 8
REMARK VINA RESULT:    -6.139      2.828      7.037
REMARK INTER + INTRA:          -7.481
REMARK INTER:                  -7.202
REMARK INTRA:                  -0.280
REMARK UNBOUND:                -0.266
REMARK SMILES O=c1c(O)c(-c2ccc(O)cc2)oc2cc(O)cc(O)c12
REMARK SMILES IDX 5 1 3 2 2 3 1 4 21 5 19 6 18 7 16 8 15 9 14 10 13 11 6 12
REMARK SMILES IDX 7 13 8 14 9 15 12 16 11 17 10 18 4 20 20 22 17 24
REMARK H PARENT 10 19 4 21 20 23 17 25
REMARK Flexibility Score: inf
ROOT
ATOM      1  C   UNL     1     -36.178 -15.667 -10.363  1.00  0.00     0.180 A 
ATOM      2  C   UNL     1     -35.964 -14.373  -9.854  1.00  0.00     0.208 A 
ATOM      3  C   UNL     1     -36.577 -14.009  -8.645  1.00  0.00     0.238 A 
ATOM      4  O   UNL     1     -36.339 -12.869  -8.167  1.00  0.00    -0.285 OA
ATOM      5  C   UNL     1     -37.407 -14.934  -7.968  1.00  0.00     0.111 A 
ATOM      6  C   UNL     1     -38.110 -14.658  -6.756  1.00  0.00     0.134 A 
ATOM      7  C   UNL     1     -38.798 -15.690  -6.106  1.00  0.00     0.093 A 
ATOM      8  C   UNL     1     -38.862 -16.971  -6.657  1.00  0.00     0.123 A 
ATOM      9  C   UNL     1     -38.229 -17.236  -7.870  1.00  0.00     0.094 A 
ATOM     10  C   UNL     1     -37.505 -16.236  -8.524  1.00  0.00     0.146 A 
ATOM     11  O   UNL     1     -36.908 -16.533  -9.672  1.00  0.00    -0.452 OA
ENDROOT
BRANCH   1  12
ATOM     12  C   UNL     1     -35.587 -16.116 -11.644  1.00  0.00     0.021 A 
ATOM     13  C   UNL     1     -34.454 -16.948 -11.630  1.00  0.00     0.016 A 
ATOM     14  C   UNL     1     -33.894 -17.402 -12.827  1.00  0.00     0.047 A 
ATOM     15  C   UNL     1     -34.468 -17.043 -14.054  1.00  0.00     0.115 A 
ATOM     16  C   UNL     1     -36.170 -15.777 -12.879  1.00  0.00     0.016 A 
ATOM     17  C   UNL     1     -35.607 -16.234 -14.075  1.00  0.00     0.047 A 
BRANCH  15  18
ATOM     18  O   UNL     1     -33.917 -17.489 -15.254  1.00  0.00    -0.508 OA
ATOM     19  H   UNL     1     -34.486 -17.937 -15.963  1.00  0.00     0.293 HD
ENDBRANCH  15  18
ENDBRANCH   1  12
BRANCH   2  20
ATOM     20  O   UNL     1     -35.124 -13.483 -10.527  1.00  0.00    -0.502 OA
ATOM     21  H   UNL     1     -34.182 -13.282 -10.216  1.00  0.00     0.293 HD
ENDBRANCH   2  20
BRANCH   6  22
ATOM     22  O   UNL     1     -38.186 -13.390  -6.170  1.00  0.00    -0.507 OA
ATOM     23  H   UNL     1     -37.546 -13.040  -5.473  1.00  0.00     0.293 HD
ENDBRANCH   6  22
BRANCH   8  24
ATOM     24  O   UNL     1     -39.561 -17.988  -6.011  1.00  0.00    -0.508 OA
ATOM     25  H   UNL     1     -39.080 -18.753  -5.551  1.00  0.00     0.293 HD
ENDBRANCH   8  24
TORSDOF 5
ENDMDL
MODEL 9
REMARK VINA RESULT:    -6.108      1.487      3.133
REMARK INTER + INTRA:          -7.446
REMARK INTER:                  -7.155
REMARK INTRA:                  -0.291
REMARK UNBOUND:                -0.266
REMARK SMILES O=c1c(O)c(-c2ccc(O)cc2)oc2cc(O)cc(O)c12
REMARK SMILES IDX 5 1 3 2 2 3 1 4 21 5 19 6 18 7 16 8 15 9 14 10 13 11 6 12
REMARK SMILES IDX 7 13 8 14 9 15 12 16 11 17 10 18 4 20 20 22 17 24
REMARK H PARENT 10 19 4 21 20 23 17 25
REMARK Flexibility Score: inf
ROOT
ATOM      1  C   UNL     1     -36.288 -13.340 -10.411  1.00  0.00     0.180 A 
ATOM      2  C   UNL     1     -35.657 -14.587 -10.250  1.00  0.00     0.208 A 
ATOM      3  C   UNL     1     -35.658 -15.492 -11.323  1.00  0.00     0.238 A 
ATOM      4  O   UNL     1     -35.046 -16.584 -11.192  1.00  0.00    -0.285 OA
ATOM      5  C   UNL     1     -36.301 -15.147 -12.536  1.00  0.00     0.111 A 
ATOM      6  C   UNL     1     -36.398 -16.004 -13.675  1.00  0.00     0.134 A 
ATOM      7  C   UNL     1     -36.944 -15.510 -14.866  1.00  0.00     0.093 A 
ATOM      8  C   UNL     1     -37.456 -14.212 -14.940  1.00  0.00     0.123 A 
ATOM      9  C   UNL     1     -37.420 -13.389 -13.817  1.00  0.00     0.094 A 
ATOM     10  C   UNL     1     -36.849 -13.841 -12.624  1.00  0.00     0.146 A 
ATOM     11  O   UNL     1     -36.826 -13.021 -11.581  1.00  0.00    -0.452 OA
ENDROOT
BRANCH   1  12
ATOM     12  C   UNL     1     -36.352 -12.344  -9.317  1.00  0.00     0.021 A 
ATOM     13  C   UNL     1     -35.321 -11.397  -9.183  1.00  0.00     0.016 A 
ATOM     14  C   UNL     1     -35.372 -10.433  -8.173  1.00  0.00     0.047 A 
ATOM     15  C   UNL     1     -36.461 -10.393  -7.291  1.00  0.00     0.115 A 
ATOM     16  C   UNL     1     -37.451 -12.284  -8.442  1.00  0.00     0.016 A 
ATOM     17  C   UNL     1     -37.500 -11.318  -7.432  1.00  0.00     0.047 A 
BRANCH  15  18
ATOM     18  O   UNL     1     -36.522  -9.438  -6.280  1.00  0.00    -0.508 OA
ATOM     19  H   UNL     1     -35.689  -8.968  -5.943  1.00  0.00     0.293 HD
ENDBRANCH  15  18
ENDBRANCH   1  12
BRANCH   2  20
ATOM     20  O   UNL     1     -35.010 -14.898  -9.052  1.00  0.00    -0.502 OA
ATOM     21  H   UNL     1     -35.513 -15.082  -8.193  1.00  0.00     0.293 HD
ENDBRANCH   2  20
BRANCH   6  22
ATOM     22  O   UNL     1     -36.001 -17.345 -13.678  1.00  0.00    -0.507 OA
ATOM     23  H   UNL     1     -35.883 -17.907 -14.507  1.00  0.00     0.293 HD
ENDBRANCH   6  22
BRANCH   8  24
ATOM     24  O   UNL     1     -38.010 -13.734 -16.125  1.00  0.00    -0.508 OA
ATOM     25  H   UNL     1     -38.776 -14.215 -16.583  1.00  0.00     0.293 HD
ENDBRANCH   8  24
TORSDOF 5
ENDMDL
