MODEL 1
REMARK VINA RESULT:    -4.085      0.000      0.000
REMARK INTER + INTRA:          -9.525
REMARK INTER:                  -7.667
REMARK INTRA:                  -1.858
REMARK UNBOUND:                -1.858
REMARK SMILES CCCCCCCCC=CCCCCCCCC(=O)[O-]
REMARK SMILES IDX 10 1 9 2 11 3 12 4 13 5 14 6 15 7 16 8 17 9 18 10 19 11
REMARK SMILES IDX 20 12 8 13 7 14 6 15 5 16 4 17 3 18 2 19 1 20
REMARK H PARENT
REMARK Flexibility Score: inf
ROOT
ATOM      1  C   UNL     1      40.262  23.328 221.849  1.00  0.00    -0.031 C 
ATOM      2  C   UNL     1      39.085  23.923 222.121  1.00  0.00    -0.031 C 
ENDROOT
BRANCH   1   3
ATOM      3  C   UNL     1      41.323  23.013 222.876  1.00  0.00     0.027 C 
BRANCH   3   4
ATOM      4  C   UNL     1      41.420  21.506 223.154  1.00  0.00     0.004 C 
BRANCH   4   5
ATOM      5  C   UNL     1      40.036  20.851 223.285  1.00  0.00     0.000 C 
BRANCH   5   6
ATOM      6  C   UNL     1      39.558  20.744 224.745  1.00  0.00     0.000 C 
BRANCH   6   7
ATOM      7  C   UNL     1      38.309  19.870 224.960  1.00  0.00     0.000 C 
BRANCH   7   8
ATOM      8  C   UNL     1      38.548  18.387 224.628  1.00  0.00     0.006 C 
BRANCH   8   9
ATOM      9  C   UNL     1      38.925  17.569 225.870  1.00  0.00     0.053 C 
BRANCH   9  10
ATOM     10  C   UNL     1      37.799  17.503 226.855  1.00  0.00     0.041 C 
ATOM     11  O   UNL     1      36.687  17.018 226.518  1.00  0.00    -0.550 OA
ATOM     12  O   UNL     1      37.970  18.004 228.140  1.00  0.00    -0.550 OA
ENDBRANCH   9  10
ENDBRANCH   8   9
ENDBRANCH   7   8
ENDBRANCH   6   7
ENDBRANCH   5   6
ENDBRANCH   4   5
ENDBRANCH   3   4
ENDBRANCH   1   3
BRANCH   2  13
ATOM     13  C   UNL     1      38.687  24.454 223.474  1.00  0.00     0.027 C 
BRANCH  13  14
ATOM     14  C   UNL     1      37.398  23.781 223.961  1.00  0.00     0.004 C 
BRANCH  14  15
ATOM     15  C   UNL     1      36.713  23.016 222.823  1.00  0.00     0.000 C 
BRANCH  15  16
ATOM     16  C   UNL     1      35.505  23.796 222.286  1.00  0.00     0.000 C 
BRANCH  16  17
ATOM     17  C   UNL     1      35.819  24.569 220.992  1.00  0.00    -0.000 C 
BRANCH  17  18
ATOM     18  C   UNL     1      35.235  23.953 219.704  1.00  0.00    -0.000 C 
BRANCH  18  19
ATOM     19  C   UNL     1      36.201  23.915 218.507  1.00  0.00    -0.003 C 
ATOM     20  C   UNL     1      37.429  23.041 218.761  1.00  0.00     0.004 C 
ENDBRANCH  18  19
ENDBRANCH  17  18
ENDBRANCH  16  17
ENDBRANCH  15  16
ENDBRANCH  14  15
ENDBRANCH  13  14
ENDBRANCH   2  13
TORSDOF 15
ENDMDL
MODEL 2
REMARK VINA RESULT:    -4.035      3.875      6.822
REMARK INTER + INTRA:          -9.432
REMARK INTER:                  -6.408
REMARK INTRA:                  -3.024
REMARK UNBOUND:                -1.858
REMARK SMILES CCCCCCCCC=CCCCCCCCC(=O)[O-]
REMARK SMILES IDX 10 1 9 2 11 3 12 4 13 5 14 6 15 7 16 8 17 9 18 10 19 11
REMARK SMILES IDX 20 12 8 13 7 14 6 15 5 16 4 17 3 18 2 19 1 20
REMARK H PARENT
REMARK Flexibility Score: inf
ROOT
ATOM      1  C   UNL     1      39.294  24.270 226.326  1.00  0.00    -0.031 C 
ATOM      2  C   UNL     1      38.971  22.972 226.177  1.00  0.00    -0.031 C 
ENDROOT
BRANCH   1   3
ATOM      3  C   UNL     1      38.445  25.426 225.855  1.00  0.00     0.027 C 
BRANCH   3   4
ATOM      4  C   UNL     1      38.963  26.015 224.535  1.00  0.00     0.004 C 
BRANCH   4   5
ATOM      5  C   UNL     1      37.942  25.867 223.395  1.00  0.00     0.000 C 
BRANCH   5   6
ATOM      6  C   UNL     1      36.559  25.399 223.884  1.00  0.00     0.000 C 
BRANCH   6   7
ATOM      7  C   UNL     1      35.853  24.382 222.969  1.00  0.00     0.000 C 
BRANCH   7   8
ATOM      8  C   UNL     1      36.082  24.660 221.473  1.00  0.00     0.006 C 
BRANCH   8   9
ATOM      9  C   UNL     1      36.623  23.429 220.732  1.00  0.00     0.053 C 
BRANCH   9  10
ATOM     10  C   UNL     1      36.452  23.554 219.249  1.00  0.00     0.041 C 
ATOM     11  O   UNL     1      37.376  23.198 218.471  1.00  0.00    -0.550 OA
ATOM     12  O   UNL     1      35.281  24.091 218.727  1.00  0.00    -0.550 OA
ENDBRANCH   9  10
ENDBRANCH   8   9
ENDBRANCH   7   8
ENDBRANCH   6   7
ENDBRANCH   5   6
ENDBRANCH   4   5
ENDBRANCH   3   4
ENDBRANCH   1   3
BRANCH   2  13
ATOM     13  C   UNL     1      37.761  22.471 225.430  1.00  0.00     0.027 C 
BRANCH  13  14
ATOM     14  C   UNL     1      38.165  21.429 224.382  1.00  0.00     0.004 C 
BRANCH  14  15
ATOM     15  C   UNL     1      39.607  21.655 223.909  1.00  0.00     0.000 C 
BRANCH  15  16
ATOM     16  C   UNL     1      39.645  22.586 222.689  1.00  0.00     0.000 C 
BRANCH  16  17
ATOM     17  C   UNL     1      40.882  23.503 222.676  1.00  0.00    -0.000 C 
BRANCH  17  18
ATOM     18  C   UNL     1      41.855  23.306 223.856  1.00  0.00    -0.000 C 
BRANCH  18  19
ATOM     19  C   UNL     1      42.434  24.604 224.444  1.00  0.00    -0.003 C 
ATOM     20  C   UNL     1      43.423  24.353 225.582  1.00  0.00     0.004 C 
ENDBRANCH  18  19
ENDBRANCH  17  18
ENDBRANCH  16  17
ENDBRANCH  15  16
ENDBRANCH  14  15
ENDBRANCH  13  14
ENDBRANCH   2  13
TORSDOF 15
ENDMDL
MODEL 3
REMARK VINA RESULT:    -3.972      1.059      1.781
REMARK INTER + INTRA:          -9.313
REMARK INTER:                  -7.300
REMARK INTRA:                  -2.013
REMARK UNBOUND:                -1.858
REMARK SMILES CCCCCCCCC=CCCCCCCCC(=O)[O-]
REMARK SMILES IDX 10 1 9 2 11 3 12 4 13 5 14 6 15 7 16 8 17 9 18 10 19 11
REMARK SMILES IDX 20 12 8 13 7 14 6 15 5 16 4 17 3 18 2 19 1 20
REMARK H PARENT
REMARK Flexibility Score: inf
ROOT
ATOM      1  C   UNL     1      41.525  23.524 224.489  1.00  0.00    -0.031 C 
ATOM      2  C   UNL     1      40.736  23.998 223.506  1.00  0.00    -0.031 C 
ENDROOT
BRANCH   1   3
ATOM      3  C   UNL     1      42.530  22.410 224.321  1.00  0.00     0.027 C 
BRANCH   3   4
ATOM      4  C   UNL     1      42.024  21.089 224.918  1.00  0.00     0.004 C 
BRANCH   4   5
ATOM      5  C   UNL     1      41.525  20.117 223.836  1.00  0.00     0.000 C 
BRANCH   5   6
ATOM      6  C   UNL     1      40.003  20.190 223.618  1.00  0.00     0.000 C 
BRANCH   6   7
ATOM      7  C   UNL     1      39.192  20.668 224.837  1.00  0.00     0.000 C 
BRANCH   7   8
ATOM      8  C   UNL     1      38.830  19.526 225.802  1.00  0.00     0.006 C 
BRANCH   8   9
ATOM      9  C   UNL     1      37.741  18.608 225.231  1.00  0.00     0.053 C 
BRANCH   9  10
ATOM     10  C   UNL     1      37.087  17.788 226.301  1.00  0.00     0.041 C 
ATOM     11  O   UNL     1      36.073  17.091 226.036  1.00  0.00    -0.550 OA
ATOM     12  O   UNL     1      37.582  17.818 227.599  1.00  0.00    -0.550 OA
ENDBRANCH   9  10
ENDBRANCH   8   9
ENDBRANCH   7   8
ENDBRANCH   6   7
ENDBRANCH   5   6
ENDBRANCH   4   5
ENDBRANCH   3   4
ENDBRANCH   1   3
BRANCH   2  13
ATOM     13  C   UNL     1      40.665  23.426 222.114  1.00  0.00     0.027 C 
BRANCH  13  14
ATOM     14  C   UNL     1      39.266  23.623 221.519  1.00  0.00     0.004 C 
BRANCH  14  15
ATOM     15  C   UNL     1      38.214  23.774 222.625  1.00  0.00     0.000 C 
BRANCH  15  16
ATOM     16  C   UNL     1      37.117  22.708 222.488  1.00  0.00     0.000 C 
BRANCH  16  17
ATOM     17  C   UNL     1      35.825  23.257 221.857  1.00  0.00    -0.000 C 
BRANCH  17  18
ATOM     18  C   UNL     1      36.030  24.375 220.815  1.00  0.00    -0.000 C 
BRANCH  18  19
ATOM     19  C   UNL     1      35.761  23.961 219.357  1.00  0.00    -0.003 C 
ATOM     20  C   UNL     1      36.972  23.310 218.690  1.00  0.00     0.004 C 
ENDBRANCH  18  19
ENDBRANCH  17  18
ENDBRANCH  16  17
ENDBRANCH  15  16
ENDBRANCH  14  15
ENDBRANCH  13  14
ENDBRANCH   2  13
TORSDOF 15
ENDMDL
MODEL 4
REMARK VINA RESULT:    -3.970      3.527      6.810
REMARK INTER + INTRA:          -9.310
REMARK INTER:                  -6.349
REMARK INTRA:                  -2.961
REMARK UNBOUND:                -1.858
REMARK SMILES CCCCCCCCC=CCCCCCCCC(=O)[O-]
REMARK SMILES IDX 10 1 9 2 11 3 12 4 13 5 14 6 15 7 16 8 17 9 18 10 19 11
REMARK SMILES IDX 20 12 8 13 7 14 6 15 5 16 4 17 3 18 2 19 1 20
REMARK H PARENT
REMARK Flexibility Score: inf
ROOT
ATOM      1  C   UNL     1      42.879  21.541 223.230  1.00  0.00    -0.031 C 
ATOM      2  C   UNL     1      43.196  20.423 223.911  1.00  0.00    -0.031 C 
ENDROOT
BRANCH   1   3
ATOM      3  C   UNL     1      41.683  21.681 222.320  1.00  0.00     0.027 C 
BRANCH   3   4
ATOM      4  C   UNL     1      41.069  23.087 222.395  1.00  0.00     0.004 C 
BRANCH   4   5
ATOM      5  C   UNL     1      39.664  23.140 221.774  1.00  0.00     0.000 C 
BRANCH   5   6
ATOM      6  C   UNL     1      38.724  24.121 222.498  1.00  0.00     0.000 C 
BRANCH   6   7
ATOM      7  C   UNL     1      37.511  23.471 223.190  1.00  0.00     0.000 C 
BRANCH   7   8
ATOM      8  C   UNL     1      36.506  22.865 222.196  1.00  0.00     0.006 C 
BRANCH   8   9
ATOM      9  C   UNL     1      35.787  23.941 221.371  1.00  0.00     0.053 C 
BRANCH   9  10
ATOM     10  C   UNL     1      36.067  23.798 219.906  1.00  0.00     0.041 C 
ATOM     11  O   UNL     1      37.075  23.156 219.511  1.00  0.00    -0.550 OA
ATOM     12  O   UNL     1      35.227  24.400 218.977  1.00  0.00    -0.550 OA
ENDBRANCH   9  10
ENDBRANCH   8   9
ENDBRANCH   7   8
ENDBRANCH   6   7
ENDBRANCH   5   6
ENDBRANCH   4   5
ENDBRANCH   3   4
ENDBRANCH   1   3
BRANCH   2  13
ATOM     13  C   UNL     1      42.462  19.112 223.794  1.00  0.00     0.027 C 
BRANCH  13  14
ATOM     14  C   UNL     1      42.029  18.609 225.175  1.00  0.00     0.004 C 
BRANCH  14  15
ATOM     15  C   UNL     1      40.509  18.418 225.239  1.00  0.00     0.000 C 
BRANCH  15  16
ATOM     16  C   UNL     1      39.826  19.028 224.007  1.00  0.00     0.000 C 
BRANCH  16  17
ATOM     17  C   UNL     1      38.896  20.203 224.360  1.00  0.00    -0.000 C 
BRANCH  17  18
ATOM     18  C   UNL     1      39.157  20.855 225.732  1.00  0.00    -0.000 C 
BRANCH  18  19
ATOM     19  C   UNL     1      39.991  22.148 225.690  1.00  0.00    -0.003 C 
ATOM     20  C   UNL     1      41.232  22.085 226.580  1.00  0.00     0.004 C 
ENDBRANCH  18  19
ENDBRANCH  17  18
ENDBRANCH  16  17
ENDBRANCH  15  16
ENDBRANCH  14  15
ENDBRANCH  13  14
ENDBRANCH   2  13
TORSDOF 15
ENDMDL
MODEL 5
REMARK VINA RESULT:    -3.927      3.934      7.122
REMARK INTER + INTRA:          -9.230
REMARK INTER:                  -6.844
REMARK INTRA:                  -2.385
REMARK UNBOUND:                -1.858
REMARK SMILES CCCCCCCCC=CCCCCCCCC(=O)[O-]
REMARK SMILES IDX 10 1 9 2 11 3 12 4 13 5 14 6 15 7 16 8 17 9 18 10 19 11
REMARK SMILES IDX 20 12 8 13 7 14 6 15 5 16 4 17 3 18 2 19 1 20
REMARK H PARENT
REMARK Flexibility Score: inf
ROOT
ATOM      1  C   UNL     1      39.621  23.696 221.758  1.00  0.00    -0.031 C 
ATOM      2  C   UNL     1      40.048  22.421 221.688  1.00  0.00    -0.031 C 
ENDROOT
BRANCH   1   3
ATOM      3  C   UNL     1      39.939  24.647 222.886  1.00  0.00     0.027 C 
BRANCH   3   4
ATOM      4  C   UNL     1      38.725  24.877 223.799  1.00  0.00     0.004 C 
BRANCH   4   5
ATOM      5  C   UNL     1      37.694  25.823 223.163  1.00  0.00     0.000 C 
BRANCH   5   6
ATOM      6  C   UNL     1      36.286  25.207 223.078  1.00  0.00     0.000 C 
BRANCH   6   7
ATOM      7  C   UNL     1      36.253  23.680 222.878  1.00  0.00     0.000 C 
BRANCH   7   8
ATOM      8  C   UNL     1      35.887  23.270 221.441  1.00  0.00     0.006 C 
BRANCH   8   9
ATOM      9  C   UNL     1      35.902  24.464 220.477  1.00  0.00     0.053 C 
BRANCH   9  10
ATOM     10  C   UNL     1      35.495  24.065 219.092  1.00  0.00     0.041 C 
ATOM     11  O   UNL     1      34.285  24.109 218.748  1.00  0.00    -0.550 OA
ATOM     12  O   UNL     1      36.451  23.616 218.189  1.00  0.00    -0.550 OA
ENDBRANCH   9  10
ENDBRANCH   8   9
ENDBRANCH   7   8
ENDBRANCH   6   7
ENDBRANCH   5   6
ENDBRANCH   4   5
ENDBRANCH   3   4
ENDBRANCH   1   3
BRANCH   2  13
ATOM     13  C   UNL     1      40.825  21.717 222.771  1.00  0.00     0.027 C 
BRANCH  13  14
ATOM     14  C   UNL     1      39.936  20.709 223.507  1.00  0.00     0.004 C 
BRANCH  14  15
ATOM     15  C   UNL     1      39.182  21.380 224.661  1.00  0.00     0.000 C 
BRANCH  15  16
ATOM     16  C   UNL     1      40.036  21.401 225.937  1.00  0.00     0.000 C 
BRANCH  16  17
ATOM     17  C   UNL     1      40.565  22.805 226.281  1.00  0.00    -0.000 C 
BRANCH  17  18
ATOM     18  C   UNL     1      42.096  22.910 226.423  1.00  0.00    -0.000 C 
BRANCH  18  19
ATOM     19  C   UNL     1      42.869  21.619 226.103  1.00  0.00    -0.003 C 
ATOM     20  C   UNL     1      43.833  21.777 224.928  1.00  0.00     0.004 C 
ENDBRANCH  18  19
ENDBRANCH  17  18
ENDBRANCH  16  17
ENDBRANCH  15  16
ENDBRANCH  14  15
ENDBRANCH  13  14
ENDBRANCH   2  13
TORSDOF 15
ENDMDL
MODEL 6
REMARK VINA RESULT:    -3.913      3.196      7.045
REMARK INTER + INTRA:          -9.202
REMARK INTER:                  -6.849
REMARK INTRA:                  -2.353
REMARK UNBOUND:                -1.858
REMARK SMILES CCCCCCCCC=CCCCCCCCC(=O)[O-]
REMARK SMILES IDX 10 1 9 2 11 3 12 4 13 5 14 6 15 7 16 8 17 9 18 10 19 11
REMARK SMILES IDX 20 12 8 13 7 14 6 15 5 16 4 17 3 18 2 19 1 20
REMARK H PARENT
REMARK Flexibility Score: inf
ROOT
ATOM      1  C   UNL     1      40.025  20.188 223.583  1.00  0.00    -0.031 C 
ATOM      2  C   UNL     1      40.823  19.587 222.681  1.00  0.00    -0.031 C 
ENDROOT
BRANCH   1   3
ATOM      3  C   UNL     1      39.456  21.579 223.435  1.00  0.00     0.027 C 
BRANCH   3   4
ATOM      4  C   UNL     1      39.039  22.172 224.789  1.00  0.00     0.004 C 
BRANCH   4   5
ATOM      5  C   UNL     1      39.247  23.694 224.842  1.00  0.00     0.000 C 
BRANCH   5   6
ATOM      6  C   UNL     1      39.573  24.305 223.467  1.00  0.00     0.000 C 
BRANCH   6   7
ATOM      7  C   UNL     1      38.634  25.441 223.019  1.00  0.00     0.000 C 
BRANCH   7   8
ATOM      8  C   UNL     1      37.148  25.123 223.260  1.00  0.00     0.006 C 
BRANCH   8   9
ATOM      9  C   UNL     1      36.365  24.987 221.948  1.00  0.00     0.053 C 
BRANCH   9  10
ATOM     10  C   UNL     1      36.383  23.581 221.432  1.00  0.00     0.041 C 
ATOM     11  O   UNL     1      36.455  23.358 220.195  1.00  0.00    -0.550 OA
ATOM     12  O   UNL     1      36.292  22.515 222.319  1.00  0.00    -0.550 OA
ENDBRANCH   9  10
ENDBRANCH   8   9
ENDBRANCH   7   8
ENDBRANCH   6   7
ENDBRANCH   5   6
ENDBRANCH   4   5
ENDBRANCH   3   4
ENDBRANCH   1   3
BRANCH   2  13
ATOM     13  C   UNL     1      41.351  20.245 221.431  1.00  0.00     0.027 C 
BRANCH  13  14
ATOM     14  C   UNL     1      42.799  20.705 221.633  1.00  0.00     0.004 C 
BRANCH  14  15
ATOM     15  C   UNL     1      43.510  19.840 222.681  1.00  0.00     0.000 C 
BRANCH  15  16
ATOM     16  C   UNL     1      44.256  20.715 223.700  1.00  0.00     0.000 C 
BRANCH  16  17
ATOM     17  C   UNL     1      43.313  21.388 224.713  1.00  0.00    -0.000 C 
BRANCH  17  18
ATOM     18  C   UNL     1      42.904  22.834 224.365  1.00  0.00    -0.000 C 
BRANCH  18  19
ATOM     19  C   UNL     1      43.271  23.887 225.426  1.00  0.00    -0.003 C 
ATOM     20  C   UNL     1      42.814  25.295 225.049  1.00  0.00     0.004 C 
ENDBRANCH  18  19
ENDBRANCH  17  18
ENDBRANCH  16  17
ENDBRANCH  15  16
ENDBRANCH  14  15
ENDBRANCH  13  14
ENDBRANCH   2  13
TORSDOF 15
ENDMDL
MODEL 7
REMARK VINA RESULT:    -3.892      2.254      3.982
REMARK INTER + INTRA:          -9.163
REMARK INTER:                  -6.223
REMARK INTRA:                  -2.940
REMARK UNBOUND:                -1.858
REMARK SMILES CCCCCCCCC=CCCCCCCCC(=O)[O-]
REMARK SMILES IDX 10 1 9 2 11 3 12 4 13 5 14 6 15 7 16 8 17 9 18 10 19 11
REMARK SMILES IDX 20 12 8 13 7 14 6 15 5 16 4 17 3 18 2 19 1 20
REMARK H PARENT
REMARK Flexibility Score: inf
ROOT
ATOM      1  C   UNL     1      42.042  22.312 225.298  1.00  0.00    -0.031 C 
ATOM      2  C   UNL     1      41.101  22.791 224.462  1.00  0.00    -0.031 C 
ENDROOT
BRANCH   1   3
ATOM      3  C   UNL     1      43.522  22.281 224.999  1.00  0.00     0.027 C 
BRANCH   3   4
ATOM      4  C   UNL     1      44.007  20.864 224.661  1.00  0.00     0.004 C 
BRANCH   4   5
ATOM      5  C   UNL     1      44.188  20.660 223.148  1.00  0.00     0.000 C 
BRANCH   5   6
ATOM      6  C   UNL     1      42.987  19.956 222.489  1.00  0.00     0.000 C 
BRANCH   6   7
ATOM      7  C   UNL     1      42.134  19.095 223.440  1.00  0.00     0.000 C 
BRANCH   7   8
ATOM      8  C   UNL     1      40.625  19.205 223.158  1.00  0.00     0.006 C 
BRANCH   8   9
ATOM      9  C   UNL     1      39.808  19.390 224.444  1.00  0.00     0.053 C 
BRANCH   9  10
ATOM     10  C   UNL     1      39.081  18.137 224.825  1.00  0.00     0.041 C 
ATOM     11  O   UNL     1      37.822  18.114 224.845  1.00  0.00    -0.550 OA
ATOM     12  O   UNL     1      39.796  17.001 225.187  1.00  0.00    -0.550 OA
ENDBRANCH   9  10
ENDBRANCH   8   9
ENDBRANCH   7   8
ENDBRANCH   6   7
ENDBRANCH   5   6
ENDBRANCH   4   5
ENDBRANCH   3   4
ENDBRANCH   1   3
BRANCH   2  13
ATOM     13  C   UNL     1      41.369  23.281 223.062  1.00  0.00     0.027 C 
BRANCH  13  14
ATOM     14  C   UNL     1      40.299  22.765 222.094  1.00  0.00     0.004 C 
BRANCH  14  15
ATOM     15  C   UNL     1      38.954  22.581 222.808  1.00  0.00     0.000 C 
BRANCH  15  16
ATOM     16  C   UNL     1      37.957  23.671 222.391  1.00  0.00     0.000 C 
BRANCH  16  17
ATOM     17  C   UNL     1      37.725  24.722 223.492  1.00  0.00    -0.000 C 
BRANCH  17  18
ATOM     18  C   UNL     1      38.488  26.048 223.303  1.00  0.00    -0.000 C 
BRANCH  18  19
ATOM     19  C   UNL     1      39.186  26.582 224.565  1.00  0.00    -0.003 C 
ATOM     20  C   UNL     1      39.348  25.519 225.651  1.00  0.00     0.004 C 
ENDBRANCH  18  19
ENDBRANCH  17  18
ENDBRANCH  16  17
ENDBRANCH  15  16
ENDBRANCH  14  15
ENDBRANCH  13  14
ENDBRANCH   2  13
TORSDOF 15
ENDMDL
MODEL 8
REMARK VINA RESULT:    -3.885      3.641      6.858
REMARK INTER + INTRA:          -9.150
REMARK INTER:                  -6.925
REMARK INTRA:                  -2.225
REMARK UNBOUND:                -1.858
REMARK SMILES CCCCCCCCC=CCCCCCCCC(=O)[O-]
REMARK SMILES IDX 10 1 9 2 11 3 12 4 13 5 14 6 15 7 16 8 17 9 18 10 19 11
REMARK SMILES IDX 20 12 8 13 7 14 6 15 5 16 4 17 3 18 2 19 1 20
REMARK H PARENT
REMARK Flexibility Score: inf
ROOT
ATOM      1  C   UNL     1      40.054  24.667 223.597  1.00  0.00    -0.031 C 
ATOM      2  C   UNL     1      40.204  24.157 222.360  1.00  0.00    -0.031 C 
ENDROOT
BRANCH   1   3
ATOM      3  C   UNL     1      39.835  23.845 224.845  1.00  0.00     0.027 C 
BRANCH   3   4
ATOM      4  C   UNL     1      38.450  24.099 225.459  1.00  0.00     0.004 C 
BRANCH   4   5
ATOM      5  C   UNL     1      37.314  23.594 224.555  1.00  0.00     0.000 C 
BRANCH   5   6
ATOM      6  C   UNL     1      36.330  24.706 224.149  1.00  0.00     0.000 C 
BRANCH   6   7
ATOM      7  C   UNL     1      36.326  25.058 222.650  1.00  0.00     0.000 C 
BRANCH   7   8
ATOM      8  C   UNL     1      35.793  23.916 221.767  1.00  0.00     0.006 C 
BRANCH   8   9
ATOM      9  C   UNL     1      36.805  23.494 220.693  1.00  0.00     0.053 C 
BRANCH   9  10
ATOM     10  C   UNL     1      36.262  23.686 219.311  1.00  0.00     0.041 C 
ATOM     11  O   UNL     1      35.261  24.425 219.118  1.00  0.00    -0.550 OA
ATOM     12  O   UNL     1      36.846  23.024 218.237  1.00  0.00    -0.550 OA
ENDBRANCH   9  10
ENDBRANCH   8   9
ENDBRANCH   7   8
ENDBRANCH   6   7
ENDBRANCH   5   6
ENDBRANCH   4   5
ENDBRANCH   3   4
ENDBRANCH   1   3
BRANCH   2  13
ATOM     13  C   UNL     1      40.077  22.694 222.016  1.00  0.00     0.027 C 
BRANCH  13  14
ATOM     14  C   UNL     1      41.458  22.034 221.946  1.00  0.00     0.004 C 
BRANCH  14  15
ATOM     15  C   UNL     1      41.338  20.544 221.601  1.00  0.00     0.000 C 
BRANCH  15  16
ATOM     16  C   UNL     1      41.575  19.672 222.842  1.00  0.00     0.000 C 
BRANCH  16  17
ATOM     17  C   UNL     1      40.274  19.087 223.420  1.00  0.00    -0.000 C 
BRANCH  17  18
ATOM     18  C   UNL     1      39.468  20.046 224.319  1.00  0.00    -0.000 C 
BRANCH  18  19
ATOM     19  C   UNL     1      39.318  19.594 225.782  1.00  0.00    -0.003 C 
ATOM     20  C   UNL     1      39.756  20.663 226.783  1.00  0.00     0.004 C 
ENDBRANCH  18  19
ENDBRANCH  17  18
ENDBRANCH  16  17
ENDBRANCH  15  16
ENDBRANCH  14  15
ENDBRANCH  13  14
ENDBRANCH   2  13
TORSDOF 15
ENDMDL
MODEL 9
REMARK VINA RESULT:    -3.803      1.940      3.793
REMARK INTER + INTRA:          -8.997
REMARK INTER:                  -6.299
REMARK INTRA:                  -2.698
REMARK UNBOUND:                -1.858
REMARK SMILES CCCCCCCCC=CCCCCCCCC(=O)[O-]
REMARK SMILES IDX 10 1 9 2 11 3 12 4 13 5 14 6 15 7 16 8 17 9 18 10 19 11
REMARK SMILES IDX 20 12 8 13 7 14 6 15 5 16 4 17 3 18 2 19 1 20
REMARK H PARENT
REMARK Flexibility Score: inf
ROOT
ATOM      1  C   UNL     1      43.910  21.022 224.749  1.00  0.00    -0.031 C 
ATOM      2  C   UNL     1      43.701  22.140 225.470  1.00  0.00    -0.031 C 
ENDROOT
BRANCH   1   3
ATOM      3  C   UNL     1      43.710  20.913 223.256  1.00  0.00     0.027 C 
BRANCH   3   4
ATOM      4  C   UNL     1      43.240  19.510 222.843  1.00  0.00     0.004 C 
BRANCH   4   5
ATOM      5  C   UNL     1      41.929  19.110 223.539  1.00  0.00     0.000 C 
BRANCH   5   6
ATOM      6  C   UNL     1      40.691  19.781 222.918  1.00  0.00     0.000 C 
BRANCH   6   7
ATOM      7  C   UNL     1      39.670  20.333 223.931  1.00  0.00     0.000 C 
BRANCH   7   8
ATOM      8  C   UNL     1      40.101  20.122 225.393  1.00  0.00     0.006 C 
BRANCH   8   9
ATOM      9  C   UNL     1      39.016  19.420 226.221  1.00  0.00     0.053 C 
BRANCH   9  10
ATOM     10  C   UNL     1      38.590  18.127 225.597  1.00  0.00     0.041 C 
ATOM     11  O   UNL     1      37.374  17.907 225.358  1.00  0.00    -0.550 OA
ATOM     12  O   UNL     1      39.536  17.151 225.305  1.00  0.00    -0.550 OA
ENDBRANCH   9  10
ENDBRANCH   8   9
ENDBRANCH   7   8
ENDBRANCH   6   7
ENDBRANCH   5   6
ENDBRANCH   4   5
ENDBRANCH   3   4
ENDBRANCH   1   3
BRANCH   2  13
ATOM     13  C   UNL     1      43.142  23.425 224.914  1.00  0.00     0.027 C 
BRANCH  13  14
ATOM     14  C   UNL     1      41.612  23.433 225.003  1.00  0.00     0.004 C 
BRANCH  14  15
ATOM     15  C   UNL     1      40.999  24.232 223.847  1.00  0.00     0.000 C 
BRANCH  15  16
ATOM     16  C   UNL     1      40.938  23.387 222.566  1.00  0.00     0.000 C 
BRANCH  16  17
ATOM     17  C   UNL     1      39.664  23.642 221.741  1.00  0.00    -0.000 C 
BRANCH  17  18
ATOM     18  C   UNL     1      38.502  24.293 222.517  1.00  0.00    -0.000 C 
BRANCH  18  19
ATOM     19  C   UNL     1      37.575  23.307 223.249  1.00  0.00    -0.003 C 
ATOM     20  C   UNL     1      36.514  22.697 222.334  1.00  0.00     0.004 C 
ENDBRANCH  18  19
ENDBRANCH  17  18
ENDBRANCH  16  17
ENDBRANCH  15  16
ENDBRANCH  14  15
ENDBRANCH  13  14
ENDBRANCH   2  13
TORSDOF 15
ENDMDL
