MODEL 1
REMARK VINA RESULT:    -4.183      0.000      0.000
REMARK INTER + INTRA:          -4.930
REMARK INTER:                  -4.794
REMARK INTRA:                  -0.136
REMARK UNBOUND:                -0.136
REMARK SMILES O=C([O-])C=Cc1ccc(O)cc1
REMARK SMILES IDX 6 1 7 2 12 3 8 4 11 5 9 6 5 7 4 8 2 9 1 10 3 11 10 12
REMARK H PARENT 10 13
REMARK Flexibility Score: inf
ROOT
ATOM      1  C   UNL     1     -11.310  82.491 -10.319  1.00  0.00    -0.025 A 
ATOM      2  C   UNL     1     -12.463  83.235  -9.995  1.00  0.00     0.012 A 
ATOM      3  C   UNL     1     -11.272  81.798 -11.542  1.00  0.00     0.012 A 
ATOM      4  C   UNL     1     -13.557  83.260 -10.865  1.00  0.00     0.047 A 
ATOM      5  C   UNL     1     -12.369  81.825 -12.407  1.00  0.00     0.047 A 
ATOM      6  C   UNL     1     -13.513  82.553 -12.073  1.00  0.00     0.115 A 
ENDROOT
BRANCH   1   7
ATOM      7  C   UNL     1     -10.117  82.440  -9.438  1.00  0.00     0.010 C 
ATOM      8  C   UNL     1      -9.477  83.529  -8.987  1.00  0.00     0.025 C 
BRANCH   8   9
ATOM      9  C   UNL     1      -8.302  83.440  -8.103  1.00  0.00     0.064 C 
ATOM     10  O   UNL     1      -8.427  83.183  -6.876  1.00  0.00    -0.545 OA
ATOM     11  O   UNL     1      -7.034  83.639  -8.632  1.00  0.00    -0.545 OA
ENDBRANCH   8   9
ENDBRANCH   1   7
BRANCH   6  12
ATOM     12  O   UNL     1     -14.600  82.570 -12.946  1.00  0.00    -0.508 OA
ATOM     13  H   UNL     1     -14.500  82.312 -13.920  1.00  0.00     0.293 HD
ENDBRANCH   6  12
TORSDOF 3
ENDMDL
MODEL 2
REMARK VINA RESULT:    -3.976      6.518      8.496
REMARK INTER + INTRA:          -4.694
REMARK INTER:                  -4.541
REMARK INTRA:                  -0.153
REMARK UNBOUND:                -0.136
REMARK SMILES O=C([O-])C=Cc1ccc(O)cc1
REMARK SMILES IDX 6 1 7 2 12 3 8 4 11 5 9 6 5 7 4 8 2 9 1 10 3 11 10 12
REMARK H PARENT 10 13
REMARK Flexibility Score: inf
ROOT
ATOM      1  C   UNL     1      -4.098  86.256  -8.864  1.00  0.00    -0.025 A 
ATOM      2  C   UNL     1      -3.361  85.096  -8.547  1.00  0.00     0.012 A 
ATOM      3  C   UNL     1      -5.243  86.131  -9.670  1.00  0.00     0.012 A 
ATOM      4  C   UNL     1      -3.749  83.851  -9.051  1.00  0.00     0.047 A 
ATOM      5  C   UNL     1      -5.626  84.885 -10.172  1.00  0.00     0.047 A 
ATOM      6  C   UNL     1      -4.882  83.743  -9.867  1.00  0.00     0.115 A 
ENDROOT
BRANCH   1   7
ATOM      7  C   UNL     1      -3.737  87.599  -8.347  1.00  0.00     0.010 C 
ATOM      8  C   UNL     1      -4.483  88.697  -8.539  1.00  0.00     0.025 C 
BRANCH   8   9
ATOM      9  C   UNL     1      -4.099  90.012  -8.000  1.00  0.00     0.064 C 
ATOM     10  O   UNL     1      -3.541  90.119  -6.875  1.00  0.00    -0.545 OA
ATOM     11  O   UNL     1      -4.353  91.156  -8.746  1.00  0.00    -0.545 OA
ENDBRANCH   8   9
ENDBRANCH   1   7
BRANCH   6  12
ATOM     12  O   UNL     1      -5.276  82.506 -10.375  1.00  0.00    -0.508 OA
ATOM     13  H   UNL     1      -5.717  81.809  -9.787  1.00  0.00     0.293 HD
ENDBRANCH   6  12
TORSDOF 3
ENDMDL
MODEL 3
REMARK VINA RESULT:    -3.950      6.182      8.230
REMARK INTER + INTRA:          -4.664
REMARK INTER:                  -4.521
REMARK INTRA:                  -0.143
REMARK UNBOUND:                -0.136
REMARK SMILES O=C([O-])C=Cc1ccc(O)cc1
REMARK SMILES IDX 6 1 7 2 12 3 8 4 11 5 9 6 5 7 4 8 2 9 1 10 3 11 10 12
REMARK H PARENT 10 13
REMARK Flexibility Score: inf
ROOT
ATOM      1  C   UNL     1      -4.736  83.207  -9.176  1.00  0.00    -0.025 A 
ATOM      2  C   UNL     1      -3.729  82.447  -9.806  1.00  0.00     0.012 A 
ATOM      3  C   UNL     1      -4.932  83.058  -7.792  1.00  0.00     0.012 A 
ATOM      4  C   UNL     1      -2.959  81.542  -9.068  1.00  0.00     0.047 A 
ATOM      5  C   UNL     1      -4.161  82.151  -7.059  1.00  0.00     0.047 A 
ATOM      6  C   UNL     1      -3.176  81.391  -7.693  1.00  0.00     0.115 A 
ENDROOT
BRANCH   1   7
ATOM      7  C   UNL     1      -5.572  84.189  -9.909  1.00  0.00     0.010 C 
ATOM      8  C   UNL     1      -5.701  85.475  -9.548  1.00  0.00     0.025 C 
BRANCH   8   9
ATOM      9  C   UNL     1      -6.532  86.424 -10.308  1.00  0.00     0.064 C 
ATOM     10  O   UNL     1      -7.685  86.109 -10.706  1.00  0.00    -0.545 OA
ATOM     11  O   UNL     1      -6.036  87.691 -10.589  1.00  0.00    -0.545 OA
ENDBRANCH   8   9
ENDBRANCH   1   7
BRANCH   6  12
ATOM     12  O   UNL     1      -2.415  80.491  -6.949  1.00  0.00    -0.508 OA
ATOM     13  H   UNL     1      -2.771  80.074  -6.098  1.00  0.00     0.293 HD
ENDBRANCH   6  12
TORSDOF 3
ENDMDL
MODEL 4
REMARK VINA RESULT:    -3.947      4.899      6.406
REMARK INTER + INTRA:          -4.660
REMARK INTER:                  -4.518
REMARK INTRA:                  -0.142
REMARK UNBOUND:                -0.136
REMARK SMILES O=C([O-])C=Cc1ccc(O)cc1
REMARK SMILES IDX 6 1 7 2 12 3 8 4 11 5 9 6 5 7 4 8 2 9 1 10 3 11 10 12
REMARK H PARENT 10 13
REMARK Flexibility Score: inf
ROOT
ATOM      1  C   UNL     1      -5.482  84.196  -9.629  1.00  0.00    -0.025 A 
ATOM      2  C   UNL     1      -5.317  85.509 -10.116  1.00  0.00     0.012 A 
ATOM      3  C   UNL     1      -6.783  83.725  -9.379  1.00  0.00     0.012 A 
ATOM      4  C   UNL     1      -6.428  86.334 -10.320  1.00  0.00     0.047 A 
ATOM      5  C   UNL     1      -7.890  84.553  -9.583  1.00  0.00     0.047 A 
ATOM      6  C   UNL     1      -7.717  85.858 -10.052  1.00  0.00     0.115 A 
ENDROOT
BRANCH   1   7
ATOM      7  C   UNL     1      -4.340  83.276  -9.407  1.00  0.00     0.010 C 
ATOM      8  C   UNL     1      -4.106  82.645  -8.247  1.00  0.00     0.025 C 
BRANCH   8   9
ATOM      9  C   UNL     1      -2.968  81.729  -8.066  1.00  0.00     0.064 C 
ATOM     10  O   UNL     1      -2.628  80.923  -8.974  1.00  0.00    -0.545 OA
ATOM     11  O   UNL     1      -2.254  81.754  -6.875  1.00  0.00    -0.545 OA
ENDBRANCH   8   9
ENDBRANCH   1   7
BRANCH   6  12
ATOM     12  O   UNL     1      -8.830  86.673 -10.250  1.00  0.00    -0.508 OA
ATOM     13  H   UNL     1      -8.797  87.668 -10.068  1.00  0.00     0.293 HD
ENDBRANCH   6  12
TORSDOF 3
ENDMDL
MODEL 5
REMARK VINA RESULT:    -3.935      6.377      8.192
REMARK INTER + INTRA:          -4.646
REMARK INTER:                  -4.497
REMARK INTRA:                  -0.149
REMARK UNBOUND:                -0.136
REMARK SMILES O=C([O-])C=Cc1ccc(O)cc1
REMARK SMILES IDX 6 1 7 2 12 3 8 4 11 5 9 6 5 7 4 8 2 9 1 10 3 11 10 12
REMARK H PARENT 10 13
REMARK Flexibility Score: inf
ROOT
ATOM      1  C   UNL     1      -5.366  85.039  -9.787  1.00  0.00    -0.025 A 
ATOM      2  C   UNL     1      -5.358  83.659 -10.075  1.00  0.00     0.012 A 
ATOM      3  C   UNL     1      -4.267  85.596  -9.110  1.00  0.00     0.012 A 
ATOM      4  C   UNL     1      -4.287  82.857  -9.669  1.00  0.00     0.047 A 
ATOM      5  C   UNL     1      -3.199  84.790  -8.706  1.00  0.00     0.047 A 
ATOM      6  C   UNL     1      -3.205  83.421  -8.982  1.00  0.00     0.115 A 
ENDROOT
BRANCH   1   7
ATOM      7  C   UNL     1      -6.471  85.937 -10.205  1.00  0.00     0.010 C 
ATOM      8  C   UNL     1      -6.305  87.234 -10.501  1.00  0.00     0.025 C 
BRANCH   8   9
ATOM      9  C   UNL     1      -7.424  88.093 -10.924  1.00  0.00     0.064 C 
ATOM     10  O   UNL     1      -8.499  88.136 -10.266  1.00  0.00    -0.545 OA
ATOM     11  O   UNL     1      -7.294  88.870 -12.067  1.00  0.00    -0.545 OA
ENDBRANCH   8   9
ENDBRANCH   1   7
BRANCH   6  12
ATOM     12  O   UNL     1      -2.134  82.629  -8.572  1.00  0.00    -0.508 OA
ATOM     13  H   UNL     1      -2.113  81.633  -8.751  1.00  0.00     0.293 HD
ENDBRANCH   6  12
TORSDOF 3
ENDMDL
MODEL 6
REMARK VINA RESULT:    -3.850      8.312      9.709
REMARK INTER + INTRA:          -4.549
REMARK INTER:                  -4.400
REMARK INTRA:                  -0.149
REMARK UNBOUND:                -0.136
REMARK SMILES O=C([O-])C=Cc1ccc(O)cc1
REMARK SMILES IDX 6 1 7 2 12 3 8 4 11 5 9 6 5 7 4 8 2 9 1 10 3 11 10 12
REMARK H PARENT 10 13
REMARK Flexibility Score: inf
ROOT
ATOM      1  C   UNL     1      -3.432  86.037  -8.356  1.00  0.00    -0.025 A 
ATOM      2  C   UNL     1      -4.451  86.990  -8.559  1.00  0.00     0.012 A 
ATOM      3  C   UNL     1      -2.287  86.412  -7.632  1.00  0.00     0.012 A 
ATOM      4  C   UNL     1      -4.308  88.293  -8.071  1.00  0.00     0.047 A 
ATOM      5  C   UNL     1      -2.149  87.715  -7.146  1.00  0.00     0.047 A 
ATOM      6  C   UNL     1      -3.155  88.658  -7.365  1.00  0.00     0.115 A 
ENDROOT
BRANCH   1   7
ATOM      7  C   UNL     1      -3.537  84.639  -8.842  1.00  0.00     0.010 C 
ATOM      8  C   UNL     1      -3.047  83.580  -8.181  1.00  0.00     0.025 C 
BRANCH   8   9
ATOM      9  C   UNL     1      -3.181  82.205  -8.689  1.00  0.00     0.064 C 
ATOM     10  O   UNL     1      -3.531  81.980  -9.879  1.00  0.00    -0.545 OA
ATOM     11  O   UNL     1      -2.915  81.136  -7.843  1.00  0.00    -0.545 OA
ENDBRANCH   8   9
ENDBRANCH   1   7
BRANCH   6  12
ATOM     12  O   UNL     1      -3.004  89.955  -6.875  1.00  0.00    -0.508 OA
ATOM     13  H   UNL     1      -2.623  90.131  -5.954  1.00  0.00     0.293 HD
ENDBRANCH   6  12
TORSDOF 3
ENDMDL
MODEL 7
REMARK VINA RESULT:    -3.770      1.325      2.064
REMARK INTER + INTRA:          -4.457
REMARK INTER:                  -4.322
REMARK INTRA:                  -0.135
REMARK UNBOUND:                -0.136
REMARK SMILES O=C([O-])C=Cc1ccc(O)cc1
REMARK SMILES IDX 6 1 7 2 12 3 8 4 11 5 9 6 5 7 4 8 2 9 1 10 3 11 10 12
REMARK H PARENT 10 13
REMARK Flexibility Score: inf
ROOT
ATOM      1  C   UNL     1     -10.749  83.182  -9.491  1.00  0.00    -0.025 A 
ATOM      2  C   UNL     1     -11.312  82.148 -10.265  1.00  0.00     0.012 A 
ATOM      3  C   UNL     1     -11.522  84.324  -9.220  1.00  0.00     0.012 A 
ATOM      4  C   UNL     1     -12.609  82.271 -10.775  1.00  0.00     0.047 A 
ATOM      5  C   UNL     1     -12.817  84.443  -9.732  1.00  0.00     0.047 A 
ATOM      6  C   UNL     1     -13.363  83.421 -10.511  1.00  0.00     0.115 A 
ENDROOT
BRANCH   1   7
ATOM      7  C   UNL     1      -9.384  83.098  -8.916  1.00  0.00     0.010 C 
ATOM      8  C   UNL     1      -8.310  83.696  -9.454  1.00  0.00     0.025 C 
BRANCH   8   9
ATOM      9  C   UNL     1      -6.972  83.600  -8.848  1.00  0.00     0.064 C 
ATOM     10  O   UNL     1      -6.799  83.780  -7.613  1.00  0.00    -0.545 OA
ATOM     11  O   UNL     1      -5.879  83.303  -9.652  1.00  0.00    -0.545 OA
ENDBRANCH   8   9
ENDBRANCH   1   7
BRANCH   6  12
ATOM     12  O   UNL     1     -14.656  83.553 -11.016  1.00  0.00    -0.508 OA
ATOM     13  H   UNL     1     -14.844  84.087 -11.855  1.00  0.00     0.293 HD
ENDBRANCH   6  12
TORSDOF 3
ENDMDL
MODEL 8
REMARK VINA RESULT:    -3.769     11.533     12.737
REMARK INTER + INTRA:          -4.456
REMARK INTER:                  -4.305
REMARK INTRA:                  -0.151
REMARK UNBOUND:                -0.136
REMARK SMILES O=C([O-])C=Cc1ccc(O)cc1
REMARK SMILES IDX 6 1 7 2 12 3 8 4 11 5 9 6 5 7 4 8 2 9 1 10 3 11 10 12
REMARK H PARENT 10 13
REMARK Flexibility Score: inf
ROOT
ATOM      1  C   UNL     1      -4.336  92.316 -13.179  1.00  0.00    -0.025 A 
ATOM      2  C   UNL     1      -4.711  90.960 -13.271  1.00  0.00     0.012 A 
ATOM      3  C   UNL     1      -4.025  93.016 -14.358  1.00  0.00     0.012 A 
ATOM      4  C   UNL     1      -4.746  90.319 -14.513  1.00  0.00     0.047 A 
ATOM      5  C   UNL     1      -4.061  92.370 -15.597  1.00  0.00     0.047 A 
ATOM      6  C   UNL     1      -4.419  91.023 -15.679  1.00  0.00     0.115 A 
ENDROOT
BRANCH   1   7
ATOM      7  C   UNL     1      -4.293  93.048 -11.889  1.00  0.00     0.010 C 
ATOM      8  C   UNL     1      -3.840  94.303 -11.758  1.00  0.00     0.025 C 
BRANCH   8   9
ATOM      9  C   UNL     1      -3.824  95.003 -10.462  1.00  0.00     0.064 C 
ATOM     10  O   UNL     1      -2.906  94.801  -9.623  1.00  0.00    -0.545 OA
ATOM     11  O   UNL     1      -4.838  95.902 -10.160  1.00  0.00    -0.545 OA
ENDBRANCH   8   9
ENDBRANCH   1   7
BRANCH   6  12
ATOM     12  O   UNL     1      -4.450  90.391 -16.922  1.00  0.00    -0.508 OA
ATOM     13  H   UNL     1      -3.718  89.754 -17.210  1.00  0.00     0.293 HD
ENDBRANCH   6  12
TORSDOF 3
ENDMDL
MODEL 9
REMARK VINA RESULT:    -3.713      8.240     10.321
REMARK INTER + INTRA:          -4.392
REMARK INTER:                  -4.255
REMARK INTRA:                  -0.138
REMARK UNBOUND:                -0.136
REMARK SMILES O=C([O-])C=Cc1ccc(O)cc1
REMARK SMILES IDX 6 1 7 2 12 3 8 4 11 5 9 6 5 7 4 8 2 9 1 10 3 11 10 12
REMARK H PARENT 10 13
REMARK Flexibility Score: inf
ROOT
ATOM      1  C   UNL     1      -3.827  88.373  -8.025  1.00  0.00    -0.025 A 
ATOM      2  C   UNL     1      -2.618  87.772  -7.620  1.00  0.00     0.012 A 
ATOM      3  C   UNL     1      -4.743  87.614  -8.774  1.00  0.00     0.012 A 
ATOM      4  C   UNL     1      -2.327  86.453  -7.981  1.00  0.00     0.047 A 
ATOM      5  C   UNL     1      -4.448  86.296  -9.133  1.00  0.00     0.047 A 
ATOM      6  C   UNL     1      -3.241  85.712  -8.740  1.00  0.00     0.115 A 
ENDROOT
BRANCH   1   7
ATOM      7  C   UNL     1      -4.190  89.765  -7.660  1.00  0.00     0.010 C 
ATOM      8  C   UNL     1      -4.207  90.783  -8.532  1.00  0.00     0.025 C 
BRANCH   8   9
ATOM      9  C   UNL     1      -4.585  92.150  -8.136  1.00  0.00     0.064 C 
ATOM     10  O   UNL     1      -5.501  92.357  -7.295  1.00  0.00    -0.545 OA
ATOM     11  O   UNL     1      -3.919  93.232  -8.696  1.00  0.00    -0.545 OA
ENDBRANCH   8   9
ENDBRANCH   1   7
BRANCH   6  12
ATOM     12  O   UNL     1      -2.960  84.397  -9.106  1.00  0.00    -0.508 OA
ATOM     13  H   UNL     1      -2.064  84.138  -9.500  1.00  0.00     0.293 HD
ENDBRANCH   6  12
TORSDOF 3
ENDMDL
