MODEL 1
REMARK VINA RESULT:    -5.900      0.000      0.000
REMARK INTER + INTRA:         -10.441
REMARK INTER:                  -8.142
REMARK INTRA:                  -2.299
REMARK UNBOUND:                -2.299
REMARK SMILES CC[C@@H](CC[C@H](C)[C@@H]1CC[C@H]2[C@H]3CC=C4C[C@H](O)CC[C@]4(C)[C@@H]3CC[C@]21C)C(C)C
REMARK SMILES IDX 5 1 4 2 3 3 2 4 1 5 28 6 29 7 30 8 6 9 7 10 8 11 9 12 26 13
REMARK SMILES IDX 10 14 11 15 25 16 27 17 12 18 24 19 23 20 13 21 21 22 14 23
REMARK SMILES IDX 15 24 20 25 22 26 16 27 19 28 17 29 18 30
REMARK H PARENT 18 31
REMARK Flexibility Score: inf
ROOT
ATOM      1  C   UNL     1       0.135 -31.915   6.324  1.00  0.00     0.004 C 
ENDROOT
BRANCH   1   2
ATOM      2  C   UNL     1       1.268 -32.895   6.746  1.00  0.00     0.004 C 
BRANCH   2   3
ATOM      3  C   UNL     1       2.457 -32.309   7.572  1.00  0.00    -0.009 C 
BRANCH   3   4
ATOM      4  C   UNL     1       3.834 -32.582   6.894  1.00  0.00     0.000 C 
ATOM      5  C   UNL     1       4.102 -31.686   5.676  1.00  0.00     0.004 C 
ENDBRANCH   3   4
BRANCH   3   6
ATOM      6  C   UNL     1       2.419 -32.783   9.067  1.00  0.00    -0.014 C 
ATOM      7  C   UNL     1       2.331 -31.614  10.065  1.00  0.00     0.007 C 
ATOM      8  C   UNL     1       1.307 -33.811   9.369  1.00  0.00     0.007 C 
ENDBRANCH   3   6
ENDBRANCH   2   3
ENDBRANCH   1   2
BRANCH   1   9
ATOM      9  C   UNL     1       0.042 -30.507   7.020  1.00  0.00    -0.011 C 
ATOM     10  C   UNL     1      -1.306 -30.227   7.719  1.00  0.00     0.008 C 
BRANCH   9  11
ATOM     11  C   UNL     1       0.471 -29.282   6.122  1.00  0.00    -0.002 C 
ATOM     12  C   UNL     1       0.931 -29.687   4.707  1.00  0.00     0.005 C 
ATOM     13  C   UNL     1       1.561 -28.274   6.675  1.00  0.00    -0.026 C 
ATOM     14  C   UNL     1       2.112 -28.791   4.363  1.00  0.00     0.005 C 
ATOM     15  C   UNL     1       2.757 -28.457   5.711  1.00  0.00    -0.001 C 
ATOM     16  C   UNL     1       0.994 -26.819   6.558  1.00  0.00     0.007 C 
ATOM     17  C   UNL     1       1.999 -28.530   8.141  1.00  0.00     0.012 C 
ATOM     18  C   UNL     1       3.795 -27.285   5.692  1.00  0.00     0.000 C 
ATOM     19  C   UNL     1       2.059 -25.730   6.689  1.00  0.00     0.005 C 
ATOM     20  C   UNL     1       3.159 -25.880   5.608  1.00  0.00     0.003 C 
ATOM     21  C   UNL     1       4.787 -27.453   4.533  1.00  0.00     0.031 C 
ATOM     22  C   UNL     1       4.246 -24.718   5.643  1.00  0.00    -0.008 C 
ATOM     23  C   UNL     1       5.821 -26.377   4.542  1.00  0.00    -0.027 C 
ATOM     24  C   UNL     1       5.568 -25.120   4.958  1.00  0.00    -0.065 C 
ATOM     25  C   UNL     1       4.613 -24.315   7.111  1.00  0.00     0.014 C 
ATOM     26  C   UNL     1       3.649 -23.495   4.896  1.00  0.00     0.016 C 
ATOM     27  C   UNL     1       6.715 -24.130   4.993  1.00  0.00     0.063 C 
ATOM     28  C   UNL     1       5.777 -23.306   7.221  1.00  0.00     0.033 C 
ATOM     29  C   UNL     1       7.038 -23.741   6.446  1.00  0.00     0.118 C 
BRANCH  29  30
ATOM     30  O   UNL     1       7.716 -24.775   7.119  1.00  0.00    -0.393 OA
ATOM     31  H   UNL     1       8.067 -25.411   6.440  1.00  0.00     0.210 HD
ENDBRANCH  29  30
ENDBRANCH   9  11
ENDBRANCH   1   9
TORSDOF 7
ENDMDL
MODEL 2
REMARK VINA RESULT:    -5.899      3.938      8.105
REMARK INTER + INTRA:         -10.439
REMARK INTER:                  -8.414
REMARK INTRA:                  -2.025
REMARK UNBOUND:                -2.299
REMARK SMILES CC[C@@H](CC[C@H](C)[C@@H]1CC[C@H]2[C@H]3CC=C4C[C@H](O)CC[C@]4(C)[C@@H]3CC[C@]21C)C(C)C
REMARK SMILES IDX 5 1 4 2 3 3 2 4 1 5 28 6 29 7 30 8 6 9 7 10 8 11 9 12 26 13
REMARK SMILES IDX 10 14 11 15 25 16 27 17 12 18 24 19 23 20 13 21 21 22 14 23
REMARK SMILES IDX 15 24 20 25 22 26 16 27 19 28 17 29 18 30
REMARK H PARENT 18 31
REMARK Flexibility Score: inf
ROOT
ATOM      1  C   UNL     1       3.767 -24.878   6.423  1.00  0.00     0.004 C 
ENDROOT
BRANCH   1   2
ATOM      2  C   UNL     1       3.943 -23.871   5.249  1.00  0.00     0.004 C 
BRANCH   2   3
ATOM      3  C   UNL     1       5.399 -23.457   4.868  1.00  0.00    -0.009 C 
BRANCH   3   4
ATOM      4  C   UNL     1       5.706 -21.976   5.248  1.00  0.00     0.000 C 
ATOM      5  C   UNL     1       7.205 -21.643   5.237  1.00  0.00     0.004 C 
ENDBRANCH   3   4
BRANCH   3   6
ATOM      6  C   UNL     1       5.721 -23.770   3.365  1.00  0.00    -0.014 C 
ATOM      7  C   UNL     1       7.056 -24.517   3.181  1.00  0.00     0.007 C 
ATOM      8  C   UNL     1       4.594 -24.526   2.629  1.00  0.00     0.007 C 
ENDBRANCH   3   6
ENDBRANCH   2   3
ENDBRANCH   1   2
BRANCH   1   9
ATOM      9  C   UNL     1       3.112 -26.280   6.139  1.00  0.00    -0.011 C 
ATOM     10  C   UNL     1       2.121 -26.755   7.223  1.00  0.00     0.008 C 
BRANCH   9  11
ATOM     11  C   UNL     1       4.124 -27.432   5.763  1.00  0.00    -0.002 C 
ATOM     12  C   UNL     1       5.597 -26.975   5.737  1.00  0.00     0.005 C 
ATOM     13  C   UNL     1       3.887 -28.251   4.427  1.00  0.00    -0.026 C 
ATOM     14  C   UNL     1       6.247 -27.678   4.555  1.00  0.00     0.005 C 
ATOM     15  C   UNL     1       5.111 -27.893   3.552  1.00  0.00    -0.001 C 
ATOM     16  C   UNL     1       3.902 -29.778   4.775  1.00  0.00     0.007 C 
ATOM     17  C   UNL     1       2.568 -27.914   3.684  1.00  0.00     0.012 C 
ATOM     18  C   UNL     1       5.420 -28.889   2.383  1.00  0.00     0.000 C 
ATOM     19  C   UNL     1       4.070 -30.685   3.556  1.00  0.00     0.005 C 
ATOM     20  C   UNL     1       5.385 -30.376   2.795  1.00  0.00     0.003 C 
ATOM     21  C   UNL     1       6.783 -28.579   1.749  1.00  0.00     0.031 C 
ATOM     22  C   UNL     1       5.653 -31.353   1.568  1.00  0.00    -0.008 C 
ATOM     23  C   UNL     1       7.061 -29.479   0.592  1.00  0.00    -0.027 C 
ATOM     24  C   UNL     1       6.632 -30.756   0.536  1.00  0.00    -0.065 C 
ATOM     25  C   UNL     1       4.334 -31.678   0.790  1.00  0.00     0.014 C 
ATOM     26  C   UNL     1       6.265 -32.662   2.136  1.00  0.00     0.016 C 
ATOM     27  C   UNL     1       6.911 -31.554  -0.722  1.00  0.00     0.063 C 
ATOM     28  C   UNL     1       4.545 -32.491  -0.506  1.00  0.00     0.033 C 
ATOM     29  C   UNL     1       5.594 -31.873  -1.453  1.00  0.00     0.118 C 
BRANCH  29  30
ATOM     30  O   UNL     1       5.080 -30.738  -2.108  1.00  0.00    -0.393 OA
ATOM     31  H   UNL     1       5.396 -30.753  -3.052  1.00  0.00     0.210 HD
ENDBRANCH  29  30
ENDBRANCH   9  11
ENDBRANCH   1   9
TORSDOF 7
ENDMDL
MODEL 3
REMARK VINA RESULT:    -5.841      2.328      7.825
REMARK INTER + INTRA:         -10.360
REMARK INTER:                  -8.013
REMARK INTRA:                  -2.347
REMARK UNBOUND:                -2.299
REMARK SMILES CC[C@@H](CC[C@H](C)[C@@H]1CC[C@H]2[C@H]3CC=C4C[C@H](O)CC[C@]4(C)[C@@H]3CC[C@]21C)C(C)C
REMARK SMILES IDX 5 1 4 2 3 3 2 4 1 5 28 6 29 7 30 8 6 9 7 10 8 11 9 12 26 13
REMARK SMILES IDX 10 14 11 15 25 16 27 17 12 18 24 19 23 20 13 21 21 22 14 23
REMARK SMILES IDX 15 24 20 25 22 26 16 27 19 28 17 29 18 30
REMARK H PARENT 18 31
REMARK Flexibility Score: inf
ROOT
ATOM      1  C   UNL     1       6.277 -25.400   2.979  1.00  0.00     0.004 C 
ENDROOT
BRANCH   1   2
ATOM      2  C   UNL     1       6.373 -24.746   4.388  1.00  0.00     0.004 C 
BRANCH   2   3
ATOM      3  C   UNL     1       5.035 -24.436   5.131  1.00  0.00    -0.009 C 
BRANCH   3   4
ATOM      4  C   UNL     1       4.637 -22.933   5.021  1.00  0.00     0.000 C 
ATOM      5  C   UNL     1       5.702 -21.978   5.579  1.00  0.00     0.004 C 
ENDBRANCH   3   4
BRANCH   3   6
ATOM      6  C   UNL     1       5.061 -24.944   6.616  1.00  0.00    -0.014 C 
ATOM      7  C   UNL     1       3.684 -25.431   7.107  1.00  0.00     0.007 C 
ATOM      8  C   UNL     1       6.125 -26.028   6.887  1.00  0.00     0.007 C 
ENDBRANCH   3   6
ENDBRANCH   2   3
ENDBRANCH   1   2
BRANCH   1   9
ATOM      9  C   UNL     1       6.494 -26.952   2.839  1.00  0.00    -0.011 C 
ATOM     10  C   UNL     1       7.295 -27.375   1.589  1.00  0.00     0.008 C 
BRANCH   9  11
ATOM     11  C   UNL     1       5.192 -27.831   2.993  1.00  0.00    -0.002 C 
ATOM     12  C   UNL     1       3.900 -27.000   3.127  1.00  0.00     0.005 C 
ATOM     13  C   UNL     1       5.140 -28.925   4.137  1.00  0.00    -0.026 C 
ATOM     14  C   UNL     1       3.033 -27.711   4.155  1.00  0.00     0.005 C 
ATOM     15  C   UNL     1       4.023 -28.420   5.082  1.00  0.00    -0.001 C 
ATOM     16  C   UNL     1       4.724 -30.292   3.496  1.00  0.00     0.007 C 
ATOM     17  C   UNL     1       6.468 -29.115   4.916  1.00  0.00     0.012 C 
ATOM     18  C   UNL     1       3.406 -29.499   6.035  1.00  0.00     0.000 C 
ATOM     19  C   UNL     1       4.264 -31.336   4.514  1.00  0.00     0.005 C 
ATOM     20  C   UNL     1       3.052 -30.830   5.337  1.00  0.00     0.003 C 
ATOM     21  C   UNL     1       2.154 -28.954   6.735  1.00  0.00     0.031 C 
ATOM     22  C   UNL     1       2.476 -31.913   6.350  1.00  0.00    -0.008 C 
ATOM     23  C   UNL     1       1.592 -29.949   7.695  1.00  0.00    -0.027 C 
ATOM     24  C   UNL     1       1.654 -31.280   7.492  1.00  0.00    -0.065 C 
ATOM     25  C   UNL     1       3.622 -32.732   7.032  1.00  0.00     0.014 C 
ATOM     26  C   UNL     1       1.556 -32.867   5.543  1.00  0.00     0.016 C 
ATOM     27  C   UNL     1       1.116 -32.198   8.572  1.00  0.00     0.063 C 
ATOM     28  C   UNL     1       3.143 -33.691   8.145  1.00  0.00     0.033 C 
ATOM     29  C   UNL     1       2.263 -33.002   9.208  1.00  0.00     0.118 C 
BRANCH  29  30
ATOM     30  O   UNL     1       3.039 -32.202  10.068  1.00  0.00    -0.393 OA
ATOM     31  H   UNL     1       3.983 -32.511  10.014  1.00  0.00     0.210 HD
ENDBRANCH  29  30
ENDBRANCH   9  11
ENDBRANCH   1   9
TORSDOF 7
ENDMDL
MODEL 4
REMARK VINA RESULT:    -5.720      4.822      8.151
REMARK INTER + INTRA:         -10.192
REMARK INTER:                 -10.140
REMARK INTRA:                  -0.053
REMARK UNBOUND:                -2.299
REMARK SMILES CC[C@@H](CC[C@H](C)[C@@H]1CC[C@H]2[C@H]3CC=C4C[C@H](O)CC[C@]4(C)[C@@H]3CC[C@]21C)C(C)C
REMARK SMILES IDX 5 1 4 2 3 3 2 4 1 5 28 6 29 7 30 8 6 9 7 10 8 11 9 12 26 13
REMARK SMILES IDX 10 14 11 15 25 16 27 17 12 18 24 19 23 20 13 21 21 22 14 23
REMARK SMILES IDX 15 24 20 25 22 26 16 27 19 28 17 29 18 30
REMARK H PARENT 18 31
REMARK Flexibility Score: inf
ROOT
ATOM      1  C   UNL     1       5.636 -22.156   6.002  1.00  0.00     0.004 C 
ENDROOT
BRANCH   1   2
ATOM      2  C   UNL     1       6.126 -23.015   7.204  1.00  0.00     0.004 C 
BRANCH   2   3
ATOM      3  C   UNL     1       5.038 -23.695   8.094  1.00  0.00    -0.009 C 
BRANCH   3   4
ATOM      4  C   UNL     1       5.259 -23.409   9.611  1.00  0.00     0.000 C 
ATOM      5  C   UNL     1       4.565 -22.128  10.097  1.00  0.00     0.004 C 
ENDBRANCH   3   4
BRANCH   3   6
ATOM      6  C   UNL     1       4.903 -25.227   7.784  1.00  0.00    -0.014 C 
ATOM      7  C   UNL     1       4.917 -26.099   9.054  1.00  0.00     0.007 C 
ATOM      8  C   UNL     1       3.674 -25.584   6.920  1.00  0.00     0.007 C 
ENDBRANCH   3   6
ENDBRANCH   2   3
ENDBRANCH   1   2
BRANCH   1   9
ATOM      9  C   UNL     1       5.486 -22.829   4.588  1.00  0.00    -0.011 C 
ATOM     10  C   UNL     1       4.028 -23.104   4.162  1.00  0.00     0.008 C 
BRANCH   9  11
ATOM     11  C   UNL     1       6.387 -24.104   4.351  1.00  0.00    -0.002 C 
ATOM     12  C   UNL     1       7.732 -23.788   3.665  1.00  0.00     0.005 C 
ATOM     13  C   UNL     1       5.771 -25.341   3.577  1.00  0.00    -0.026 C 
ATOM     14  C   UNL     1       7.994 -24.921   2.684  1.00  0.00     0.005 C 
ATOM     15  C   UNL     1       6.604 -25.416   2.276  1.00  0.00    -0.001 C 
ATOM     16  C   UNL     1       6.003 -26.628   4.439  1.00  0.00     0.007 C 
ATOM     17  C   UNL     1       4.259 -25.217   3.251  1.00  0.00     0.012 C 
ATOM     18  C   UNL     1       6.568 -26.792   1.530  1.00  0.00     0.000 C 
ATOM     19  C   UNL     1       5.812 -27.932   3.664  1.00  0.00     0.005 C 
ATOM     20  C   UNL     1       6.772 -28.016   2.450  1.00  0.00     0.003 C 
ATOM     21  C   UNL     1       7.615 -26.832   0.408  1.00  0.00     0.031 C 
ATOM     22  C   UNL     1       6.677 -29.393   1.660  1.00  0.00    -0.008 C 
ATOM     23  C   UNL     1       7.548 -28.114  -0.353  1.00  0.00    -0.027 C 
ATOM     24  C   UNL     1       7.211 -29.288   0.216  1.00  0.00    -0.065 C 
ATOM     25  C   UNL     1       5.198 -29.895   1.549  1.00  0.00     0.014 C 
ATOM     26  C   UNL     1       7.529 -30.436   2.432  1.00  0.00     0.016 C 
ATOM     27  C   UNL     1       7.104 -30.512  -0.671  1.00  0.00     0.063 C 
ATOM     28  C   UNL     1       5.015 -31.143   0.657  1.00  0.00     0.033 C 
ATOM     29  C   UNL     1       5.643 -30.990  -0.744  1.00  0.00     0.118 C 
BRANCH  29  30
ATOM     30  O   UNL     1       4.864 -30.148  -1.560  1.00  0.00    -0.393 OA
ATOM     31  H   UNL     1       5.455 -29.761  -2.261  1.00  0.00     0.210 HD
ENDBRANCH  29  30
ENDBRANCH   9  11
ENDBRANCH   1   9
TORSDOF 7
ENDMDL
MODEL 5
REMARK VINA RESULT:    -5.657      3.389      7.712
REMARK INTER + INTRA:         -10.105
REMARK INTER:                  -7.782
REMARK INTRA:                  -2.323
REMARK UNBOUND:                -2.299
REMARK SMILES CC[C@@H](CC[C@H](C)[C@@H]1CC[C@H]2[C@H]3CC=C4C[C@H](O)CC[C@]4(C)[C@@H]3CC[C@]21C)C(C)C
REMARK SMILES IDX 5 1 4 2 3 3 2 4 1 5 28 6 29 7 30 8 6 9 7 10 8 11 9 12 26 13
REMARK SMILES IDX 10 14 11 15 25 16 27 17 12 18 24 19 23 20 13 21 21 22 14 23
REMARK SMILES IDX 15 24 20 25 22 26 16 27 19 28 17 29 18 30
REMARK H PARENT 18 31
REMARK Flexibility Score: inf
ROOT
ATOM      1  C   UNL     1       5.038 -23.590   5.103  1.00  0.00     0.004 C 
ENDROOT
BRANCH   1   2
ATOM      2  C   UNL     1       4.238 -23.918   6.397  1.00  0.00     0.004 C 
BRANCH   2   3
ATOM      3  C   UNL     1       4.701 -25.149   7.237  1.00  0.00    -0.009 C 
BRANCH   3   4
ATOM      4  C   UNL     1       3.547 -26.174   7.462  1.00  0.00     0.000 C 
ATOM      5  C   UNL     1       2.361 -25.975   6.507  1.00  0.00     0.004 C 
ENDBRANCH   3   4
BRANCH   3   6
ATOM      6  C   UNL     1       5.389 -24.716   8.579  1.00  0.00    -0.014 C 
ATOM      7  C   UNL     1       5.287 -23.202   8.843  1.00  0.00     0.007 C 
ATOM      8  C   UNL     1       4.894 -25.496   9.815  1.00  0.00     0.007 C 
ENDBRANCH   3   6
ENDBRANCH   2   3
ENDBRANCH   1   2
BRANCH   1   9
ATOM      9  C   UNL     1       6.185 -24.565   4.643  1.00  0.00    -0.011 C 
ATOM     10  C   UNL     1       7.461 -23.859   4.139  1.00  0.00     0.008 C 
BRANCH   9  11
ATOM     11  C   UNL     1       5.741 -25.700   3.641  1.00  0.00    -0.002 C 
ATOM     12  C   UNL     1       4.308 -25.519   3.099  1.00  0.00     0.005 C 
ATOM     13  C   UNL     1       5.857 -27.212   4.100  1.00  0.00    -0.026 C 
ATOM     14  C   UNL     1       3.689 -26.908   3.038  1.00  0.00     0.005 C 
ATOM     15  C   UNL     1       4.388 -27.698   4.147  1.00  0.00    -0.001 C 
ATOM     16  C   UNL     1       6.649 -28.002   3.003  1.00  0.00     0.007 C 
ATOM     17  C   UNL     1       6.546 -27.424   5.473  1.00  0.00     0.012 C 
ATOM     18  C   UNL     1       4.189 -29.251   4.101  1.00  0.00     0.000 C 
ATOM     19  C   UNL     1       6.509 -29.520   3.116  1.00  0.00     0.005 C 
ATOM     20  C   UNL     1       5.027 -29.963   3.016  1.00  0.00     0.003 C 
ATOM     21  C   UNL     1       2.709 -29.604   3.900  1.00  0.00     0.031 C 
ATOM     22  C   UNL     1       4.833 -31.542   3.038  1.00  0.00    -0.008 C 
ATOM     23  C   UNL     1       2.496 -31.081   3.918  1.00  0.00    -0.027 C 
ATOM     24  C   UNL     1       3.408 -31.960   3.454  1.00  0.00    -0.065 C 
ATOM     25  C   UNL     1       5.809 -32.229   4.050  1.00  0.00     0.014 C 
ATOM     26  C   UNL     1       5.108 -32.067   1.603  1.00  0.00     0.016 C 
ATOM     27  C   UNL     1       3.113 -33.440   3.592  1.00  0.00     0.063 C 
ATOM     28  C   UNL     1       5.565 -33.743   4.240  1.00  0.00     0.033 C 
ATOM     29  C   UNL     1       4.100 -34.089   4.578  1.00  0.00     0.118 C 
BRANCH  29  30
ATOM     30  O   UNL     1       3.794 -33.754   5.910  1.00  0.00    -0.393 OA
ATOM     31  H   UNL     1       3.920 -32.773   6.021  1.00  0.00     0.210 HD
ENDBRANCH  29  30
ENDBRANCH   9  11
ENDBRANCH   1   9
TORSDOF 7
ENDMDL
MODEL 6
REMARK VINA RESULT:    -5.602      2.498      4.927
REMARK INTER + INTRA:         -10.030
REMARK INTER:                  -7.817
REMARK INTRA:                  -2.212
REMARK UNBOUND:                -2.299
REMARK SMILES CC[C@@H](CC[C@H](C)[C@@H]1CC[C@H]2[C@H]3CC=C4C[C@H](O)CC[C@]4(C)[C@@H]3CC[C@]21C)C(C)C
REMARK SMILES IDX 5 1 4 2 3 3 2 4 1 5 28 6 29 7 30 8 6 9 7 10 8 11 9 12 26 13
REMARK SMILES IDX 10 14 11 15 25 16 27 17 12 18 24 19 23 20 13 21 21 22 14 23
REMARK SMILES IDX 15 24 20 25 22 26 16 27 19 28 17 29 18 30
REMARK H PARENT 18 31
REMARK Flexibility Score: inf
ROOT
ATOM      1  C   UNL     1       5.517 -33.331   4.147  1.00  0.00     0.004 C 
ENDROOT
BRANCH   1   2
ATOM      2  C   UNL     1       4.174 -33.312   4.933  1.00  0.00     0.004 C 
BRANCH   2   3
ATOM      3  C   UNL     1       3.893 -32.079   5.848  1.00  0.00    -0.009 C 
BRANCH   3   4
ATOM      4  C   UNL     1       3.499 -32.500   7.296  1.00  0.00     0.000 C 
ATOM      5  C   UNL     1       3.452 -34.022   7.497  1.00  0.00     0.004 C 
ENDBRANCH   3   4
BRANCH   3   6
ATOM      6  C   UNL     1       2.852 -31.097   5.203  1.00  0.00    -0.014 C 
ATOM      7  C   UNL     1       1.496 -31.767   4.915  1.00  0.00     0.007 C 
ATOM      8  C   UNL     1       2.632 -29.801   6.012  1.00  0.00     0.007 C 
ENDBRANCH   3   6
ENDBRANCH   2   3
ENDBRANCH   1   2
BRANCH   1   9
ATOM      9  C   UNL     1       5.669 -32.431   2.865  1.00  0.00    -0.011 C 
ATOM     10  C   UNL     1       6.156 -33.184   1.609  1.00  0.00     0.008 C 
BRANCH   9  11
ATOM     11  C   UNL     1       6.489 -31.099   3.071  1.00  0.00    -0.002 C 
ATOM     12  C   UNL     1       7.259 -31.049   4.407  1.00  0.00     0.005 C 
ATOM     13  C   UNL     1       5.736 -29.711   2.938  1.00  0.00    -0.026 C 
ATOM     14  C   UNL     1       7.142 -29.622   4.921  1.00  0.00     0.005 C 
ATOM     15  C   UNL     1       5.811 -29.110   4.362  1.00  0.00    -0.001 C 
ATOM     16  C   UNL     1       6.533 -28.811   1.933  1.00  0.00     0.007 C 
ATOM     17  C   UNL     1       4.262 -29.813   2.466  1.00  0.00     0.012 C 
ATOM     18  C   UNL     1       5.588 -27.564   4.455  1.00  0.00     0.000 C 
ATOM     19  C   UNL     1       6.152 -27.332   1.995  1.00  0.00     0.005 C 
ATOM     20  C   UNL     1       6.381 -26.747   3.412  1.00  0.00     0.003 C 
ATOM     21  C   UNL     1       5.932 -27.047   5.859  1.00  0.00     0.031 C 
ATOM     22  C   UNL     1       6.085 -25.186   3.509  1.00  0.00    -0.008 C 
ATOM     23  C   UNL     1       5.662 -25.584   5.981  1.00  0.00    -0.027 C 
ATOM     24  C   UNL     1       5.810 -24.723   4.954  1.00  0.00    -0.065 C 
ATOM     25  C   UNL     1       4.828 -24.783   2.669  1.00  0.00     0.014 C 
ATOM     26  C   UNL     1       7.337 -24.438   2.976  1.00  0.00     0.016 C 
ATOM     27  C   UNL     1       5.436 -23.271   5.175  1.00  0.00     0.063 C 
ATOM     28  C   UNL     1       4.389 -23.313   2.846  1.00  0.00     0.033 C 
ATOM     29  C   UNL     1       4.209 -22.902   4.322  1.00  0.00     0.118 C 
BRANCH  29  30
ATOM     30  O   UNL     1       3.026 -23.443   4.858  1.00  0.00    -0.393 OA
ATOM     31  H   UNL     1       2.744 -24.206   4.285  1.00  0.00     0.210 HD
ENDBRANCH  29  30
ENDBRANCH   9  11
ENDBRANCH   1   9
TORSDOF 7
ENDMDL
MODEL 7
REMARK VINA RESULT:    -5.528      4.311      8.544
REMARK INTER + INTRA:          -9.928
REMARK INTER:                  -8.273
REMARK INTRA:                  -1.654
REMARK UNBOUND:                -2.299
REMARK SMILES CC[C@@H](CC[C@H](C)[C@@H]1CC[C@H]2[C@H]3CC=C4C[C@H](O)CC[C@]4(C)[C@@H]3CC[C@]21C)C(C)C
REMARK SMILES IDX 5 1 4 2 3 3 2 4 1 5 28 6 29 7 30 8 6 9 7 10 8 11 9 12 26 13
REMARK SMILES IDX 10 14 11 15 25 16 27 17 12 18 24 19 23 20 13 21 21 22 14 23
REMARK SMILES IDX 15 24 20 25 22 26 16 27 19 28 17 29 18 30
REMARK H PARENT 18 31
REMARK Flexibility Score: inf
ROOT
ATOM      1  C   UNL     1       4.600 -23.966   4.439  1.00  0.00     0.004 C 
ENDROOT
BRANCH   1   2
ATOM      2  C   UNL     1       4.691 -22.914   5.583  1.00  0.00     0.004 C 
BRANCH   2   3
ATOM      3  C   UNL     1       6.114 -22.547   6.111  1.00  0.00    -0.009 C 
BRANCH   3   4
ATOM      4  C   UNL     1       7.212 -22.737   5.020  1.00  0.00     0.000 C 
ATOM      5  C   UNL     1       7.969 -21.444   4.685  1.00  0.00     0.004 C 
ENDBRANCH   3   4
BRANCH   3   6
ATOM      6  C   UNL     1       6.455 -23.299   7.444  1.00  0.00    -0.014 C 
ATOM      7  C   UNL     1       5.292 -23.286   8.455  1.00  0.00     0.007 C 
ATOM      8  C   UNL     1       6.949 -24.747   7.236  1.00  0.00     0.007 C 
ENDBRANCH   3   6
ENDBRANCH   2   3
ENDBRANCH   1   2
BRANCH   1   9
ATOM      9  C   UNL     1       4.195 -25.445   4.789  1.00  0.00    -0.011 C 
ATOM     10  C   UNL     1       3.645 -25.638   6.218  1.00  0.00     0.008 C 
BRANCH   9  11
ATOM     11  C   UNL     1       5.286 -26.538   4.458  1.00  0.00    -0.002 C 
ATOM     12  C   UNL     1       6.450 -26.005   3.598  1.00  0.00     0.005 C 
ATOM     13  C   UNL     1       4.825 -27.899   3.792  1.00  0.00    -0.026 C 
ATOM     14  C   UNL     1       6.799 -27.109   2.611  1.00  0.00     0.005 C 
ATOM     15  C   UNL     1       5.489 -27.871   2.395  1.00  0.00    -0.001 C 
ATOM     16  C   UNL     1       5.404 -29.084   4.639  1.00  0.00     0.007 C 
ATOM     17  C   UNL     1       3.289 -28.073   3.663  1.00  0.00     0.012 C 
ATOM     18  C   UNL     1       5.623 -29.260   1.683  1.00  0.00     0.000 C 
ATOM     19  C   UNL     1       5.370 -30.431   3.917  1.00  0.00     0.005 C 
ATOM     20  C   UNL     1       6.170 -30.384   2.590  1.00  0.00     0.003 C 
ATOM     21  C   UNL     1       6.511 -29.149   0.436  1.00  0.00     0.031 C 
ATOM     22  C   UNL     1       6.242 -31.787   1.842  1.00  0.00    -0.008 C 
ATOM     23  C   UNL     1       6.596 -30.451  -0.288  1.00  0.00    -0.027 C 
ATOM     24  C   UNL     1       6.562 -31.643   0.340  1.00  0.00    -0.065 C 
ATOM     25  C   UNL     1       4.884 -32.560   1.933  1.00  0.00     0.014 C 
ATOM     26  C   UNL     1       7.366 -32.619   2.515  1.00  0.00     0.016 C 
ATOM     27  C   UNL     1       6.581 -32.901  -0.505  1.00  0.00     0.063 C 
ATOM     28  C   UNL     1       4.832 -33.856   1.094  1.00  0.00     0.033 C 
ATOM     29  C   UNL     1       5.240 -33.647  -0.379  1.00  0.00     0.118 C 
BRANCH  29  30
ATOM     30  O   UNL     1       4.220 -32.999  -1.101  1.00  0.00    -0.393 OA
ATOM     31  H   UNL     1       4.645 -32.362  -1.736  1.00  0.00     0.210 HD
ENDBRANCH  29  30
ENDBRANCH   9  11
ENDBRANCH   1   9
TORSDOF 7
ENDMDL
MODEL 8
REMARK VINA RESULT:    -5.521      4.065      8.359
REMARK INTER + INTRA:          -9.917
REMARK INTER:                  -8.487
REMARK INTRA:                  -1.430
REMARK UNBOUND:                -2.299
REMARK SMILES CC[C@@H](CC[C@H](C)[C@@H]1CC[C@H]2[C@H]3CC=C4C[C@H](O)CC[C@]4(C)[C@@H]3CC[C@]21C)C(C)C
REMARK SMILES IDX 5 1 4 2 3 3 2 4 1 5 28 6 29 7 30 8 6 9 7 10 8 11 9 12 26 13
REMARK SMILES IDX 10 14 11 15 25 16 27 17 12 18 24 19 23 20 13 21 21 22 14 23
REMARK SMILES IDX 15 24 20 25 22 26 16 27 19 28 17 29 18 30
REMARK H PARENT 18 31
REMARK Flexibility Score: inf
ROOT
ATOM      1  C   UNL     1       3.792 -25.025   5.226  1.00  0.00     0.004 C 
ENDROOT
BRANCH   1   2
ATOM      2  C   UNL     1       3.992 -24.018   6.395  1.00  0.00     0.004 C 
BRANCH   2   3
ATOM      3  C   UNL     1       5.392 -23.988   7.087  1.00  0.00    -0.009 C 
BRANCH   3   4
ATOM      4  C   UNL     1       5.281 -23.762   8.625  1.00  0.00     0.000 C 
ATOM      5  C   UNL     1       5.243 -25.069   9.431  1.00  0.00     0.004 C 
ENDBRANCH   3   4
BRANCH   3   6
ATOM      6  C   UNL     1       6.362 -22.965   6.398  1.00  0.00    -0.014 C 
ATOM      7  C   UNL     1       7.405 -23.645   5.491  1.00  0.00     0.007 C 
ATOM      8  C   UNL     1       5.639 -21.847   5.616  1.00  0.00     0.007 C 
ENDBRANCH   3   6
ENDBRANCH   2   3
ENDBRANCH   1   2
BRANCH   1   9
ATOM      9  C   UNL     1       3.472 -26.530   5.557  1.00  0.00    -0.011 C 
ATOM     10  C   UNL     1       3.028 -26.784   7.014  1.00  0.00     0.008 C 
BRANCH   9  11
ATOM     11  C   UNL     1       4.583 -27.565   5.124  1.00  0.00    -0.002 C 
ATOM     12  C   UNL     1       5.823 -26.906   4.486  1.00  0.00     0.005 C 
ATOM     13  C   UNL     1       4.177 -28.767   4.175  1.00  0.00    -0.026 C 
ATOM     14  C   UNL     1       6.254 -27.813   3.343  1.00  0.00     0.005 C 
ATOM     15  C   UNL     1       4.965 -28.492   2.872  1.00  0.00    -0.001 C 
ATOM     16  C   UNL     1       4.671 -30.102   4.830  1.00  0.00     0.007 C 
ATOM     17  C   UNL     1       2.658 -28.879   3.881  1.00  0.00     0.012 C 
ATOM     18  C   UNL     1       5.156 -29.725   1.926  1.00  0.00     0.000 C 
ATOM     19  C   UNL     1       4.695 -31.288   3.867  1.00  0.00     0.005 C 
ATOM     20  C   UNL     1       5.612 -31.011   2.649  1.00  0.00     0.003 C 
ATOM     21  C   UNL     1       6.154 -29.403   0.805  1.00  0.00     0.031 C 
ATOM     22  C   UNL     1       5.744 -32.250   1.659  1.00  0.00    -0.008 C 
ATOM     23  C   UNL     1       6.297 -30.547  -0.141  1.00  0.00    -0.027 C 
ATOM     24  C   UNL     1       6.200 -31.835   0.245  1.00  0.00    -0.065 C 
ATOM     25  C   UNL     1       4.379 -32.996   1.482  1.00  0.00     0.014 C 
ATOM     26  C   UNL     1       6.799 -33.219   2.259  1.00  0.00     0.016 C 
ATOM     27  C   UNL     1       6.289 -32.913  -0.817  1.00  0.00     0.063 C 
ATOM     28  C   UNL     1       4.397 -34.110   0.412  1.00  0.00     0.033 C 
ATOM     29  C   UNL     1       4.938 -33.638  -0.953  1.00  0.00     0.118 C 
BRANCH  29  30
ATOM     30  O   UNL     1       3.991 -32.844  -1.627  1.00  0.00    -0.393 OA
ATOM     31  H   UNL     1       4.348 -31.917  -1.685  1.00  0.00     0.210 HD
ENDBRANCH  29  30
ENDBRANCH   9  11
ENDBRANCH   1   9
TORSDOF 7
ENDMDL
MODEL 9
REMARK VINA RESULT:    -5.368      3.851      7.802
REMARK INTER + INTRA:          -9.707
REMARK INTER:                  -8.334
REMARK INTRA:                  -1.373
REMARK UNBOUND:                -2.299
REMARK SMILES CC[C@@H](CC[C@H](C)[C@@H]1CC[C@H]2[C@H]3CC=C4C[C@H](O)CC[C@]4(C)[C@@H]3CC[C@]21C)C(C)C
REMARK SMILES IDX 5 1 4 2 3 3 2 4 1 5 28 6 29 7 30 8 6 9 7 10 8 11 9 12 26 13
REMARK SMILES IDX 10 14 11 15 25 16 27 17 12 18 24 19 23 20 13 21 21 22 14 23
REMARK SMILES IDX 15 24 20 25 22 26 16 27 19 28 17 29 18 30
REMARK H PARENT 18 31
REMARK Flexibility Score: inf
ROOT
ATOM      1  C   UNL     1       3.813 -24.408   5.025  1.00  0.00     0.004 C 
ENDROOT
BRANCH   1   2
ATOM      2  C   UNL     1       4.063 -24.516   6.557  1.00  0.00     0.004 C 
BRANCH   2   3
ATOM      3  C   UNL     1       4.439 -25.920   7.128  1.00  0.00    -0.009 C 
BRANCH   3   4
ATOM      4  C   UNL     1       3.207 -26.655   7.737  1.00  0.00     0.000 C 
ATOM      5  C   UNL     1       2.520 -27.613   6.753  1.00  0.00     0.004 C 
ENDBRANCH   3   4
BRANCH   3   6
ATOM      6  C   UNL     1       5.646 -25.840   8.127  1.00  0.00    -0.014 C 
ATOM      7  C   UNL     1       6.895 -25.184   7.508  1.00  0.00     0.007 C 
ATOM      8  C   UNL     1       5.304 -25.150   9.466  1.00  0.00     0.007 C 
ENDBRANCH   3   6
ENDBRANCH   2   3
ENDBRANCH   1   2
BRANCH   1   9
ATOM      9  C   UNL     1       5.038 -24.188   4.062  1.00  0.00    -0.011 C 
ATOM     10  C   UNL     1       4.667 -23.631   2.671  1.00  0.00     0.008 C 
BRANCH   9  11
ATOM     11  C   UNL     1       6.018 -25.419   3.928  1.00  0.00    -0.002 C 
ATOM     12  C   UNL     1       7.226 -25.148   3.009  1.00  0.00     0.005 C 
ATOM     13  C   UNL     1       5.426 -26.821   3.487  1.00  0.00    -0.026 C 
ATOM     14  C   UNL     1       7.464 -26.426   2.220  1.00  0.00     0.005 C 
ATOM     15  C   UNL     1       6.087 -27.085   2.113  1.00  0.00    -0.001 C 
ATOM     16  C   UNL     1       5.890 -27.901   4.522  1.00  0.00     0.007 C 
ATOM     17  C   UNL     1       3.880 -26.866   3.367  1.00  0.00     0.012 C 
ATOM     18  C   UNL     1       6.085 -28.577   1.638  1.00  0.00     0.000 C 
ATOM     19  C   UNL     1       5.724 -29.338   4.029  1.00  0.00     0.005 C 
ATOM     20  C   UNL     1       6.522 -29.585   2.723  1.00  0.00     0.003 C 
ATOM     21  C   UNL     1       6.976 -28.757   0.402  1.00  0.00     0.031 C 
ATOM     22  C   UNL     1       6.456 -31.092   2.214  1.00  0.00    -0.008 C 
ATOM     23  C   UNL     1       6.933 -30.162  -0.100  1.00  0.00    -0.027 C 
ATOM     24  C   UNL     1       6.786 -31.227   0.714  1.00  0.00    -0.065 C 
ATOM     25  C   UNL     1       5.030 -31.706   2.411  1.00  0.00     0.014 C 
ATOM     26  C   UNL     1       7.497 -31.906   3.029  1.00  0.00     0.016 C 
ATOM     27  C   UNL     1       6.681 -32.602   0.085  1.00  0.00     0.063 C 
ATOM     28  C   UNL     1       4.852 -33.111   1.793  1.00  0.00     0.033 C 
ATOM     29  C   UNL     1       5.275 -33.185   0.312  1.00  0.00     0.118 C 
BRANCH  29  30
ATOM     30  O   UNL     1       4.320 -32.570  -0.520  1.00  0.00    -0.393 OA
ATOM     31  H   UNL     1       3.458 -33.056  -0.418  1.00  0.00     0.210 HD
ENDBRANCH  29  30
ENDBRANCH   9  11
ENDBRANCH   1   9
TORSDOF 7
ENDMDL
