MODEL 1
REMARK VINA RESULT:    -0.577      0.000      0.000
REMARK INTER + INTRA:          -2.550
REMARK INTER:                  -1.252
REMARK INTRA:                  -1.298
REMARK UNBOUND:                -1.298
REMARK SMILES CCCCCCCCCCCCCCCCCCCCCC(=O)[O-]
REMARK SMILES IDX 12 1 11 2 10 3 9 4 8 5 7 6 6 7 5 8 4 9 3 10 2 11 1 12 13 13
REMARK SMILES IDX 14 14 15 15 16 16 17 17 18 18 19 19 20 20 21 21 22 22 23 23
REMARK SMILES IDX 24 24
REMARK H PARENT
REMARK Flexibility Score: inf
ROOT
ATOM      1  C   UNL     1       4.248 -37.024  20.116  1.00  0.00     0.000 C 
ENDROOT
BRANCH   1   2
ATOM      2  C   UNL     1       2.881 -36.495  19.625  1.00  0.00     0.000 C 
BRANCH   2   3
ATOM      3  C   UNL     1       1.932 -37.631  19.207  1.00  0.00     0.000 C 
BRANCH   3   4
ATOM      4  C   UNL     1       0.508 -37.137  18.897  1.00  0.00    -0.000 C 
BRANCH   4   5
ATOM      5  C   UNL     1       0.366 -36.348  17.579  1.00  0.00    -0.000 C 
BRANCH   5   6
ATOM      6  C   UNL     1       1.468 -36.611  16.535  1.00  0.00    -0.000 C 
BRANCH   6   7
ATOM      7  C   UNL     1       2.007 -35.356  15.817  1.00  0.00    -0.000 C 
BRANCH   7   8
ATOM      8  C   UNL     1       3.503 -35.399  15.460  1.00  0.00    -0.000 C 
BRANCH   8   9
ATOM      9  C   UNL     1       3.761 -35.863  14.017  1.00  0.00    -0.000 C 
BRANCH   9  10
ATOM     10  C   UNL     1       4.852 -36.946  13.923  1.00  0.00    -0.000 C 
BRANCH  10  11
ATOM     11  C   UNL     1       4.420 -38.350  14.381  1.00  0.00    -0.003 C 
ATOM     12  C   UNL     1       5.347 -39.456  13.880  1.00  0.00     0.004 C 
ENDBRANCH  10  11
ENDBRANCH   9  10
ENDBRANCH   8   9
ENDBRANCH   7   8
ENDBRANCH   6   7
ENDBRANCH   5   6
ENDBRANCH   4   5
ENDBRANCH   3   4
ENDBRANCH   2   3
ENDBRANCH   1   2
BRANCH   1  13
ATOM     13  C   UNL     1       5.361 -35.959  20.115  1.00  0.00     0.000 C 
BRANCH  13  14
ATOM     14  C   UNL     1       6.102 -35.795  21.454  1.00  0.00     0.000 C 
BRANCH  14  15
ATOM     15  C   UNL     1       6.005 -34.395  22.091  1.00  0.00     0.000 C 
BRANCH  15  16
ATOM     16  C   UNL     1       5.031 -34.282  23.277  1.00  0.00     0.000 C 
BRANCH  16  17
ATOM     17  C   UNL     1       5.693 -34.591  24.628  1.00  0.00     0.000 C 
BRANCH  17  18
ATOM     18  C   UNL     1       6.125 -36.060  24.704  1.00  0.00     0.000 C 
BRANCH  18  19
ATOM     19  C   UNL     1       5.070 -36.909  25.423  1.00  0.00     0.000 C 
BRANCH  19  20
ATOM     20  C   UNL     1       5.061 -38.346  24.889  1.00  0.00     0.006 C 
BRANCH  20  21
ATOM     21  C   UNL     1       5.582 -38.402  23.450  1.00  0.00     0.053 C 
BRANCH  21  22
ATOM     22  C   UNL     1       5.630 -39.815  22.962  1.00  0.00     0.041 C 
ATOM     23  O   UNL     1       5.895 -40.059  21.755  1.00  0.00    -0.550 OA
ATOM     24  O   UNL     1       5.425 -40.865  23.848  1.00  0.00    -0.550 OA
ENDBRANCH  21  22
ENDBRANCH  20  21
ENDBRANCH  19  20
ENDBRANCH  18  19
ENDBRANCH  17  18
ENDBRANCH  16  17
ENDBRANCH  15  16
ENDBRANCH  14  15
ENDBRANCH  13  14
ENDBRANCH   1  13
TORSDOF 20
ENDMDL
MODEL 2
REMARK VINA RESULT:    -0.270      2.328      8.575
REMARK INTER + INTRA:          -1.883
REMARK INTER:                  -0.726
REMARK INTRA:                  -1.157
REMARK UNBOUND:                -1.298
REMARK SMILES CCCCCCCCCCCCCCCCCCCCCC(=O)[O-]
REMARK SMILES IDX 12 1 11 2 10 3 9 4 8 5 7 6 6 7 5 8 4 9 3 10 2 11 1 12 13 13
REMARK SMILES IDX 14 14 15 15 16 16 17 17 18 18 19 19 20 20 21 21 22 22 23 23
REMARK SMILES IDX 24 24
REMARK H PARENT
REMARK Flexibility Score: inf
ROOT
ATOM      1  C   UNL     1       4.128 -36.715  20.474  1.00  0.00     0.000 C 
ENDROOT
BRANCH   1   2
ATOM      2  C   UNL     1       5.638 -36.504  20.728  1.00  0.00     0.000 C 
BRANCH   2   3
ATOM      3  C   UNL     1       5.937 -36.116  22.186  1.00  0.00     0.000 C 
BRANCH   3   4
ATOM      4  C   UNL     1       5.394 -34.725  22.558  1.00  0.00    -0.000 C 
BRANCH   4   5
ATOM      5  C   UNL     1       5.669 -34.289  24.012  1.00  0.00    -0.000 C 
BRANCH   5   6
ATOM      6  C   UNL     1       5.854 -35.441  25.019  1.00  0.00    -0.000 C 
BRANCH   6   7
ATOM      7  C   UNL     1       4.588 -35.832  25.809  1.00  0.00    -0.000 C 
BRANCH   7   8
ATOM      8  C   UNL     1       4.481 -37.323  26.176  1.00  0.00    -0.000 C 
BRANCH   8   9
ATOM      9  C   UNL     1       5.519 -38.194  25.449  1.00  0.00    -0.000 C 
BRANCH   9  10
ATOM     10  C   UNL     1       5.102 -38.546  24.008  1.00  0.00    -0.000 C 
BRANCH  10  11
ATOM     11  C   UNL     1       5.713 -39.844  23.452  1.00  0.00    -0.003 C 
ATOM     12  C   UNL     1       5.863 -39.832  21.931  1.00  0.00     0.004 C 
ENDBRANCH  10  11
ENDBRANCH   9  10
ENDBRANCH   8   9
ENDBRANCH   7   8
ENDBRANCH   6   7
ENDBRANCH   5   6
ENDBRANCH   4   5
ENDBRANCH   3   4
ENDBRANCH   2   3
ENDBRANCH   1   2
BRANCH   1  13
ATOM     13  C   UNL     1       3.764 -36.866  18.985  1.00  0.00     0.000 C 
BRANCH  13  14
ATOM     14  C   UNL     1       2.273 -37.128  18.705  1.00  0.00     0.000 C 
BRANCH  14  15
ATOM     15  C   UNL     1       1.731 -36.505  17.403  1.00  0.00     0.000 C 
BRANCH  15  16
ATOM     16  C   UNL     1       2.802 -36.108  16.372  1.00  0.00     0.000 C 
BRANCH  16  17
ATOM     17  C   UNL     1       2.209 -35.708  15.014  1.00  0.00     0.000 C 
BRANCH  17  18
ATOM     18  C   UNL     1       3.189 -36.014  13.875  1.00  0.00     0.000 C 
BRANCH  18  19
ATOM     19  C   UNL     1       4.415 -36.777  14.392  1.00  0.00     0.000 C 
BRANCH  19  20
ATOM     20  C   UNL     1       4.188 -38.291  14.329  1.00  0.00     0.006 C 
BRANCH  20  21
ATOM     21  C   UNL     1       5.494 -39.031  14.030  1.00  0.00     0.053 C 
BRANCH  21  22
ATOM     22  C   UNL     1       5.409 -40.455  14.483  1.00  0.00     0.041 C 
ATOM     23  O   UNL     1       6.124 -40.859  15.438  1.00  0.00    -0.550 OA
ATOM     24  O   UNL     1       4.509 -41.325  13.880  1.00  0.00    -0.550 OA
ENDBRANCH  21  22
ENDBRANCH  20  21
ENDBRANCH  19  20
ENDBRANCH  18  19
ENDBRANCH  17  18
ENDBRANCH  16  17
ENDBRANCH  15  16
ENDBRANCH  14  15
ENDBRANCH  13  14
ENDBRANCH   1  13
TORSDOF 20
ENDMDL
MODEL 3
REMARK VINA RESULT:     0.088      2.118      4.170
REMARK INTER + INTRA:          -1.108
REMARK INTER:                  -0.189
REMARK INTRA:                  -0.919
REMARK UNBOUND:                -1.298
REMARK SMILES CCCCCCCCCCCCCCCCCCCCCC(=O)[O-]
REMARK SMILES IDX 12 1 11 2 10 3 9 4 8 5 7 6 6 7 5 8 4 9 3 10 2 11 1 12 13 13
REMARK SMILES IDX 14 14 15 15 16 16 17 17 18 18 19 19 20 20 21 21 22 22 23 23
REMARK SMILES IDX 24 24
REMARK H PARENT
REMARK Flexibility Score: inf
ROOT
ATOM      1  C   UNL     1       5.324 -34.629  22.997  1.00  0.00     0.000 C 
ENDROOT
BRANCH   1   2
ATOM      2  C   UNL     1       6.122 -34.713  21.676  1.00  0.00     0.000 C 
BRANCH   2   3
ATOM      3  C   UNL     1       5.242 -34.448  20.443  1.00  0.00     0.000 C 
BRANCH   3   4
ATOM      4  C   UNL     1       5.946 -33.586  19.380  1.00  0.00    -0.000 C 
BRANCH   4   5
ATOM      5  C   UNL     1       5.557 -33.907  17.922  1.00  0.00    -0.000 C 
BRANCH   5   6
ATOM      6  C   UNL     1       4.179 -34.574  17.742  1.00  0.00    -0.000 C 
BRANCH   6   7
ATOM      7  C   UNL     1       4.010 -35.394  16.447  1.00  0.00    -0.000 C 
BRANCH   7   8
ATOM      8  C   UNL     1       2.612 -35.325  15.806  1.00  0.00    -0.000 C 
BRANCH   8   9
ATOM      9  C   UNL     1       2.628 -35.641  14.302  1.00  0.00    -0.000 C 
BRANCH   9  10
ATOM     10  C   UNL     1       3.857 -36.465  13.875  1.00  0.00    -0.000 C 
BRANCH  10  11
ATOM     11  C   UNL     1       4.190 -37.658  14.788  1.00  0.00    -0.003 C 
ATOM     12  C   UNL     1       4.943 -38.774  14.065  1.00  0.00     0.004 C 
ENDBRANCH  10  11
ENDBRANCH   9  10
ENDBRANCH   8   9
ENDBRANCH   7   8
ENDBRANCH   6   7
ENDBRANCH   5   6
ENDBRANCH   4   5
ENDBRANCH   3   4
ENDBRANCH   2   3
ENDBRANCH   1   2
BRANCH   1  13
ATOM     13  C   UNL     1       6.102 -35.136  24.225  1.00  0.00     0.000 C 
BRANCH  13  14
ATOM     14  C   UNL     1       5.225 -35.687  25.364  1.00  0.00     0.000 C 
BRANCH  14  15
ATOM     15  C   UNL     1       5.199 -37.224  25.487  1.00  0.00     0.000 C 
BRANCH  15  16
ATOM     16  C   UNL     1       5.932 -37.983  24.367  1.00  0.00     0.000 C 
BRANCH  16  17
ATOM     17  C   UNL     1       5.048 -39.029  23.672  1.00  0.00     0.000 C 
BRANCH  17  18
ATOM     18  C   UNL     1       5.739 -39.588  22.423  1.00  0.00     0.000 C 
BRANCH  18  19
ATOM     19  C   UNL     1       5.781 -38.543  21.301  1.00  0.00     0.000 C 
BRANCH  19  20
ATOM     20  C   UNL     1       4.430 -37.833  21.158  1.00  0.00     0.006 C 
BRANCH  20  21
ATOM     21  C   UNL     1       4.216 -37.341  19.724  1.00  0.00     0.053 C 
BRANCH  21  22
ATOM     22  C   UNL     1       2.769 -37.056  19.475  1.00  0.00     0.041 C 
ATOM     23  O   UNL     1       2.189 -37.554  18.475  1.00  0.00    -0.550 OA
ATOM     24  O   UNL     1       2.049 -36.274  20.370  1.00  0.00    -0.550 OA
ENDBRANCH  21  22
ENDBRANCH  20  21
ENDBRANCH  19  20
ENDBRANCH  18  19
ENDBRANCH  17  18
ENDBRANCH  16  17
ENDBRANCH  15  16
ENDBRANCH  14  15
ENDBRANCH  13  14
ENDBRANCH   1  13
TORSDOF 20
ENDMDL
MODEL 4
REMARK VINA RESULT:     0.135      3.001      6.950
REMARK INTER + INTRA:          -1.006
REMARK INTER:                   0.006
REMARK INTRA:                  -1.012
REMARK UNBOUND:                -1.298
REMARK SMILES CCCCCCCCCCCCCCCCCCCCCC(=O)[O-]
REMARK SMILES IDX 12 1 11 2 10 3 9 4 8 5 7 6 6 7 5 8 4 9 3 10 2 11 1 12 13 13
REMARK SMILES IDX 14 14 15 15 16 16 17 17 18 18 19 19 20 20 21 21 22 22 23 23
REMARK SMILES IDX 24 24
REMARK H PARENT
REMARK Flexibility Score: inf
ROOT
ATOM      1  C   UNL     1       6.049 -36.109  24.824  1.00  0.00     0.000 C 
ENDROOT
BRANCH   1   2
ATOM      2  C   UNL     1       5.608 -37.029  25.985  1.00  0.00     0.000 C 
BRANCH   2   3
ATOM      3  C   UNL     1       5.394 -38.483  25.529  1.00  0.00     0.000 C 
BRANCH   3   4
ATOM      4  C   UNL     1       5.219 -38.613  24.006  1.00  0.00    -0.000 C 
BRANCH   4   5
ATOM      5  C   UNL     1       5.722 -39.942  23.406  1.00  0.00    -0.000 C 
BRANCH   5   6
ATOM      6  C   UNL     1       6.051 -39.899  21.901  1.00  0.00    -0.000 C 
BRANCH   6   7
ATOM      7  C   UNL     1       6.100 -38.488  21.279  1.00  0.00    -0.000 C 
BRANCH   7   8
ATOM      8  C   UNL     1       4.755 -37.740  21.248  1.00  0.00    -0.000 C 
BRANCH   8   9
ATOM      9  C   UNL     1       4.407 -37.193  19.854  1.00  0.00    -0.000 C 
BRANCH   9  10
ATOM     10  C   UNL     1       2.941 -36.735  19.740  1.00  0.00    -0.000 C 
BRANCH  10  11
ATOM     11  C   UNL     1       2.176 -37.293  18.527  1.00  0.00    -0.003 C 
ATOM     12  C   UNL     1       0.698 -36.908  18.522  1.00  0.00     0.004 C 
ENDBRANCH  10  11
ENDBRANCH   9  10
ENDBRANCH   8   9
ENDBRANCH   7   8
ENDBRANCH   6   7
ENDBRANCH   5   6
ENDBRANCH   4   5
ENDBRANCH   3   4
ENDBRANCH   2   3
ENDBRANCH   1   2
BRANCH   1  13
ATOM     13  C   UNL     1       5.144 -34.878  24.631  1.00  0.00     0.000 C 
BRANCH  13  14
ATOM     14  C   UNL     1       5.472 -34.020  23.396  1.00  0.00     0.000 C 
BRANCH  14  15
ATOM     15  C   UNL     1       5.839 -34.813  22.125  1.00  0.00     0.000 C 
BRANCH  15  16
ATOM     16  C   UNL     1       6.124 -33.956  20.879  1.00  0.00     0.000 C 
BRANCH  16  17
ATOM     17  C   UNL     1       5.905 -34.717  19.564  1.00  0.00     0.000 C 
BRANCH  17  18
ATOM     18  C   UNL     1       5.928 -33.760  18.366  1.00  0.00     0.000 C 
BRANCH  18  19
ATOM     19  C   UNL     1       4.573 -33.743  17.648  1.00  0.00     0.000 C 
BRANCH  19  20
ATOM     20  C   UNL     1       4.315 -35.070  16.925  1.00  0.00     0.006 C 
BRANCH  20  21
ATOM     21  C   UNL     1       3.239 -34.910  15.848  1.00  0.00     0.053 C 
BRANCH  21  22
ATOM     22  C   UNL     1       3.320 -36.025  14.853  1.00  0.00     0.041 C 
ATOM     23  O   UNL     1       2.279 -36.434  14.276  1.00  0.00    -0.550 OA
ATOM     24  O   UNL     1       4.551 -36.583  14.531  1.00  0.00    -0.550 OA
ENDBRANCH  21  22
ENDBRANCH  20  21
ENDBRANCH  19  20
ENDBRANCH  18  19
ENDBRANCH  17  18
ENDBRANCH  16  17
ENDBRANCH  15  16
ENDBRANCH  14  15
ENDBRANCH  13  14
ENDBRANCH   1  13
TORSDOF 20
ENDMDL
MODEL 5
REMARK VINA RESULT:     0.447      2.303      7.522
REMARK INTER + INTRA:          -0.328
REMARK INTER:                   1.374
REMARK INTRA:                  -1.703
REMARK UNBOUND:                -1.298
REMARK SMILES CCCCCCCCCCCCCCCCCCCCCC(=O)[O-]
REMARK SMILES IDX 12 1 11 2 10 3 9 4 8 5 7 6 6 7 5 8 4 9 3 10 2 11 1 12 13 13
REMARK SMILES IDX 14 14 15 15 16 16 17 17 18 18 19 19 20 20 21 21 22 22 23 23
REMARK SMILES IDX 24 24
REMARK H PARENT
REMARK Flexibility Score: inf
ROOT
ATOM      1  C   UNL     1       4.886 -34.915  22.183  1.00  0.00     0.000 C 
ENDROOT
BRANCH   1   2
ATOM      2  C   UNL     1       5.655 -33.981  23.145  1.00  0.00     0.000 C 
BRANCH   2   3
ATOM      3  C   UNL     1       5.835 -34.601  24.541  1.00  0.00     0.000 C 
BRANCH   3   4
ATOM      4  C   UNL     1       5.954 -36.135  24.505  1.00  0.00    -0.000 C 
BRANCH   4   5
ATOM      5  C   UNL     1       5.691 -36.838  25.852  1.00  0.00    -0.000 C 
BRANCH   5   6
ATOM      6  C   UNL     1       5.277 -38.319  25.749  1.00  0.00    -0.000 C 
BRANCH   6   7
ATOM      7  C   UNL     1       4.845 -38.784  24.343  1.00  0.00    -0.000 C 
BRANCH   7   8
ATOM      8  C   UNL     1       5.345 -40.181  23.934  1.00  0.00    -0.000 C 
BRANCH   8   9
ATOM      9  C   UNL     1       6.008 -40.196  22.546  1.00  0.00    -0.000 C 
BRANCH   9  10
ATOM     10  C   UNL     1       5.993 -38.817  21.861  1.00  0.00    -0.000 C 
BRANCH  10  11
ATOM     11  C   UNL     1       6.114 -38.850  20.327  1.00  0.00    -0.003 C 
ATOM     12  C   UNL     1       5.651 -37.555  19.662  1.00  0.00     0.004 C 
ENDBRANCH  10  11
ENDBRANCH   9  10
ENDBRANCH   8   9
ENDBRANCH   7   8
ENDBRANCH   6   7
ENDBRANCH   5   6
ENDBRANCH   4   5
ENDBRANCH   3   4
ENDBRANCH   2   3
ENDBRANCH   1   2
BRANCH   1  13
ATOM     13  C   UNL     1       4.643 -34.306  20.790  1.00  0.00     0.000 C 
BRANCH  13  14
ATOM     14  C   UNL     1       5.907 -34.138  19.928  1.00  0.00     0.000 C 
BRANCH  14  15
ATOM     15  C   UNL     1       5.651 -33.780  18.450  1.00  0.00     0.000 C 
BRANCH  15  16
ATOM     16  C   UNL     1       4.988 -34.888  17.614  1.00  0.00     0.000 C 
BRANCH  16  17
ATOM     17  C   UNL     1       3.849 -34.369  16.724  1.00  0.00     0.000 C 
BRANCH  17  18
ATOM     18  C   UNL     1       3.835 -35.094  15.373  1.00  0.00     0.000 C 
BRANCH  18  19
ATOM     19  C   UNL     1       2.956 -36.349  15.428  1.00  0.00     0.000 C 
BRANCH  19  20
ATOM     20  C   UNL     1       1.969 -36.280  16.600  1.00  0.00     0.006 C 
BRANCH  20  21
ATOM     21  C   UNL     1       2.393 -37.217  17.733  1.00  0.00     0.053 C 
BRANCH  21  22
ATOM     22  C   UNL     1       1.498 -37.047  18.920  1.00  0.00     0.041 C 
ATOM     23  O   UNL     1       0.257 -37.227  18.807  1.00  0.00    -0.550 OA
ATOM     24  O   UNL     1       2.039 -36.733  20.160  1.00  0.00    -0.550 OA
ENDBRANCH  21  22
ENDBRANCH  20  21
ENDBRANCH  19  20
ENDBRANCH  18  19
ENDBRANCH  17  18
ENDBRANCH  16  17
ENDBRANCH  15  16
ENDBRANCH  14  15
ENDBRANCH  13  14
ENDBRANCH   1  13
TORSDOF 20
ENDMDL
MODEL 6
REMARK VINA RESULT:     0.747      2.922      7.449
REMARK INTER + INTRA:           0.322
REMARK INTER:                   0.911
REMARK INTRA:                  -0.588
REMARK UNBOUND:                -1.298
REMARK SMILES CCCCCCCCCCCCCCCCCCCCCC(=O)[O-]
REMARK SMILES IDX 12 1 11 2 10 3 9 4 8 5 7 6 6 7 5 8 4 9 3 10 2 11 1 12 13 13
REMARK SMILES IDX 14 14 15 15 16 16 17 17 18 18 19 19 20 20 21 21 22 22 23 23
REMARK SMILES IDX 24 24
REMARK H PARENT
REMARK Flexibility Score: inf
ROOT
ATOM      1  C   UNL     1       5.344 -34.547  23.147  1.00  0.00     0.000 C 
ENDROOT
BRANCH   1   2
ATOM      2  C   UNL     1       6.081 -35.013  24.423  1.00  0.00     0.000 C 
BRANCH   2   3
ATOM      3  C   UNL     1       5.136 -35.694  25.427  1.00  0.00     0.000 C 
BRANCH   3   4
ATOM      4  C   UNL     1       5.616 -37.096  25.844  1.00  0.00    -0.000 C 
BRANCH   4   5
ATOM      5  C   UNL     1       4.766 -38.262  25.298  1.00  0.00    -0.000 C 
BRANCH   5   6
ATOM      6  C   UNL     1       5.400 -39.048  24.135  1.00  0.00    -0.000 C 
BRANCH   6   7
ATOM      7  C   UNL     1       5.787 -38.203  22.904  1.00  0.00    -0.000 C 
BRANCH   7   8
ATOM      8  C   UNL     1       5.521 -38.870  21.543  1.00  0.00    -0.000 C 
BRANCH   8   9
ATOM      9  C   UNL     1       5.349 -37.853  20.402  1.00  0.00    -0.000 C 
BRANCH   9  10
ATOM     10  C   UNL     1       3.950 -37.904  19.760  1.00  0.00    -0.000 C 
BRANCH  10  11
ATOM     11  C   UNL     1       2.892 -37.010  20.430  1.00  0.00    -0.003 C 
ATOM     12  C   UNL     1       1.601 -36.899  19.621  1.00  0.00     0.004 C 
ENDBRANCH  10  11
ENDBRANCH   9  10
ENDBRANCH   8   9
ENDBRANCH   7   8
ENDBRANCH   6   7
ENDBRANCH   5   6
ENDBRANCH   4   5
ENDBRANCH   3   4
ENDBRANCH   2   3
ENDBRANCH   1   2
BRANCH   1  13
ATOM     13  C   UNL     1       6.111 -34.847  21.844  1.00  0.00     0.000 C 
BRANCH  13  14
ATOM     14  C   UNL     1       5.342 -34.522  20.551  1.00  0.00     0.000 C 
BRANCH  14  15
ATOM     15  C   UNL     1       6.085 -33.606  19.558  1.00  0.00     0.000 C 
BRANCH  15  16
ATOM     16  C   UNL     1       5.945 -33.999  18.076  1.00  0.00     0.000 C 
BRANCH  16  17
ATOM     17  C   UNL     1       4.521 -34.432  17.702  1.00  0.00     0.000 C 
BRANCH  17  18
ATOM     18  C   UNL     1       4.401 -35.960  17.674  1.00  0.00     0.000 C 
BRANCH  18  19
ATOM     19  C   UNL     1       3.241 -36.408  16.778  1.00  0.00     0.000 C 
BRANCH  19  20
ATOM     20  C   UNL     1       2.763 -35.260  15.880  1.00  0.00     0.006 C 
BRANCH  20  21
ATOM     21  C   UNL     1       2.883 -35.632  14.400  1.00  0.00     0.053 C 
BRANCH  21  22
ATOM     22  C   UNL     1       4.091 -36.484  14.168  1.00  0.00     0.041 C 
ATOM     23  O   UNL     1       5.195 -35.951  13.882  1.00  0.00    -0.550 OA
ATOM     24  O   UNL     1       4.007 -37.864  14.308  1.00  0.00    -0.550 OA
ENDBRANCH  21  22
ENDBRANCH  20  21
ENDBRANCH  19  20
ENDBRANCH  18  19
ENDBRANCH  17  18
ENDBRANCH  16  17
ENDBRANCH  15  16
ENDBRANCH  14  15
ENDBRANCH  13  14
ENDBRANCH   1  13
TORSDOF 20
ENDMDL
MODEL 7
REMARK VINA RESULT:     0.958      1.775      6.638
REMARK INTER + INTRA:           0.780
REMARK INTER:                   0.745
REMARK INTRA:                   0.035
REMARK UNBOUND:                -1.298
REMARK SMILES CCCCCCCCCCCCCCCCCCCCCC(=O)[O-]
REMARK SMILES IDX 12 1 11 2 10 3 9 4 8 5 7 6 6 7 5 8 4 9 3 10 2 11 1 12 13 13
REMARK SMILES IDX 14 14 15 15 16 16 17 17 18 18 19 19 20 20 21 21 22 22 23 23
REMARK SMILES IDX 24 24
REMARK H PARENT
REMARK Flexibility Score: inf
ROOT
ATOM      1  C   UNL     1       3.126 -36.204  16.666  1.00  0.00     0.000 C 
ENDROOT
BRANCH   1   2
ATOM      2  C   UNL     1       4.007 -34.995  16.274  1.00  0.00     0.000 C 
BRANCH   2   3
ATOM      3  C   UNL     1       4.329 -34.093  17.477  1.00  0.00     0.000 C 
BRANCH   3   4
ATOM      4  C   UNL     1       5.778 -34.249  17.972  1.00  0.00    -0.000 C 
BRANCH   4   5
ATOM      5  C   UNL     1       6.009 -33.849  19.443  1.00  0.00    -0.000 C 
BRANCH   5   6
ATOM      6  C   UNL     1       5.468 -34.845  20.487  1.00  0.00    -0.000 C 
BRANCH   6   7
ATOM      7  C   UNL     1       6.054 -34.693  21.906  1.00  0.00    -0.000 C 
BRANCH   7   8
ATOM      8  C   UNL     1       5.214 -33.841  22.873  1.00  0.00    -0.000 C 
BRANCH   8   9
ATOM      9  C   UNL     1       5.341 -34.297  24.336  1.00  0.00    -0.000 C 
BRANCH   9  10
ATOM     10  C   UNL     1       5.669 -35.795  24.471  1.00  0.00    -0.000 C 
BRANCH  10  11
ATOM     11  C   UNL     1       6.102 -36.245  25.877  1.00  0.00    -0.003 C 
ATOM     12  C   UNL     1       5.560 -37.621  26.260  1.00  0.00     0.004 C 
ENDBRANCH  10  11
ENDBRANCH   9  10
ENDBRANCH   8   9
ENDBRANCH   7   8
ENDBRANCH   6   7
ENDBRANCH   5   6
ENDBRANCH   4   5
ENDBRANCH   3   4
ENDBRANCH   2   3
ENDBRANCH   1   2
BRANCH   1  13
ATOM     13  C   UNL     1       1.650 -35.840  16.914  1.00  0.00     0.000 C 
BRANCH  13  14
ATOM     14  C   UNL     1       0.794 -36.974  17.507  1.00  0.00     0.000 C 
BRANCH  14  15
ATOM     15  C   UNL     1       1.361 -37.625  18.784  1.00  0.00     0.000 C 
BRANCH  15  16
ATOM     16  C   UNL     1       2.480 -36.832  19.481  1.00  0.00     0.000 C 
BRANCH  16  17
ATOM     17  C   UNL     1       3.613 -37.725  20.006  1.00  0.00     0.000 C 
BRANCH  17  18
ATOM     18  C   UNL     1       4.984 -37.133  19.659  1.00  0.00     0.000 C 
BRANCH  18  19
ATOM     19  C   UNL     1       6.117 -38.065  20.104  1.00  0.00     0.000 C 
BRANCH  19  20
ATOM     20  C   UNL     1       5.873 -38.592  21.523  1.00  0.00     0.006 C 
BRANCH  20  21
ATOM     21  C   UNL     1       6.051 -40.111  21.584  1.00  0.00     0.053 C 
BRANCH  21  22
ATOM     22  C   UNL     1       5.778 -40.618  22.965  1.00  0.00     0.041 C 
ATOM     23  O   UNL     1       5.311 -39.844  23.842  1.00  0.00    -0.550 OA
ATOM     24  O   UNL     1       6.000 -41.954  23.273  1.00  0.00    -0.550 OA
ENDBRANCH  21  22
ENDBRANCH  20  21
ENDBRANCH  19  20
ENDBRANCH  18  19
ENDBRANCH  17  18
ENDBRANCH  16  17
ENDBRANCH  15  16
ENDBRANCH  14  15
ENDBRANCH  13  14
ENDBRANCH   1  13
TORSDOF 20
ENDMDL
MODEL 8
REMARK VINA RESULT:     1.249      1.550      3.291
REMARK INTER + INTRA:           1.411
REMARK INTER:                   2.435
REMARK INTRA:                  -1.024
REMARK UNBOUND:                -1.298
REMARK SMILES CCCCCCCCCCCCCCCCCCCCCC(=O)[O-]
REMARK SMILES IDX 12 1 11 2 10 3 9 4 8 5 7 6 6 7 5 8 4 9 3 10 2 11 1 12 13 13
REMARK SMILES IDX 14 14 15 15 16 16 17 17 18 18 19 19 20 20 21 21 22 22 23 23
REMARK SMILES IDX 24 24
REMARK H PARENT
REMARK Flexibility Score: inf
ROOT
ATOM      1  C   UNL     1       5.138 -35.075  20.653  1.00  0.00     0.000 C 
ENDROOT
BRANCH   1   2
ATOM      2  C   UNL     1       6.114 -34.081  19.983  1.00  0.00     0.000 C 
BRANCH   2   3
ATOM      3  C   UNL     1       5.740 -33.793  18.519  1.00  0.00     0.000 C 
BRANCH   3   4
ATOM      4  C   UNL     1       5.199 -35.032  17.784  1.00  0.00    -0.000 C 
BRANCH   4   5
ATOM      5  C   UNL     1       3.996 -34.763  16.857  1.00  0.00    -0.000 C 
BRANCH   5   6
ATOM      6  C   UNL     1       3.733 -35.845  15.792  1.00  0.00    -0.000 C 
BRANCH   6   7
ATOM      7  C   UNL     1       2.354 -35.769  15.104  1.00  0.00    -0.000 C 
BRANCH   7   8
ATOM      8  C   UNL     1       1.158 -35.591  16.056  1.00  0.00    -0.000 C 
BRANCH   8   9
ATOM      9  C   UNL     1       0.894 -36.832  16.925  1.00  0.00    -0.000 C 
BRANCH   9  10
ATOM     10  C   UNL     1       0.756 -36.496  18.422  1.00  0.00    -0.000 C 
BRANCH  10  11
ATOM     11  C   UNL     1       1.662 -37.314  19.360  1.00  0.00    -0.003 C 
ATOM     12  C   UNL     1       3.126 -37.321  18.923  1.00  0.00     0.004 C 
ENDBRANCH  10  11
ENDBRANCH   9  10
ENDBRANCH   8   9
ENDBRANCH   7   8
ENDBRANCH   6   7
ENDBRANCH   5   6
ENDBRANCH   4   5
ENDBRANCH   3   4
ENDBRANCH   2   3
ENDBRANCH   1   2
BRANCH   1  13
ATOM     13  C   UNL     1       5.835 -36.291  21.294  1.00  0.00     0.000 C 
BRANCH  13  14
ATOM     14  C   UNL     1       6.124 -36.152  22.799  1.00  0.00     0.000 C 
BRANCH  14  15
ATOM     15  C   UNL     1       5.930 -34.736  23.377  1.00  0.00     0.000 C 
BRANCH  15  16
ATOM     16  C   UNL     1       5.769 -34.670  24.906  1.00  0.00     0.000 C 
BRANCH  16  17
ATOM     17  C   UNL     1       6.100 -35.998  25.603  1.00  0.00     0.000 C 
BRANCH  17  18
ATOM     18  C   UNL     1       4.914 -36.966  25.529  1.00  0.00     0.000 C 
BRANCH  18  19
ATOM     19  C   UNL     1       5.388 -38.404  25.283  1.00  0.00     0.000 C 
BRANCH  19  20
ATOM     20  C   UNL     1       4.778 -38.974  23.998  1.00  0.00     0.006 C 
BRANCH  20  21
ATOM     21  C   UNL     1       5.820 -39.756  23.193  1.00  0.00     0.053 C 
BRANCH  21  22
ATOM     22  C   UNL     1       5.724 -41.219  23.490  1.00  0.00     0.041 C 
ATOM     23  O   UNL     1       6.017 -42.065  22.604  1.00  0.00    -0.550 OA
ATOM     24  O   UNL     1       5.353 -41.650  24.758  1.00  0.00    -0.550 OA
ENDBRANCH  21  22
ENDBRANCH  20  21
ENDBRANCH  19  20
ENDBRANCH  18  19
ENDBRANCH  17  18
ENDBRANCH  16  17
ENDBRANCH  15  16
ENDBRANCH  14  15
ENDBRANCH  13  14
ENDBRANCH   1  13
TORSDOF 20
ENDMDL
