MODEL 1
REMARK VINA RESULT:    -7.789      0.000      0.000
REMARK INTER + INTRA:         -11.263
REMARK INTER:                 -10.293
REMARK INTRA:                  -0.969
REMARK UNBOUND:                -0.969
REMARK SMILES CC[C@@H](C=C[C@H](C)[C@@H]1CC[C@@H]2C3=CC[C@H]4C[C@H](O)CC[C@@]4(C)[C@@H]3CC[C@@]21C)C(C)C
REMARK SMILES IDX 6 1 7 2 5 3 4 4 3 5 2 6 1 7 28 8 29 9 30 10 8 11 9 12 26 13
REMARK SMILES IDX 10 14 11 15 25 16 27 17 12 18 24 19 23 20 13 21 21 22 14 23
REMARK SMILES IDX 15 24 20 25 22 26 16 27 19 28 17 29 18 30
REMARK H PARENT 18 31
REMARK Flexibility Score: inf
ROOT
ATOM      1  C   UNL     1     118.903 126.208 127.960  1.00  0.00     0.012 C 
ATOM      2  C   UNL     1     120.017 126.536 126.951  1.00  0.00     0.012 C 
ENDROOT
BRANCH   1   3
ATOM      3  C   UNL     1     118.378 127.496 128.565  1.00  0.00    -0.028 C 
ATOM      4  C   UNL     1     118.785 127.948 129.765  1.00  0.00    -0.027 C 
BRANCH   4   5
ATOM      5  C   UNL     1     118.279 129.259 130.328  1.00  0.00     0.014 C 
BRANCH   5   6
ATOM      6  C   UNL     1     119.466 130.175 130.718  1.00  0.00     0.004 C 
ATOM      7  C   UNL     1     120.043 130.912 129.508  1.00  0.00     0.004 C 
ENDBRANCH   5   6
BRANCH   5   8
ATOM      8  C   UNL     1     117.285 129.001 131.500  1.00  0.00    -0.011 C 
ATOM      9  C   UNL     1     116.591 127.632 131.410  1.00  0.00     0.008 C 
ATOM     10  C   UNL     1     117.947 129.175 132.876  1.00  0.00     0.008 C 
ENDBRANCH   5   8
ENDBRANCH   4   5
ENDBRANCH   1   3
BRANCH   1  11
ATOM     11  C   UNL     1     117.734 125.365 127.344  1.00  0.00     0.002 C 
ATOM     12  C   UNL     1     116.401 125.661 128.044  1.00  0.00     0.005 C 
ATOM     13  C   UNL     1     117.858 123.807 127.352  1.00  0.00    -0.023 C 
ATOM     14  C   UNL     1     115.537 124.415 127.907  1.00  0.00     0.009 C 
ATOM     15  C   UNL     1     116.388 123.349 127.203  1.00  0.00     0.021 C 
ATOM     16  C   UNL     1     118.423 123.276 128.695  1.00  0.00     0.008 C 
ATOM     17  C   UNL     1     118.698 123.302 126.148  1.00  0.00     0.012 C 
ATOM     18  C   UNL     1     116.080 121.950 127.730  1.00  0.00    -0.067 C 
ATOM     19  C   UNL     1     118.447 121.748 128.784  1.00  0.00     0.009 C 
ATOM     20  C   UNL     1     117.197 121.017 128.200  1.00  0.00     0.021 C 
ATOM     21  C   UNL     1     114.820 121.486 127.566  1.00  0.00    -0.027 C 
ATOM     22  C   UNL     1     116.667 119.843 129.105  1.00  0.00    -0.023 C 
ATOM     23  C   UNL     1     114.326 120.171 128.105  1.00  0.00     0.031 C 
ATOM     24  C   UNL     1     115.447 119.158 128.406  1.00  0.00     0.002 C 
ATOM     25  C   UNL     1     117.762 118.760 129.353  1.00  0.00     0.010 C 
ATOM     26  C   UNL     1     116.213 120.384 130.493  1.00  0.00     0.012 C 
ATOM     27  C   UNL     1     115.839 118.388 127.120  1.00  0.00     0.036 C 
ATOM     28  C   UNL     1     118.170 117.985 128.092  1.00  0.00     0.032 C 
ATOM     29  C   UNL     1     116.969 117.369 127.352  1.00  0.00     0.114 C 
BRANCH  29  30
ATOM     30  O   UNL     1     116.497 116.213 127.998  1.00  0.00    -0.393 OA
ATOM     31  H   UNL     1     116.911 115.423 127.569  1.00  0.00     0.210 HD
ENDBRANCH  29  30
ENDBRANCH   1  11
TORSDOF 6
ENDMDL
MODEL 2
REMARK VINA RESULT:    -7.782      2.913      8.612
REMARK INTER + INTRA:         -11.253
REMARK INTER:                 -10.785
REMARK INTRA:                  -0.467
REMARK UNBOUND:                -0.969
REMARK SMILES CC[C@@H](C=C[C@H](C)[C@@H]1CC[C@@H]2C3=CC[C@H]4C[C@H](O)CC[C@@]4(C)[C@@H]3CC[C@@]21C)C(C)C
REMARK SMILES IDX 6 1 7 2 5 3 4 4 3 5 2 6 1 7 28 8 29 9 30 10 8 11 9 12 26 13
REMARK SMILES IDX 10 14 11 15 25 16 27 17 12 18 24 19 23 20 13 21 21 22 14 23
REMARK SMILES IDX 15 24 20 25 22 26 16 27 19 28 17 29 18 30
REMARK H PARENT 18 31
REMARK Flexibility Score: inf
ROOT
ATOM      1  C   UNL     1     114.439 119.981 128.527  1.00  0.00     0.012 C 
ATOM      2  C   UNL     1     113.974 120.650 127.222  1.00  0.00     0.012 C 
ENDROOT
BRANCH   1   3
ATOM      3  C   UNL     1     115.511 118.956 128.212  1.00  0.00    -0.028 C 
ATOM      4  C   UNL     1     116.006 118.786 126.973  1.00  0.00    -0.027 C 
BRANCH   4   5
ATOM      5  C   UNL     1     117.108 117.786 126.693  1.00  0.00     0.014 C 
BRANCH   5   6
ATOM      6  C   UNL     1     117.131 116.685 127.782  1.00  0.00     0.004 C 
ATOM      7  C   UNL     1     117.452 115.308 127.197  1.00  0.00     0.004 C 
ENDBRANCH   5   6
BRANCH   5   8
ATOM      8  C   UNL     1     118.474 118.517 126.523  1.00  0.00    -0.011 C 
ATOM      9  C   UNL     1     119.358 118.440 127.779  1.00  0.00     0.008 C 
ATOM     10  C   UNL     1     119.251 118.024 125.292  1.00  0.00     0.008 C 
ENDBRANCH   5   8
ENDBRANCH   4   5
ENDBRANCH   1   3
BRANCH   1  11
ATOM     11  C   UNL     1     114.943 121.002 129.605  1.00  0.00     0.002 C 
ATOM     12  C   UNL     1     113.785 121.836 130.170  1.00  0.00     0.005 C 
ATOM     13  C   UNL     1     116.027 122.046 129.187  1.00  0.00    -0.023 C 
ATOM     14  C   UNL     1     114.372 123.163 130.628  1.00  0.00     0.009 C 
ATOM     15  C   UNL     1     115.861 123.153 130.255  1.00  0.00     0.021 C 
ATOM     16  C   UNL     1     115.748 122.646 127.785  1.00  0.00     0.008 C 
ATOM     17  C   UNL     1     117.454 121.440 129.268  1.00  0.00     0.012 C 
ATOM     18  C   UNL     1     116.343 124.541 129.842  1.00  0.00    -0.067 C 
ATOM     19  C   UNL     1     116.724 123.759 127.393  1.00  0.00     0.009 C 
ATOM     20  C   UNL     1     117.100 124.759 128.531  1.00  0.00     0.021 C 
ATOM     21  C   UNL     1     116.270 125.526 130.766  1.00  0.00    -0.027 C 
ATOM     22  C   UNL     1     117.107 126.267 128.077  1.00  0.00    -0.023 C 
ATOM     23  C   UNL     1     116.617 126.965 130.498  1.00  0.00     0.031 C 
ATOM     24  C   UNL     1     117.538 127.170 129.279  1.00  0.00     0.002 C 
ATOM     25  C   UNL     1     118.096 126.514 126.897  1.00  0.00     0.010 C 
ATOM     26  C   UNL     1     115.688 126.701 127.604  1.00  0.00     0.012 C 
ATOM     27  C   UNL     1     119.020 126.976 129.682  1.00  0.00     0.036 C 
ATOM     28  C   UNL     1     119.574 126.324 127.272  1.00  0.00     0.032 C 
ATOM     29  C   UNL     1     119.992 127.150 128.501  1.00  0.00     0.114 C 
BRANCH  29  30
ATOM     30  O   UNL     1     120.173 128.507 128.179  1.00  0.00    -0.393 OA
ATOM     31  H   UNL     1     119.766 129.057 128.894  1.00  0.00     0.210 HD
ENDBRANCH  29  30
ENDBRANCH   1  11
TORSDOF 6
ENDMDL
MODEL 3
REMARK VINA RESULT:    -7.666      2.059      4.000
REMARK INTER + INTRA:         -11.101
REMARK INTER:                 -10.665
REMARK INTRA:                  -0.436
REMARK UNBOUND:                -0.969
REMARK SMILES CC[C@@H](C=C[C@H](C)[C@@H]1CC[C@@H]2C3=CC[C@H]4C[C@H](O)CC[C@@]4(C)[C@@H]3CC[C@@]21C)C(C)C
REMARK SMILES IDX 6 1 7 2 5 3 4 4 3 5 2 6 1 7 28 8 29 9 30 10 8 11 9 12 26 13
REMARK SMILES IDX 10 14 11 15 25 16 27 17 12 18 24 19 23 20 13 21 21 22 14 23
REMARK SMILES IDX 15 24 20 25 22 26 16 27 19 28 17 29 18 30
REMARK H PARENT 18 31
REMARK Flexibility Score: inf
ROOT
ATOM      1  C   UNL     1     119.585 128.635 129.291  1.00  0.00     0.012 C 
ATOM      2  C   UNL     1     120.306 128.229 127.994  1.00  0.00     0.012 C 
ENDROOT
BRANCH   1   3
ATOM      3  C   UNL     1     119.521 130.147 129.379  1.00  0.00    -0.028 C 
ATOM      4  C   UNL     1     120.508 130.939 128.924  1.00  0.00    -0.027 C 
BRANCH   4   5
ATOM      5  C   UNL     1     120.401 132.448 128.983  1.00  0.00     0.014 C 
BRANCH   5   6
ATOM      6  C   UNL     1     119.069 132.922 128.348  1.00  0.00     0.004 C 
ATOM      7  C   UNL     1     119.295 133.647 127.020  1.00  0.00     0.004 C 
ENDBRANCH   5   6
BRANCH   5   8
ATOM      8  C   UNL     1     121.659 133.108 128.345  1.00  0.00    -0.011 C 
ATOM      9  C   UNL     1     122.210 134.282 129.173  1.00  0.00     0.008 C 
ATOM     10  C   UNL     1     122.773 132.088 128.059  1.00  0.00     0.008 C 
ENDBRANCH   5   8
ENDBRANCH   4   5
ENDBRANCH   1   3
BRANCH   1  11
ATOM     11  C   UNL     1     118.155 128.007 129.429  1.00  0.00     0.002 C 
ATOM     12  C   UNL     1     117.648 128.083 130.876  1.00  0.00     0.005 C 
ATOM     13  C   UNL     1     117.956 126.515 129.010  1.00  0.00    -0.023 C 
ATOM     14  C   UNL     1     116.673 126.932 131.070  1.00  0.00     0.009 C 
ATOM     15  C   UNL     1     116.668 126.118 129.768  1.00  0.00     0.021 C 
ATOM     16  C   UNL     1     119.125 125.615 129.489  1.00  0.00     0.008 C 
ATOM     17  C   UNL     1     117.735 126.385 127.479  1.00  0.00     0.012 C 
ATOM     18  C   UNL     1     116.499 124.626 130.041  1.00  0.00    -0.067 C 
ATOM     19  C   UNL     1     118.907 124.127 129.199  1.00  0.00     0.009 C 
ATOM     20  C   UNL     1     117.458 123.598 129.439  1.00  0.00     0.021 C 
ATOM     21  C   UNL     1     115.358 124.229 130.650  1.00  0.00    -0.027 C 
ATOM     22  C   UNL     1     117.403 122.210 130.180  1.00  0.00    -0.023 C 
ATOM     23  C   UNL     1     115.073 122.814 131.072  1.00  0.00     0.031 C 
ATOM     24  C   UNL     1     115.913 121.758 130.328  1.00  0.00     0.002 C 
ATOM     25  C   UNL     1     118.177 121.103 129.400  1.00  0.00     0.010 C 
ATOM     26  C   UNL     1     118.038 122.321 131.598  1.00  0.00     0.012 C 
ATOM     27  C   UNL     1     115.252 121.397 128.974  1.00  0.00     0.036 C 
ATOM     28  C   UNL     1     117.542 120.731 128.051  1.00  0.00     0.032 C 
ATOM     29  C   UNL     1     116.054 120.357 128.172  1.00  0.00     0.114 C 
BRANCH  29  30
ATOM     30  O   UNL     1     115.884 119.062 128.693  1.00  0.00    -0.393 OA
ATOM     31  H   UNL     1     114.951 118.971 129.010  1.00  0.00     0.210 HD
ENDBRANCH  29  30
ENDBRANCH   1  11
TORSDOF 6
ENDMDL
MODEL 4
REMARK VINA RESULT:    -7.199      3.373      7.574
REMARK INTER + INTRA:         -10.483
REMARK INTER:                  -9.151
REMARK INTRA:                  -1.331
REMARK UNBOUND:                -0.969
REMARK SMILES CC[C@@H](C=C[C@H](C)[C@@H]1CC[C@@H]2C3=CC[C@H]4C[C@H](O)CC[C@@]4(C)[C@@H]3CC[C@@]21C)C(C)C
REMARK SMILES IDX 6 1 7 2 5 3 4 4 3 5 2 6 1 7 28 8 29 9 30 10 8 11 9 12 26 13
REMARK SMILES IDX 10 14 11 15 25 16 27 17 12 18 24 19 23 20 13 21 21 22 14 23
REMARK SMILES IDX 15 24 20 25 22 26 16 27 19 28 17 29 18 30
REMARK H PARENT 18 31
REMARK Flexibility Score: inf
ROOT
ATOM      1  C   UNL     1     114.741 120.462 131.173  1.00  0.00     0.012 C 
ATOM      2  C   UNL     1     113.667 120.121 132.220  1.00  0.00     0.012 C 
ENDROOT
BRANCH   1   3
ATOM      3  C   UNL     1     114.080 120.666 129.823  1.00  0.00    -0.028 C 
ATOM      4  C   UNL     1     114.683 120.334 128.667  1.00  0.00    -0.027 C 
BRANCH   4   5
ATOM      5  C   UNL     1     113.984 120.506 127.335  1.00  0.00     0.014 C 
BRANCH   5   6
ATOM      6  C   UNL     1     114.694 119.672 126.239  1.00  0.00     0.004 C 
ATOM      7  C   UNL     1     115.894 118.902 126.794  1.00  0.00     0.004 C 
ENDBRANCH   5   6
BRANCH   5   8
ATOM      8  C   UNL     1     113.859 122.017 126.978  1.00  0.00    -0.011 C 
ATOM      9  C   UNL     1     115.183 122.785 127.132  1.00  0.00     0.008 C 
ATOM     10  C   UNL     1     113.274 122.240 125.574  1.00  0.00     0.008 C 
ENDBRANCH   5   8
ENDBRANCH   4   5
ENDBRANCH   1   3
BRANCH   1  11
ATOM     11  C   UNL     1     115.613 121.706 131.559  1.00  0.00     0.002 C 
ATOM     12  C   UNL     1     115.062 122.994 130.933  1.00  0.00     0.005 C 
ATOM     13  C   UNL     1     117.131 121.693 131.186  1.00  0.00    -0.023 C 
ATOM     14  C   UNL     1     116.235 123.947 130.763  1.00  0.00     0.009 C 
ATOM     15  C   UNL     1     117.498 123.195 131.206  1.00  0.00     0.021 C 
ATOM     16  C   UNL     1     117.375 121.129 129.762  1.00  0.00     0.008 C 
ATOM     17  C   UNL     1     117.966 120.926 132.247  1.00  0.00     0.012 C 
ATOM     18  C   UNL     1     118.708 123.587 130.361  1.00  0.00    -0.067 C 
ATOM     19  C   UNL     1     118.837 121.211 129.317  1.00  0.00     0.009 C 
ATOM     20  C   UNL     1     119.586 122.526 129.698  1.00  0.00     0.021 C 
ATOM     21  C   UNL     1     119.099 124.881 130.397  1.00  0.00    -0.027 C 
ATOM     22  C   UNL     1     120.473 123.112 128.536  1.00  0.00    -0.023 C 
ATOM     23  C   UNL     1     120.210 125.452 129.558  1.00  0.00     0.031 C 
ATOM     24  C   UNL     1     121.207 124.398 129.040  1.00  0.00     0.002 C 
ATOM     25  C   UNL     1     121.547 122.091 128.052  1.00  0.00     0.010 C 
ATOM     26  C   UNL     1     119.589 123.486 127.309  1.00  0.00     0.012 C 
ATOM     27  C   UNL     1     122.284 124.099 130.112  1.00  0.00     0.036 C 
ATOM     28  C   UNL     1     122.625 121.775 129.100  1.00  0.00     0.032 C 
ATOM     29  C   UNL     1     123.303 123.038 129.661  1.00  0.00     0.114 C 
BRANCH  29  30
ATOM     30  O   UNL     1     124.237 123.572 128.755  1.00  0.00    -0.393 OA
ATOM     31  H   UNL     1     125.147 123.400 129.104  1.00  0.00     0.210 HD
ENDBRANCH  29  30
ENDBRANCH   1  11
TORSDOF 6
ENDMDL
MODEL 5
REMARK VINA RESULT:    -7.133      1.058      2.072
REMARK INTER + INTRA:         -10.395
REMARK INTER:                  -9.308
REMARK INTRA:                  -1.087
REMARK UNBOUND:                -0.969
REMARK SMILES CC[C@@H](C=C[C@H](C)[C@@H]1CC[C@@H]2C3=CC[C@H]4C[C@H](O)CC[C@@]4(C)[C@@H]3CC[C@@]21C)C(C)C
REMARK SMILES IDX 6 1 7 2 5 3 4 4 3 5 2 6 1 7 28 8 29 9 30 10 8 11 9 12 26 13
REMARK SMILES IDX 10 14 11 15 25 16 27 17 12 18 24 19 23 20 13 21 21 22 14 23
REMARK SMILES IDX 15 24 20 25 22 26 16 27 19 28 17 29 18 30
REMARK H PARENT 18 31
REMARK Flexibility Score: inf
ROOT
ATOM      1  C   UNL     1     119.467 126.168 128.321  1.00  0.00     0.012 C 
ATOM      2  C   UNL     1     119.985 126.689 126.970  1.00  0.00     0.012 C 
ENDROOT
BRANCH   1   3
ATOM      3  C   UNL     1     119.502 127.291 129.340  1.00  0.00    -0.028 C 
ATOM      4  C   UNL     1     119.355 128.582 128.996  1.00  0.00    -0.027 C 
BRANCH   4   5
ATOM      5  C   UNL     1     119.349 129.681 130.037  1.00  0.00     0.014 C 
BRANCH   5   6
ATOM      6  C   UNL     1     117.899 130.002 130.479  1.00  0.00     0.004 C 
ATOM      7  C   UNL     1     117.383 129.001 131.515  1.00  0.00     0.004 C 
ENDBRANCH   5   6
BRANCH   5   8
ATOM      8  C   UNL     1     120.126 130.927 129.516  1.00  0.00    -0.011 C 
ATOM      9  C   UNL     1     121.315 130.562 128.612  1.00  0.00     0.008 C 
ATOM     10  C   UNL     1     119.208 131.936 128.808  1.00  0.00     0.008 C 
ENDBRANCH   5   8
ENDBRANCH   4   5
ENDBRANCH   1   3
BRANCH   1  11
ATOM     11  C   UNL     1     118.035 125.537 128.236  1.00  0.00     0.002 C 
ATOM     12  C   UNL     1     117.230 125.800 129.516  1.00  0.00     0.005 C 
ATOM     13  C   UNL     1     117.915 123.997 127.994  1.00  0.00    -0.023 C 
ATOM     14  C   UNL     1     116.225 124.666 129.654  1.00  0.00     0.009 C 
ATOM     15  C   UNL     1     116.490 123.683 128.506  1.00  0.00     0.021 C 
ATOM     16  C   UNL     1     118.945 123.195 128.830  1.00  0.00     0.008 C 
ATOM     17  C   UNL     1     118.026 123.655 126.483  1.00  0.00     0.012 C 
ATOM     18  C   UNL     1     116.253 122.239 128.939  1.00  0.00    -0.067 C 
ATOM     19  C   UNL     1     118.779 121.678 128.708  1.00  0.00     0.009 C 
ATOM     20  C   UNL     1     117.308 121.158 128.704  1.00  0.00     0.021 C 
ATOM     21  C   UNL     1     115.003 121.906 129.339  1.00  0.00    -0.027 C 
ATOM     22  C   UNL     1     117.081 119.883 129.600  1.00  0.00    -0.023 C 
ATOM     23  C   UNL     1     114.620 120.556 129.881  1.00  0.00     0.031 C 
ATOM     24  C   UNL     1     115.590 119.425 129.486  1.00  0.00     0.002 C 
ATOM     25  C   UNL     1     117.993 118.696 129.163  1.00  0.00     0.010 C 
ATOM     26  C   UNL     1     117.398 120.199 131.091  1.00  0.00     0.012 C 
ATOM     27  C   UNL     1     115.231 118.870 128.085  1.00  0.00     0.036 C 
ATOM     28  C   UNL     1     117.659 118.130 127.775  1.00  0.00     0.032 C 
ATOM     29  C   UNL     1     116.176 117.746 127.625  1.00  0.00     0.114 C 
BRANCH  29  30
ATOM     30  O   UNL     1     115.885 116.531 128.270  1.00  0.00    -0.393 OA
ATOM     31  H   UNL     1     114.902 116.432 128.324  1.00  0.00     0.210 HD
ENDBRANCH  29  30
ENDBRANCH   1  11
TORSDOF 6
ENDMDL
MODEL 6
REMARK VINA RESULT:    -6.940      3.168      6.059
REMARK INTER + INTRA:         -10.140
REMARK INTER:                  -8.638
REMARK INTRA:                  -1.502
REMARK UNBOUND:                -0.969
REMARK SMILES CC[C@@H](C=C[C@H](C)[C@@H]1CC[C@@H]2C3=CC[C@H]4C[C@H](O)CC[C@@]4(C)[C@@H]3CC[C@@]21C)C(C)C
REMARK SMILES IDX 6 1 7 2 5 3 4 4 3 5 2 6 1 7 28 8 29 9 30 10 8 11 9 12 26 13
REMARK SMILES IDX 10 14 11 15 25 16 27 17 12 18 24 19 23 20 13 21 21 22 14 23
REMARK SMILES IDX 15 24 20 25 22 26 16 27 19 28 17 29 18 30
REMARK H PARENT 18 31
REMARK Flexibility Score: inf
ROOT
ATOM      1  C   UNL     1     117.074 125.321 130.443  1.00  0.00     0.012 C 
ATOM      2  C   UNL     1     116.667 126.758 130.812  1.00  0.00     0.012 C 
ENDROOT
BRANCH   1   3
ATOM      3  C   UNL     1     115.855 124.421 130.507  1.00  0.00    -0.028 C 
ATOM      4  C   UNL     1     115.899 123.182 131.029  1.00  0.00    -0.027 C 
BRANCH   4   5
ATOM      5  C   UNL     1     114.658 122.320 131.122  1.00  0.00     0.014 C 
BRANCH   5   6
ATOM      6  C   UNL     1     114.725 121.406 132.372  1.00  0.00     0.004 C 
ATOM      7  C   UNL     1     113.763 120.221 132.266  1.00  0.00     0.004 C 
ENDBRANCH   5   6
BRANCH   5   8
ATOM      8  C   UNL     1     114.440 121.536 129.793  1.00  0.00    -0.011 C 
ATOM      9  C   UNL     1     113.671 122.344 128.735  1.00  0.00     0.008 C 
ATOM     10  C   UNL     1     115.757 121.005 129.205  1.00  0.00     0.008 C 
ENDBRANCH   5   8
ENDBRANCH   4   5
ENDBRANCH   1   3
BRANCH   1  11
ATOM     11  C   UNL     1     117.775 125.212 129.045  1.00  0.00     0.002 C 
ATOM     12  C   UNL     1     116.816 124.663 127.980  1.00  0.00     0.005 C 
ATOM     13  C   UNL     1     119.059 124.330 128.925  1.00  0.00    -0.023 C 
ATOM     14  C   UNL     1     117.667 123.969 126.926  1.00  0.00     0.009 C 
ATOM     15  C   UNL     1     119.123 124.027 127.410  1.00  0.00     0.021 C 
ATOM     16  C   UNL     1     118.923 122.996 129.705  1.00  0.00     0.008 C 
ATOM     17  C   UNL     1     120.325 125.114 129.365  1.00  0.00     0.012 C 
ATOM     18  C   UNL     1     119.891 122.766 127.024  1.00  0.00    -0.067 C 
ATOM     19  C   UNL     1     120.116 122.055 129.513  1.00  0.00     0.009 C 
ATOM     20  C   UNL     1     120.687 121.975 128.063  1.00  0.00     0.021 C 
ATOM     21  C   UNL     1     120.022 122.496 125.704  1.00  0.00    -0.027 C 
ATOM     22  C   UNL     1     121.015 120.510 127.588  1.00  0.00    -0.023 C 
ATOM     23  C   UNL     1     120.667 121.253 125.156  1.00  0.00     0.031 C 
ATOM     24  C   UNL     1     121.619 120.553 126.146  1.00  0.00     0.002 C 
ATOM     25  C   UNL     1     122.043 119.811 128.530  1.00  0.00     0.010 C 
ATOM     26  C   UNL     1     119.724 119.639 127.567  1.00  0.00     0.012 C 
ATOM     27  C   UNL     1     123.024 121.203 126.096  1.00  0.00     0.036 C 
ATOM     28  C   UNL     1     123.444 120.440 128.500  1.00  0.00     0.032 C 
ATOM     29  C   UNL     1     124.019 120.558 127.078  1.00  0.00     0.114 C 
BRANCH  29  30
ATOM     30  O   UNL     1     124.485 119.320 126.600  1.00  0.00    -0.393 OA
ATOM     31  H   UNL     1     125.121 119.489 125.861  1.00  0.00     0.210 HD
ENDBRANCH  29  30
ENDBRANCH   1  11
TORSDOF 6
ENDMDL
MODEL 7
REMARK VINA RESULT:    -6.931      2.518      4.717
REMARK INTER + INTRA:         -10.128
REMARK INTER:                  -9.384
REMARK INTRA:                  -0.745
REMARK UNBOUND:                -0.969
REMARK SMILES CC[C@@H](C=C[C@H](C)[C@@H]1CC[C@@H]2C3=CC[C@H]4C[C@H](O)CC[C@@]4(C)[C@@H]3CC[C@@]21C)C(C)C
REMARK SMILES IDX 6 1 7 2 5 3 4 4 3 5 2 6 1 7 28 8 29 9 30 10 8 11 9 12 26 13
REMARK SMILES IDX 10 14 11 15 25 16 27 17 12 18 24 19 23 20 13 21 21 22 14 23
REMARK SMILES IDX 15 24 20 25 22 26 16 27 19 28 17 29 18 30
REMARK H PARENT 18 31
REMARK Flexibility Score: inf
ROOT
ATOM      1  C   UNL     1     114.756 122.352 130.712  1.00  0.00     0.012 C 
ATOM      2  C   UNL     1     114.732 121.582 132.044  1.00  0.00     0.012 C 
ENDROOT
BRANCH   1   3
ATOM      3  C   UNL     1     115.961 123.271 130.684  1.00  0.00    -0.028 C 
ATOM      4  C   UNL     1     115.847 124.608 130.601  1.00  0.00    -0.027 C 
BRANCH   4   5
ATOM      5  C   UNL     1     117.065 125.508 130.619  1.00  0.00     0.014 C 
BRANCH   5   6
ATOM      6  C   UNL     1     116.662 126.972 130.312  1.00  0.00     0.004 C 
ATOM      7  C   UNL     1     117.113 127.932 131.414  1.00  0.00     0.004 C 
ENDBRANCH   5   6
BRANCH   5   8
ATOM      8  C   UNL     1     118.163 124.955 129.662  1.00  0.00    -0.011 C 
ATOM      9  C   UNL     1     118.240 125.717 128.329  1.00  0.00     0.008 C 
ATOM     10  C   UNL     1     119.547 124.903 130.328  1.00  0.00     0.008 C 
ENDBRANCH   5   8
ENDBRANCH   4   5
ENDBRANCH   1   3
BRANCH   1  11
ATOM     11  C   UNL     1     114.737 121.417 129.454  1.00  0.00     0.002 C 
ATOM     12  C   UNL     1     114.382 119.973 129.834  1.00  0.00     0.005 C 
ATOM     13  C   UNL     1     116.039 121.299 128.598  1.00  0.00    -0.023 C 
ATOM     14  C   UNL     1     115.023 119.065 128.796  1.00  0.00     0.009 C 
ATOM     15  C   UNL     1     115.834 119.962 127.849  1.00  0.00     0.021 C 
ATOM     16  C   UNL     1     117.310 121.198 129.481  1.00  0.00     0.008 C 
ATOM     17  C   UNL     1     116.152 122.467 127.580  1.00  0.00     0.012 C 
ATOM     18  C   UNL     1     117.111 119.270 127.379  1.00  0.00    -0.067 C 
ATOM     19  C   UNL     1     118.593 120.963 128.679  1.00  0.00     0.009 C 
ATOM     20  C   UNL     1     118.471 119.958 127.491  1.00  0.00     0.021 C 
ATOM     21  C   UNL     1     116.974 118.126 126.669  1.00  0.00    -0.027 C 
ATOM     22  C   UNL     1     119.674 118.946 127.388  1.00  0.00    -0.023 C 
ATOM     23  C   UNL     1     118.125 117.274 126.209  1.00  0.00     0.031 C 
ATOM     24  C   UNL     1     119.470 118.021 126.144  1.00  0.00     0.002 C 
ATOM     25  C   UNL     1     121.041 119.681 127.236  1.00  0.00     0.010 C 
ATOM     26  C   UNL     1     119.753 118.060 128.666  1.00  0.00     0.012 C 
ATOM     27  C   UNL     1     119.604 118.777 124.798  1.00  0.00     0.036 C 
ATOM     28  C   UNL     1     121.195 120.442 125.910  1.00  0.00     0.032 C 
ATOM     29  C   UNL     1     120.923 119.561 124.678  1.00  0.00     0.114 C 
BRANCH  29  30
ATOM     30  O   UNL     1     122.006 118.708 124.399  1.00  0.00    -0.393 OA
ATOM     31  H   UNL     1     121.651 117.806 124.196  1.00  0.00     0.210 HD
ENDBRANCH  29  30
ENDBRANCH   1  11
TORSDOF 6
ENDMDL
MODEL 8
REMARK VINA RESULT:    -6.758      1.991      4.739
REMARK INTER + INTRA:          -9.900
REMARK INTER:                  -8.332
REMARK INTRA:                  -1.568
REMARK UNBOUND:                -0.969
REMARK SMILES CC[C@@H](C=C[C@H](C)[C@@H]1CC[C@@H]2C3=CC[C@H]4C[C@H](O)CC[C@@]4(C)[C@@H]3CC[C@@]21C)C(C)C
REMARK SMILES IDX 6 1 7 2 5 3 4 4 3 5 2 6 1 7 28 8 29 9 30 10 8 11 9 12 26 13
REMARK SMILES IDX 10 14 11 15 25 16 27 17 12 18 24 19 23 20 13 21 21 22 14 23
REMARK SMILES IDX 15 24 20 25 22 26 16 27 19 28 17 29 18 30
REMARK H PARENT 18 31
REMARK Flexibility Score: inf
ROOT
ATOM      1  C   UNL     1     114.670 122.932 129.825  1.00  0.00     0.012 C 
ATOM      2  C   UNL     1     113.392 123.233 130.625  1.00  0.00     0.012 C 
ENDROOT
BRANCH   1   3
ATOM      3  C   UNL     1     115.474 124.207 129.661  1.00  0.00    -0.028 C 
ATOM      4  C   UNL     1     115.883 124.654 128.461  1.00  0.00    -0.027 C 
BRANCH   4   5
ATOM      5  C   UNL     1     116.646 125.953 128.319  1.00  0.00     0.014 C 
BRANCH   5   6
ATOM      6  C   UNL     1     117.678 125.854 127.167  1.00  0.00     0.004 C 
ATOM      7  C   UNL     1     117.746 124.442 126.582  1.00  0.00     0.004 C 
ENDBRANCH   5   6
BRANCH   5   8
ATOM      8  C   UNL     1     117.279 126.363 129.683  1.00  0.00    -0.011 C 
ATOM      9  C   UNL     1     118.740 125.905 129.831  1.00  0.00     0.008 C 
ATOM     10  C   UNL     1     117.162 127.872 129.952  1.00  0.00     0.008 C 
ENDBRANCH   5   8
ENDBRANCH   4   5
ENDBRANCH   1   3
BRANCH   1  11
ATOM     11  C   UNL     1     115.547 121.797 130.458  1.00  0.00     0.002 C 
ATOM     12  C   UNL     1     116.873 122.350 130.998  1.00  0.00     0.005 C 
ATOM     13  C   UNL     1     115.952 120.583 129.561  1.00  0.00    -0.023 C 
ATOM     14  C   UNL     1     117.885 121.214 130.949  1.00  0.00     0.009 C 
ATOM     15  C   UNL     1     117.186 120.013 130.298  1.00  0.00     0.021 C 
ATOM     16  C   UNL     1     116.370 121.027 128.135  1.00  0.00     0.008 C 
ATOM     17  C   UNL     1     114.822 119.518 129.511  1.00  0.00     0.012 C 
ATOM     18  C   UNL     1     118.151 119.205 129.433  1.00  0.00    -0.067 C 
ATOM     19  C   UNL     1     116.885 119.877 127.266  1.00  0.00     0.009 C 
ATOM     20  C   UNL     1     117.807 118.845 127.988  1.00  0.00     0.021 C 
ATOM     21  C   UNL     1     119.213 118.638 130.050  1.00  0.00    -0.027 C 
ATOM     22  C   UNL     1     119.073 118.427 127.149  1.00  0.00    -0.023 C 
ATOM     23  C   UNL     1     120.305 117.889 129.335  1.00  0.00     0.031 C 
ATOM     24  C   UNL     1     119.897 117.363 127.946  1.00  0.00     0.002 C 
ATOM     25  C   UNL     1     118.680 117.813 125.771  1.00  0.00     0.010 C 
ATOM     26  C   UNL     1     119.980 119.663 126.875  1.00  0.00     0.012 C 
ATOM     27  C   UNL     1     119.165 116.004 128.076  1.00  0.00     0.036 C 
ATOM     28  C   UNL     1     117.949 116.465 125.874  1.00  0.00     0.032 C 
ATOM     29  C   UNL     1     118.714 115.432 126.720  1.00  0.00     0.114 C 
BRANCH  29  30
ATOM     30  O   UNL     1     119.794 114.875 126.011  1.00  0.00    -0.393 OA
ATOM     31  H   UNL     1     119.739 113.889 126.079  1.00  0.00     0.210 HD
ENDBRANCH  29  30
ENDBRANCH   1  11
TORSDOF 6
ENDMDL
