MODEL 1
REMARK VINA RESULT:    -2.425      0.000      0.000
REMARK INTER + INTRA:          -5.814
REMARK INTER:                  -4.693
REMARK INTRA:                  -1.122
REMARK UNBOUND:                -1.122
REMARK SMILES CCCCCCCCCCCCCCCCCC(=O)[O-]
REMARK SMILES IDX 10 1 11 2 12 3 13 4 14 5 15 6 16 7 17 8 18 9 19 10 20 11
REMARK SMILES IDX 9 12 8 13 7 14 6 15 5 16 4 17 3 18 2 19 1 20
REMARK H PARENT
REMARK Flexibility Score: inf
ROOT
ATOM      1  C   UNL     1     -15.700 -11.733 -10.100  1.00  0.00     0.000 C 
ENDROOT
BRANCH   1   2
ATOM      2  C   UNL     1     -17.189 -11.606 -10.455  1.00  0.00     0.000 C 
BRANCH   2   3
ATOM      3  C   UNL     1     -17.768 -12.957 -10.891  1.00  0.00     0.000 C 
BRANCH   3   4
ATOM      4  C   UNL     1     -18.756 -12.785 -12.051  1.00  0.00     0.000 C 
BRANCH   4   5
ATOM      5  C   UNL     1     -19.751 -11.651 -11.764  1.00  0.00     0.000 C 
BRANCH   5   6
ATOM      6  C   UNL     1     -20.922 -12.115 -10.870  1.00  0.00     0.000 C 
BRANCH   6   7
ATOM      7  C   UNL     1     -20.885 -11.522  -9.451  1.00  0.00     0.006 C 
BRANCH   7   8
ATOM      8  C   UNL     1     -20.622 -12.577  -8.371  1.00  0.00     0.053 C 
BRANCH   8   9
ATOM      9  C   UNL     1     -20.569 -11.939  -7.018  1.00  0.00     0.041 C 
ATOM     10  O   UNL     1     -20.413 -12.648  -5.989  1.00  0.00    -0.550 OA
ATOM     11  O   UNL     1     -20.642 -10.557  -6.898  1.00  0.00    -0.550 OA
ENDBRANCH   8   9
ENDBRANCH   7   8
ENDBRANCH   6   7
ENDBRANCH   5   6
ENDBRANCH   4   5
ENDBRANCH   3   4
ENDBRANCH   2   3
ENDBRANCH   1   2
BRANCH   1  12
ATOM     12  C   UNL     1     -14.905 -12.545 -11.137  1.00  0.00     0.000 C 
BRANCH  12  13
ATOM     13  C   UNL     1     -13.832 -11.755 -11.916  1.00  0.00    -0.000 C 
BRANCH  13  14
ATOM     14  C   UNL     1     -14.092 -10.239 -12.046  1.00  0.00    -0.000 C 
BRANCH  14  15
ATOM     15  C   UNL     1     -12.808  -9.380 -12.125  1.00  0.00    -0.000 C 
BRANCH  15  16
ATOM     16  C   UNL     1     -12.971  -7.964 -11.542  1.00  0.00    -0.000 C 
BRANCH  16  17
ATOM     17  C   UNL     1     -14.190  -7.186 -12.067  1.00  0.00    -0.000 C 
BRANCH  17  18
ATOM     18  C   UNL     1     -14.364  -5.821 -11.386  1.00  0.00    -0.000 C 
BRANCH  18  19
ATOM     19  C   UNL     1     -15.558  -5.063 -11.976  1.00  0.00    -0.003 C 
ATOM     20  C   UNL     1     -15.348  -3.553 -11.898  1.00  0.00     0.004 C 
ENDBRANCH  18  19
ENDBRANCH  17  18
ENDBRANCH  16  17
ENDBRANCH  15  16
ENDBRANCH  14  15
ENDBRANCH  13  14
ENDBRANCH  12  13
ENDBRANCH   1  12
TORSDOF 16
ENDMDL
MODEL 2
REMARK VINA RESULT:    -2.072      1.298      2.048
REMARK INTER + INTRA:          -5.131
REMARK INTER:                  -3.905
REMARK INTRA:                  -1.225
REMARK UNBOUND:                -1.122
REMARK SMILES CCCCCCCCCCCCCCCCCC(=O)[O-]
REMARK SMILES IDX 10 1 11 2 12 3 13 4 14 5 15 6 16 7 17 8 18 9 19 10 20 11
REMARK SMILES IDX 9 12 8 13 7 14 6 15 5 16 4 17 3 18 2 19 1 20
REMARK H PARENT
REMARK Flexibility Score: inf
ROOT
ATOM      1  C   UNL     1     -15.400 -11.294  -9.878  1.00  0.00     0.000 C 
ENDROOT
BRANCH   1   2
ATOM      2  C   UNL     1     -16.892 -11.166 -10.219  1.00  0.00     0.000 C 
BRANCH   2   3
ATOM      3  C   UNL     1     -17.415 -12.442 -10.889  1.00  0.00     0.000 C 
BRANCH   3   4
ATOM      4  C   UNL     1     -18.458 -12.113 -11.963  1.00  0.00     0.000 C 
BRANCH   4   5
ATOM      5  C   UNL     1     -19.864 -12.009 -11.355  1.00  0.00     0.000 C 
BRANCH   5   6
ATOM      6  C   UNL     1     -20.050 -12.960 -10.152  1.00  0.00     0.000 C 
BRANCH   6   7
ATOM      7  C   UNL     1     -21.111 -12.480  -9.146  1.00  0.00     0.006 C 
BRANCH   7   8
ATOM      8  C   UNL     1     -20.598 -12.463  -7.702  1.00  0.00     0.053 C 
BRANCH   8   9
ATOM      9  C   UNL     1     -20.256 -11.067  -7.285  1.00  0.00     0.041 C 
ATOM     10  O   UNL     1     -19.297 -10.460  -7.829  1.00  0.00    -0.550 OA
ATOM     11  O   UNL     1     -21.029 -10.418  -6.330  1.00  0.00    -0.550 OA
ENDBRANCH   8   9
ENDBRANCH   7   8
ENDBRANCH   6   7
ENDBRANCH   5   6
ENDBRANCH   4   5
ENDBRANCH   3   4
ENDBRANCH   2   3
ENDBRANCH   1   2
BRANCH   1  12
ATOM     12  C   UNL     1     -14.650 -12.251 -10.821  1.00  0.00     0.000 C 
BRANCH  12  13
ATOM     13  C   UNL     1     -13.178 -12.529 -10.448  1.00  0.00    -0.000 C 
BRANCH  13  14
ATOM     14  C   UNL     1     -12.240 -12.827 -11.637  1.00  0.00    -0.000 C 
BRANCH  14  15
ATOM     15  C   UNL     1     -11.425 -11.607 -12.124  1.00  0.00    -0.000 C 
BRANCH  15  16
ATOM     16  C   UNL     1     -12.222 -10.288 -12.125  1.00  0.00    -0.000 C 
BRANCH  16  17
ATOM     17  C   UNL     1     -11.948  -9.367 -10.925  1.00  0.00    -0.000 C 
BRANCH  17  18
ATOM     18  C   UNL     1     -13.070  -8.345 -10.689  1.00  0.00    -0.000 C 
BRANCH  18  19
ATOM     19  C   UNL     1     -13.646  -7.848 -12.020  1.00  0.00    -0.003 C 
ATOM     20  C   UNL     1     -14.305  -6.481 -11.861  1.00  0.00     0.004 C 
ENDBRANCH  18  19
ENDBRANCH  17  18
ENDBRANCH  16  17
ENDBRANCH  15  16
ENDBRANCH  14  15
ENDBRANCH  13  14
ENDBRANCH  12  13
ENDBRANCH   1  12
TORSDOF 16
ENDMDL
MODEL 3
REMARK VINA RESULT:    -1.834      1.559      3.064
REMARK INTER + INTRA:          -4.671
REMARK INTER:                  -3.630
REMARK INTRA:                  -1.041
REMARK UNBOUND:                -1.122
REMARK SMILES CCCCCCCCCCCCCCCCCC(=O)[O-]
REMARK SMILES IDX 10 1 11 2 12 3 13 4 14 5 15 6 16 7 17 8 18 9 19 10 20 11
REMARK SMILES IDX 9 12 8 13 7 14 6 15 5 16 4 17 3 18 2 19 1 20
REMARK H PARENT
REMARK Flexibility Score: inf
ROOT
ATOM      1  C   UNL     1     -13.216 -10.060  -9.681  1.00  0.00     0.000 C 
ENDROOT
BRANCH   1   2
ATOM      2  C   UNL     1     -14.454 -10.897 -10.034  1.00  0.00     0.000 C 
BRANCH   2   3
ATOM      3  C   UNL     1     -14.253 -11.646 -11.357  1.00  0.00     0.000 C 
BRANCH   3   4
ATOM      4  C   UNL     1     -15.259 -12.794 -11.499  1.00  0.00     0.000 C 
BRANCH   4   5
ATOM      5  C   UNL     1     -16.313 -12.746 -10.383  1.00  0.00     0.000 C 
BRANCH   5   6
ATOM      6  C   UNL     1     -17.720 -13.125 -10.893  1.00  0.00     0.000 C 
BRANCH   6   7
ATOM      7  C   UNL     1     -18.856 -12.356 -10.195  1.00  0.00     0.006 C 
BRANCH   7   8
ATOM      8  C   UNL     1     -18.446 -11.799  -8.828  1.00  0.00     0.053 C 
BRANCH   8   9
ATOM      9  C   UNL     1     -19.579 -11.912  -7.856  1.00  0.00     0.041 C 
ATOM     10  O   UNL     1     -20.386 -10.957  -7.710  1.00  0.00    -0.550 OA
ATOM     11  O   UNL     1     -19.772 -13.091  -7.148  1.00  0.00    -0.550 OA
ENDBRANCH   8   9
ENDBRANCH   7   8
ENDBRANCH   6   7
ENDBRANCH   5   6
ENDBRANCH   4   5
ENDBRANCH   3   4
ENDBRANCH   2   3
ENDBRANCH   1   2
BRANCH   1  12
ATOM     12  C   UNL     1     -12.257  -9.878 -10.870  1.00  0.00     0.000 C 
BRANCH  12  13
ATOM     13  C   UNL     1     -12.217  -8.460 -11.477  1.00  0.00    -0.000 C 
BRANCH  13  14
ATOM     14  C   UNL     1     -13.580  -7.894 -11.928  1.00  0.00    -0.000 C 
BRANCH  14  15
ATOM     15  C   UNL     1     -13.700  -6.357 -11.811  1.00  0.00    -0.000 C 
BRANCH  15  16
ATOM     16  C   UNL     1     -15.133  -5.829 -12.005  1.00  0.00    -0.000 C 
BRANCH  16  17
ATOM     17  C   UNL     1     -15.319  -4.335 -11.688  1.00  0.00    -0.000 C 
BRANCH  17  18
ATOM     18  C   UNL     1     -16.772  -3.976 -11.341  1.00  0.00    -0.000 C 
BRANCH  18  19
ATOM     19  C   UNL     1     -17.755  -4.853 -12.124  1.00  0.00    -0.003 C 
ATOM     20  C   UNL     1     -19.156  -4.248 -12.124  1.00  0.00     0.004 C 
ENDBRANCH  18  19
ENDBRANCH  17  18
ENDBRANCH  16  17
ENDBRANCH  15  16
ENDBRANCH  14  15
ENDBRANCH  13  14
ENDBRANCH  12  13
ENDBRANCH   1  12
TORSDOF 16
ENDMDL
MODEL 4
REMARK VINA RESULT:    -1.544      2.123      3.930
REMARK INTER + INTRA:          -4.110
REMARK INTER:                  -2.750
REMARK INTRA:                  -1.359
REMARK UNBOUND:                -1.122
REMARK SMILES CCCCCCCCCCCCCCCCCC(=O)[O-]
REMARK SMILES IDX 10 1 11 2 12 3 13 4 14 5 15 6 16 7 17 8 18 9 19 10 20 11
REMARK SMILES IDX 9 12 8 13 7 14 6 15 5 16 4 17 3 18 2 19 1 20
REMARK H PARENT
REMARK Flexibility Score: inf
ROOT
ATOM      1  C   UNL     1     -11.756  -9.189  -9.409  1.00  0.00     0.000 C 
ENDROOT
BRANCH   1   2
ATOM      2  C   UNL     1     -12.792 -10.309  -9.224  1.00  0.00     0.000 C 
BRANCH   2   3
ATOM      3  C   UNL     1     -12.397 -11.560 -10.018  1.00  0.00     0.000 C 
BRANCH   3   4
ATOM      4  C   UNL     1     -13.605 -12.146 -10.759  1.00  0.00     0.000 C 
BRANCH   4   5
ATOM      5  C   UNL     1     -14.801 -11.185 -10.711  1.00  0.00     0.000 C 
BRANCH   5   6
ATOM      6  C   UNL     1     -15.873 -11.535 -11.766  1.00  0.00     0.000 C 
BRANCH   6   7
ATOM      7  C   UNL     1     -16.842 -12.642 -11.316  1.00  0.00     0.006 C 
BRANCH   7   8
ATOM      8  C   UNL     1     -17.074 -12.651  -9.801  1.00  0.00     0.053 C 
BRANCH   8   9
ATOM      9  C   UNL     1     -18.143 -11.671  -9.430  1.00  0.00     0.041 C 
ATOM     10  O   UNL     1     -19.356 -11.967  -9.586  1.00  0.00    -0.550 OA
ATOM     11  O   UNL     1     -17.799 -10.450  -8.864  1.00  0.00    -0.550 OA
ENDBRANCH   8   9
ENDBRANCH   7   8
ENDBRANCH   6   7
ENDBRANCH   5   6
ENDBRANCH   4   5
ENDBRANCH   3   4
ENDBRANCH   2   3
ENDBRANCH   1   2
BRANCH   1  12
ATOM     12  C   UNL     1     -11.304  -9.028 -10.871  1.00  0.00     0.000 C 
BRANCH  12  13
ATOM     13  C   UNL     1     -12.427  -8.707 -11.880  1.00  0.00    -0.000 C 
BRANCH  13  14
ATOM     14  C   UNL     1     -13.525  -7.751 -11.367  1.00  0.00    -0.000 C 
BRANCH  14  15
ATOM     15  C   UNL     1     -14.930  -8.029 -11.948  1.00  0.00    -0.000 C 
BRANCH  15  16
ATOM     16  C   UNL     1     -15.791  -6.763 -12.125  1.00  0.00    -0.000 C 
BRANCH  16  17
ATOM     17  C   UNL     1     -15.237  -5.505 -11.435  1.00  0.00    -0.000 C 
BRANCH  17  18
ATOM     18  C   UNL     1     -15.879  -4.209 -11.954  1.00  0.00    -0.000 C 
BRANCH  18  19
ATOM     19  C   UNL     1     -15.006  -2.995 -11.621  1.00  0.00    -0.003 C 
ATOM     20  C   UNL     1     -13.577  -3.188 -12.119  1.00  0.00     0.004 C 
ENDBRANCH  18  19
ENDBRANCH  17  18
ENDBRANCH  16  17
ENDBRANCH  15  16
ENDBRANCH  14  15
ENDBRANCH  13  14
ENDBRANCH  12  13
ENDBRANCH   1  12
TORSDOF 16
ENDMDL
MODEL 5
REMARK VINA RESULT:    -0.811      4.495      6.379
REMARK INTER + INTRA:          -2.692
REMARK INTER:                  -1.923
REMARK INTRA:                  -0.769
REMARK UNBOUND:                -1.122
REMARK SMILES CCCCCCCCCCCCCCCCCC(=O)[O-]
REMARK SMILES IDX 10 1 11 2 12 3 13 4 14 5 15 6 16 7 17 8 18 9 19 10 20 11
REMARK SMILES IDX 9 12 8 13 7 14 6 15 5 16 4 17 3 18 2 19 1 20
REMARK H PARENT
REMARK Flexibility Score: inf
ROOT
ATOM      1  C   UNL     1     -12.316  -9.820 -10.113  1.00  0.00     0.000 C 
ENDROOT
BRANCH   1   2
ATOM      2  C   UNL     1     -13.422 -10.818 -10.490  1.00  0.00     0.000 C 
BRANCH   2   3
ATOM      3  C   UNL     1     -14.410 -10.195 -11.484  1.00  0.00     0.000 C 
BRANCH   3   4
ATOM      4  C   UNL     1     -15.686 -11.038 -11.593  1.00  0.00     0.000 C 
BRANCH   4   5
ATOM      5  C   UNL     1     -15.400 -12.515 -11.287  1.00  0.00     0.000 C 
BRANCH   5   6
ATOM      6  C   UNL     1     -16.384 -13.098 -10.251  1.00  0.00     0.000 C 
BRANCH   6   7
ATOM      7  C   UNL     1     -17.589 -12.184  -9.964  1.00  0.00     0.006 C 
BRANCH   7   8
ATOM      8  C   UNL     1     -18.471 -12.702  -8.823  1.00  0.00     0.053 C 
BRANCH   8   9
ATOM      9  C   UNL     1     -19.158 -11.563  -8.136  1.00  0.00     0.041 C 
ATOM     10  O   UNL     1     -18.487 -10.605  -7.672  1.00  0.00    -0.550 OA
ATOM     11  O   UNL     1     -20.545 -11.537  -8.053  1.00  0.00    -0.550 OA
ENDBRANCH   8   9
ENDBRANCH   7   8
ENDBRANCH   6   7
ENDBRANCH   5   6
ENDBRANCH   4   5
ENDBRANCH   3   4
ENDBRANCH   2   3
ENDBRANCH   1   2
BRANCH   1  12
ATOM     12  C   UNL     1     -11.635  -9.189 -11.340  1.00  0.00     0.000 C 
BRANCH  12  13
ATOM     13  C   UNL     1     -10.689 -10.123 -12.125  1.00  0.00    -0.000 C 
BRANCH  13  14
ATOM     14  C   UNL     1      -9.200  -9.719 -12.111  1.00  0.00    -0.000 C 
BRANCH  14  15
ATOM     15  C   UNL     1      -8.218 -10.913 -12.123  1.00  0.00    -0.000 C 
BRANCH  15  16
ATOM     16  C   UNL     1      -6.767 -10.528 -11.781  1.00  0.00    -0.000 C 
BRANCH  16  17
ATOM     17  C   UNL     1      -5.771 -11.700 -11.776  1.00  0.00    -0.000 C 
BRANCH  17  18
ATOM     18  C   UNL     1      -4.547 -11.440 -10.886  1.00  0.00    -0.000 C 
BRANCH  18  19
ATOM     19  C   UNL     1      -4.267  -9.938 -10.767  1.00  0.00    -0.003 C 
ATOM     20  C   UNL     1      -3.390  -9.447 -11.916  1.00  0.00     0.004 C 
ENDBRANCH  18  19
ENDBRANCH  17  18
ENDBRANCH  16  17
ENDBRANCH  15  16
ENDBRANCH  14  15
ENDBRANCH  13  14
ENDBRANCH  12  13
ENDBRANCH   1  12
TORSDOF 16
ENDMDL
MODEL 6
REMARK VINA RESULT:    -0.397      4.153      5.985
REMARK INTER + INTRA:          -1.889
REMARK INTER:                  -1.132
REMARK INTRA:                  -0.757
REMARK UNBOUND:                -1.122
REMARK SMILES CCCCCCCCCCCCCCCCCC(=O)[O-]
REMARK SMILES IDX 10 1 11 2 12 3 13 4 14 5 15 6 16 7 17 8 18 9 19 10 20 11
REMARK SMILES IDX 9 12 8 13 7 14 6 15 5 16 4 17 3 18 2 19 1 20
REMARK H PARENT
REMARK Flexibility Score: inf
ROOT
ATOM      1  C   UNL     1     -13.538  -9.584 -10.239  1.00  0.00     0.000 C 
ENDROOT
BRANCH   1   2
ATOM      2  C   UNL     1     -14.009 -11.045 -10.299  1.00  0.00     0.000 C 
BRANCH   2   3
ATOM      3  C   UNL     1     -15.390 -11.152 -10.958  1.00  0.00     0.000 C 
BRANCH   3   4
ATOM      4  C   UNL     1     -16.086 -12.461 -10.570  1.00  0.00     0.000 C 
BRANCH   4   5
ATOM      5  C   UNL     1     -17.473 -12.191  -9.967  1.00  0.00     0.000 C 
BRANCH   5   6
ATOM      6  C   UNL     1     -17.695 -10.694  -9.663  1.00  0.00     0.000 C 
BRANCH   6   7
ATOM      7  C   UNL     1     -18.633 -10.440  -8.471  1.00  0.00     0.006 C 
BRANCH   7   8
ATOM      8  C   UNL     1     -19.847 -11.375  -8.458  1.00  0.00     0.053 C 
BRANCH   8   9
ATOM      9  C   UNL     1     -19.929 -12.107  -7.155  1.00  0.00     0.041 C 
ATOM     10  O   UNL     1     -20.897 -11.906  -6.375  1.00  0.00    -0.550 OA
ATOM     11  O   UNL     1     -18.963 -13.048  -6.824  1.00  0.00    -0.550 OA
ENDBRANCH   8   9
ENDBRANCH   7   8
ENDBRANCH   6   7
ENDBRANCH   5   6
ENDBRANCH   4   5
ENDBRANCH   3   4
ENDBRANCH   2   3
ENDBRANCH   1   2
BRANCH   1  12
ATOM     12  C   UNL     1     -12.736  -9.162 -11.482  1.00  0.00     0.000 C 
BRANCH  12  13
ATOM     13  C   UNL     1     -11.725 -10.206 -12.003  1.00  0.00    -0.000 C 
BRANCH  13  14
ATOM     14  C   UNL     1     -10.247  -9.761 -11.985  1.00  0.00    -0.000 C 
BRANCH  14  15
ATOM     15  C   UNL     1      -9.234 -10.921 -12.118  1.00  0.00    -0.000 C 
BRANCH  15  16
ATOM     16  C   UNL     1      -7.763 -10.464 -12.124  1.00  0.00    -0.000 C 
BRANCH  16  17
ATOM     17  C   UNL     1      -6.732 -11.602 -12.038  1.00  0.00    -0.000 C 
BRANCH  17  18
ATOM     18  C   UNL     1      -5.742 -11.423 -10.878  1.00  0.00    -0.000 C 
BRANCH  18  19
ATOM     19  C   UNL     1      -4.400 -10.881 -11.383  1.00  0.00    -0.003 C 
ATOM     20  C   UNL     1      -3.247 -11.346 -10.498  1.00  0.00     0.004 C 
ENDBRANCH  18  19
ENDBRANCH  17  18
ENDBRANCH  16  17
ENDBRANCH  15  16
ENDBRANCH  14  15
ENDBRANCH  13  14
ENDBRANCH  12  13
ENDBRANCH   1  12
TORSDOF 16
ENDMDL
MODEL 7
REMARK VINA RESULT:    -0.337      7.872     11.841
REMARK INTER + INTRA:          -1.774
REMARK INTER:                  -1.345
REMARK INTRA:                  -0.429
REMARK UNBOUND:                -1.122
REMARK SMILES CCCCCCCCCCCCCCCCCC(=O)[O-]
REMARK SMILES IDX 10 1 11 2 12 3 13 4 14 5 15 6 16 7 17 8 18 9 19 10 20 11
REMARK SMILES IDX 9 12 8 13 7 14 6 15 5 16 4 17 3 18 2 19 1 20
REMARK H PARENT
REMARK Flexibility Score: inf
ROOT
ATOM      1  C   UNL     1     -10.723 -11.978 -12.125  1.00  0.00     0.000 C 
ENDROOT
BRANCH   1   2
ATOM      2  C   UNL     1      -9.527 -12.942 -12.116  1.00  0.00     0.000 C 
BRANCH   2   3
ATOM      3  C   UNL     1      -8.201 -12.174 -12.124  1.00  0.00     0.000 C 
BRANCH   3   4
ATOM      4  C   UNL     1      -7.035 -13.081 -11.711  1.00  0.00     0.000 C 
BRANCH   4   5
ATOM      5  C   UNL     1      -5.692 -12.349 -11.845  1.00  0.00     0.000 C 
BRANCH   5   6
ATOM      6  C   UNL     1      -5.835 -10.826 -11.633  1.00  0.00     0.000 C 
BRANCH   6   7
ATOM      7  C   UNL     1      -4.488 -10.083 -11.575  1.00  0.00     0.006 C 
BRANCH   7   8
ATOM      8  C   UNL     1      -3.830 -10.151 -10.193  1.00  0.00     0.053 C 
BRANCH   8   9
ATOM      9  C   UNL     1      -2.358  -9.902 -10.303  1.00  0.00     0.041 C 
ATOM     10  O   UNL     1      -1.892  -9.288 -11.298  1.00  0.00    -0.550 OA
ATOM     11  O   UNL     1      -1.507 -10.305  -9.282  1.00  0.00    -0.550 OA
ENDBRANCH   8   9
ENDBRANCH   7   8
ENDBRANCH   6   7
ENDBRANCH   5   6
ENDBRANCH   4   5
ENDBRANCH   3   4
ENDBRANCH   2   3
ENDBRANCH   1   2
BRANCH   1  12
ATOM     12  C   UNL     1     -12.068 -12.689 -11.897  1.00  0.00     0.000 C 
BRANCH  12  13
ATOM     13  C   UNL     1     -13.094 -11.908 -11.048  1.00  0.00    -0.000 C 
BRANCH  13  14
ATOM     14  C   UNL     1     -14.575 -12.202 -11.364  1.00  0.00    -0.000 C 
BRANCH  14  15
ATOM     15  C   UNL     1     -15.557 -11.790 -10.243  1.00  0.00    -0.000 C 
BRANCH  15  16
ATOM     16  C   UNL     1     -17.039 -12.003 -10.606  1.00  0.00    -0.000 C 
BRANCH  16  17
ATOM     17  C   UNL     1     -18.034 -11.656  -9.487  1.00  0.00    -0.000 C 
BRANCH  17  18
ATOM     18  C   UNL     1     -19.476 -12.065  -9.823  1.00  0.00    -0.000 C 
BRANCH  18  19
ATOM     19  C   UNL     1     -20.071 -12.938  -8.713  1.00  0.00    -0.003 C 
ATOM     20  C   UNL     1     -20.346 -12.120  -7.454  1.00  0.00     0.004 C 
ENDBRANCH  18  19
ENDBRANCH  17  18
ENDBRANCH  16  17
ENDBRANCH  15  16
ENDBRANCH  14  15
ENDBRANCH  13  14
ENDBRANCH  12  13
ENDBRANCH   1  12
TORSDOF 16
ENDMDL
