MODEL 1
REMARK VINA RESULT:    -5.728      0.000      0.000
REMARK INTER + INTRA:          -6.289
REMARK INTER:                  -6.231
REMARK INTRA:                  -0.059
REMARK UNBOUND:                -0.059
REMARK SMILES COc1cc2ccc(=O)oc2cc1O
REMARK SMILES IDX 3 1 13 2 12 3 11 4 5 5 4 6 6 7 7 8 8 9 9 10 10 11 2 12 1 13
REMARK SMILES IDX 14 14
REMARK H PARENT 14 15
REMARK Flexibility Score: inf
ROOT
ATOM      1  C   UNL     1      10.316 -16.002   6.091  1.00  0.00     0.161 A 
ATOM      2  C   UNL     1       9.726 -16.688   7.171  1.00  0.00     0.161 A 
ATOM      3  C   UNL     1       8.406 -16.412   7.546  1.00  0.00     0.098 A 
ATOM      4  C   UNL     1       7.660 -15.454   6.856  1.00  0.00     0.142 A 
ATOM      5  C   UNL     1       8.242 -14.761   5.773  1.00  0.00     0.022 A 
ATOM      6  C   UNL     1       9.563 -15.035   5.394  1.00  0.00     0.062 A 
ATOM      7  C   UNL     1       7.469 -13.807   5.101  1.00  0.00     0.019 A 
ATOM      8  C   UNL     1       6.159 -13.571   5.516  1.00  0.00     0.094 A 
ATOM      9  C   UNL     1       5.650 -14.297   6.598  1.00  0.00     0.336 A 
ATOM     10  O   UNL     1       4.470 -14.098   6.987  1.00  0.00    -0.246 OA
ATOM     11  O   UNL     1       6.406 -15.198   7.219  1.00  0.00    -0.423 OA
ENDROOT
BRANCH   1  12
ATOM     12  O   UNL     1      11.642 -16.303   5.742  1.00  0.00    -0.493 OA
ATOM     13  C   UNL     1      12.785 -15.612   6.236  1.00  0.00     0.278 C 
ENDBRANCH   1  12
BRANCH   2  14
ATOM     14  O   UNL     1      10.438 -17.652   7.885  1.00  0.00    -0.504 OA
ATOM     15  H   UNL     1      11.062 -18.309   7.432  1.00  0.00     0.293 HD
ENDBRANCH   2  14
TORSDOF 2
ENDMDL
MODEL 2
REMARK VINA RESULT:    -5.536      1.273      5.408
REMARK INTER + INTRA:          -6.080
REMARK INTER:                  -6.021
REMARK INTRA:                  -0.059
REMARK UNBOUND:                -0.059
REMARK SMILES COc1cc2ccc(=O)oc2cc1O
REMARK SMILES IDX 3 1 13 2 12 3 11 4 5 5 4 6 6 7 7 8 8 9 9 10 10 11 2 12 1 13
REMARK SMILES IDX 14 14
REMARK H PARENT 14 15
REMARK Flexibility Score: inf
ROOT
ATOM      1  C   UNL     1       6.322 -14.778   6.475  1.00  0.00     0.161 A 
ATOM      2  C   UNL     1       6.901 -14.062   5.408  1.00  0.00     0.161 A 
ATOM      3  C   UNL     1       8.243 -14.265   5.069  1.00  0.00     0.098 A 
ATOM      4  C   UNL     1       9.023 -15.177   5.782  1.00  0.00     0.142 A 
ATOM      5  C   UNL     1       8.454 -15.899   6.852  1.00  0.00     0.022 A 
ATOM      6  C   UNL     1       7.109 -15.699   7.196  1.00  0.00     0.062 A 
ATOM      7  C   UNL     1       9.261 -16.806   7.548  1.00  0.00     0.019 A 
ATOM      8  C   UNL     1      10.592 -16.969   7.168  1.00  0.00     0.094 A 
ATOM      9  C   UNL     1      11.088 -16.218   6.097  1.00  0.00     0.336 A 
ATOM     10  O   UNL     1      12.287 -16.352   5.738  1.00  0.00    -0.246 OA
ATOM     11  O   UNL     1      10.299 -15.363   5.452  1.00  0.00    -0.423 OA
ENDROOT
BRANCH   1  12
ATOM     12  O   UNL     1       4.973 -14.550   6.790  1.00  0.00    -0.493 OA
ATOM     13  C   UNL     1       3.944 -15.531   6.697  1.00  0.00     0.278 C 
ENDBRANCH   1  12
BRANCH   2  14
ATOM     14  O   UNL     1       6.153 -13.142   4.672  1.00  0.00    -0.504 OA
ATOM     15  H   UNL     1       5.341 -12.675   5.056  1.00  0.00     0.293 HD
ENDBRANCH   2  14
TORSDOF 2
ENDMDL
MODEL 3
REMARK VINA RESULT:    -5.519      2.293      4.047
REMARK INTER + INTRA:          -6.062
REMARK INTER:                  -6.018
REMARK INTRA:                  -0.043
REMARK UNBOUND:                -0.059
REMARK SMILES COc1cc2ccc(=O)oc2cc1O
REMARK SMILES IDX 3 1 13 2 12 3 11 4 5 5 4 6 6 7 7 8 8 9 9 10 10 11 2 12 1 13
REMARK SMILES IDX 14 14
REMARK H PARENT 14 15
REMARK Flexibility Score: inf
ROOT
ATOM      1  C   UNL     1       7.381 -14.981   6.429  1.00  0.00     0.161 A 
ATOM      2  C   UNL     1       6.573 -14.087   5.700  1.00  0.00     0.161 A 
ATOM      3  C   UNL     1       5.267 -13.814   6.120  1.00  0.00     0.098 A 
ATOM      4  C   UNL     1       4.749 -14.424   7.264  1.00  0.00     0.142 A 
ATOM      5  C   UNL     1       5.550 -15.322   8.001  1.00  0.00     0.022 A 
ATOM      6  C   UNL     1       6.859 -15.598   7.584  1.00  0.00     0.062 A 
ATOM      7  C   UNL     1       5.004 -15.918   9.144  1.00  0.00     0.019 A 
ATOM      8  C   UNL     1       3.696 -15.610   9.518  1.00  0.00     0.094 A 
ATOM      9  C   UNL     1       2.962 -14.711   8.737  1.00  0.00     0.336 A 
ATOM     10  O   UNL     1       1.780 -14.420   9.058  1.00  0.00    -0.246 OA
ATOM     11  O   UNL     1       3.505 -14.158   7.656  1.00  0.00    -0.423 OA
ENDROOT
BRANCH   1  12
ATOM     12  O   UNL     1       8.687 -15.233   5.979  1.00  0.00    -0.493 OA
ATOM     13  C   UNL     1       9.555 -16.221   6.527  1.00  0.00     0.278 C 
ENDBRANCH   1  12
BRANCH   2  14
ATOM     14  O   UNL     1       7.054 -13.458   4.551  1.00  0.00    -0.504 OA
ATOM     15  H   UNL     1       7.957 -12.999   4.523  1.00  0.00     0.293 HD
ENDBRANCH   2  14
TORSDOF 2
ENDMDL
MODEL 4
REMARK VINA RESULT:    -5.355      0.908      0.992
REMARK INTER + INTRA:          -5.883
REMARK INTER:                  -5.820
REMARK INTRA:                  -0.063
REMARK UNBOUND:                -0.059
REMARK SMILES COc1cc2ccc(=O)oc2cc1O
REMARK SMILES IDX 3 1 13 2 12 3 11 4 5 5 4 6 6 7 7 8 8 9 9 10 10 11 2 12 1 13
REMARK SMILES IDX 14 14
REMARK H PARENT 14 15
REMARK Flexibility Score: inf
ROOT
ATOM      1  C   UNL     1      10.311 -16.828   6.896  1.00  0.00     0.161 A 
ATOM      2  C   UNL     1       9.400 -17.196   7.907  1.00  0.00     0.161 A 
ATOM      3  C   UNL     1       8.133 -16.606   7.962  1.00  0.00     0.098 A 
ATOM      4  C   UNL     1       7.756 -15.646   7.020  1.00  0.00     0.142 A 
ATOM      5  C   UNL     1       8.661 -15.271   6.004  1.00  0.00     0.022 A 
ATOM      6  C   UNL     1       9.931 -15.859   5.944  1.00  0.00     0.062 A 
ATOM      7  C   UNL     1       8.255 -14.307   5.075  1.00  0.00     0.019 A 
ATOM      8  C   UNL     1       6.980 -13.751   5.176  1.00  0.00     0.094 A 
ATOM      9  C   UNL     1       6.138 -14.173   6.211  1.00  0.00     0.336 A 
ATOM     10  O   UNL     1       4.983 -13.683   6.319  1.00  0.00    -0.246 OA
ATOM     11  O   UNL     1       6.549 -15.091   7.081  1.00  0.00    -0.423 OA
ENDROOT
BRANCH   1  12
ATOM     12  O   UNL     1      11.575 -17.439   6.869  1.00  0.00    -0.493 OA
ATOM     13  C   UNL     1      12.797 -16.781   7.187  1.00  0.00     0.278 C 
ENDBRANCH   1  12
BRANCH   2  14
ATOM     14  O   UNL     1       9.739 -18.150   8.866  1.00  0.00    -0.504 OA
ATOM     15  H   UNL     1      10.504 -18.016   9.516  1.00  0.00     0.293 HD
ENDBRANCH   2  14
TORSDOF 2
ENDMDL
MODEL 5
REMARK VINA RESULT:    -5.242      2.407      5.609
REMARK INTER + INTRA:          -5.761
REMARK INTER:                  -5.717
REMARK INTRA:                  -0.044
REMARK UNBOUND:                -0.059
REMARK SMILES COc1cc2ccc(=O)oc2cc1O
REMARK SMILES IDX 3 1 13 2 12 3 11 4 5 5 4 6 6 7 7 8 8 9 9 10 10 11 2 12 1 13
REMARK SMILES IDX 14 14
REMARK H PARENT 14 15
REMARK Flexibility Score: inf
ROOT
ATOM      1  C   UNL     1       3.851 -14.771   8.442  1.00  0.00     0.161 A 
ATOM      2  C   UNL     1       4.792 -15.581   9.109  1.00  0.00     0.161 A 
ATOM      3  C   UNL     1       6.074 -15.756   8.578  1.00  0.00     0.098 A 
ATOM      4  C   UNL     1       6.436 -15.132   7.381  1.00  0.00     0.142 A 
ATOM      5  C   UNL     1       5.501 -14.319   6.706  1.00  0.00     0.022 A 
ATOM      6  C   UNL     1       4.215 -14.141   7.235  1.00  0.00     0.062 A 
ATOM      7  C   UNL     1       5.892 -13.707   5.510  1.00  0.00     0.019 A 
ATOM      8  C   UNL     1       7.182 -13.915   5.024  1.00  0.00     0.094 A 
ATOM      9  C   UNL     1       8.055 -14.734   5.749  1.00  0.00     0.336 A 
ATOM     10  O   UNL     1       9.224 -14.934   5.327  1.00  0.00    -0.246 OA
ATOM     11  O   UNL     1       7.657 -15.304   6.883  1.00  0.00    -0.423 OA
ENDROOT
BRANCH   1  12
ATOM     12  O   UNL     1       2.573 -14.618   9.003  1.00  0.00    -0.493 OA
ATOM     13  C   UNL     1       1.472 -15.487   8.757  1.00  0.00     0.278 C 
ENDBRANCH   1  12
BRANCH   2  14
ATOM     14  O   UNL     1       4.468 -16.221  10.306  1.00  0.00    -0.504 OA
ATOM     15  H   UNL     1       3.630 -15.999  10.829  1.00  0.00     0.293 HD
ENDBRANCH   2  14
TORSDOF 2
ENDMDL
MODEL 6
REMARK VINA RESULT:    -5.024      2.254      3.274
REMARK INTER + INTRA:          -5.524
REMARK INTER:                  -5.460
REMARK INTRA:                  -0.064
REMARK UNBOUND:                -0.059
REMARK SMILES COc1cc2ccc(=O)oc2cc1O
REMARK SMILES IDX 3 1 13 2 12 3 11 4 5 5 4 6 6 7 7 8 8 9 9 10 10 11 2 12 1 13
REMARK SMILES IDX 14 14
REMARK H PARENT 14 15
REMARK Flexibility Score: inf
ROOT
ATOM      1  C   UNL     1       7.488 -14.991   6.044  1.00  0.00     0.161 A 
ATOM      2  C   UNL     1       7.906 -15.877   7.057  1.00  0.00     0.161 A 
ATOM      3  C   UNL     1       7.033 -16.224   8.094  1.00  0.00     0.098 A 
ATOM      4  C   UNL     1       5.741 -15.697   8.139  1.00  0.00     0.142 A 
ATOM      5  C   UNL     1       5.313 -14.809   7.130  1.00  0.00     0.022 A 
ATOM      6  C   UNL     1       6.183 -14.459   6.088  1.00  0.00     0.062 A 
ATOM      7  C   UNL     1       4.012 -14.297   7.201  1.00  0.00     0.019 A 
ATOM      8  C   UNL     1       3.184 -14.676   8.257  1.00  0.00     0.094 A 
ATOM      9  C   UNL     1       3.678 -15.561   9.221  1.00  0.00     0.336 A 
ATOM     10  O   UNL     1       2.946 -15.916  10.182  1.00  0.00    -0.246 OA
ATOM     11  O   UNL     1       4.918 -16.033   9.129  1.00  0.00    -0.423 OA
ENDROOT
BRANCH   1  12
ATOM     12  O   UNL     1       8.388 -14.663   5.018  1.00  0.00    -0.493 OA
ATOM     13  C   UNL     1       9.075 -13.420   4.911  1.00  0.00     0.278 C 
ENDBRANCH   1  12
BRANCH   2  14
ATOM     14  O   UNL     1       9.189 -16.424   7.047  1.00  0.00    -0.504 OA
ATOM     15  H   UNL     1       9.471 -17.154   7.691  1.00  0.00     0.293 HD
ENDBRANCH   2  14
TORSDOF 2
ENDMDL
MODEL 7
REMARK VINA RESULT:    -4.950      1.366      2.357
REMARK INTER + INTRA:          -5.443
REMARK INTER:                  -5.378
REMARK INTRA:                  -0.065
REMARK UNBOUND:                -0.059
REMARK SMILES COc1cc2ccc(=O)oc2cc1O
REMARK SMILES IDX 3 1 13 2 12 3 11 4 5 5 4 6 6 7 7 8 8 9 9 10 10 11 2 12 1 13
REMARK SMILES IDX 14 14
REMARK H PARENT 14 15
REMARK Flexibility Score: inf
ROOT
ATOM      1  C   UNL     1      10.393 -16.753   7.279  1.00  0.00     0.161 A 
ATOM      2  C   UNL     1      10.732 -16.135   6.058  1.00  0.00     0.161 A 
ATOM      3  C   UNL     1       9.798 -15.336   5.389  1.00  0.00     0.098 A 
ATOM      4  C   UNL     1       8.521 -15.144   5.921  1.00  0.00     0.142 A 
ATOM      5  C   UNL     1       8.171 -15.758   7.141  1.00  0.00     0.022 A 
ATOM      6  C   UNL     1       9.104 -16.559   7.816  1.00  0.00     0.062 A 
ATOM      7  C   UNL     1       6.885 -15.546   7.649  1.00  0.00     0.019 A 
ATOM      8  C   UNL     1       5.993 -14.741   6.941  1.00  0.00     0.094 A 
ATOM      9  C   UNL     1       6.411 -14.165   5.736  1.00  0.00     0.336 A 
ATOM     10  O   UNL     1       5.621 -13.434   5.083  1.00  0.00    -0.246 OA
ATOM     11  O   UNL     1       7.640 -14.382   5.277  1.00  0.00    -0.423 OA
ENDROOT
BRANCH   1  12
ATOM     12  O   UNL     1      11.353 -17.548   7.924  1.00  0.00    -0.493 OA
ATOM     13  C   UNL     1      12.186 -17.105   8.990  1.00  0.00     0.278 C 
ENDBRANCH   1  12
BRANCH   2  14
ATOM     14  O   UNL     1      11.997 -16.304   5.496  1.00  0.00    -0.504 OA
ATOM     15  H   UNL     1      12.777 -15.701   5.728  1.00  0.00     0.293 HD
ENDBRANCH   2  14
TORSDOF 2
ENDMDL
MODEL 8
REMARK VINA RESULT:    -4.902      2.009      5.602
REMARK INTER + INTRA:          -5.390
REMARK INTER:                  -5.348
REMARK INTRA:                  -0.043
REMARK UNBOUND:                -0.059
REMARK SMILES COc1cc2ccc(=O)oc2cc1O
REMARK SMILES IDX 3 1 13 2 12 3 11 4 5 5 4 6 6 7 7 8 8 9 9 10 10 11 2 12 1 13
REMARK SMILES IDX 14 14
REMARK H PARENT 14 15
REMARK Flexibility Score: inf
ROOT
ATOM      1  C   UNL     1       5.204 -15.341   8.828  1.00  0.00     0.161 A 
ATOM      2  C   UNL     1       5.037 -14.438   7.759  1.00  0.00     0.161 A 
ATOM      3  C   UNL     1       6.026 -14.316   6.777  1.00  0.00     0.098 A 
ATOM      4  C   UNL     1       7.189 -15.086   6.844  1.00  0.00     0.142 A 
ATOM      5  C   UNL     1       7.367 -15.994   7.910  1.00  0.00     0.022 A 
ATOM      6  C   UNL     1       6.378 -16.119   8.896  1.00  0.00     0.062 A 
ATOM      7  C   UNL     1       8.542 -16.752   7.950  1.00  0.00     0.019 A 
ATOM      8  C   UNL     1       9.495 -16.591   6.945  1.00  0.00     0.094 A 
ATOM      9  C   UNL     1       9.250 -15.671   5.919  1.00  0.00     0.336 A 
ATOM     10  O   UNL     1      10.098 -15.512   5.003  1.00  0.00    -0.246 OA
ATOM     11  O   UNL     1       8.124 -14.964   5.905  1.00  0.00    -0.423 OA
ENDROOT
BRANCH   1  12
ATOM     12  O   UNL     1       4.193 -15.438   9.796  1.00  0.00    -0.493 OA
ATOM     13  C   UNL     1       3.065 -16.303   9.705  1.00  0.00     0.278 C 
ENDBRANCH   1  12
BRANCH   2  14
ATOM     14  O   UNL     1       3.889 -13.651   7.658  1.00  0.00    -0.504 OA
ATOM     15  H   UNL     1       3.554 -13.294   6.771  1.00  0.00     0.293 HD
ENDBRANCH   2  14
TORSDOF 2
ENDMDL
MODEL 9
REMARK VINA RESULT:    -4.881      3.475      6.564
REMARK INTER + INTRA:          -5.368
REMARK INTER:                  -5.325
REMARK INTRA:                  -0.043
REMARK UNBOUND:                -0.059
REMARK SMILES COc1cc2ccc(=O)oc2cc1O
REMARK SMILES IDX 3 1 13 2 12 3 11 4 5 5 4 6 6 7 7 8 8 9 9 10 10 11 2 12 1 13
REMARK SMILES IDX 14 14
REMARK H PARENT 14 15
REMARK Flexibility Score: inf
ROOT
ATOM      1  C   UNL     1       2.562 -15.588   9.462  1.00  0.00     0.161 A 
ATOM      2  C   UNL     1       3.521 -16.495   9.958  1.00  0.00     0.161 A 
ATOM      3  C   UNL     1       4.793 -16.563   9.379  1.00  0.00     0.098 A 
ATOM      4  C   UNL     1       5.127 -15.736   8.305  1.00  0.00     0.142 A 
ATOM      5  C   UNL     1       4.175 -14.825   7.800  1.00  0.00     0.022 A 
ATOM      6  C   UNL     1       2.899 -14.753   8.377  1.00  0.00     0.062 A 
ATOM      7  C   UNL     1       4.539 -14.010   6.723  1.00  0.00     0.019 A 
ATOM      8  C   UNL     1       5.820 -14.119   6.184  1.00  0.00     0.094 A 
ATOM      9  C   UNL     1       6.711 -15.046   6.736  1.00  0.00     0.336 A 
ATOM     10  O   UNL     1       7.872 -15.159   6.264  1.00  0.00    -0.246 OA
ATOM     11  O   UNL     1       6.339 -15.808   7.761  1.00  0.00    -0.423 OA
ENDROOT
BRANCH   1  12
ATOM     12  O   UNL     1       1.296 -15.546  10.065  1.00  0.00    -0.493 OA
ATOM     13  C   UNL     1       0.234 -14.689   9.658  1.00  0.00     0.278 C 
ENDBRANCH   1  12
BRANCH   2  14
ATOM     14  O   UNL     1       3.224 -17.337  11.030  1.00  0.00    -0.504 OA
ATOM     15  H   UNL     1       2.626 -17.050  11.795  1.00  0.00     0.293 HD
ENDBRANCH   2  14
TORSDOF 2
ENDMDL
