MODEL 1
REMARK VINA RESULT:     2.249      0.000      0.000
REMARK INTER + INTRA:           2.921
REMARK INTER:                   2.709
REMARK INTRA:                   0.212
REMARK UNBOUND:                 0.212
REMARK SMILES O=c1c(O)c(-c2ccc(O)c(O)c2)oc2cc(O)cc(O)c12
REMARK SMILES IDX 5 1 3 2 2 3 1 4 22 5 20 6 19 7 17 8 16 9 15 10 14 11 6 12
REMARK SMILES IDX 7 13 8 14 9 15 13 16 11 17 10 18 12 20 4 22 21 24 18 26
REMARK H PARENT 10 19 12 21 4 23 21 25 18 27
REMARK Flexibility Score: inf
ROOT
ATOM      1  C   UNL     1     -37.151 -35.448 -34.330  1.00  0.00     0.180 A 
ATOM      2  C   UNL     1     -35.745 -35.506 -34.379  1.00  0.00     0.208 A 
ATOM      3  C   UNL     1     -35.117 -35.706 -35.619  1.00  0.00     0.238 A 
ATOM      4  O   UNL     1     -33.859 -35.771 -35.674  1.00  0.00    -0.285 OA
ATOM      5  C   UNL     1     -35.900 -35.824 -36.786  1.00  0.00     0.111 A 
ATOM      6  C   UNL     1     -35.347 -36.023 -38.073  1.00  0.00     0.134 A 
ATOM      7  C   UNL     1     -36.193 -36.122 -39.188  1.00  0.00     0.093 A 
ATOM      8  C   UNL     1     -37.579 -36.024 -39.040  1.00  0.00     0.123 A 
ATOM      9  C   UNL     1     -38.132 -35.828 -37.771  1.00  0.00     0.094 A 
ATOM     10  C   UNL     1     -37.305 -35.730 -36.648  1.00  0.00     0.146 A 
ATOM     11  O   UNL     1     -37.856 -35.547 -35.453  1.00  0.00    -0.452 OA
ENDROOT
BRANCH   1  12
ATOM     12  C   UNL     1     -37.886 -35.257 -33.059  1.00  0.00     0.025 A 
ATOM     13  C   UNL     1     -39.126 -34.600 -33.070  1.00  0.00     0.016 A 
ATOM     14  C   UNL     1     -39.847 -34.428 -31.886  1.00  0.00     0.051 A 
ATOM     15  C   UNL     1     -39.346 -34.926 -30.675  1.00  0.00     0.157 A 
ATOM     16  C   UNL     1     -37.397 -35.773 -31.846  1.00  0.00     0.062 A 
ATOM     17  C   UNL     1     -38.117 -35.605 -30.657  1.00  0.00     0.158 A 
BRANCH  15  18
ATOM     18  O   UNL     1     -40.067 -34.750 -29.495  1.00  0.00    -0.504 OA
ATOM     19  H   UNL     1     -39.884 -33.972 -28.871  1.00  0.00     0.293 HD
ENDBRANCH  15  18
BRANCH  17  20
ATOM     20  O   UNL     1     -37.598 -36.124 -29.472  1.00  0.00    -0.504 OA
ATOM     21  H   UNL     1     -36.808 -35.701 -29.000  1.00  0.00     0.293 HD
ENDBRANCH  17  20
ENDBRANCH   1  12
BRANCH   2  22
ATOM     22  O   UNL     1     -34.990 -35.337 -33.216  1.00  0.00    -0.502 OA
ATOM     23  H   UNL     1     -35.357 -35.545 -32.296  1.00  0.00     0.293 HD
ENDBRANCH   2  22
BRANCH   6  24
ATOM     24  O   UNL     1     -33.966 -36.125 -38.254  1.00  0.00    -0.507 OA
ATOM     25  H   UNL     1     -33.497 -37.022 -38.284  1.00  0.00     0.293 HD
ENDBRANCH   6  24
BRANCH   8  26
ATOM     26  O   UNL     1     -38.397 -36.125 -40.163  1.00  0.00    -0.508 OA
ATOM     27  H   UNL     1     -39.295 -35.657 -40.208  1.00  0.00     0.293 HD
ENDBRANCH   8  26
TORSDOF 6
ENDMDL
