MODEL 1
REMARK VINA RESULT:    -4.910      0.000      0.000
REMARK INTER + INTRA:          -5.773
REMARK INTER:                  -5.628
REMARK INTRA:                  -0.145
REMARK UNBOUND:                -0.145
REMARK SMILES O=C([O-])C=Cc1ccc(O)cc1
REMARK SMILES IDX 6 1 7 2 12 3 8 4 11 5 9 6 5 7 4 8 2 9 1 10 3 11 10 12
REMARK H PARENT 10 13
REMARK Flexibility Score: inf
ROOT
ATOM      1  C   UNL     1      15.809 -33.078 -20.633  1.00  0.00    -0.025 A 
ATOM      2  C   UNL     1      15.985 -33.358 -19.267  1.00  0.00     0.012 A 
ATOM      3  C   UNL     1      14.506 -33.113 -21.170  1.00  0.00     0.012 A 
ATOM      4  C   UNL     1      14.892 -33.692 -18.462  1.00  0.00     0.047 A 
ATOM      5  C   UNL     1      13.415 -33.446 -20.362  1.00  0.00     0.047 A 
ATOM      6  C   UNL     1      13.604 -33.738 -19.009  1.00  0.00     0.115 A 
ENDROOT
BRANCH   1   7
ATOM      7  C   UNL     1      16.999 -32.719 -21.443  1.00  0.00     0.010 C 
ATOM      8  C   UNL     1      18.147 -33.411 -21.428  1.00  0.00     0.025 C 
BRANCH   8   9
ATOM      9  C   UNL     1      19.307 -33.012 -22.239  1.00  0.00     0.064 C 
ATOM     10  O   UNL     1      19.559 -31.790 -22.404  1.00  0.00    -0.545 OA
ATOM     11  O   UNL     1      20.134 -33.964 -22.827  1.00  0.00    -0.545 OA
ENDBRANCH   8   9
ENDBRANCH   1   7
BRANCH   6  12
ATOM     12  O   UNL     1      12.508 -34.070 -18.216  1.00  0.00    -0.508 OA
ATOM     13  H   UNL     1      11.628 -34.364 -18.626  1.00  0.00     0.293 HD
ENDBRANCH   6  12
TORSDOF 3
ENDMDL
MODEL 2
REMARK VINA RESULT:    -4.906      3.634      6.671
REMARK INTER + INTRA:          -5.768
REMARK INTER:                  -5.614
REMARK INTRA:                  -0.153
REMARK UNBOUND:                -0.145
REMARK SMILES O=C([O-])C=Cc1ccc(O)cc1
REMARK SMILES IDX 6 1 7 2 12 3 8 4 11 5 9 6 5 7 4 8 2 9 1 10 3 11 10 12
REMARK H PARENT 10 13
REMARK Flexibility Score: inf
ROOT
ATOM      1  C   UNL     1      19.106 -30.218 -22.317  1.00  0.00    -0.025 A 
ATOM      2  C   UNL     1      19.944 -30.416 -23.428  1.00  0.00     0.012 A 
ATOM      3  C   UNL     1      18.776 -28.899 -21.943  1.00  0.00     0.012 A 
ATOM      4  C   UNL     1      20.462 -29.326 -24.134  1.00  0.00     0.047 A 
ATOM      5  C   UNL     1      19.295 -27.811 -22.652  1.00  0.00     0.047 A 
ATOM      6  C   UNL     1      20.139 -28.020 -23.746  1.00  0.00     0.115 A 
ENDROOT
BRANCH   1   7
ATOM      7  C   UNL     1      18.575 -31.407 -21.608  1.00  0.00     0.010 C 
ATOM      8  C   UNL     1      18.800 -32.669 -21.998  1.00  0.00     0.025 C 
BRANCH   8   9
ATOM      9  C   UNL     1      18.242 -33.820 -21.270  1.00  0.00     0.064 C 
ATOM     10  O   UNL     1      17.072 -33.756 -20.810  1.00  0.00    -0.545 OA
ATOM     11  O   UNL     1      18.986 -34.980 -21.084  1.00  0.00    -0.545 OA
ENDBRANCH   8   9
ENDBRANCH   1   7
BRANCH   6  12
ATOM     12  O   UNL     1      20.649 -26.926 -24.441  1.00  0.00    -0.508 OA
ATOM     13  H   UNL     1      20.242 -26.618 -25.317  1.00  0.00     0.293 HD
ENDBRANCH   6  12
TORSDOF 3
ENDMDL
MODEL 3
REMARK VINA RESULT:    -4.871      1.339      5.778
REMARK INTER + INTRA:          -5.728
REMARK INTER:                  -5.591
REMARK INTRA:                  -0.137
REMARK UNBOUND:                -0.145
REMARK SMILES O=C([O-])C=Cc1ccc(O)cc1
REMARK SMILES IDX 6 1 7 2 12 3 8 4 11 5 9 6 5 7 4 8 2 9 1 10 3 11 10 12
REMARK H PARENT 10 13
REMARK Flexibility Score: inf
ROOT
ATOM      1  C   UNL     1      15.942 -32.780 -21.078  1.00  0.00    -0.025 A 
ATOM      2  C   UNL     1      16.152 -31.391 -21.134  1.00  0.00     0.012 A 
ATOM      3  C   UNL     1      17.052 -33.639 -21.215  1.00  0.00     0.012 A 
ATOM      4  C   UNL     1      17.432 -30.872 -21.350  1.00  0.00     0.047 A 
ATOM      5  C   UNL     1      18.331 -33.116 -21.429  1.00  0.00     0.047 A 
ATOM      6  C   UNL     1      18.524 -31.734 -21.499  1.00  0.00     0.115 A 
ENDROOT
BRANCH   1   7
ATOM      7  C   UNL     1      14.567 -33.281 -20.837  1.00  0.00     0.010 C 
ATOM      8  C   UNL     1      13.949 -33.220 -19.650  1.00  0.00     0.025 C 
BRANCH   8   9
ATOM      9  C   UNL     1      12.587 -33.741 -19.454  1.00  0.00     0.064 C 
ATOM     10  O   UNL     1      11.610 -33.131 -19.961  1.00  0.00    -0.545 OA
ATOM     11  O   UNL     1      12.361 -34.900 -18.719  1.00  0.00    -0.545 OA
ENDBRANCH   8   9
ENDBRANCH   1   7
BRANCH   6  12
ATOM     12  O   UNL     1      19.804 -31.228 -21.714  1.00  0.00    -0.508 OA
ATOM     13  H   UNL     1      20.011 -30.243 -21.598  1.00  0.00     0.293 HD
ENDBRANCH   6  12
TORSDOF 3
ENDMDL
MODEL 4
REMARK VINA RESULT:    -4.853      5.773      8.527
REMARK INTER + INTRA:          -5.707
REMARK INTER:                  -5.558
REMARK INTRA:                  -0.149
REMARK UNBOUND:                -0.145
REMARK SMILES O=C([O-])C=Cc1ccc(O)cc1
REMARK SMILES IDX 6 1 7 2 12 3 8 4 11 5 9 6 5 7 4 8 2 9 1 10 3 11 10 12
REMARK H PARENT 10 13
REMARK Flexibility Score: inf
ROOT
ATOM      1  C   UNL     1       9.817 -32.101 -19.468  1.00  0.00    -0.025 A 
ATOM      2  C   UNL     1       9.004 -33.190 -19.107  1.00  0.00     0.012 A 
ATOM      3  C   UNL     1      11.189 -32.327 -19.698  1.00  0.00     0.012 A 
ATOM      4  C   UNL     1       9.551 -34.467 -18.953  1.00  0.00     0.047 A 
ATOM      5  C   UNL     1      11.733 -33.606 -19.545  1.00  0.00     0.047 A 
ATOM      6  C   UNL     1      10.918 -34.678 -19.171  1.00  0.00     0.115 A 
ENDROOT
BRANCH   1   7
ATOM      7  C   UNL     1       9.187 -30.767 -19.628  1.00  0.00     0.010 C 
ATOM      8  C   UNL     1       7.913 -30.586 -19.999  1.00  0.00     0.025 C 
BRANCH   8   9
ATOM      9  C   UNL     1       7.333 -29.242 -20.157  1.00  0.00     0.064 C 
ATOM     10  O   UNL     1       6.613 -28.990 -21.158  1.00  0.00    -0.545 OA
ATOM     11  O   UNL     1       7.565 -28.246 -19.215  1.00  0.00    -0.545 OA
ENDBRANCH   8   9
ENDBRANCH   1   7
BRANCH   6  12
ATOM     12  O   UNL     1      11.474 -35.946 -19.021  1.00  0.00    -0.508 OA
ATOM     13  H   UNL     1      12.472 -36.075 -18.899  1.00  0.00     0.293 HD
ENDBRANCH   6  12
TORSDOF 3
ENDMDL
MODEL 5
REMARK VINA RESULT:    -4.680      3.565      5.596
REMARK INTER + INTRA:          -5.508
REMARK INTER:                  -5.360
REMARK INTRA:                  -0.149
REMARK UNBOUND:                -0.145
REMARK SMILES O=C([O-])C=Cc1ccc(O)cc1
REMARK SMILES IDX 6 1 7 2 12 3 8 4 11 5 9 6 5 7 4 8 2 9 1 10 3 11 10 12
REMARK H PARENT 10 13
REMARK Flexibility Score: inf
ROOT
ATOM      1  C   UNL     1      18.006 -30.729 -21.715  1.00  0.00    -0.025 A 
ATOM      2  C   UNL     1      19.316 -31.047 -22.113  1.00  0.00     0.012 A 
ATOM      3  C   UNL     1      17.158 -31.769 -21.280  1.00  0.00     0.012 A 
ATOM      4  C   UNL     1      19.762 -32.371 -22.104  1.00  0.00     0.047 A 
ATOM      5  C   UNL     1      17.609 -33.093 -21.271  1.00  0.00     0.047 A 
ATOM      6  C   UNL     1      18.908 -33.398 -21.684  1.00  0.00     0.115 A 
ENDROOT
BRANCH   1   7
ATOM      7  C   UNL     1      17.583 -29.307 -21.733  1.00  0.00     0.010 C 
ATOM      8  C   UNL     1      18.028 -28.409 -22.623  1.00  0.00     0.025 C 
BRANCH   8   9
ATOM      9  C   UNL     1      17.591 -27.005 -22.596  1.00  0.00     0.064 C 
ATOM     10  O   UNL     1      17.483 -26.408 -21.493  1.00  0.00    -0.545 OA
ATOM     11  O   UNL     1      17.296 -26.323 -23.772  1.00  0.00    -0.545 OA
ENDBRANCH   8   9
ENDBRANCH   1   7
BRANCH   6  12
ATOM     12  O   UNL     1      19.341 -34.722 -21.671  1.00  0.00    -0.508 OA
ATOM     13  H   UNL     1      20.321 -34.960 -21.773  1.00  0.00     0.293 HD
ENDBRANCH   6  12
TORSDOF 3
ENDMDL
MODEL 6
REMARK VINA RESULT:    -4.639      6.623      8.151
REMARK INTER + INTRA:          -5.462
REMARK INTER:                  -5.313
REMARK INTRA:                  -0.149
REMARK UNBOUND:                -0.145
REMARK SMILES O=C([O-])C=Cc1ccc(O)cc1
REMARK SMILES IDX 6 1 7 2 12 3 8 4 11 5 9 6 5 7 4 8 2 9 1 10 3 11 10 12
REMARK H PARENT 10 13
REMARK Flexibility Score: inf
ROOT
ATOM      1  C   UNL     1       8.822 -32.416 -19.270  1.00  0.00    -0.025 A 
ATOM      2  C   UNL     1       8.441 -31.575 -18.210  1.00  0.00     0.012 A 
ATOM      3  C   UNL     1       8.462 -32.054 -20.584  1.00  0.00     0.012 A 
ATOM      4  C   UNL     1       7.697 -30.417 -18.450  1.00  0.00     0.047 A 
ATOM      5  C   UNL     1       7.718 -30.893 -20.822  1.00  0.00     0.047 A 
ATOM      6  C   UNL     1       7.332 -30.074 -19.757  1.00  0.00     0.115 A 
ENDROOT
BRANCH   1   7
ATOM      7  C   UNL     1       9.619 -33.628 -18.964  1.00  0.00     0.010 C 
ATOM      8  C   UNL     1      10.449 -33.729 -17.917  1.00  0.00     0.025 C 
BRANCH   8   9
ATOM      9  C   UNL     1      11.231 -34.948 -17.658  1.00  0.00     0.064 C 
ATOM     10  O   UNL     1      11.622 -35.199 -16.489  1.00  0.00    -0.545 OA
ATOM     11  O   UNL     1      11.543 -35.832 -18.686  1.00  0.00    -0.545 OA
ENDBRANCH   8   9
ENDBRANCH   1   7
BRANCH   6  12
ATOM     12  O   UNL     1       6.590 -28.923 -20.010  1.00  0.00    -0.508 OA
ATOM     13  H   UNL     1       7.025 -28.082 -20.373  1.00  0.00     0.293 HD
ENDBRANCH   6  12
TORSDOF 3
ENDMDL
MODEL 7
REMARK VINA RESULT:    -4.604      6.368      8.495
REMARK INTER + INTRA:          -5.422
REMARK INTER:                  -5.269
REMARK INTRA:                  -0.153
REMARK UNBOUND:                -0.145
REMARK SMILES O=C([O-])C=Cc1ccc(O)cc1
REMARK SMILES IDX 6 1 7 2 12 3 8 4 11 5 9 6 5 7 4 8 2 9 1 10 3 11 10 12
REMARK H PARENT 10 13
REMARK Flexibility Score: inf
ROOT
ATOM      1  C   UNL     1       9.213 -30.589 -20.362  1.00  0.00    -0.025 A 
ATOM      2  C   UNL     1       7.815 -30.727 -20.321  1.00  0.00     0.012 A 
ATOM      3  C   UNL     1       9.761 -29.342 -20.726  1.00  0.00     0.012 A 
ATOM      4  C   UNL     1       6.983 -29.656 -20.661  1.00  0.00     0.047 A 
ATOM      5  C   UNL     1       8.926 -28.273 -21.064  1.00  0.00     0.047 A 
ATOM      6  C   UNL     1       7.537 -28.426 -21.035  1.00  0.00     0.115 A 
ENDROOT
BRANCH   1   7
ATOM      7  C   UNL     1      10.052 -31.752 -19.983  1.00  0.00     0.010 C 
ATOM      8  C   UNL     1       9.556 -32.949 -19.642  1.00  0.00     0.025 C 
BRANCH   8   9
ATOM      9  C   UNL     1      10.426 -34.072 -19.261  1.00  0.00     0.064 C 
ATOM     10  O   UNL     1       9.912 -35.145 -18.848  1.00  0.00    -0.545 OA
ATOM     11  O   UNL     1      11.810 -33.971 -19.352  1.00  0.00    -0.545 OA
ENDBRANCH   8   9
ENDBRANCH   1   7
BRANCH   6  12
ATOM     12  O   UNL     1       6.719 -27.352 -21.376  1.00  0.00    -0.508 OA
ATOM     13  H   UNL     1       6.188 -27.344 -22.240  1.00  0.00     0.293 HD
ENDBRANCH   6  12
TORSDOF 3
ENDMDL
MODEL 8
REMARK VINA RESULT:    -4.578     11.298     13.222
REMARK INTER + INTRA:          -5.392
REMARK INTER:                  -5.254
REMARK INTRA:                  -0.138
REMARK UNBOUND:                -0.145
REMARK SMILES O=C([O-])C=Cc1ccc(O)cc1
REMARK SMILES IDX 6 1 7 2 12 3 8 4 11 5 9 6 5 7 4 8 2 9 1 10 3 11 10 12
REMARK H PARENT 10 13
REMARK Flexibility Score: inf
ROOT
ATOM      1  C   UNL     1       9.762 -26.292 -12.152  1.00  0.00    -0.025 A 
ATOM      2  C   UNL     1      10.667 -26.925 -11.281  1.00  0.00     0.012 A 
ATOM      3  C   UNL     1       9.604 -24.894 -12.064  1.00  0.00     0.012 A 
ATOM      4  C   UNL     1      11.375 -26.187 -10.330  1.00  0.00     0.047 A 
ATOM      5  C   UNL     1      10.316 -24.158 -11.112  1.00  0.00     0.047 A 
ATOM      6  C   UNL     1      11.200 -24.801 -10.242  1.00  0.00     0.115 A 
ENDROOT
BRANCH   1   7
ATOM      7  C   UNL     1       9.041 -27.118 -13.151  1.00  0.00     0.010 C 
ATOM      8  C   UNL     1       8.839 -26.742 -14.421  1.00  0.00     0.025 C 
BRANCH   8   9
ATOM      9  C   UNL     1       8.107 -27.590 -15.376  1.00  0.00     0.064 C 
ATOM     10  O   UNL     1       6.916 -27.309 -15.670  1.00  0.00    -0.545 OA
ATOM     11  O   UNL     1       8.711 -28.696 -15.963  1.00  0.00    -0.545 OA
ENDBRANCH   8   9
ENDBRANCH   1   7
BRANCH   6  12
ATOM     12  O   UNL     1      11.900 -24.054  -9.297  1.00  0.00    -0.508 OA
ATOM     13  H   UNL     1      12.914 -24.046  -9.274  1.00  0.00     0.293 HD
ENDBRANCH   6  12
TORSDOF 3
ENDMDL
MODEL 9
REMARK VINA RESULT:    -4.481     10.985     13.272
REMARK INTER + INTRA:          -5.281
REMARK INTER:                  -5.142
REMARK INTRA:                  -0.139
REMARK UNBOUND:                -0.145
REMARK SMILES O=C([O-])C=Cc1ccc(O)cc1
REMARK SMILES IDX 6 1 7 2 12 3 8 4 11 5 9 6 5 7 4 8 2 9 1 10 3 11 10 12
REMARK H PARENT 10 13
REMARK Flexibility Score: inf
ROOT
ATOM      1  C   UNL     1      14.154 -36.418  -7.804  1.00  0.00    -0.025 A 
ATOM      2  C   UNL     1      14.519 -36.202  -6.464  1.00  0.00     0.012 A 
ATOM      3  C   UNL     1      13.765 -37.714  -8.200  1.00  0.00     0.012 A 
ATOM      4  C   UNL     1      14.522 -37.257  -5.547  1.00  0.00     0.047 A 
ATOM      5  C   UNL     1      13.767 -38.767  -7.279  1.00  0.00     0.047 A 
ATOM      6  C   UNL     1      14.148 -38.543  -5.954  1.00  0.00     0.115 A 
ENDROOT
BRANCH   1   7
ATOM      7  C   UNL     1      14.158 -35.264  -8.736  1.00  0.00     0.010 C 
ATOM      8  C   UNL     1      14.518 -35.349 -10.024  1.00  0.00     0.025 C 
BRANCH   8   9
ATOM      9  C   UNL     1      14.518 -34.174 -10.911  1.00  0.00     0.064 C 
ATOM     10  O   UNL     1      15.181 -33.154 -10.589  1.00  0.00    -0.545 OA
ATOM     11  O   UNL     1      13.799 -34.174 -12.101  1.00  0.00    -0.545 OA
ENDBRANCH   8   9
ENDBRANCH   1   7
BRANCH   6  12
ATOM     12  O   UNL     1      14.147 -39.603  -5.049  1.00  0.00    -0.508 OA
ATOM     13  H   UNL     1      13.282 -40.016  -4.719  1.00  0.00     0.293 HD
ENDBRANCH   6  12
TORSDOF 3
ENDMDL
