MODEL 1
REMARK VINA RESULT:    -5.893      0.000      0.000
REMARK INTER + INTRA:          -7.053
REMARK INTER:                  -6.926
REMARK INTRA:                  -0.127
REMARK UNBOUND:                -0.127
REMARK SMILES O=C([O-])C=Cc1ccc(O)c(O)c1
REMARK SMILES IDX 6 1 13 2 7 3 11 4 8 5 9 6 5 7 4 8 2 9 1 10 3 11 12 12 10 14
REMARK H PARENT 12 13 10 15
REMARK Flexibility Score: inf
ROOT
ATOM      1  C   UNL     1      22.207   4.797 102.665  1.00  0.00    -0.022 A 
ATOM      2  C   UNL     1      21.623   5.650 101.707  1.00  0.00     0.058 A 
ATOM      3  C   UNL     1      23.596   4.599 102.638  1.00  0.00     0.012 A 
ATOM      4  C   UNL     1      22.417   6.308 100.760  1.00  0.00     0.157 A 
ATOM      5  C   UNL     1      24.391   5.256 101.695  1.00  0.00     0.051 A 
ATOM      6  C   UNL     1      23.808   6.115 100.755  1.00  0.00     0.157 A 
ENDROOT
BRANCH   1   7
ATOM      7  C   UNL     1      21.405   4.070 103.680  1.00  0.00     0.010 C 
ATOM      8  C   UNL     1      20.977   4.620 104.826  1.00  0.00     0.025 C 
BRANCH   8   9
ATOM      9  C   UNL     1      20.194   3.862 105.816  1.00  0.00     0.064 C 
ATOM     10  O   UNL     1      19.545   4.450 106.723  1.00  0.00    -0.545 OA
ATOM     11  O   UNL     1      20.170   2.476 105.750  1.00  0.00    -0.545 OA
ENDBRANCH   8   9
ENDBRANCH   1   7
BRANCH   4  12
ATOM     12  O   UNL     1      21.804   7.147  99.828  1.00  0.00    -0.504 OA
ATOM     13  H   UNL     1      22.300   7.911  99.384  1.00  0.00     0.293 HD
ENDBRANCH   4  12
BRANCH   6  14
ATOM     14  O   UNL     1      24.603   6.770  99.817  1.00  0.00    -0.504 OA
ATOM     15  H   UNL     1      25.151   7.586 100.062  1.00  0.00     0.293 HD
ENDBRANCH   6  14
TORSDOF 4
ENDMDL
MODEL 2
REMARK VINA RESULT:    -5.853      1.018      5.924
REMARK INTER + INTRA:          -7.006
REMARK INTER:                  -6.879
REMARK INTRA:                  -0.127
REMARK UNBOUND:                -0.127
REMARK SMILES O=C([O-])C=Cc1ccc(O)c(O)c1
REMARK SMILES IDX 6 1 13 2 7 3 11 4 8 5 9 6 5 7 4 8 2 9 1 10 3 11 12 12 10 14
REMARK H PARENT 12 13 10 15
REMARK Flexibility Score: inf
ROOT
ATOM      1  C   UNL     1      21.742   4.085 103.745  1.00  0.00    -0.022 A 
ATOM      2  C   UNL     1      20.968   4.656 104.775  1.00  0.00     0.058 A 
ATOM      3  C   UNL     1      21.835   2.687 103.664  1.00  0.00     0.012 A 
ATOM      4  C   UNL     1      20.282   3.843 105.686  1.00  0.00     0.157 A 
ATOM      5  C   UNL     1      21.151   1.874 104.571  1.00  0.00     0.051 A 
ATOM      6  C   UNL     1      20.370   2.445 105.583  1.00  0.00     0.157 A 
ENDROOT
BRANCH   1   7
ATOM      7  C   UNL     1      22.495   4.905 102.764  1.00  0.00     0.010 C 
ATOM      8  C   UNL     1      21.948   5.435 101.660  1.00  0.00     0.025 C 
BRANCH   8   9
ATOM      9  C   UNL     1      22.729   6.233 100.702  1.00  0.00     0.064 C 
ATOM     10  O   UNL     1      22.163   6.979  99.858  1.00  0.00    -0.545 OA
ATOM     11  O   UNL     1      24.116   6.164 100.728  1.00  0.00    -0.545 OA
ENDBRANCH   8   9
ENDBRANCH   1   7
BRANCH   4  12
ATOM     12  O   UNL     1      19.523   4.444 106.691  1.00  0.00    -0.504 OA
ATOM     13  H   UNL     1      19.240   3.942 107.524  1.00  0.00     0.293 HD
ENDBRANCH   4  12
BRANCH   6  14
ATOM     14  O   UNL     1      19.687   1.633 106.485  1.00  0.00    -0.504 OA
ATOM     15  H   UNL     1      19.822   0.628 106.503  1.00  0.00     0.293 HD
ENDBRANCH   6  14
TORSDOF 4
ENDMDL
MODEL 3
REMARK VINA RESULT:    -5.626      3.018      4.385
REMARK INTER + INTRA:          -6.740
REMARK INTER:                  -6.597
REMARK INTRA:                  -0.143
REMARK UNBOUND:                -0.127
REMARK SMILES O=C([O-])C=Cc1ccc(O)c(O)c1
REMARK SMILES IDX 6 1 13 2 7 3 11 4 8 5 9 6 5 7 4 8 2 9 1 10 3 11 12 12 10 14
REMARK H PARENT 12 13 10 15
REMARK Flexibility Score: inf
ROOT
ATOM      1  C   UNL     1      23.883   4.944 101.998  1.00  0.00    -0.022 A 
ATOM      2  C   UNL     1      22.501   4.719 101.840  1.00  0.00     0.058 A 
ATOM      3  C   UNL     1      24.481   6.005 101.300  1.00  0.00     0.012 A 
ATOM      4  C   UNL     1      21.732   5.555 101.021  1.00  0.00     0.157 A 
ATOM      5  C   UNL     1      23.716   6.841 100.484  1.00  0.00     0.051 A 
ATOM      6  C   UNL     1      22.339   6.623 100.342  1.00  0.00     0.157 A 
ENDROOT
BRANCH   1   7
ATOM      7  C   UNL     1      24.740   4.079 102.846  1.00  0.00     0.010 C 
ATOM      8  C   UNL     1      25.984   3.705 102.511  1.00  0.00     0.025 C 
BRANCH   8   9
ATOM      9  C   UNL     1      26.801   2.836 103.373  1.00  0.00     0.064 C 
ATOM     10  O   UNL     1      27.657   3.318 104.163  1.00  0.00    -0.545 OA
ATOM     11  O   UNL     1      26.627   1.459 103.314  1.00  0.00    -0.545 OA
ENDBRANCH   8   9
ENDBRANCH   1   7
BRANCH   4  12
ATOM     12  O   UNL     1      20.365   5.303 100.890  1.00  0.00    -0.504 OA
ATOM     13  H   UNL     1      19.931   4.475 101.278  1.00  0.00     0.293 HD
ENDBRANCH   4  12
BRANCH   6  14
ATOM     14  O   UNL     1      21.578   7.459  99.528  1.00  0.00    -0.504 OA
ATOM     15  H   UNL     1      21.941   7.825  98.655  1.00  0.00     0.293 HD
ENDBRANCH   6  14
TORSDOF 4
ENDMDL
MODEL 4
REMARK VINA RESULT:    -5.543      3.509      5.929
REMARK INTER + INTRA:          -6.642
REMARK INTER:                  -6.498
REMARK INTRA:                  -0.144
REMARK UNBOUND:                -0.127
REMARK SMILES O=C([O-])C=Cc1ccc(O)c(O)c1
REMARK SMILES IDX 6 1 13 2 7 3 11 4 8 5 9 6 5 7 4 8 2 9 1 10 3 11 12 12 10 14
REMARK H PARENT 12 13 10 15
REMARK Flexibility Score: inf
ROOT
ATOM      1  C   UNL     1      21.639   2.434 104.049  1.00  0.00    -0.022 A 
ATOM      2  C   UNL     1      21.869   3.801 104.301  1.00  0.00     0.058 A 
ATOM      3  C   UNL     1      20.608   1.782 104.744  1.00  0.00     0.012 A 
ATOM      4  C   UNL     1      21.068   4.504 105.209  1.00  0.00     0.157 A 
ATOM      5  C   UNL     1      19.807   2.482 105.650  1.00  0.00     0.051 A 
ATOM      6  C   UNL     1      20.029   3.844 105.885  1.00  0.00     0.157 A 
ENDROOT
BRANCH   1   7
ATOM      7  C   UNL     1      22.468   1.645 103.105  1.00  0.00     0.010 C 
ATOM      8  C   UNL     1      22.809   0.363 103.304  1.00  0.00     0.025 C 
BRANCH   8   9
ATOM      9  C   UNL     1      23.643  -0.384 102.349  1.00  0.00     0.064 C 
ATOM     10  O   UNL     1      23.134  -1.205 101.540  1.00  0.00    -0.545 OA
ATOM     11  O   UNL     1      25.017  -0.182 102.341  1.00  0.00    -0.545 OA
ENDBRANCH   8   9
ENDBRANCH   1   7
BRANCH   4  12
ATOM     12  O   UNL     1      21.325   5.858 105.431  1.00  0.00    -0.504 OA
ATOM     13  H   UNL     1      22.260   6.208 105.602  1.00  0.00     0.293 HD
ENDBRANCH   4  12
BRANCH   6  14
ATOM     14  O   UNL     1      19.228   4.540 106.787  1.00  0.00    -0.504 OA
ATOM     15  H   UNL     1      18.300   4.215 107.035  1.00  0.00     0.293 HD
ENDBRANCH   6  14
TORSDOF 4
ENDMDL
MODEL 5
REMARK VINA RESULT:    -5.408      3.158      4.679
REMARK INTER + INTRA:          -6.484
REMARK INTER:                  -6.359
REMARK INTRA:                  -0.125
REMARK UNBOUND:                -0.127
REMARK SMILES O=C([O-])C=Cc1ccc(O)c(O)c1
REMARK SMILES IDX 6 1 13 2 7 3 11 4 8 5 9 6 5 7 4 8 2 9 1 10 3 11 12 12 10 14
REMARK H PARENT 12 13 10 15
REMARK Flexibility Score: inf
ROOT
ATOM      1  C   UNL     1      24.063   4.636 102.432  1.00  0.00    -0.022 A 
ATOM      2  C   UNL     1      24.076   5.681 101.488  1.00  0.00     0.058 A 
ATOM      3  C   UNL     1      22.874   3.917 102.632  1.00  0.00     0.012 A 
ATOM      4  C   UNL     1      22.929   5.982 100.742  1.00  0.00     0.157 A 
ATOM      5  C   UNL     1      21.729   4.215 101.889  1.00  0.00     0.051 A 
ATOM      6  C   UNL     1      21.751   5.245 100.940  1.00  0.00     0.157 A 
ENDROOT
BRANCH   1   7
ATOM      7  C   UNL     1      25.250   4.287 103.253  1.00  0.00     0.010 C 
ATOM      8  C   UNL     1      26.168   3.381 102.887  1.00  0.00     0.025 C 
BRANCH   8   9
ATOM      9  C   UNL     1      27.327   3.052 103.734  1.00  0.00     0.064 C 
ATOM     10  O   UNL     1      28.150   3.939 104.088  1.00  0.00    -0.545 OA
ATOM     11  O   UNL     1      27.517   1.741 104.150  1.00  0.00    -0.545 OA
ENDBRANCH   8   9
ENDBRANCH   1   7
BRANCH   4  12
ATOM     12  O   UNL     1      22.979   7.023  99.814  1.00  0.00    -0.504 OA
ATOM     13  H   UNL     1      22.349   7.815  99.858  1.00  0.00     0.293 HD
ENDBRANCH   4  12
BRANCH   6  14
ATOM     14  O   UNL     1      20.608   5.539 100.199  1.00  0.00    -0.504 OA
ATOM     15  H   UNL     1      19.745   5.828 100.645  1.00  0.00     0.293 HD
ENDBRANCH   6  14
TORSDOF 4
ENDMDL
MODEL 6
REMARK VINA RESULT:    -5.371     10.861     12.176
REMARK INTER + INTRA:          -6.440
REMARK INTER:                  -6.288
REMARK INTRA:                  -0.152
REMARK UNBOUND:                -0.127
REMARK SMILES O=C([O-])C=Cc1ccc(O)c(O)c1
REMARK SMILES IDX 6 1 13 2 7 3 11 4 8 5 9 6 5 7 4 8 2 9 1 10 3 11 12 12 10 14
REMARK H PARENT 12 13 10 15
REMARK Flexibility Score: inf
ROOT
ATOM      1  C   UNL     1      32.192   4.485  99.000  1.00  0.00    -0.022 A 
ATOM      2  C   UNL     1      32.589   5.275 100.097  1.00  0.00     0.058 A 
ATOM      3  C   UNL     1      31.980   3.112  99.196  1.00  0.00     0.012 A 
ATOM      4  C   UNL     1      32.747   4.706 101.367  1.00  0.00     0.157 A 
ATOM      5  C   UNL     1      32.135   2.541 100.462  1.00  0.00     0.051 A 
ATOM      6  C   UNL     1      32.515   3.334 101.553  1.00  0.00     0.157 A 
ENDROOT
BRANCH   1   7
ATOM      7  C   UNL     1      32.023   5.042  97.635  1.00  0.00     0.010 C 
ATOM      8  C   UNL     1      31.549   4.338  96.597  1.00  0.00     0.025 C 
BRANCH   8   9
ATOM      9  C   UNL     1      31.407   4.921  95.252  1.00  0.00     0.064 C 
ATOM     10  O   UNL     1      30.467   4.576  94.487  1.00  0.00    -0.545 OA
ATOM     11  O   UNL     1      32.327   5.866  94.818  1.00  0.00    -0.545 OA
ENDBRANCH   8   9
ENDBRANCH   1   7
BRANCH   4  12
ATOM     12  O   UNL     1      33.139   5.520 102.430  1.00  0.00    -0.504 OA
ATOM     13  H   UNL     1      33.903   5.269 103.047  1.00  0.00     0.293 HD
ENDBRANCH   4  12
BRANCH   6  14
ATOM     14  O   UNL     1      32.667   2.763 102.815  1.00  0.00    -0.504 OA
ATOM     15  H   UNL     1      31.867   2.518 103.387  1.00  0.00     0.293 HD
ENDBRANCH   6  14
TORSDOF 4
ENDMDL
MODEL 7
REMARK VINA RESULT:    -5.311      3.681      5.728
REMARK INTER + INTRA:          -6.369
REMARK INTER:                  -6.244
REMARK INTRA:                  -0.125
REMARK UNBOUND:                -0.127
REMARK SMILES O=C([O-])C=Cc1ccc(O)c(O)c1
REMARK SMILES IDX 6 1 13 2 7 3 11 4 8 5 9 6 5 7 4 8 2 9 1 10 3 11 12 12 10 14
REMARK H PARENT 12 13 10 15
REMARK Flexibility Score: inf
ROOT
ATOM      1  C   UNL     1      21.907   2.184 103.450  1.00  0.00    -0.022 A 
ATOM      2  C   UNL     1      20.957   2.166 104.491  1.00  0.00     0.058 A 
ATOM      3  C   UNL     1      22.647   3.357 103.229  1.00  0.00     0.012 A 
ATOM      4  C   UNL     1      20.772   3.289 105.307  1.00  0.00     0.157 A 
ATOM      5  C   UNL     1      22.464   4.478 104.043  1.00  0.00     0.051 A 
ATOM      6  C   UNL     1      21.530   4.450 105.086  1.00  0.00     0.157 A 
ENDROOT
BRANCH   1   7
ATOM      7  C   UNL     1      22.131   1.024 102.553  1.00  0.00     0.010 C 
ATOM      8  C   UNL     1      23.062   0.083 102.770  1.00  0.00     0.025 C 
BRANCH   8   9
ATOM      9  C   UNL     1      23.263  -1.049 101.850  1.00  0.00     0.064 C 
ATOM     10  O   UNL     1      22.422  -1.984 101.772  1.00  0.00    -0.545 OA
ATOM     11  O   UNL     1      24.401  -1.087 101.055  1.00  0.00    -0.545 OA
ENDBRANCH   8   9
ENDBRANCH   1   7
BRANCH   4  12
ATOM     12  O   UNL     1      19.823   3.233 106.329  1.00  0.00    -0.504 OA
ATOM     13  H   UNL     1      20.085   3.120 107.301  1.00  0.00     0.293 HD
ENDBRANCH   4  12
BRANCH   6  14
ATOM     14  O   UNL     1      21.351   5.568 105.897  1.00  0.00    -0.504 OA
ATOM     15  H   UNL     1      21.600   5.557 106.879  1.00  0.00     0.293 HD
ENDBRANCH   6  14
TORSDOF 4
ENDMDL
MODEL 8
REMARK VINA RESULT:    -5.253      2.998      5.240
REMARK INTER + INTRA:          -6.302
REMARK INTER:                  -6.168
REMARK INTRA:                  -0.133
REMARK UNBOUND:                -0.127
REMARK SMILES O=C([O-])C=Cc1ccc(O)c(O)c1
REMARK SMILES IDX 6 1 13 2 7 3 11 4 8 5 9 6 5 7 4 8 2 9 1 10 3 11 12 12 10 14
REMARK H PARENT 12 13 10 15
REMARK Flexibility Score: inf
ROOT
ATOM      1  C   UNL     1      23.187   4.109 103.027  1.00  0.00    -0.022 A 
ATOM      2  C   UNL     1      22.338   4.115 104.151  1.00  0.00     0.058 A 
ATOM      3  C   UNL     1      22.841   4.889 101.913  1.00  0.00     0.012 A 
ATOM      4  C   UNL     1      21.181   4.903 104.167  1.00  0.00     0.157 A 
ATOM      5  C   UNL     1      21.687   5.677 101.927  1.00  0.00     0.051 A 
ATOM      6  C   UNL     1      20.854   5.692 103.052  1.00  0.00     0.157 A 
ENDROOT
BRANCH   1   7
ATOM      7  C   UNL     1      24.417   3.282 102.960  1.00  0.00     0.010 C 
ATOM      8  C   UNL     1      25.658   3.790 102.951  1.00  0.00     0.025 C 
BRANCH   8   9
ATOM      9  C   UNL     1      26.855   2.938 102.872  1.00  0.00     0.064 C 
ATOM     10  O   UNL     1      27.056   2.186 101.880  1.00  0.00    -0.545 OA
ATOM     11  O   UNL     1      27.779   2.961 103.908  1.00  0.00    -0.545 OA
ENDBRANCH   8   9
ENDBRANCH   1   7
BRANCH   4  12
ATOM     12  O   UNL     1      20.364   4.885 105.299  1.00  0.00    -0.504 OA
ATOM     13  H   UNL     1      19.361   5.017 105.242  1.00  0.00     0.293 HD
ENDBRANCH   4  12
BRANCH   6  14
ATOM     14  O   UNL     1      19.706   6.481 103.064  1.00  0.00    -0.504 OA
ATOM     15  H   UNL     1      19.648   7.327 103.619  1.00  0.00     0.293 HD
ENDBRANCH   6  14
TORSDOF 4
ENDMDL
MODEL 9
REMARK VINA RESULT:    -5.026      3.339      4.493
REMARK INTER + INTRA:          -6.034
REMARK INTER:                  -5.907
REMARK INTRA:                  -0.127
REMARK UNBOUND:                -0.127
REMARK SMILES O=C([O-])C=Cc1ccc(O)c(O)c1
REMARK SMILES IDX 6 1 13 2 7 3 11 4 8 5 9 6 5 7 4 8 2 9 1 10 3 11 12 12 10 14
REMARK H PARENT 12 13 10 15
REMARK Flexibility Score: inf
ROOT
ATOM      1  C   UNL     1      22.293   3.148 103.112  1.00  0.00    -0.022 A 
ATOM      2  C   UNL     1      22.136   3.954 101.966  1.00  0.00     0.058 A 
ATOM      3  C   UNL     1      21.688   3.553 104.312  1.00  0.00     0.012 A 
ATOM      4  C   UNL     1      21.370   5.124 102.016  1.00  0.00     0.157 A 
ATOM      5  C   UNL     1      20.922   4.720 104.364  1.00  0.00     0.051 A 
ATOM      6  C   UNL     1      20.755   5.509 103.219  1.00  0.00     0.157 A 
ENDROOT
BRANCH   1   7
ATOM      7  C   UNL     1      23.105   1.906 103.110  1.00  0.00     0.010 C 
ATOM      8  C   UNL     1      22.632   0.707 102.739  1.00  0.00     0.025 C 
BRANCH   8   9
ATOM      9  C   UNL     1      23.465  -0.507 102.762  1.00  0.00     0.064 C 
ATOM     10  O   UNL     1      23.270  -1.447 101.945  1.00  0.00    -0.545 OA
ATOM     11  O   UNL     1      24.482  -0.618 103.700  1.00  0.00    -0.545 OA
ENDBRANCH   8   9
ENDBRANCH   1   7
BRANCH   4  12
ATOM     12  O   UNL     1      21.235   5.895 100.861  1.00  0.00    -0.504 OA
ATOM     13  H   UNL     1      21.324   5.497  99.934  1.00  0.00     0.293 HD
ENDBRANCH   4  12
BRANCH   6  14
ATOM     14  O   UNL     1      19.989   6.671 103.274  1.00  0.00    -0.504 OA
ATOM     15  H   UNL     1      18.983   6.639 103.389  1.00  0.00     0.293 HD
ENDBRANCH   6  14
TORSDOF 4
ENDMDL
