MODEL 1
REMARK VINA RESULT:    24.151      0.000      0.000
REMARK INTER + INTRA:          29.510
REMARK INTER:                  29.093
REMARK INTRA:                   0.417
REMARK UNBOUND:                 0.417
REMARK SMILES Oc1cc(O)c2cc(O)c(-c3ccc(O)c(O)c3)[o+]c2c1
REMARK SMILES IDX 10 1 19 2 20 3 21 4 2 5 3 6 4 7 6 8 7 9 8 10 11 11 12 12
REMARK SMILES IDX 13 13 14 14 18 15 16 16 15 17 17 19 9 21 1 23 5 25
REMARK H PARENT 15 18 17 20 9 22 1 24 5 26
REMARK Flexibility Score: inf
ROOT
ATOM      1  C   UNL     1       7.793   4.422  17.982  1.00  0.00     0.402 A 
ATOM      2  O   UNL     1       6.675   3.702  17.963  1.00  0.00    -0.202 OA
ATOM      3  C   UNL     1       6.662   2.373  17.943  1.00  0.00     0.368 A 
ATOM      4  C   UNL     1       5.436   1.704  17.921  1.00  0.00     0.162 A 
ATOM      5  C   UNL     1       5.395   0.307  17.898  1.00  0.00     0.128 A 
ATOM      6  C   UNL     1       6.585  -0.424  17.895  1.00  0.00     0.093 A 
ATOM      7  C   UNL     1       7.827   0.222  17.917  1.00  0.00     0.136 A 
ATOM      8  C   UNL     1       7.875   1.641  17.943  1.00  0.00     0.125 A 
ATOM      9  C   UNL     1       9.073   2.373  17.979  1.00  0.00     0.078 A 
ATOM     10  C   UNL     1       9.040   3.770  18.009  1.00  0.00     0.223 A 
ENDROOT
BRANCH   1  11
ATOM     11  C   UNL     1       7.675   5.898  17.991  1.00  0.00     0.087 A 
ATOM     12  C   UNL     1       6.401   6.489  18.000  1.00  0.00     0.022 A 
ATOM     13  C   UNL     1       6.265   7.879  17.990  1.00  0.00     0.051 A 
ATOM     14  C   UNL     1       7.397   8.700  17.955  1.00  0.00     0.157 A 
ATOM     15  C   UNL     1       8.812   6.725  17.936  1.00  0.00     0.068 A 
ATOM     16  C   UNL     1       8.677   8.121  17.924  1.00  0.00     0.158 A 
BRANCH  14  17
ATOM     17  O   UNL     1       7.230  10.084  17.948  1.00  0.00    -0.504 OA
ATOM     18  H   UNL     1       7.361  10.646  18.782  1.00  0.00     0.293 HD
ENDBRANCH  14  17
BRANCH  16  19
ATOM     19  O   UNL     1       9.809   8.933  17.875  1.00  0.00    -0.504 OA
ATOM     20  H   UNL     1      10.706   8.616  18.223  1.00  0.00     0.293 HD
ENDBRANCH  16  19
ENDBRANCH   1  11
BRANCH  10  21
ATOM     21  O   UNL     1      10.228   4.496  18.095  1.00  0.00    -0.500 OA
ATOM     22  H   UNL     1      10.918   4.478  17.355  1.00  0.00     0.294 HD
ENDBRANCH  10  21
BRANCH   5  23
ATOM     23  O   UNL     1       4.176  -0.367  17.876  1.00  0.00    -0.507 OA
ATOM     24  H   UNL     1       3.805  -0.819  18.704  1.00  0.00     0.293 HD
ENDBRANCH   5  23
BRANCH   7  25
ATOM     25  O   UNL     1       8.971  -0.581  17.909  1.00  0.00    -0.507 OA
ATOM     26  H   UNL     1       9.625  -0.650  18.675  1.00  0.00     0.293 HD
ENDBRANCH   7  25
TORSDOF 6
ENDMDL
