MODEL 1
REMARK VINA RESULT:    -3.272      0.000      0.000
REMARK INTER + INTRA:          -3.957
REMARK INTER:                  -3.750
REMARK INTRA:                  -0.206
REMARK UNBOUND:                -0.206
REMARK SMILES O=C([O-])C=Cc1ccc(O)cc1
REMARK SMILES IDX 6 1 7 2 12 3 8 4 11 5 9 6 5 7 4 8 2 9 1 10 3 11 10 12
REMARK H PARENT 10 13
REMARK Flexibility Score: inf
ROOT
ATOM      1  C   UNL     1      27.724  25.879  25.673  1.00  0.00    -0.025 A 
ATOM      2  C   UNL     1      28.825  26.172  26.497  1.00  0.00     0.012 A 
ATOM      3  C   UNL     1      26.964  26.932  25.143  1.00  0.00     0.012 A 
ATOM      4  C   UNL     1      29.125  27.498  26.826  1.00  0.00     0.047 A 
ATOM      5  C   UNL     1      27.265  28.256  25.474  1.00  0.00     0.047 A 
ATOM      6  C   UNL     1      28.345  28.542  26.320  1.00  0.00     0.115 A 
ENDROOT
BRANCH   1   7
ATOM      7  C   UNL     1      27.418  24.491  25.268  1.00  0.00     0.010 C 
ATOM      8  C   UNL     1      26.714  23.606  25.992  1.00  0.00     0.025 C 
BRANCH   8   9
ATOM      9  C   UNL     1      25.968  23.903  27.229  1.00  0.00     0.064 C 
ATOM     10  O   UNL     1      25.016  24.729  27.243  1.00  0.00    -0.545 OA
ATOM     11  O   UNL     1      26.277  23.207  28.390  1.00  0.00    -0.545 OA
ENDBRANCH   8   9
ENDBRANCH   1   7
BRANCH   6  12
ATOM     12  O   UNL     1      28.656  29.857  26.657  1.00  0.00    -0.508 OA
ATOM     13  H   UNL     1      29.466  30.326  26.270  1.00  0.00     0.293 HD
ENDBRANCH   6  12
TORSDOF 3
ENDMDL
MODEL 2
REMARK VINA RESULT:    -3.203      3.876      7.206
REMARK INTER + INTRA:          -3.878
REMARK INTER:                  -4.388
REMARK INTRA:                   0.510
REMARK UNBOUND:                -0.206
REMARK SMILES O=C([O-])C=Cc1ccc(O)cc1
REMARK SMILES IDX 6 1 7 2 12 3 8 4 11 5 9 6 5 7 4 8 2 9 1 10 3 11 10 12
REMARK H PARENT 10 13
REMARK Flexibility Score: inf
ROOT
ATOM      1  C   UNL     1      28.704  30.799  23.699  1.00  0.00    -0.025 A 
ATOM      2  C   UNL     1      29.125  30.937  25.034  1.00  0.00     0.012 A 
ATOM      3  C   UNL     1      27.787  29.789  23.370  1.00  0.00     0.012 A 
ATOM      4  C   UNL     1      28.673  30.044  26.011  1.00  0.00     0.047 A 
ATOM      5  C   UNL     1      27.337  28.898  24.349  1.00  0.00     0.047 A 
ATOM      6  C   UNL     1      27.782  29.021  25.672  1.00  0.00     0.115 A 
ENDROOT
BRANCH   1   7
ATOM      7  C   UNL     1      29.124  31.761  22.660  1.00  0.00     0.010 C 
ATOM      8  C   UNL     1      28.929  33.089  22.704  1.00  0.00     0.025 C 
BRANCH   8   9
ATOM      9  C   UNL     1      28.429  33.849  23.865  1.00  0.00     0.064 C 
ATOM     10  O   UNL     1      29.049  33.861  24.962  1.00  0.00    -0.545 OA
ATOM     11  O   UNL     1      27.285  34.623  23.726  1.00  0.00    -0.545 OA
ENDBRANCH   8   9
ENDBRANCH   1   7
BRANCH   6  12
ATOM     12  O   UNL     1      27.342  28.139  26.655  1.00  0.00    -0.508 OA
ATOM     13  H   UNL     1      26.371  27.855  26.716  1.00  0.00     0.293 HD
ENDBRANCH   6  12
TORSDOF 3
ENDMDL
MODEL 3
REMARK VINA RESULT:    -3.141      2.177      4.901
REMARK INTER + INTRA:          -3.807
REMARK INTER:                  -3.820
REMARK INTRA:                   0.014
REMARK UNBOUND:                -0.206
REMARK SMILES O=C([O-])C=Cc1ccc(O)cc1
REMARK SMILES IDX 6 1 7 2 12 3 8 4 11 5 9 6 5 7 4 8 2 9 1 10 3 11 10 12
REMARK H PARENT 10 13
REMARK Flexibility Score: inf
ROOT
ATOM      1  C   UNL     1      26.773  23.325  25.779  1.00  0.00    -0.025 A 
ATOM      2  C   UNL     1      26.492  23.593  27.130  1.00  0.00     0.012 A 
ATOM      3  C   UNL     1      25.722  22.994  24.911  1.00  0.00     0.012 A 
ATOM      4  C   UNL     1      25.185  23.480  27.613  1.00  0.00     0.047 A 
ATOM      5  C   UNL     1      24.416  22.881  25.397  1.00  0.00     0.047 A 
ATOM      6  C   UNL     1      24.144  23.120  26.751  1.00  0.00     0.115 A 
ENDROOT
BRANCH   1   7
ATOM      7  C   UNL     1      28.137  23.490  25.232  1.00  0.00     0.010 C 
ATOM      8  C   UNL     1      28.801  24.653  25.137  1.00  0.00     0.025 C 
BRANCH   8   9
ATOM      9  C   UNL     1      28.374  25.940  25.717  1.00  0.00     0.064 C 
ATOM     10  O   UNL     1      27.311  26.509  25.350  1.00  0.00    -0.545 OA
ATOM     11  O   UNL     1      29.125  26.504  26.741  1.00  0.00    -0.545 OA
ENDBRANCH   8   9
ENDBRANCH   1   7
BRANCH   6  12
ATOM     12  O   UNL     1      22.847  23.010  27.246  1.00  0.00    -0.508 OA
ATOM     13  H   UNL     1      22.228  23.811  27.291  1.00  0.00     0.293 HD
ENDBRANCH   6  12
TORSDOF 3
ENDMDL
MODEL 4
REMARK VINA RESULT:    -2.350      3.533      5.366
REMARK INTER + INTRA:          -2.900
REMARK INTER:                  -2.665
REMARK INTRA:                  -0.235
REMARK UNBOUND:                -0.206
REMARK SMILES O=C([O-])C=Cc1ccc(O)cc1
REMARK SMILES IDX 6 1 7 2 12 3 8 4 11 5 9 6 5 7 4 8 2 9 1 10 3 11 10 12
REMARK H PARENT 10 13
REMARK Flexibility Score: inf
ROOT
ATOM      1  C   UNL     1      24.663  23.558  27.246  1.00  0.00    -0.025 A 
ATOM      2  C   UNL     1      23.454  22.876  27.022  1.00  0.00     0.012 A 
ATOM      3  C   UNL     1      24.629  24.862  27.762  1.00  0.00     0.012 A 
ATOM      4  C   UNL     1      22.232  23.510  27.261  1.00  0.00     0.047 A 
ATOM      5  C   UNL     1      23.405  25.495  28.000  1.00  0.00     0.047 A 
ATOM      6  C   UNL     1      22.203  24.822  27.747  1.00  0.00     0.115 A 
ENDROOT
BRANCH   1   7
ATOM      7  C   UNL     1      25.968  22.891  27.052  1.00  0.00     0.010 C 
ATOM      8  C   UNL     1      26.756  23.023  25.972  1.00  0.00     0.025 C 
BRANCH   8   9
ATOM      9  C   UNL     1      26.558  23.985  24.872  1.00  0.00     0.064 C 
ATOM     10  O   UNL     1      26.873  25.199  24.994  1.00  0.00    -0.545 OA
ATOM     11  O   UNL     1      26.077  23.529  23.652  1.00  0.00    -0.545 OA
ENDBRANCH   8   9
ENDBRANCH   1   7
BRANCH   6  12
ATOM     12  O   UNL     1      20.978  25.442  27.979  1.00  0.00    -0.508 OA
ATOM     13  H   UNL     1      20.164  24.912  28.269  1.00  0.00     0.293 HD
ENDBRANCH   6  12
TORSDOF 3
ENDMDL
MODEL 5
REMARK VINA RESULT:    -2.321      3.791      4.940
REMARK INTER + INTRA:          -2.867
REMARK INTER:                  -3.151
REMARK INTRA:                   0.285
REMARK UNBOUND:                -0.206
REMARK SMILES O=C([O-])C=Cc1ccc(O)cc1
REMARK SMILES IDX 6 1 7 2 12 3 8 4 11 5 9 6 5 7 4 8 2 9 1 10 3 11 10 12
REMARK H PARENT 10 13
REMARK Flexibility Score: inf
ROOT
ATOM      1  C   UNL     1      24.349  23.030  26.901  1.00  0.00    -0.025 A 
ATOM      2  C   UNL     1      25.261  22.882  27.962  1.00  0.00     0.012 A 
ATOM      3  C   UNL     1      24.837  23.227  25.601  1.00  0.00     0.012 A 
ATOM      4  C   UNL     1      26.636  22.981  27.729  1.00  0.00     0.047 A 
ATOM      5  C   UNL     1      26.212  23.327  25.370  1.00  0.00     0.047 A 
ATOM      6  C   UNL     1      27.115  23.209  26.435  1.00  0.00     0.115 A 
ENDROOT
BRANCH   1   7
ATOM      7  C   UNL     1      22.895  22.875  27.113  1.00  0.00     0.010 C 
ATOM      8  C   UNL     1      22.070  23.828  27.578  1.00  0.00     0.025 C 
BRANCH   8   9
ATOM      9  C   UNL     1      22.423  25.244  27.791  1.00  0.00     0.064 C 
ATOM     10  O   UNL     1      23.600  25.596  28.073  1.00  0.00    -0.545 OA
ATOM     11  O   UNL     1      21.450  26.219  27.609  1.00  0.00    -0.545 OA
ENDBRANCH   8   9
ENDBRANCH   1   7
BRANCH   6  12
ATOM     12  O   UNL     1      28.487  23.307  26.218  1.00  0.00    -0.508 OA
ATOM     13  H   UNL     1      29.017  22.540  25.820  1.00  0.00     0.293 HD
ENDBRANCH   6  12
TORSDOF 3
ENDMDL
MODEL 6
REMARK VINA RESULT:    -2.140     15.385     16.935
REMARK INTER + INTRA:          -2.659
REMARK INTER:                  -3.432
REMARK INTRA:                   0.772
REMARK UNBOUND:                -0.206
REMARK SMILES O=C([O-])C=Cc1ccc(O)cc1
REMARK SMILES IDX 6 1 7 2 12 3 8 4 11 5 9 6 5 7 4 8 2 9 1 10 3 11 10 12
REMARK H PARENT 10 13
REMARK Flexibility Score: inf
ROOT
ATOM      1  C   UNL     1      26.895  42.776  22.543  1.00  0.00    -0.025 A 
ATOM      2  C   UNL     1      25.766  42.197  21.937  1.00  0.00     0.012 A 
ATOM      3  C   UNL     1      27.997  43.125  21.749  1.00  0.00     0.012 A 
ATOM      4  C   UNL     1      25.765  41.924  20.565  1.00  0.00     0.047 A 
ATOM      5  C   UNL     1      27.995  42.851  20.378  1.00  0.00     0.047 A 
ATOM      6  C   UNL     1      26.879  42.246  19.783  1.00  0.00     0.115 A 
ENDROOT
BRANCH   1   7
ATOM      7  C   UNL     1      26.899  43.124  23.980  1.00  0.00     0.010 C 
ATOM      8  C   UNL     1      27.519  42.427  24.947  1.00  0.00     0.025 C 
BRANCH   8   9
ATOM      9  C   UNL     1      28.450  41.302  24.738  1.00  0.00     0.064 C 
ATOM     10  O   UNL     1      28.964  40.683  25.707  1.00  0.00    -0.545 OA
ATOM     11  O   UNL     1      28.711  40.871  23.444  1.00  0.00    -0.545 OA
ENDBRANCH   8   9
ENDBRANCH   1   7
BRANCH   6  12
ATOM     12  O   UNL     1      26.865  41.967  18.419  1.00  0.00    -0.508 OA
ATOM     13  H   UNL     1      26.224  41.288  18.024  1.00  0.00     0.293 HD
ENDBRANCH   6  12
TORSDOF 3
ENDMDL
