MODEL 1
REMARK VINA RESULT:    -5.812      0.000      0.000
REMARK INTER + INTRA:         -12.572
REMARK INTER:                 -11.247
REMARK INTRA:                  -1.324
REMARK UNBOUND:                -1.324
REMARK SMILES CCCCCCCCCCCCCCCCCC(=O)[O-]
REMARK SMILES IDX 10 1 11 2 12 3 13 4 14 5 15 6 16 7 17 8 18 9 19 10 20 11
REMARK SMILES IDX 9 12 8 13 7 14 6 15 5 16 4 17 3 18 2 19 1 20
REMARK H PARENT
REMARK Flexibility Score: inf
ROOT
ATOM      1  C   UNL     1      89.252 324.970 198.536  1.00  0.00     0.000 C 
ENDROOT
BRANCH   1   2
ATOM      2  C   UNL     1      88.943 326.284 199.277  1.00  0.00     0.000 C 
BRANCH   2   3
ATOM      3  C   UNL     1      89.827 326.463 200.531  1.00  0.00     0.000 C 
BRANCH   3   4
ATOM      4  C   UNL     1      89.045 326.410 201.859  1.00  0.00     0.000 C 
BRANCH   4   5
ATOM      5  C   UNL     1      89.887 326.653 203.124  1.00  0.00     0.000 C 
BRANCH   5   6
ATOM      6  C   UNL     1      89.187 327.568 204.143  1.00  0.00     0.000 C 
BRANCH   6   7
ATOM      7  C   UNL     1      89.239 327.007 205.577  1.00  0.00     0.006 C 
BRANCH   7   8
ATOM      8  C   UNL     1      89.077 325.482 205.666  1.00  0.00     0.053 C 
BRANCH   8   9
ATOM      9  C   UNL     1      87.639 325.066 205.602  1.00  0.00     0.041 C 
ATOM     10  O   UNL     1      86.801 325.561 206.401  1.00  0.00    -0.550 OA
ATOM     11  O   UNL     1      87.217 324.165 204.633  1.00  0.00    -0.550 OA
ENDBRANCH   8   9
ENDBRANCH   7   8
ENDBRANCH   6   7
ENDBRANCH   5   6
ENDBRANCH   4   5
ENDBRANCH   3   4
ENDBRANCH   2   3
ENDBRANCH   1   2
BRANCH   1  12
ATOM     12  C   UNL     1      88.448 324.809 197.233  1.00  0.00     0.000 C 
BRANCH  12  13
ATOM     13  C   UNL     1      88.066 326.127 196.534  1.00  0.00    -0.000 C 
BRANCH  13  14
ATOM     14  C   UNL     1      88.927 326.418 195.292  1.00  0.00    -0.000 C 
BRANCH  14  15
ATOM     15  C   UNL     1      88.086 326.730 194.040  1.00  0.00    -0.000 C 
BRANCH  15  16
ATOM     16  C   UNL     1      86.649 326.179 194.061  1.00  0.00    -0.000 C 
BRANCH  16  17
ATOM     17  C   UNL     1      86.483 324.900 193.225  1.00  0.00    -0.000 C 
BRANCH  17  18
ATOM     18  C   UNL     1      87.737 324.625 192.383  1.00  0.00    -0.000 C 
BRANCH  18  19
ATOM     19  C   UNL     1      88.289 323.206 192.592  1.00  0.00    -0.003 C 
ATOM     20  C   UNL     1      88.609 322.907 194.056  1.00  0.00     0.004 C 
ENDBRANCH  18  19
ENDBRANCH  17  18
ENDBRANCH  16  17
ENDBRANCH  15  16
ENDBRANCH  14  15
ENDBRANCH  13  14
ENDBRANCH  12  13
ENDBRANCH   1  12
TORSDOF 16
ENDMDL
MODEL 2
REMARK VINA RESULT:    -5.747     19.957     20.825
REMARK INTER + INTRA:         -12.447
REMARK INTER:                 -11.523
REMARK INTRA:                  -0.924
REMARK UNBOUND:                -1.324
REMARK SMILES CCCCCCCCCCCCCCCCCC(=O)[O-]
REMARK SMILES IDX 10 1 11 2 12 3 13 4 14 5 15 6 16 7 17 8 18 9 19 10 20 11
REMARK SMILES IDX 9 12 8 13 7 14 6 15 5 16 4 17 3 18 2 19 1 20
REMARK H PARENT
REMARK Flexibility Score: inf
ROOT
ATOM      1  C   UNL     1     104.447 311.873 195.846  1.00  0.00     0.000 C 
ENDROOT
BRANCH   1   2
ATOM      2  C   UNL     1     103.901 312.773 196.970  1.00  0.00     0.000 C 
BRANCH   2   3
ATOM      3  C   UNL     1     103.832 312.031 198.323  1.00  0.00     0.000 C 
BRANCH   3   4
ATOM      4  C   UNL     1     104.072 312.939 199.546  1.00  0.00     0.000 C 
BRANCH   4   5
ATOM      5  C   UNL     1     104.564 312.215 200.812  1.00  0.00     0.000 C 
BRANCH   5   6
ATOM      6  C   UNL     1     103.438 311.481 201.558  1.00  0.00     0.000 C 
BRANCH   6   7
ATOM      7  C   UNL     1     103.944 310.727 202.802  1.00  0.00     0.006 C 
BRANCH   7   8
ATOM      8  C   UNL     1     104.553 311.630 203.886  1.00  0.00     0.053 C 
BRANCH   8   9
ATOM      9  C   UNL     1     104.003 311.325 205.245  1.00  0.00     0.041 C 
ATOM     10  O   UNL     1     102.895 310.738 205.363  1.00  0.00    -0.550 OA
ATOM     11  O   UNL     1     104.734 311.649 206.381  1.00  0.00    -0.550 OA
ENDBRANCH   8   9
ENDBRANCH   7   8
ENDBRANCH   6   7
ENDBRANCH   5   6
ENDBRANCH   4   5
ENDBRANCH   3   4
ENDBRANCH   2   3
ENDBRANCH   1   2
BRANCH   1  12
ATOM     12  C   UNL     1     103.475 311.732 194.661  1.00  0.00     0.000 C 
BRANCH  12  13
ATOM     13  C   UNL     1     104.124 311.295 193.334  1.00  0.00    -0.000 C 
BRANCH  13  14
ATOM     14  C   UNL     1     105.614 311.669 193.244  1.00  0.00    -0.000 C 
BRANCH  14  15
ATOM     15  C   UNL     1     105.867 312.918 192.379  1.00  0.00    -0.000 C 
BRANCH  15  16
ATOM     16  C   UNL     1     105.221 314.216 192.897  1.00  0.00    -0.000 C 
BRANCH  16  17
ATOM     17  C   UNL     1     104.009 314.658 192.064  1.00  0.00    -0.000 C 
BRANCH  17  18
ATOM     18  C   UNL     1     103.991 313.954 190.700  1.00  0.00    -0.000 C 
BRANCH  18  19
ATOM     19  C   UNL     1     103.903 314.942 189.526  1.00  0.00    -0.003 C 
ATOM     20  C   UNL     1     102.771 314.607 188.555  1.00  0.00     0.004 C 
ENDBRANCH  18  19
ENDBRANCH  17  18
ENDBRANCH  16  17
ENDBRANCH  15  16
ENDBRANCH  14  15
ENDBRANCH  13  14
ENDBRANCH  12  13
ENDBRANCH   1  12
TORSDOF 16
ENDMDL
MODEL 3
REMARK VINA RESULT:    -5.714     19.522     20.628
REMARK INTER + INTRA:         -12.384
REMARK INTER:                 -11.437
REMARK INTRA:                  -0.947
REMARK UNBOUND:                -1.324
REMARK SMILES CCCCCCCCCCCCCCCCCC(=O)[O-]
REMARK SMILES IDX 10 1 11 2 12 3 13 4 14 5 15 6 16 7 17 8 18 9 19 10 20 11
REMARK SMILES IDX 9 12 8 13 7 14 6 15 5 16 4 17 3 18 2 19 1 20
REMARK H PARENT
REMARK Flexibility Score: inf
ROOT
ATOM      1  C   UNL     1     104.384 312.352 195.718  1.00  0.00     0.000 C 
ENDROOT
BRANCH   1   2
ATOM      2  C   UNL     1     104.260 311.478 196.980  1.00  0.00     0.000 C 
BRANCH   2   3
ATOM      3  C   UNL     1     103.548 312.222 198.131  1.00  0.00     0.000 C 
BRANCH   3   4
ATOM      4  C   UNL     1     103.246 311.333 199.355  1.00  0.00     0.000 C 
BRANCH   4   5
ATOM      5  C   UNL     1     102.641 312.069 200.563  1.00  0.00     0.000 C 
BRANCH   5   6
ATOM      6  C   UNL     1     101.708 311.179 201.403  1.00  0.00     0.000 C 
BRANCH   6   7
ATOM      7  C   UNL     1     102.184 311.029 202.859  1.00  0.00     0.006 C 
BRANCH   7   8
ATOM      8  C   UNL     1     103.682 310.719 203.007  1.00  0.00     0.053 C 
BRANCH   8   9
ATOM      9  C   UNL     1     104.350 311.630 203.991  1.00  0.00     0.041 C 
ATOM     10  O   UNL     1     104.573 311.238 205.166  1.00  0.00    -0.550 OA
ATOM     11  O   UNL     1     104.765 312.896 203.597  1.00  0.00    -0.550 OA
ENDBRANCH   8   9
ENDBRANCH   7   8
ENDBRANCH   6   7
ENDBRANCH   5   6
ENDBRANCH   4   5
ENDBRANCH   3   4
ENDBRANCH   2   3
ENDBRANCH   1   2
BRANCH   1  12
ATOM     12  C   UNL     1     103.451 311.903 194.578  1.00  0.00     0.000 C 
BRANCH  12  13
ATOM     13  C   UNL     1     104.167 311.397 193.311  1.00  0.00    -0.000 C 
BRANCH  13  14
ATOM     14  C   UNL     1     105.617 311.901 193.201  1.00  0.00    -0.000 C 
BRANCH  14  15
ATOM     15  C   UNL     1     105.752 313.151 192.312  1.00  0.00    -0.000 C 
BRANCH  15  16
ATOM     16  C   UNL     1     104.519 313.480 191.451  1.00  0.00    -0.000 C 
BRANCH  16  17
ATOM     17  C   UNL     1     103.838 314.797 191.852  1.00  0.00    -0.000 C 
BRANCH  17  18
ATOM     18  C   UNL     1     103.508 315.646 190.616  1.00  0.00    -0.000 C 
BRANCH  18  19
ATOM     19  C   UNL     1     103.826 314.920 189.299  1.00  0.00    -0.003 C 
ATOM     20  C   UNL     1     102.584 314.686 188.439  1.00  0.00     0.004 C 
ENDBRANCH  18  19
ENDBRANCH  17  18
ENDBRANCH  16  17
ENDBRANCH  15  16
ENDBRANCH  14  15
ENDBRANCH  13  14
ENDBRANCH  12  13
ENDBRANCH   1  12
TORSDOF 16
ENDMDL
MODEL 4
REMARK VINA RESULT:    -5.697     18.963     20.492
REMARK INTER + INTRA:         -12.351
REMARK INTER:                 -10.601
REMARK INTRA:                  -1.750
REMARK UNBOUND:                -1.324
REMARK SMILES CCCCCCCCCCCCCCCCCC(=O)[O-]
REMARK SMILES IDX 10 1 11 2 12 3 13 4 14 5 15 6 16 7 17 8 18 9 19 10 20 11
REMARK SMILES IDX 9 12 8 13 7 14 6 15 5 16 4 17 3 18 2 19 1 20
REMARK H PARENT
REMARK Flexibility Score: inf
ROOT
ATOM      1  C   UNL     1     103.444 311.736 194.788  1.00  0.00     0.000 C 
ENDROOT
BRANCH   1   2
ATOM      2  C   UNL     1     104.522 311.903 195.875  1.00  0.00     0.000 C 
BRANCH   2   3
ATOM      3  C   UNL     1     103.916 312.332 197.229  1.00  0.00     0.000 C 
BRANCH   3   4
ATOM      4  C   UNL     1     103.639 311.157 198.189  1.00  0.00     0.000 C 
BRANCH   4   5
ATOM      5  C   UNL     1     103.231 311.561 199.616  1.00  0.00     0.000 C 
BRANCH   5   6
ATOM      6  C   UNL     1     104.434 311.908 200.509  1.00  0.00     0.000 C 
BRANCH   6   7
ATOM      7  C   UNL     1     104.041 312.102 201.986  1.00  0.00     0.006 C 
BRANCH   7   8
ATOM      8  C   UNL     1     103.925 310.796 202.787  1.00  0.00     0.053 C 
BRANCH   8   9
ATOM      9  C   UNL     1     102.559 310.616 203.373  1.00  0.00     0.041 C 
ATOM     10  O   UNL     1     102.418 310.460 204.615  1.00  0.00    -0.550 OA
ATOM     11  O   UNL     1     101.438 310.664 202.554  1.00  0.00    -0.550 OA
ENDBRANCH   8   9
ENDBRANCH   7   8
ENDBRANCH   6   7
ENDBRANCH   5   6
ENDBRANCH   4   5
ENDBRANCH   3   4
ENDBRANCH   2   3
ENDBRANCH   1   2
BRANCH   1  12
ATOM     12  C   UNL     1     104.034 311.511 193.383  1.00  0.00     0.000 C 
BRANCH  12  13
ATOM     13  C   UNL     1     105.477 312.014 193.194  1.00  0.00    -0.000 C 
BRANCH  13  14
ATOM     14  C   UNL     1     105.602 313.076 192.087  1.00  0.00    -0.000 C 
BRANCH  14  15
ATOM     15  C   UNL     1     104.247 313.446 191.456  1.00  0.00    -0.000 C 
BRANCH  15  16
ATOM     16  C   UNL     1     103.950 314.954 191.376  1.00  0.00    -0.000 C 
BRANCH  16  17
ATOM     17  C   UNL     1     104.195 315.687 192.703  1.00  0.00    -0.000 C 
BRANCH  17  18
ATOM     18  C   UNL     1     103.136 315.306 193.747  1.00  0.00    -0.000 C 
BRANCH  18  19
ATOM     19  C   UNL     1     103.624 315.519 195.189  1.00  0.00    -0.003 C 
ATOM     20  C   UNL     1     102.495 315.418 196.215  1.00  0.00     0.004 C 
ENDBRANCH  18  19
ENDBRANCH  17  18
ENDBRANCH  16  17
ENDBRANCH  15  16
ENDBRANCH  14  15
ENDBRANCH  13  14
ENDBRANCH  12  13
ENDBRANCH   1  12
TORSDOF 16
ENDMDL
MODEL 5
REMARK VINA RESULT:    -5.649      1.985      2.831
REMARK INTER + INTRA:         -12.258
REMARK INTER:                 -11.635
REMARK INTRA:                  -0.622
REMARK UNBOUND:                -1.324
REMARK SMILES CCCCCCCCCCCCCCCCCC(=O)[O-]
REMARK SMILES IDX 10 1 11 2 12 3 13 4 14 5 15 6 16 7 17 8 18 9 19 10 20 11
REMARK SMILES IDX 9 12 8 13 7 14 6 15 5 16 4 17 3 18 2 19 1 20
REMARK H PARENT
REMARK Flexibility Score: inf
ROOT
ATOM      1  C   UNL     1      88.241 326.029 196.870  1.00  0.00     0.000 C 
ENDROOT
BRANCH   1   2
ATOM      2  C   UNL     1      88.765 326.744 198.129  1.00  0.00     0.000 C 
BRANCH   2   3
ATOM      3  C   UNL     1      88.868 325.788 199.338  1.00  0.00     0.000 C 
BRANCH   3   4
ATOM      4  C   UNL     1      89.665 326.365 200.525  1.00  0.00     0.000 C 
BRANCH   4   5
ATOM      5  C   UNL     1      88.900 326.427 201.858  1.00  0.00     0.000 C 
BRANCH   5   6
ATOM      6  C   UNL     1      89.821 326.649 203.069  1.00  0.00     0.000 C 
BRANCH   6   7
ATOM      7  C   UNL     1      89.190 327.565 204.135  1.00  0.00     0.006 C 
BRANCH   7   8
ATOM      8  C   UNL     1      89.198 326.982 205.556  1.00  0.00     0.053 C 
BRANCH   8   9
ATOM      9  C   UNL     1      90.557 327.047 206.182  1.00  0.00     0.041 C 
ATOM     10  O   UNL     1      90.885 326.218 207.072  1.00  0.00    -0.550 OA
ATOM     11  O   UNL     1      91.478 327.995 205.752  1.00  0.00    -0.550 OA
ENDBRANCH   8   9
ENDBRANCH   7   8
ENDBRANCH   6   7
ENDBRANCH   5   6
ENDBRANCH   4   5
ENDBRANCH   3   4
ENDBRANCH   2   3
ENDBRANCH   1   2
BRANCH   1  12
ATOM     12  C   UNL     1      88.949 326.482 195.580  1.00  0.00     0.000 C 
BRANCH  12  13
ATOM     13  C   UNL     1      88.038 326.599 194.344  1.00  0.00    -0.000 C 
BRANCH  13  14
ATOM     14  C   UNL     1      86.662 325.940 194.548  1.00  0.00    -0.000 C 
BRANCH  14  15
ATOM     15  C   UNL     1      86.294 324.959 193.420  1.00  0.00    -0.000 C 
BRANCH  15  16
ATOM     16  C   UNL     1      87.411 323.983 193.008  1.00  0.00    -0.000 C 
BRANCH  16  17
ATOM     17  C   UNL     1      87.923 324.222 191.580  1.00  0.00    -0.000 C 
BRANCH  17  18
ATOM     18  C   UNL     1      87.452 323.110 190.632  1.00  0.00    -0.000 C 
BRANCH  18  19
ATOM     19  C   UNL     1      88.605 322.497 189.821  1.00  0.00    -0.003 C 
ATOM     20  C   UNL     1      89.433 323.549 189.085  1.00  0.00     0.004 C 
ENDBRANCH  18  19
ENDBRANCH  17  18
ENDBRANCH  16  17
ENDBRANCH  15  16
ENDBRANCH  14  15
ENDBRANCH  13  14
ENDBRANCH  12  13
ENDBRANCH   1  12
TORSDOF 16
ENDMDL
MODEL 6
REMARK VINA RESULT:    -5.635     19.526     20.809
REMARK INTER + INTRA:         -12.230
REMARK INTER:                 -10.922
REMARK INTRA:                  -1.308
REMARK UNBOUND:                -1.324
REMARK SMILES CCCCCCCCCCCCCCCCCC(=O)[O-]
REMARK SMILES IDX 10 1 11 2 12 3 13 4 14 5 15 6 16 7 17 8 18 9 19 10 20 11
REMARK SMILES IDX 9 12 8 13 7 14 6 15 5 16 4 17 3 18 2 19 1 20
REMARK H PARENT
REMARK Flexibility Score: inf
ROOT
ATOM      1  C   UNL     1     103.869 312.651 197.116  1.00  0.00     0.000 C 
ENDROOT
BRANCH   1   2
ATOM      2  C   UNL     1     103.741 311.757 198.364  1.00  0.00     0.000 C 
BRANCH   2   3
ATOM      3  C   UNL     1     104.232 312.473 199.641  1.00  0.00     0.000 C 
BRANCH   3   4
ATOM      4  C   UNL     1     104.191 311.591 200.906  1.00  0.00     0.000 C 
BRANCH   4   5
ATOM      5  C   UNL     1     102.858 311.612 201.674  1.00  0.00     0.000 C 
BRANCH   5   6
ATOM      6  C   UNL     1     102.862 310.694 202.909  1.00  0.00     0.000 C 
BRANCH   6   7
ATOM      7  C   UNL     1     104.152 310.825 203.740  1.00  0.00     0.006 C 
BRANCH   7   8
ATOM      8  C   UNL     1     104.215 312.085 204.618  1.00  0.00     0.053 C 
BRANCH   8   9
ATOM      9  C   UNL     1     104.523 311.760 206.047  1.00  0.00     0.041 C 
ATOM     10  O   UNL     1     105.708 311.521 206.400  1.00  0.00    -0.550 OA
ATOM     11  O   UNL     1     103.509 311.763 206.996  1.00  0.00    -0.550 OA
ENDBRANCH   8   9
ENDBRANCH   7   8
ENDBRANCH   6   7
ENDBRANCH   5   6
ENDBRANCH   4   5
ENDBRANCH   3   4
ENDBRANCH   2   3
ENDBRANCH   1   2
BRANCH   1  12
ATOM     12  C   UNL     1     104.443 311.906 195.897  1.00  0.00     0.000 C 
BRANCH  12  13
ATOM     13  C   UNL     1     103.455 311.702 194.733  1.00  0.00    -0.000 C 
BRANCH  13  14
ATOM     14  C   UNL     1     104.153 311.335 193.411  1.00  0.00    -0.000 C 
BRANCH  14  15
ATOM     15  C   UNL     1     105.533 312.001 193.257  1.00  0.00    -0.000 C 
BRANCH  15  16
ATOM     16  C   UNL     1     105.629 313.063 192.147  1.00  0.00    -0.000 C 
BRANCH  16  17
ATOM     17  C   UNL     1     104.256 313.510 191.623  1.00  0.00    -0.000 C 
BRANCH  17  18
ATOM     18  C   UNL     1     103.982 314.979 191.977  1.00  0.00    -0.000 C 
BRANCH  18  19
ATOM     19  C   UNL     1     103.383 315.145 193.383  1.00  0.00    -0.003 C 
ATOM     20  C   UNL     1     104.446 315.405 194.451  1.00  0.00     0.004 C 
ENDBRANCH  18  19
ENDBRANCH  17  18
ENDBRANCH  16  17
ENDBRANCH  15  16
ENDBRANCH  14  15
ENDBRANCH  13  14
ENDBRANCH  12  13
ENDBRANCH   1  12
TORSDOF 16
ENDMDL
MODEL 7
REMARK VINA RESULT:    -5.632     20.609     23.268
REMARK INTER + INTRA:         -12.224
REMARK INTER:                 -11.288
REMARK INTRA:                  -0.936
REMARK UNBOUND:                -1.324
REMARK SMILES CCCCCCCCCCCCCCCCCC(=O)[O-]
REMARK SMILES IDX 10 1 11 2 12 3 13 4 14 5 15 6 16 7 17 8 18 9 19 10 20 11
REMARK SMILES IDX 9 12 8 13 7 14 6 15 5 16 4 17 3 18 2 19 1 20
REMARK H PARENT
REMARK Flexibility Score: inf
ROOT
ATOM      1  C   UNL     1     103.993 312.911 197.115  1.00  0.00     0.000 C 
ENDROOT
BRANCH   1   2
ATOM      2  C   UNL     1     104.392 312.788 195.633  1.00  0.00     0.000 C 
BRANCH   2   3
ATOM      3  C   UNL     1     103.448 311.843 194.856  1.00  0.00     0.000 C 
BRANCH   3   4
ATOM      4  C   UNL     1     103.942 311.496 193.437  1.00  0.00     0.000 C 
BRANCH   4   5
ATOM      5  C   UNL     1     105.386 311.923 193.125  1.00  0.00     0.000 C 
BRANCH   5   6
ATOM      6  C   UNL     1     105.467 313.050 192.082  1.00  0.00     0.000 C 
BRANCH   6   7
ATOM      7  C   UNL     1     104.108 313.345 191.420  1.00  0.00     0.006 C 
BRANCH   7   8
ATOM      8  C   UNL     1     103.884 314.823 191.063  1.00  0.00     0.053 C 
BRANCH   8   9
ATOM      9  C   UNL     1     104.294 315.129 189.656  1.00  0.00     0.041 C 
ATOM     10  O   UNL     1     103.546 314.810 188.695  1.00  0.00    -0.550 OA
ATOM     11  O   UNL     1     105.482 315.806 189.408  1.00  0.00    -0.550 OA
ENDBRANCH   8   9
ENDBRANCH   7   8
ENDBRANCH   6   7
ENDBRANCH   5   6
ENDBRANCH   4   5
ENDBRANCH   3   4
ENDBRANCH   2   3
ENDBRANCH   1   2
BRANCH   1  12
ATOM     12  C   UNL     1     103.782 311.547 197.798  1.00  0.00     0.000 C 
BRANCH  12  13
ATOM     13  C   UNL     1     103.595 311.605 199.326  1.00  0.00    -0.000 C 
BRANCH  13  14
ATOM     14  C   UNL     1     104.558 312.592 200.010  1.00  0.00    -0.000 C 
BRANCH  14  15
ATOM     15  C   UNL     1     104.441 312.577 201.546  1.00  0.00    -0.000 C 
BRANCH  15  16
ATOM     16  C   UNL     1     103.668 311.382 202.133  1.00  0.00    -0.000 C 
BRANCH  16  17
ATOM     17  C   UNL     1     104.268 310.866 203.449  1.00  0.00    -0.000 C 
BRANCH  17  18
ATOM     18  C   UNL     1     104.226 311.949 204.536  1.00  0.00    -0.000 C 
BRANCH  18  19
ATOM     19  C   UNL     1     105.623 312.308 205.067  1.00  0.00    -0.003 C 
ATOM     20  C   UNL     1     105.851 311.828 206.501  1.00  0.00     0.004 C 
ENDBRANCH  18  19
ENDBRANCH  17  18
ENDBRANCH  16  17
ENDBRANCH  15  16
ENDBRANCH  14  15
ENDBRANCH  13  14
ENDBRANCH  12  13
ENDBRANCH   1  12
TORSDOF 16
ENDMDL
MODEL 8
REMARK VINA RESULT:    -5.631      3.676     10.151
REMARK INTER + INTRA:         -12.223
REMARK INTER:                 -11.202
REMARK INTRA:                  -1.020
REMARK UNBOUND:                -1.324
REMARK SMILES CCCCCCCCCCCCCCCCCC(=O)[O-]
REMARK SMILES IDX 10 1 11 2 12 3 13 4 14 5 15 6 16 7 17 8 18 9 19 10 20 11
REMARK SMILES IDX 9 12 8 13 7 14 6 15 5 16 4 17 3 18 2 19 1 20
REMARK H PARENT
REMARK Flexibility Score: inf
ROOT
ATOM      1  C   UNL     1      89.675 325.613 200.178  1.00  0.00     0.000 C 
ENDROOT
BRANCH   1   2
ATOM      2  C   UNL     1      89.092 325.240 198.803  1.00  0.00     0.000 C 
BRANCH   2   3
ATOM      3  C   UNL     1      88.542 326.473 198.053  1.00  0.00     0.000 C 
BRANCH   3   4
ATOM      4  C   UNL     1      87.866 326.136 196.709  1.00  0.00     0.000 C 
BRANCH   4   5
ATOM      5  C   UNL     1      88.825 325.980 195.515  1.00  0.00     0.000 C 
BRANCH   5   6
ATOM      6  C   UNL     1      88.245 326.534 194.203  1.00  0.00     0.000 C 
BRANCH   6   7
ATOM      7  C   UNL     1      87.956 325.429 193.169  1.00  0.00     0.006 C 
BRANCH   7   8
ATOM      8  C   UNL     1      88.392 324.022 193.608  1.00  0.00     0.053 C 
BRANCH   8   9
ATOM      9  C   UNL     1      87.242 323.062 193.636  1.00  0.00     0.041 C 
ATOM     10  O   UNL     1      86.685 322.773 194.728  1.00  0.00    -0.550 OA
ATOM     11  O   UNL     1      86.758 322.521 192.452  1.00  0.00    -0.550 OA
ENDBRANCH   8   9
ENDBRANCH   7   8
ENDBRANCH   6   7
ENDBRANCH   5   6
ENDBRANCH   4   5
ENDBRANCH   3   4
ENDBRANCH   2   3
ENDBRANCH   1   2
BRANCH   1  12
ATOM     12  C   UNL     1      88.609 326.116 201.169  1.00  0.00     0.000 C 
BRANCH  12  13
ATOM     13  C   UNL     1      88.899 325.808 202.650  1.00  0.00    -0.000 C 
BRANCH  13  14
ATOM     14  C   UNL     1      89.707 326.918 203.346  1.00  0.00    -0.000 C 
BRANCH  14  15
ATOM     15  C   UNL     1      89.122 327.318 204.714  1.00  0.00    -0.000 C 
BRANCH  15  16
ATOM     16  C   UNL     1      89.934 326.851 205.936  1.00  0.00    -0.000 C 
BRANCH  16  17
ATOM     17  C   UNL     1      89.060 326.228 207.035  1.00  0.00    -0.000 C 
BRANCH  17  18
ATOM     18  C   UNL     1      87.656 325.905 206.506  1.00  0.00    -0.000 C 
BRANCH  18  19
ATOM     19  C   UNL     1      87.421 324.395 206.337  1.00  0.00    -0.003 C 
ATOM     20  C   UNL     1      86.401 324.075 205.244  1.00  0.00     0.004 C 
ENDBRANCH  18  19
ENDBRANCH  17  18
ENDBRANCH  16  17
ENDBRANCH  15  16
ENDBRANCH  14  15
ENDBRANCH  13  14
ENDBRANCH  12  13
ENDBRANCH   1  12
TORSDOF 16
ENDMDL
MODEL 9
REMARK VINA RESULT:    -5.599      1.173      2.200
REMARK INTER + INTRA:         -12.160
REMARK INTER:                 -11.198
REMARK INTRA:                  -0.962
REMARK UNBOUND:                -1.324
REMARK SMILES CCCCCCCCCCCCCCCCCC(=O)[O-]
REMARK SMILES IDX 10 1 11 2 12 3 13 4 14 5 15 6 16 7 17 8 18 9 19 10 20 11
REMARK SMILES IDX 9 12 8 13 7 14 6 15 5 16 4 17 3 18 2 19 1 20
REMARK H PARENT
REMARK Flexibility Score: inf
ROOT
ATOM      1  C   UNL     1      89.645 326.505 200.517  1.00  0.00     0.000 C 
ENDROOT
BRANCH   1   2
ATOM      2  C   UNL     1      88.909 326.377 201.863  1.00  0.00     0.000 C 
BRANCH   2   3
ATOM      3  C   UNL     1      89.788 326.833 203.049  1.00  0.00     0.000 C 
BRANCH   3   4
ATOM      4  C   UNL     1      88.984 327.254 204.296  1.00  0.00     0.000 C 
BRANCH   4   5
ATOM      5  C   UNL     1      89.724 327.097 205.635  1.00  0.00     0.000 C 
BRANCH   5   6
ATOM      6  C   UNL     1      88.848 326.480 206.738  1.00  0.00     0.000 C 
BRANCH   6   7
ATOM      7  C   UNL     1      87.566 325.830 206.183  1.00  0.00     0.006 C 
BRANCH   7   8
ATOM      8  C   UNL     1      87.500 324.306 206.363  1.00  0.00     0.053 C 
BRANCH   8   9
ATOM      9  C   UNL     1      87.729 323.577 205.075  1.00  0.00     0.041 C 
ATOM     10  O   UNL     1      88.824 323.698 204.466  1.00  0.00    -0.550 OA
ATOM     11  O   UNL     1      86.751 322.730 204.571  1.00  0.00    -0.550 OA
ENDBRANCH   8   9
ENDBRANCH   7   8
ENDBRANCH   6   7
ENDBRANCH   5   6
ENDBRANCH   4   5
ENDBRANCH   3   4
ENDBRANCH   2   3
ENDBRANCH   1   2
BRANCH   1  12
ATOM     12  C   UNL     1      88.873 325.874 199.344  1.00  0.00     0.000 C 
BRANCH  12  13
ATOM     13  C   UNL     1      88.918 326.673 198.028  1.00  0.00    -0.000 C 
BRANCH  13  14
ATOM     14  C   UNL     1      88.010 326.080 196.936  1.00  0.00    -0.000 C 
BRANCH  14  15
ATOM     15  C   UNL     1      88.770 325.751 195.638  1.00  0.00    -0.000 C 
BRANCH  15  16
ATOM     16  C   UNL     1      88.366 326.589 194.411  1.00  0.00    -0.000 C 
BRANCH  16  17
ATOM     17  C   UNL     1      86.965 326.245 193.883  1.00  0.00    -0.000 C 
BRANCH  17  18
ATOM     18  C   UNL     1      86.914 324.807 193.350  1.00  0.00    -0.000 C 
BRANCH  18  19
ATOM     19  C   UNL     1      87.887 324.575 192.183  1.00  0.00    -0.003 C 
ATOM     20  C   UNL     1      88.169 323.093 191.934  1.00  0.00     0.004 C 
ENDBRANCH  18  19
ENDBRANCH  17  18
ENDBRANCH  16  17
ENDBRANCH  15  16
ENDBRANCH  14  15
ENDBRANCH  13  14
ENDBRANCH  12  13
ENDBRANCH   1  12
TORSDOF 16
ENDMDL
