MODEL 1
REMARK VINA RESULT:    -4.449      0.000      0.000
REMARK INTER + INTRA:         -10.724
REMARK INTER:                  -8.091
REMARK INTRA:                  -2.633
REMARK UNBOUND:                -2.633
REMARK SMILES CCCCCCCCCCCCCCCC(=O)[O-]
REMARK SMILES IDX 9 1 10 2 11 3 12 4 13 5 14 6 15 7 16 8 17 9 18 10 8 11 7 12
REMARK SMILES IDX 6 13 5 14 4 15 3 16 2 17 1 18
REMARK H PARENT
REMARK Flexibility Score: inf
ROOT
ATOM      1  C   UNL     1      19.484  -4.720  30.688  1.00  0.00     0.000 C 
ENDROOT
BRANCH   1   2
ATOM      2  C   UNL     1      19.620  -3.362  31.386  1.00  0.00     0.000 C 
BRANCH   2   3
ATOM      3  C   UNL     1      18.572  -3.206  32.496  1.00  0.00     0.000 C 
BRANCH   3   4
ATOM      4  C   UNL     1      19.155  -2.459  33.702  1.00  0.00     0.000 C 
BRANCH   4   5
ATOM      5  C   UNL     1      20.658  -2.741  33.849  1.00  0.00     0.000 C 
BRANCH   5   6
ATOM      6  C   UNL     1      21.185  -2.447  35.266  1.00  0.00     0.006 C 
BRANCH   6   7
ATOM      7  C   UNL     1      22.631  -2.906  35.510  1.00  0.00     0.053 C 
BRANCH   7   8
ATOM      8  C   UNL     1      22.697  -4.112  36.396  1.00  0.00     0.041 C 
ATOM      9  O   UNL     1      21.680  -4.837  36.555  1.00  0.00    -0.550 OA
ATOM     10  O   UNL     1      23.890  -4.452  37.020  1.00  0.00    -0.550 OA
ENDBRANCH   7   8
ENDBRANCH   6   7
ENDBRANCH   5   6
ENDBRANCH   4   5
ENDBRANCH   3   4
ENDBRANCH   2   3
ENDBRANCH   1   2
BRANCH   1  11
ATOM     11  C   UNL     1      20.794  -5.110  29.987  1.00  0.00     0.000 C 
BRANCH  11  12
ATOM     12  C   UNL     1      21.529  -6.258  30.700  1.00  0.00    -0.000 C 
BRANCH  12  13
ATOM     13  C   UNL     1      22.546  -5.753  31.736  1.00  0.00    -0.000 C 
BRANCH  13  14
ATOM     14  C   UNL     1      22.085  -5.976  33.188  1.00  0.00    -0.000 C 
BRANCH  14  15
ATOM     15  C   UNL     1      20.938  -6.989  33.366  1.00  0.00    -0.000 C 
BRANCH  15  16
ATOM     16  C   UNL     1      19.691  -6.373  34.024  1.00  0.00    -0.000 C 
BRANCH  16  17
ATOM     17  C   UNL     1      18.384  -6.952  33.461  1.00  0.00    -0.003 C 
ATOM     18  C   UNL     1      18.616  -7.966  32.342  1.00  0.00     0.004 C 
ENDBRANCH  16  17
ENDBRANCH  15  16
ENDBRANCH  14  15
ENDBRANCH  13  14
ENDBRANCH  12  13
ENDBRANCH  11  12
ENDBRANCH   1  11
TORSDOF 14
ENDMDL
MODEL 2
REMARK VINA RESULT:    -4.343      2.459      5.865
REMARK INTER + INTRA:         -10.531
REMARK INTER:                  -8.757
REMARK INTRA:                  -1.774
REMARK UNBOUND:                -2.633
REMARK SMILES CCCCCCCCCCCCCCCC(=O)[O-]
REMARK SMILES IDX 9 1 10 2 11 3 12 4 13 5 14 6 15 7 16 8 17 9 18 10 8 11 7 12
REMARK SMILES IDX 6 13 5 14 4 15 3 16 2 17 1 18
REMARK H PARENT
REMARK Flexibility Score: inf
ROOT
ATOM      1  C   UNL     1      20.416  -3.592  34.432  1.00  0.00     0.000 C 
ENDROOT
BRANCH   1   2
ATOM      2  C   UNL     1      20.016  -2.849  33.151  1.00  0.00     0.000 C 
BRANCH   2   3
ATOM      3  C   UNL     1      18.521  -3.026  32.856  1.00  0.00     0.000 C 
BRANCH   3   4
ATOM      4  C   UNL     1      18.286  -4.183  31.876  1.00  0.00     0.000 C 
BRANCH   4   5
ATOM      5  C   UNL     1      19.501  -4.379  30.957  1.00  0.00     0.000 C 
BRANCH   5   6
ATOM      6  C   UNL     1      19.874  -5.861  30.768  1.00  0.00     0.006 C 
BRANCH   6   7
ATOM      7  C   UNL     1      20.968  -6.365  31.723  1.00  0.00     0.053 C 
BRANCH   7   8
ATOM      8  C   UNL     1      20.398  -7.124  32.881  1.00  0.00     0.041 C 
ATOM      9  O   UNL     1      21.087  -7.307  33.919  1.00  0.00    -0.550 OA
ATOM     10  O   UNL     1      19.094  -7.600  32.827  1.00  0.00    -0.550 OA
ENDBRANCH   7   8
ENDBRANCH   6   7
ENDBRANCH   5   6
ENDBRANCH   4   5
ENDBRANCH   3   4
ENDBRANCH   2   3
ENDBRANCH   1   2
BRANCH   1  11
ATOM     11  C   UNL     1      21.912  -3.944  34.416  1.00  0.00     0.000 C 
BRANCH  11  12
ATOM     12  C   UNL     1      22.610  -3.622  35.749  1.00  0.00    -0.000 C 
BRANCH  12  13
ATOM     13  C   UNL     1      23.399  -2.303  35.697  1.00  0.00    -0.000 C 
BRANCH  13  14
ATOM     14  C   UNL     1      22.944  -1.289  36.763  1.00  0.00    -0.000 C 
BRANCH  14  15
ATOM     15  C   UNL     1      21.707  -0.452  36.389  1.00  0.00    -0.000 C 
BRANCH  15  16
ATOM     16  C   UNL     1      21.673  -0.063  34.901  1.00  0.00    -0.000 C 
BRANCH  16  17
ATOM     17  C   UNL     1      22.245   1.341  34.648  1.00  0.00    -0.003 C 
ATOM     18  C   UNL     1      21.410   2.448  35.290  1.00  0.00     0.004 C 
ENDBRANCH  16  17
ENDBRANCH  15  16
ENDBRANCH  14  15
ENDBRANCH  13  14
ENDBRANCH  12  13
ENDBRANCH  11  12
ENDBRANCH   1  11
TORSDOF 14
ENDMDL
MODEL 3
REMARK VINA RESULT:    -4.309      2.974      5.540
REMARK INTER + INTRA:         -10.469
REMARK INTER:                  -8.665
REMARK INTRA:                  -1.804
REMARK UNBOUND:                -2.633
REMARK SMILES CCCCCCCCCCCCCCCC(=O)[O-]
REMARK SMILES IDX 9 1 10 2 11 3 12 4 13 5 14 6 15 7 16 8 17 9 18 10 8 11 7 12
REMARK SMILES IDX 6 13 5 14 4 15 3 16 2 17 1 18
REMARK H PARENT
REMARK Flexibility Score: inf
ROOT
ATOM      1  C   UNL     1      23.187  -3.270  36.410  1.00  0.00     0.000 C 
ENDROOT
BRANCH   1   2
ATOM      2  C   UNL     1      23.681  -4.461  37.240  1.00  0.00     0.000 C 
BRANCH   2   3
ATOM      3  C   UNL     1      22.964  -4.523  38.594  1.00  0.00     0.000 C 
BRANCH   3   4
ATOM      4  C   UNL     1      22.213  -5.850  38.758  1.00  0.00     0.000 C 
BRANCH   4   5
ATOM      5  C   UNL     1      23.168  -7.044  38.614  1.00  0.00     0.000 C 
BRANCH   5   6
ATOM      6  C   UNL     1      23.933  -7.358  39.913  1.00  0.00     0.006 C 
BRANCH   6   7
ATOM      7  C   UNL     1      25.462  -7.282  39.779  1.00  0.00     0.053 C 
BRANCH   7   8
ATOM      8  C   UNL     1      25.989  -5.920  40.116  1.00  0.00     0.041 C 
ATOM      9  O   UNL     1      25.747  -5.409  41.241  1.00  0.00    -0.550 OA
ATOM     10  O   UNL     1      26.775  -5.233  39.201  1.00  0.00    -0.550 OA
ENDBRANCH   7   8
ENDBRANCH   6   7
ENDBRANCH   5   6
ENDBRANCH   4   5
ENDBRANCH   3   4
ENDBRANCH   2   3
ENDBRANCH   1   2
BRANCH   1  11
ATOM     11  C   UNL     1      22.587  -3.742  35.077  1.00  0.00     0.000 C 
BRANCH  11  12
ATOM     12  C   UNL     1      21.048  -3.745  35.088  1.00  0.00    -0.000 C 
BRANCH  12  13
ATOM     13  C   UNL     1      20.462  -5.166  35.130  1.00  0.00    -0.000 C 
BRANCH  13  14
ATOM     14  C   UNL     1      21.490  -6.250  34.758  1.00  0.00    -0.000 C 
BRANCH  14  15
ATOM     15  C   UNL     1      21.358  -6.821  33.334  1.00  0.00    -0.000 C 
BRANCH  15  16
ATOM     16  C   UNL     1      22.541  -6.445  32.425  1.00  0.00    -0.000 C 
BRANCH  16  17
ATOM     17  C   UNL     1      22.089  -6.020  31.018  1.00  0.00    -0.003 C 
ATOM     18  C   UNL     1      20.736  -5.310  31.018  1.00  0.00     0.004 C 
ENDBRANCH  16  17
ENDBRANCH  15  16
ENDBRANCH  14  15
ENDBRANCH  13  14
ENDBRANCH  12  13
ENDBRANCH  11  12
ENDBRANCH   1  11
TORSDOF 14
ENDMDL
MODEL 4
REMARK VINA RESULT:    -4.292      2.562      5.851
REMARK INTER + INTRA:         -10.438
REMARK INTER:                  -8.481
REMARK INTRA:                  -1.957
REMARK UNBOUND:                -2.633
REMARK SMILES CCCCCCCCCCCCCCCC(=O)[O-]
REMARK SMILES IDX 9 1 10 2 11 3 12 4 13 5 14 6 15 7 16 8 17 9 18 10 8 11 7 12
REMARK SMILES IDX 6 13 5 14 4 15 3 16 2 17 1 18
REMARK H PARENT
REMARK Flexibility Score: inf
ROOT
ATOM      1  C   UNL     1      21.369  -4.807  34.476  1.00  0.00     0.000 C 
ENDROOT
BRANCH   1   2
ATOM      2  C   UNL     1      20.910  -6.267  34.389  1.00  0.00     0.000 C 
BRANCH   2   3
ATOM      3  C   UNL     1      21.569  -6.982  33.202  1.00  0.00     0.000 C 
BRANCH   3   4
ATOM      4  C   UNL     1      22.504  -6.035  32.440  1.00  0.00     0.000 C 
BRANCH   4   5
ATOM      5  C   UNL     1      22.228  -6.087  30.930  1.00  0.00     0.000 C 
BRANCH   5   6
ATOM      6  C   UNL     1      20.767  -6.445  30.602  1.00  0.00     0.006 C 
BRANCH   6   7
ATOM      7  C   UNL     1      19.951  -5.285  30.008  1.00  0.00     0.053 C 
BRANCH   7   8
ATOM      8  C   UNL     1      19.397  -4.385  31.070  1.00  0.00     0.041 C 
ATOM      9  O   UNL     1      19.639  -3.150  31.043  1.00  0.00    -0.550 OA
ATOM     10  O   UNL     1      18.585  -4.907  32.069  1.00  0.00    -0.550 OA
ENDBRANCH   7   8
ENDBRANCH   6   7
ENDBRANCH   5   6
ENDBRANCH   4   5
ENDBRANCH   3   4
ENDBRANCH   2   3
ENDBRANCH   1   2
BRANCH   1  11
ATOM     11  C   UNL     1      21.583  -4.386  35.939  1.00  0.00     0.000 C 
BRANCH  11  12
ATOM     12  C   UNL     1      23.023  -3.922  36.218  1.00  0.00    -0.000 C 
BRANCH  12  13
ATOM     13  C   UNL     1      23.353  -2.584  35.537  1.00  0.00    -0.000 C 
BRANCH  13  14
ATOM     14  C   UNL     1      23.136  -1.371  36.461  1.00  0.00    -0.000 C 
BRANCH  14  15
ATOM     15  C   UNL     1      22.132  -0.322  35.946  1.00  0.00    -0.000 C 
BRANCH  15  16
ATOM     16  C   UNL     1      21.227  -0.859  34.823  1.00  0.00    -0.000 C 
BRANCH  16  17
ATOM     17  C   UNL     1      19.812  -1.195  35.320  1.00  0.00    -0.003 C 
ATOM     18  C   UNL     1      18.999  -1.994  34.302  1.00  0.00     0.004 C 
ENDBRANCH  16  17
ENDBRANCH  15  16
ENDBRANCH  14  15
ENDBRANCH  13  14
ENDBRANCH  12  13
ENDBRANCH  11  12
ENDBRANCH   1  11
TORSDOF 14
ENDMDL
MODEL 5
REMARK VINA RESULT:    -4.280      1.699      3.428
REMARK INTER + INTRA:         -10.415
REMARK INTER:                  -8.096
REMARK INTRA:                  -2.319
REMARK UNBOUND:                -2.633
REMARK SMILES CCCCCCCCCCCCCCCC(=O)[O-]
REMARK SMILES IDX 9 1 10 2 11 3 12 4 13 5 14 6 15 7 16 8 17 9 18 10 8 11 7 12
REMARK SMILES IDX 6 13 5 14 4 15 3 16 2 17 1 18
REMARK H PARENT
REMARK Flexibility Score: inf
ROOT
ATOM      1  C   UNL     1      22.287  -6.496  31.297  1.00  0.00     0.000 C 
ENDROOT
BRANCH   1   2
ATOM      2  C   UNL     1      21.707  -5.738  30.097  1.00  0.00     0.000 C 
BRANCH   2   3
ATOM      3  C   UNL     1      20.179  -5.647  30.189  1.00  0.00     0.000 C 
BRANCH   3   4
ATOM      4  C   UNL     1      19.736  -4.248  30.635  1.00  0.00     0.000 C 
BRANCH   4   5
ATOM      5  C   UNL     1      18.514  -4.328  31.562  1.00  0.00     0.000 C 
BRANCH   5   6
ATOM      6  C   UNL     1      18.682  -3.493  32.845  1.00  0.00     0.006 C 
BRANCH   6   7
ATOM      7  C   UNL     1      20.033  -2.767  32.954  1.00  0.00     0.053 C 
BRANCH   7   8
ATOM      8  C   UNL     1      20.296  -2.276  34.345  1.00  0.00     0.041 C 
ATOM      9  O   UNL     1      21.257  -2.742  35.010  1.00  0.00    -0.550 OA
ATOM     10  O   UNL     1      19.499  -1.278  34.891  1.00  0.00    -0.550 OA
ENDBRANCH   7   8
ENDBRANCH   6   7
ENDBRANCH   5   6
ENDBRANCH   4   5
ENDBRANCH   3   4
ENDBRANCH   2   3
ENDBRANCH   1   2
BRANCH   1  11
ATOM     11  C   UNL     1      22.603  -5.535  32.453  1.00  0.00     0.000 C 
BRANCH  11  12
ATOM     12  C   UNL     1      21.891  -5.923  33.760  1.00  0.00    -0.000 C 
BRANCH  12  13
ATOM     13  C   UNL     1      21.093  -7.231  33.629  1.00  0.00    -0.000 C 
BRANCH  13  14
ATOM     14  C   UNL     1      19.570  -7.010  33.654  1.00  0.00    -0.000 C 
BRANCH  14  15
ATOM     15  C   UNL     1      18.753  -7.948  32.746  1.00  0.00    -0.000 C 
BRANCH  15  16
ATOM     16  C   UNL     1      17.234  -7.803  32.945  1.00  0.00    -0.000 C 
BRANCH  16  17
ATOM     17  C   UNL     1      16.866  -7.397  34.381  1.00  0.00    -0.003 C 
ATOM     18  C   UNL     1      15.704  -8.211  34.949  1.00  0.00     0.004 C 
ENDBRANCH  16  17
ENDBRANCH  15  16
ENDBRANCH  14  15
ENDBRANCH  13  14
ENDBRANCH  12  13
ENDBRANCH  11  12
ENDBRANCH   1  11
TORSDOF 14
ENDMDL
MODEL 6
REMARK VINA RESULT:    -4.258      2.035      4.882
REMARK INTER + INTRA:         -10.376
REMARK INTER:                  -8.453
REMARK INTRA:                  -1.923
REMARK UNBOUND:                -2.633
REMARK SMILES CCCCCCCCCCCCCCCC(=O)[O-]
REMARK SMILES IDX 9 1 10 2 11 3 12 4 13 5 14 6 15 7 16 8 17 9 18 10 8 11 7 12
REMARK SMILES IDX 6 13 5 14 4 15 3 16 2 17 1 18
REMARK H PARENT
REMARK Flexibility Score: inf
ROOT
ATOM      1  C   UNL     1      22.528  -6.181  32.031  1.00  0.00     0.000 C 
ENDROOT
BRANCH   1   2
ATOM      2  C   UNL     1      21.990  -6.432  30.617  1.00  0.00     0.000 C 
BRANCH   2   3
ATOM      3  C   UNL     1      20.469  -6.244  30.565  1.00  0.00     0.000 C 
BRANCH   3   4
ATOM      4  C   UNL     1      20.104  -4.779  30.294  1.00  0.00     0.000 C 
BRANCH   4   5
ATOM      5  C   UNL     1      19.069  -4.273  31.309  1.00  0.00     0.000 C 
BRANCH   5   6
ATOM      6  C   UNL     1      19.618  -3.156  32.216  1.00  0.00     0.006 C 
BRANCH   6   7
ATOM      7  C   UNL     1      18.603  -2.615  33.236  1.00  0.00     0.053 C 
BRANCH   7   8
ATOM      8  C   UNL     1      18.583  -3.426  34.495  1.00  0.00     0.041 C 
ATOM      9  O   UNL     1      19.183  -3.015  35.523  1.00  0.00    -0.550 OA
ATOM     10  O   UNL     1      17.873  -4.619  34.542  1.00  0.00    -0.550 OA
ENDBRANCH   7   8
ENDBRANCH   6   7
ENDBRANCH   5   6
ENDBRANCH   4   5
ENDBRANCH   3   4
ENDBRANCH   2   3
ENDBRANCH   1   2
BRANCH   1  11
ATOM     11  C   UNL     1      21.591  -6.784  33.089  1.00  0.00     0.000 C 
BRANCH  11  12
ATOM     12  C   UNL     1      21.347  -5.834  34.275  1.00  0.00    -0.000 C 
BRANCH  12  13
ATOM     13  C   UNL     1      22.228  -4.576  34.212  1.00  0.00    -0.000 C 
BRANCH  13  14
ATOM     14  C   UNL     1      22.600  -4.034  35.605  1.00  0.00    -0.000 C 
BRANCH  14  15
ATOM     15  C   UNL     1      23.345  -2.686  35.609  1.00  0.00    -0.000 C 
BRANCH  15  16
ATOM     16  C   UNL     1      22.819  -1.713  36.678  1.00  0.00    -0.000 C 
BRANCH  16  17
ATOM     17  C   UNL     1      22.356  -0.376  36.078  1.00  0.00    -0.003 C 
ATOM     18  C   UNL     1      21.491  -0.552  34.831  1.00  0.00     0.004 C 
ENDBRANCH  16  17
ENDBRANCH  15  16
ENDBRANCH  14  15
ENDBRANCH  13  14
ENDBRANCH  12  13
ENDBRANCH  11  12
ENDBRANCH   1  11
TORSDOF 14
ENDMDL
MODEL 7
REMARK VINA RESULT:    -4.257      2.870      4.089
REMARK INTER + INTRA:         -10.374
REMARK INTER:                  -8.666
REMARK INTRA:                  -1.709
REMARK UNBOUND:                -2.633
REMARK SMILES CCCCCCCCCCCCCCCC(=O)[O-]
REMARK SMILES IDX 9 1 10 2 11 3 12 4 13 5 14 6 15 7 16 8 17 9 18 10 8 11 7 12
REMARK SMILES IDX 6 13 5 14 4 15 3 16 2 17 1 18
REMARK H PARENT
REMARK Flexibility Score: inf
ROOT
ATOM      1  C   UNL     1      21.419  -5.967  34.347  1.00  0.00     0.000 C 
ENDROOT
BRANCH   1   2
ATOM      2  C   UNL     1      21.497  -4.478  33.987  1.00  0.00     0.000 C 
BRANCH   2   3
ATOM      3  C   UNL     1      21.514  -3.607  35.249  1.00  0.00     0.000 C 
BRANCH   3   4
ATOM      4  C   UNL     1      22.859  -2.885  35.402  1.00  0.00     0.000 C 
BRANCH   4   5
ATOM      5  C   UNL     1      22.865  -1.994  36.653  1.00  0.00     0.000 C 
BRANCH   5   6
ATOM      6  C   UNL     1      22.952  -0.494  36.318  1.00  0.00     0.006 C 
BRANCH   6   7
ATOM      7  C   UNL     1      22.121  -0.070  35.096  1.00  0.00     0.053 C 
BRANCH   7   8
ATOM      8  C   UNL     1      22.231   1.399  34.824  1.00  0.00     0.041 C 
ATOM      9  O   UNL     1      23.286   1.874  34.328  1.00  0.00    -0.550 OA
ATOM     10  O   UNL     1      21.154   2.236  35.086  1.00  0.00    -0.550 OA
ENDBRANCH   7   8
ENDBRANCH   6   7
ENDBRANCH   5   6
ENDBRANCH   4   5
ENDBRANCH   3   4
ENDBRANCH   2   3
ENDBRANCH   1   2
BRANCH   1  11
ATOM     11  C   UNL     1      21.762  -6.844  33.133  1.00  0.00     0.000 C 
BRANCH  11  12
ATOM     12  C   UNL     1      22.629  -6.108  32.096  1.00  0.00    -0.000 C 
BRANCH  12  13
ATOM     13  C   UNL     1      22.043  -6.184  30.677  1.00  0.00    -0.000 C 
BRANCH  13  14
ATOM     14  C   UNL     1      20.510  -6.038  30.652  1.00  0.00    -0.000 C 
BRANCH  14  15
ATOM     15  C   UNL     1      19.988  -4.592  30.562  1.00  0.00    -0.000 C 
BRANCH  15  16
ATOM     16  C   UNL     1      18.748  -4.346  31.438  1.00  0.00    -0.000 C 
BRANCH  16  17
ATOM     17  C   UNL     1      18.261  -5.625  32.138  1.00  0.00    -0.003 C 
ATOM     18  C   UNL     1      17.802  -5.378  33.575  1.00  0.00     0.004 C 
ENDBRANCH  16  17
ENDBRANCH  15  16
ENDBRANCH  14  15
ENDBRANCH  13  14
ENDBRANCH  12  13
ENDBRANCH  11  12
ENDBRANCH   1  11
TORSDOF 14
ENDMDL
MODEL 8
REMARK VINA RESULT:    -4.254      1.194      2.807
REMARK INTER + INTRA:         -10.369
REMARK INTER:                  -8.057
REMARK INTRA:                  -2.312
REMARK UNBOUND:                -2.633
REMARK SMILES CCCCCCCCCCCCCCCC(=O)[O-]
REMARK SMILES IDX 9 1 10 2 11 3 12 4 13 5 14 6 15 7 16 8 17 9 18 10 8 11 7 12
REMARK SMILES IDX 6 13 5 14 4 15 3 16 2 17 1 18
REMARK H PARENT
REMARK Flexibility Score: inf
ROOT
ATOM      1  C   UNL     1      22.547  -5.900  32.009  1.00  0.00     0.000 C 
ENDROOT
BRANCH   1   2
ATOM      2  C   UNL     1      21.896  -6.641  33.183  1.00  0.00     0.000 C 
BRANCH   2   3
ATOM      3  C   UNL     1      21.549  -5.674  34.321  1.00  0.00     0.000 C 
BRANCH   3   4
ATOM      4  C   UNL     1      22.077  -4.264  34.025  1.00  0.00     0.000 C 
BRANCH   4   5
ATOM      5  C   UNL     1      21.940  -3.357  35.257  1.00  0.00     0.000 C 
BRANCH   5   6
ATOM      6  C   UNL     1      23.294  -3.040  35.919  1.00  0.00     0.006 C 
BRANCH   6   7
ATOM      7  C   UNL     1      23.361  -3.386  37.416  1.00  0.00     0.053 C 
BRANCH   7   8
ATOM      8  C   UNL     1      23.253  -4.860  37.658  1.00  0.00     0.041 C 
ATOM      9  O   UNL     1      24.211  -5.622  37.364  1.00  0.00    -0.550 OA
ATOM     10  O   UNL     1      22.107  -5.387  38.240  1.00  0.00    -0.550 OA
ENDBRANCH   7   8
ENDBRANCH   6   7
ENDBRANCH   5   6
ENDBRANCH   4   5
ENDBRANCH   3   4
ENDBRANCH   2   3
ENDBRANCH   1   2
BRANCH   1  11
ATOM     11  C   UNL     1      21.932  -6.344  30.672  1.00  0.00     0.000 C 
BRANCH  11  12
ATOM     12  C   UNL     1      21.214  -5.197  29.940  1.00  0.00    -0.000 C 
BRANCH  12  13
ATOM     13  C   UNL     1      19.720  -5.117  30.294  1.00  0.00    -0.000 C 
BRANCH  13  14
ATOM     14  C   UNL     1      19.395  -3.975  31.275  1.00  0.00    -0.000 C 
BRANCH  14  15
ATOM     15  C   UNL     1      18.626  -4.394  32.542  1.00  0.00    -0.000 C 
BRANCH  15  16
ATOM     16  C   UNL     1      17.737  -5.630  32.322  1.00  0.00    -0.000 C 
BRANCH  16  17
ATOM     17  C   UNL     1      18.167  -6.825  33.188  1.00  0.00    -0.003 C 
ATOM     18  C   UNL     1      18.610  -8.030  32.360  1.00  0.00     0.004 C 
ENDBRANCH  16  17
ENDBRANCH  15  16
ENDBRANCH  14  15
ENDBRANCH  13  14
ENDBRANCH  12  13
ENDBRANCH  11  12
ENDBRANCH   1  11
TORSDOF 14
ENDMDL
MODEL 9
REMARK VINA RESULT:    -4.238      2.565      5.837
REMARK INTER + INTRA:         -10.339
REMARK INTER:                  -8.030
REMARK INTRA:                  -2.309
REMARK UNBOUND:                -2.633
REMARK SMILES CCCCCCCCCCCCCCCC(=O)[O-]
REMARK SMILES IDX 9 1 10 2 11 3 12 4 13 5 14 6 15 7 16 8 17 9 18 10 8 11 7 12
REMARK SMILES IDX 6 13 5 14 4 15 3 16 2 17 1 18
REMARK H PARENT
REMARK Flexibility Score: inf
ROOT
ATOM      1  C   UNL     1      19.360  -5.701  34.946  1.00  0.00     0.000 C 
ENDROOT
BRANCH   1   2
ATOM      2  C   UNL     1      20.363  -6.259  33.929  1.00  0.00     0.000 C 
BRANCH   2   3
ATOM      3  C   UNL     1      21.716  -5.547  34.042  1.00  0.00     0.000 C 
BRANCH   3   4
ATOM      4  C   UNL     1      22.377  -5.399  32.666  1.00  0.00     0.000 C 
BRANCH   4   5
ATOM      5  C   UNL     1      21.686  -6.293  31.626  1.00  0.00     0.000 C 
BRANCH   5   6
ATOM      6  C   UNL     1      21.204  -5.509  30.391  1.00  0.00     0.006 C 
BRANCH   6   7
ATOM      7  C   UNL     1      19.676  -5.408  30.263  1.00  0.00     0.053 C 
BRANCH   7   8
ATOM      8  C   UNL     1      19.118  -4.276  31.071  1.00  0.00     0.041 C 
ATOM      9  O   UNL     1      19.655  -3.138  31.021  1.00  0.00    -0.550 OA
ATOM     10  O   UNL     1      17.986  -4.470  31.851  1.00  0.00    -0.550 OA
ENDBRANCH   7   8
ENDBRANCH   6   7
ENDBRANCH   5   6
ENDBRANCH   4   5
ENDBRANCH   3   4
ENDBRANCH   2   3
ENDBRANCH   1   2
BRANCH   1  11
ATOM     11  C   UNL     1      19.771  -4.293  35.405  1.00  0.00     0.000 C 
BRANCH  11  12
ATOM     12  C   UNL     1      18.682  -3.240  35.136  1.00  0.00    -0.000 C 
BRANCH  12  13
ATOM     13  C   UNL     1      19.220  -2.018  34.373  1.00  0.00    -0.000 C 
BRANCH  13  14
ATOM     14  C   UNL     1      20.756  -2.009  34.262  1.00  0.00    -0.000 C 
BRANCH  14  15
ATOM     15  C   UNL     1      21.455  -0.801  34.913  1.00  0.00    -0.000 C 
BRANCH  15  16
ATOM     16  C   UNL     1      22.494  -1.209  35.972  1.00  0.00    -0.000 C 
BRANCH  16  17
ATOM     17  C   UNL     1      23.224  -2.511  35.608  1.00  0.00    -0.003 C 
ATOM     18  C   UNL     1      23.244  -3.522  36.754  1.00  0.00     0.004 C 
ENDBRANCH  16  17
ENDBRANCH  15  16
ENDBRANCH  14  15
ENDBRANCH  13  14
ENDBRANCH  12  13
ENDBRANCH  11  12
ENDBRANCH   1  11
TORSDOF 14
ENDMDL
