MODEL 1
REMARK VINA RESULT:    -5.563      0.000      0.000
REMARK INTER + INTRA:         -10.414
REMARK INTER:                  -8.815
REMARK INTRA:                  -1.599
REMARK UNBOUND:                -1.599
REMARK SMILES CCCCCCCCCCCC(=O)[O-]
REMARK SMILES IDX 7 1 8 2 9 3 10 4 11 5 12 6 13 7 14 8 6 9 5 10 4 11 3 12 2 13
REMARK SMILES IDX 1 14
REMARK H PARENT
REMARK Flexibility Score: inf
ROOT
ATOM      1  C   UNL     1      10.444  71.416  -5.452  1.00  0.00     0.000 C 
ENDROOT
BRANCH   1   2
ATOM      2  C   UNL     1       9.888  70.909  -4.113  1.00  0.00     0.000 C 
BRANCH   2   3
ATOM      3  C   UNL     1      10.758  71.383  -2.943  1.00  0.00     0.000 C 
BRANCH   3   4
ATOM      4  C   UNL     1       9.959  72.285  -1.991  1.00  0.00     0.006 C 
BRANCH   4   5
ATOM      5  C   UNL     1      10.107  73.772  -2.339  1.00  0.00     0.053 C 
BRANCH   5   6
ATOM      6  C   UNL     1       8.783  74.472  -2.368  1.00  0.00     0.041 C 
ATOM      7  O   UNL     1       8.172  74.715  -1.295  1.00  0.00    -0.550 OA
ATOM      8  O   UNL     1       8.209  74.825  -3.584  1.00  0.00    -0.550 OA
ENDBRANCH   5   6
ENDBRANCH   4   5
ENDBRANCH   3   4
ENDBRANCH   2   3
ENDBRANCH   1   2
BRANCH   1   9
ATOM      9  C   UNL     1       9.757  72.707  -5.931  1.00  0.00     0.000 C 
BRANCH   9  10
ATOM     10  C   UNL     1      10.722  73.905  -5.986  1.00  0.00    -0.000 C 
BRANCH  10  11
ATOM     11  C   UNL     1      12.197  73.475  -5.959  1.00  0.00    -0.000 C 
BRANCH  11  12
ATOM     12  C   UNL     1      12.940  73.993  -4.715  1.00  0.00    -0.000 C 
BRANCH  12  13
ATOM     13  C   UNL     1      13.879  72.937  -4.109  1.00  0.00    -0.003 C 
ATOM     14  C   UNL     1      13.974  73.031  -2.586  1.00  0.00     0.004 C 
ENDBRANCH  12  13
ENDBRANCH  11  12
ENDBRANCH  10  11
ENDBRANCH   9  10
ENDBRANCH   1   9
TORSDOF 10
ENDMDL
MODEL 2
REMARK VINA RESULT:    -5.545      1.056      1.484
REMARK INTER + INTRA:         -10.385
REMARK INTER:                  -8.817
REMARK INTRA:                  -1.568
REMARK UNBOUND:                -1.599
REMARK SMILES CCCCCCCCCCCC(=O)[O-]
REMARK SMILES IDX 7 1 8 2 9 3 10 4 11 5 12 6 13 7 14 8 6 9 5 10 4 11 3 12 2 13
REMARK SMILES IDX 1 14
REMARK H PARENT
REMARK Flexibility Score: inf
ROOT
ATOM      1  C   UNL     1       9.859  71.091  -4.185  1.00  0.00     0.000 C 
ENDROOT
BRANCH   1   2
ATOM      2  C   UNL     1      10.798  71.224  -2.976  1.00  0.00     0.000 C 
BRANCH   2   3
ATOM      3  C   UNL     1      10.156  72.074  -1.873  1.00  0.00     0.000 C 
BRANCH   3   4
ATOM      4  C   UNL     1      10.387  73.571  -2.125  1.00  0.00     0.006 C 
BRANCH   4   5
ATOM      5  C   UNL     1       9.088  74.309  -2.473  1.00  0.00     0.053 C 
BRANCH   5   6
ATOM      6  C   UNL     1       9.348  75.546  -3.277  1.00  0.00     0.041 C 
ATOM      7  O   UNL     1      10.459  76.131  -3.197  1.00  0.00    -0.550 OA
ATOM      8  O   UNL     1       8.349  76.072  -4.088  1.00  0.00    -0.550 OA
ENDBRANCH   5   6
ENDBRANCH   4   5
ENDBRANCH   3   4
ENDBRANCH   2   3
ENDBRANCH   1   2
BRANCH   1   9
ATOM      9  C   UNL     1      10.521  71.528  -5.503  1.00  0.00     0.000 C 
BRANCH   9  10
ATOM     10  C   UNL     1      10.290  73.017  -5.816  1.00  0.00    -0.000 C 
BRANCH  10  11
ATOM     11  C   UNL     1      11.604  73.810  -5.911  1.00  0.00    -0.000 C 
BRANCH  11  12
ATOM     12  C   UNL     1      12.814  73.013  -5.393  1.00  0.00    -0.000 C 
BRANCH  12  13
ATOM     13  C   UNL     1      13.606  73.778  -4.320  1.00  0.00    -0.003 C 
ATOM     14  C   UNL     1      14.184  72.860  -3.243  1.00  0.00     0.004 C 
ENDBRANCH  12  13
ENDBRANCH  11  12
ENDBRANCH  10  11
ENDBRANCH   9  10
ENDBRANCH   1   9
TORSDOF 10
ENDMDL
MODEL 3
REMARK VINA RESULT:    -5.382      2.435      4.624
REMARK INTER + INTRA:         -10.127
REMARK INTER:                  -8.529
REMARK INTRA:                  -1.598
REMARK UNBOUND:                -1.599
REMARK SMILES CCCCCCCCCCCC(=O)[O-]
REMARK SMILES IDX 7 1 8 2 9 3 10 4 11 5 12 6 13 7 14 8 6 9 5 10 4 11 3 12 2 13
REMARK SMILES IDX 1 14
REMARK H PARENT
REMARK Flexibility Score: inf
ROOT
ATOM      1  C   UNL     1       9.803  71.028  -4.324  1.00  0.00     0.000 C 
ENDROOT
BRANCH   1   2
ATOM      2  C   UNL     1      10.517  71.515  -5.594  1.00  0.00     0.000 C 
BRANCH   2   3
ATOM      3  C   UNL     1      10.304  73.019  -5.802  1.00  0.00     0.000 C 
BRANCH   3   4
ATOM      4  C   UNL     1      11.647  73.755  -5.920  1.00  0.00     0.006 C 
BRANCH   4   5
ATOM      5  C   UNL     1      12.834  72.861  -5.539  1.00  0.00     0.053 C 
BRANCH   5   6
ATOM      6  C   UNL     1      13.597  73.415  -4.375  1.00  0.00     0.041 C 
ATOM      7  O   UNL     1      13.957  74.621  -4.369  1.00  0.00    -0.550 OA
ATOM      8  O   UNL     1      13.941  72.588  -3.312  1.00  0.00    -0.550 OA
ENDBRANCH   5   6
ENDBRANCH   4   5
ENDBRANCH   3   4
ENDBRANCH   2   3
ENDBRANCH   1   2
BRANCH   1   9
ATOM      9  C   UNL     1      10.591  71.342  -3.041  1.00  0.00     0.000 C 
BRANCH   9  10
ATOM     10  C   UNL     1       9.939  72.456  -2.204  1.00  0.00    -0.000 C 
BRANCH  10  11
ATOM     11  C   UNL     1      10.803  73.727  -2.139  1.00  0.00    -0.000 C 
BRANCH  11  12
ATOM     12  C   UNL     1      10.032  74.987  -2.569  1.00  0.00    -0.000 C 
BRANCH  12  13
ATOM     13  C   UNL     1       8.531  74.720  -2.766  1.00  0.00    -0.003 C 
ATOM     14  C   UNL     1       7.992  75.302  -4.073  1.00  0.00     0.004 C 
ENDBRANCH  12  13
ENDBRANCH  11  12
ENDBRANCH  10  11
ENDBRANCH   9  10
ENDBRANCH   1   9
TORSDOF 10
ENDMDL
MODEL 4
REMARK VINA RESULT:    -5.362      1.374      2.359
REMARK INTER + INTRA:         -10.095
REMARK INTER:                  -8.620
REMARK INTRA:                  -1.474
REMARK UNBOUND:                -1.599
REMARK SMILES CCCCCCCCCCCC(=O)[O-]
REMARK SMILES IDX 7 1 8 2 9 3 10 4 11 5 12 6 13 7 14 8 6 9 5 10 4 11 3 12 2 13
REMARK SMILES IDX 1 14
REMARK H PARENT
REMARK Flexibility Score: inf
ROOT
ATOM      1  C   UNL     1      10.740  71.154  -2.982  1.00  0.00     0.000 C 
ENDROOT
BRANCH   1   2
ATOM      2  C   UNL     1      10.249  72.083  -1.861  1.00  0.00     0.000 C 
BRANCH   2   3
ATOM      3  C   UNL     1       9.618  73.355  -2.439  1.00  0.00     0.000 C 
BRANCH   3   4
ATOM      4  C   UNL     1      10.361  74.609  -1.953  1.00  0.00     0.006 C 
BRANCH   4   5
ATOM      5  C   UNL     1      10.512  75.660  -3.061  1.00  0.00     0.053 C 
BRANCH   5   6
ATOM      6  C   UNL     1       9.317  76.560  -3.141  1.00  0.00     0.041 C 
ATOM      7  O   UNL     1       8.411  76.336  -3.987  1.00  0.00    -0.550 OA
ATOM      8  O   UNL     1       9.221  77.666  -2.305  1.00  0.00    -0.550 OA
ENDBRANCH   5   6
ENDBRANCH   4   5
ENDBRANCH   3   4
ENDBRANCH   2   3
ENDBRANCH   1   2
BRANCH   1   9
ATOM      9  C   UNL     1       9.793  71.133  -4.194  1.00  0.00     0.000 C 
BRANCH   9  10
ATOM     10  C   UNL     1      10.512  71.475  -5.511  1.00  0.00    -0.000 C 
BRANCH  10  11
ATOM     11  C   UNL     1      10.355  72.953  -5.902  1.00  0.00    -0.000 C 
BRANCH  11  12
ATOM     12  C   UNL     1      11.689  73.718  -5.868  1.00  0.00    -0.000 C 
BRANCH  12  13
ATOM     13  C   UNL     1      12.871  72.821  -5.464  1.00  0.00    -0.003 C 
ATOM     14  C   UNL     1      13.548  73.280  -4.172  1.00  0.00     0.004 C 
ENDBRANCH  12  13
ENDBRANCH  11  12
ENDBRANCH  10  11
ENDBRANCH   9  10
ENDBRANCH   1   9
TORSDOF 10
ENDMDL
MODEL 5
REMARK VINA RESULT:    -5.316      1.953      3.951
REMARK INTER + INTRA:         -10.023
REMARK INTER:                  -8.564
REMARK INTRA:                  -1.459
REMARK UNBOUND:                -1.599
REMARK SMILES CCCCCCCCCCCC(=O)[O-]
REMARK SMILES IDX 7 1 8 2 9 3 10 4 11 5 12 6 13 7 14 8 6 9 5 10 4 11 3 12 2 13
REMARK SMILES IDX 1 14
REMARK H PARENT
REMARK Flexibility Score: inf
ROOT
ATOM      1  C   UNL     1      10.375  73.063  -5.779  1.00  0.00     0.000 C 
ENDROOT
BRANCH   1   2
ATOM      2  C   UNL     1      11.741  73.720  -6.028  1.00  0.00     0.000 C 
BRANCH   2   3
ATOM      3  C   UNL     1      12.874  72.870  -5.441  1.00  0.00     0.000 C 
BRANCH   3   4
ATOM      4  C   UNL     1      13.457  73.522  -4.179  1.00  0.00     0.006 C 
BRANCH   4   5
ATOM      5  C   UNL     1      13.492  75.053  -4.280  1.00  0.00     0.053 C 
BRANCH   5   6
ATOM      6  C   UNL     1      12.840  75.704  -3.099  1.00  0.00     0.041 C 
ATOM      7  O   UNL     1      13.221  75.426  -1.932  1.00  0.00    -0.550 OA
ATOM      8  O   UNL     1      11.787  76.592  -3.286  1.00  0.00    -0.550 OA
ENDBRANCH   5   6
ENDBRANCH   4   5
ENDBRANCH   3   4
ENDBRANCH   2   3
ENDBRANCH   1   2
BRANCH   1   9
ATOM      9  C   UNL     1      10.468  71.535  -5.634  1.00  0.00     0.000 C 
BRANCH   9  10
ATOM     10  C   UNL     1       9.830  71.024  -4.330  1.00  0.00    -0.000 C 
BRANCH  10  11
ATOM     11  C   UNL     1      10.777  71.141  -3.125  1.00  0.00    -0.000 C 
BRANCH  11  12
ATOM     12  C   UNL     1      10.102  71.788  -1.903  1.00  0.00    -0.000 C 
BRANCH  12  13
ATOM     13  C   UNL     1      10.376  73.298  -1.811  1.00  0.00    -0.003 C 
ATOM     14  C   UNL     1       9.247  74.142  -2.403  1.00  0.00     0.004 C 
ENDBRANCH  12  13
ENDBRANCH  11  12
ENDBRANCH  10  11
ENDBRANCH   9  10
ENDBRANCH   1   9
TORSDOF 10
ENDMDL
MODEL 6
REMARK VINA RESULT:    -5.297      1.742      3.407
REMARK INTER + INTRA:          -9.992
REMARK INTER:                  -8.586
REMARK INTRA:                  -1.406
REMARK UNBOUND:                -1.599
REMARK SMILES CCCCCCCCCCCC(=O)[O-]
REMARK SMILES IDX 7 1 8 2 9 3 10 4 11 5 12 6 13 7 14 8 6 9 5 10 4 11 3 12 2 13
REMARK SMILES IDX 1 14
REMARK H PARENT
REMARK Flexibility Score: inf
ROOT
ATOM      1  C   UNL     1      12.864  72.713  -5.373  1.00  0.00     0.000 C 
ENDROOT
BRANCH   1   2
ATOM      2  C   UNL     1      13.750  73.410  -4.330  1.00  0.00     0.000 C 
BRANCH   2   3
ATOM      3  C   UNL     1      13.456  72.884  -2.920  1.00  0.00     0.000 C 
BRANCH   3   4
ATOM      4  C   UNL     1      12.963  74.012  -2.002  1.00  0.00     0.006 C 
BRANCH   4   5
ATOM      5  C   UNL     1      12.898  75.363  -2.726  1.00  0.00     0.053 C 
BRANCH   5   6
ATOM      6  C   UNL     1      11.518  75.946  -2.696  1.00  0.00     0.041 C 
ATOM      7  O   UNL     1      11.330  77.146  -3.024  1.00  0.00    -0.550 OA
ATOM      8  O   UNL     1      10.445  75.172  -2.270  1.00  0.00    -0.550 OA
ENDBRANCH   5   6
ENDBRANCH   4   5
ENDBRANCH   3   4
ENDBRANCH   2   3
ENDBRANCH   1   2
BRANCH   1   9
ATOM      9  C   UNL     1      11.791  73.645  -5.960  1.00  0.00     0.000 C 
BRANCH   9  10
ATOM     10  C   UNL     1      10.396  73.391  -5.361  1.00  0.00    -0.000 C 
BRANCH  10  11
ATOM     11  C   UNL     1       9.847  71.999  -5.713  1.00  0.00    -0.000 C 
BRANCH  11  12
ATOM     12  C   UNL     1       9.928  71.016  -4.532  1.00  0.00    -0.000 C 
BRANCH  12  13
ATOM     13  C   UNL     1      10.021  71.733  -3.176  1.00  0.00    -0.003 C 
ATOM     14  C   UNL     1      10.463  70.806  -2.044  1.00  0.00     0.004 C 
ENDBRANCH  12  13
ENDBRANCH  11  12
ENDBRANCH  10  11
ENDBRANCH   9  10
ENDBRANCH   1   9
TORSDOF 10
ENDMDL
MODEL 7
REMARK VINA RESULT:    -5.246      1.357      2.420
REMARK INTER + INTRA:          -9.911
REMARK INTER:                  -8.616
REMARK INTRA:                  -1.295
REMARK UNBOUND:                -1.599
REMARK SMILES CCCCCCCCCCCC(=O)[O-]
REMARK SMILES IDX 7 1 8 2 9 3 10 4 11 5 12 6 13 7 14 8 6 9 5 10 4 11 3 12 2 13
REMARK SMILES IDX 1 14
REMARK H PARENT
REMARK Flexibility Score: inf
ROOT
ATOM      1  C   UNL     1       8.972  72.485  -5.943  1.00  0.00     0.000 C 
ENDROOT
BRANCH   1   2
ATOM      2  C   UNL     1       9.342  73.966  -5.772  1.00  0.00     0.000 C 
BRANCH   2   3
ATOM      3  C   UNL     1       8.599  74.584  -4.582  1.00  0.00     0.000 C 
BRANCH   3   4
ATOM      4  C   UNL     1       9.549  74.813  -3.397  1.00  0.00     0.006 C 
BRANCH   4   5
ATOM      5  C   UNL     1       9.057  74.126  -2.117  1.00  0.00     0.053 C 
BRANCH   5   6
ATOM      6  C   UNL     1       8.174  75.024  -1.306  1.00  0.00     0.041 C 
ATOM      7  O   UNL     1       8.637  76.081  -0.803  1.00  0.00    -0.550 OA
ATOM      8  O   UNL     1       6.848  74.675  -1.077  1.00  0.00    -0.550 OA
ENDBRANCH   5   6
ENDBRANCH   4   5
ENDBRANCH   3   4
ENDBRANCH   2   3
ENDBRANCH   1   2
BRANCH   1   9
ATOM      9  C   UNL     1      10.144  71.539  -5.631  1.00  0.00     0.000 C 
BRANCH   9  10
ATOM     10  C   UNL     1      10.211  71.150  -4.143  1.00  0.00    -0.000 C 
BRANCH  10  11
ATOM     11  C   UNL     1      11.489  71.659  -3.457  1.00  0.00    -0.000 C 
BRANCH  11  12
ATOM     12  C   UNL     1      12.404  72.439  -4.417  1.00  0.00    -0.000 C 
BRANCH  12  13
ATOM     13  C   UNL     1      13.542  73.167  -3.683  1.00  0.00    -0.003 C 
ATOM     14  C   UNL     1      13.834  72.572  -2.305  1.00  0.00     0.004 C 
ENDBRANCH  12  13
ENDBRANCH  11  12
ENDBRANCH  10  11
ENDBRANCH   9  10
ENDBRANCH   1   9
TORSDOF 10
ENDMDL
MODEL 8
REMARK VINA RESULT:    -5.178      2.415      3.672
REMARK INTER + INTRA:          -9.804
REMARK INTER:                  -8.296
REMARK INTRA:                  -1.508
REMARK UNBOUND:                -1.599
REMARK SMILES CCCCCCCCCCCC(=O)[O-]
REMARK SMILES IDX 7 1 8 2 9 3 10 4 11 5 12 6 13 7 14 8 6 9 5 10 4 11 3 12 2 13
REMARK SMILES IDX 1 14
REMARK H PARENT
REMARK Flexibility Score: inf
ROOT
ATOM      1  C   UNL     1      10.385  71.417  -5.262  1.00  0.00     0.000 C 
ENDROOT
BRANCH   1   2
ATOM      2  C   UNL     1      10.047  71.096  -3.799  1.00  0.00     0.000 C 
BRANCH   2   3
ATOM      3  C   UNL     1      11.217  71.455  -2.874  1.00  0.00     0.000 C 
BRANCH   3   4
ATOM      4  C   UNL     1      12.349  72.138  -3.656  1.00  0.00     0.006 C 
BRANCH   4   5
ATOM      5  C   UNL     1      13.334  72.867  -2.732  1.00  0.00     0.053 C 
BRANCH   5   6
ATOM      6  C   UNL     1      13.619  74.258  -3.209  1.00  0.00     0.041 C 
ATOM      7  O   UNL     1      13.128  75.248  -2.606  1.00  0.00    -0.550 OA
ATOM      8  O   UNL     1      14.399  74.459  -4.341  1.00  0.00    -0.550 OA
ENDBRANCH   5   6
ENDBRANCH   4   5
ENDBRANCH   3   4
ENDBRANCH   2   3
ENDBRANCH   1   2
BRANCH   1   9
ATOM      9  C   UNL     1       9.266  72.197  -5.973  1.00  0.00     0.000 C 
BRANCH   9  10
ATOM     10  C   UNL     1       9.520  73.715  -5.985  1.00  0.00    -0.000 C 
BRANCH  10  11
ATOM     11  C   UNL     1       8.731  74.453  -4.892  1.00  0.00    -0.000 C 
BRANCH  11  12
ATOM     12  C   UNL     1       9.604  74.816  -3.677  1.00  0.00    -0.000 C 
BRANCH  12  13
ATOM     13  C   UNL     1       8.967  74.384  -2.346  1.00  0.00    -0.003 C 
ATOM     14  C   UNL     1       9.938  74.470  -1.169  1.00  0.00     0.004 C 
ENDBRANCH  12  13
ENDBRANCH  11  12
ENDBRANCH  10  11
ENDBRANCH   9  10
ENDBRANCH   1   9
TORSDOF 10
ENDMDL
MODEL 9
REMARK VINA RESULT:    -5.138      1.251      2.628
REMARK INTER + INTRA:          -9.740
REMARK INTER:                  -8.196
REMARK INTRA:                  -1.544
REMARK UNBOUND:                -1.599
REMARK SMILES CCCCCCCCCCCC(=O)[O-]
REMARK SMILES IDX 7 1 8 2 9 3 10 4 11 5 12 6 13 7 14 8 6 9 5 10 4 11 3 12 2 13
REMARK SMILES IDX 1 14
REMARK H PARENT
REMARK Flexibility Score: inf
ROOT
ATOM      1  C   UNL     1      10.527  71.473  -5.120  1.00  0.00     0.000 C 
ENDROOT
BRANCH   1   2
ATOM      2  C   UNL     1       9.355  72.097  -5.892  1.00  0.00     0.000 C 
BRANCH   2   3
ATOM      3  C   UNL     1       9.505  73.620  -5.981  1.00  0.00     0.000 C 
BRANCH   3   4
ATOM      4  C   UNL     1       8.728  74.318  -4.855  1.00  0.00     0.006 C 
BRANCH   4   5
ATOM      5  C   UNL     1       9.658  75.011  -3.851  1.00  0.00     0.053 C 
BRANCH   5   6
ATOM      6  C   UNL     1       9.065  75.050  -2.476  1.00  0.00     0.041 C 
ATOM      7  O   UNL     1       8.784  76.153  -1.938  1.00  0.00    -0.550 OA
ATOM      8  O   UNL     1       8.856  73.868  -1.775  1.00  0.00    -0.550 OA
ENDBRANCH   5   6
ENDBRANCH   4   5
ENDBRANCH   3   4
ENDBRANCH   2   3
ENDBRANCH   1   2
BRANCH   1   9
ATOM      9  C   UNL     1      10.145  71.063  -3.688  1.00  0.00     0.000 C 
BRANCH   9  10
ATOM     10  C   UNL     1      11.223  71.439  -2.656  1.00  0.00    -0.000 C 
BRANCH  10  11
ATOM     11  C   UNL     1      12.428  72.148  -3.296  1.00  0.00    -0.000 C 
BRANCH  11  12
ATOM     12  C   UNL     1      12.796  73.456  -2.573  1.00  0.00    -0.000 C 
BRANCH  12  13
ATOM     13  C   UNL     1      13.402  74.502  -3.523  1.00  0.00    -0.003 C 
ATOM     14  C   UNL     1      13.080  74.227  -4.991  1.00  0.00     0.004 C 
ENDBRANCH  12  13
ENDBRANCH  11  12
ENDBRANCH  10  11
ENDBRANCH   9  10
ENDBRANCH   1   9
TORSDOF 10
ENDMDL
