MODEL 1
REMARK VINA RESULT:    18.259      0.000      0.000
REMARK INTER + INTRA:          34.494
REMARK INTER:                  35.338
REMARK INTRA:                  -0.843
REMARK UNBOUND:                -0.843
REMARK SMILES CCCCCCCCCCCCCCCCCC(=O)[O-]
REMARK SMILES IDX 10 1 11 2 12 3 13 4 14 5 15 6 16 7 17 8 18 9 19 10 20 11
REMARK SMILES IDX 9 12 8 13 7 14 6 15 5 16 4 17 3 18 2 19 1 20
REMARK H PARENT
REMARK Flexibility Score: inf
ROOT
ATOM      1  C   UNL     1     -17.865  -7.810 -28.776  1.00  0.00     0.000 C 
ENDROOT
BRANCH   1   2
ATOM      2  C   UNL     1     -18.851  -7.275 -27.725  1.00  0.00     0.000 C 
BRANCH   2   3
ATOM      3  C   UNL     1     -18.168  -6.351 -26.693  1.00  0.00     0.000 C 
BRANCH   3   4
ATOM      4  C   UNL     1     -16.629  -6.380 -26.762  1.00  0.00     0.000 C 
BRANCH   4   5
ATOM      5  C   UNL     1     -15.919  -6.071 -25.431  1.00  0.00     0.000 C 
BRANCH   5   6
ATOM      6  C   UNL     1     -16.856  -5.728 -24.253  1.00  0.00     0.000 C 
BRANCH   6   7
ATOM      7  C   UNL     1     -16.720  -6.640 -23.021  1.00  0.00     0.006 C 
BRANCH   7   8
ATOM      8  C   UNL     1     -17.824  -6.410 -21.982  1.00  0.00     0.053 C 
BRANCH   8   9
ATOM      9  C   UNL     1     -17.421  -5.337 -21.021  1.00  0.00     0.041 C 
ATOM     10  O   UNL     1     -17.421  -4.131 -21.382  1.00  0.00    -0.550 OA
ATOM     11  O   UNL     1     -17.094  -5.664 -19.711  1.00  0.00    -0.550 OA
ENDBRANCH   8   9
ENDBRANCH   7   8
ENDBRANCH   6   7
ENDBRANCH   5   6
ENDBRANCH   4   5
ENDBRANCH   3   4
ENDBRANCH   2   3
ENDBRANCH   1   2
BRANCH   1  12
ATOM     12  C   UNL     1     -18.518  -8.803 -29.750  1.00  0.00     0.000 C 
BRANCH  12  13
ATOM     13  C   UNL     1     -17.749  -8.929 -31.077  1.00  0.00    -0.000 C 
BRANCH  13  14
ATOM     14  C   UNL     1     -17.342 -10.377 -31.387  1.00  0.00    -0.000 C 
BRANCH  14  15
ATOM     15  C   UNL     1     -18.098 -11.401 -30.520  1.00  0.00    -0.000 C 
BRANCH  15  16
ATOM     16  C   UNL     1     -17.301 -11.822 -29.275  1.00  0.00    -0.000 C 
BRANCH  16  17
ATOM     17  C   UNL     1     -15.784 -11.648 -29.458  1.00  0.00    -0.000 C 
BRANCH  17  18
ATOM     18  C   UNL     1     -15.286 -10.287 -28.928  1.00  0.00    -0.000 C 
BRANCH  18  19
ATOM     19  C   UNL     1     -13.808 -10.004 -29.250  1.00  0.00    -0.003 C 
ATOM     20  C   UNL     1     -13.393 -10.491 -30.636  1.00  0.00     0.004 C 
ENDBRANCH  18  19
ENDBRANCH  17  18
ENDBRANCH  16  17
ENDBRANCH  15  16
ENDBRANCH  14  15
ENDBRANCH  13  14
ENDBRANCH  12  13
ENDBRANCH   1  12
TORSDOF 16
ENDMDL
MODEL 2
REMARK VINA RESULT:    18.305      3.488      7.981
REMARK INTER + INTRA:          34.583
REMARK INTER:                  33.573
REMARK INTRA:                   1.010
REMARK UNBOUND:                -0.843
REMARK SMILES CCCCCCCCCCCCCCCCCC(=O)[O-]
REMARK SMILES IDX 10 1 11 2 12 3 13 4 14 5 15 6 16 7 17 8 18 9 19 10 20 11
REMARK SMILES IDX 9 12 8 13 7 14 6 15 5 16 4 17 3 18 2 19 1 20
REMARK H PARENT
REMARK Flexibility Score: inf
ROOT
ATOM      1  C   UNL     1     -17.958  -7.635 -28.859  1.00  0.00     0.000 C 
ENDROOT
BRANCH   1   2
ATOM      2  C   UNL     1     -18.521  -8.830 -29.646  1.00  0.00     0.000 C 
BRANCH   2   3
ATOM      3  C   UNL     1     -17.851  -8.991 -31.029  1.00  0.00     0.000 C 
BRANCH   3   4
ATOM      4  C   UNL     1     -17.472 -10.446 -31.365  1.00  0.00     0.000 C 
BRANCH   4   5
ATOM      5  C   UNL     1     -18.226 -11.513 -30.550  1.00  0.00     0.000 C 
BRANCH   5   6
ATOM      6  C   UNL     1     -17.513 -11.979 -29.263  1.00  0.00     0.000 C 
BRANCH   6   7
ATOM      7  C   UNL     1     -15.988 -11.770 -29.247  1.00  0.00     0.006 C 
BRANCH   7   8
ATOM      8  C   UNL     1     -15.573 -10.359 -29.684  1.00  0.00     0.053 C 
BRANCH   8   9
ATOM      9  C   UNL     1     -14.095 -10.182 -29.538  1.00  0.00     0.041 C 
ATOM     10  O   UNL     1     -13.623  -9.606 -28.523  1.00  0.00    -0.550 OA
ATOM     11  O   UNL     1     -13.234 -10.699 -30.499  1.00  0.00    -0.550 OA
ENDBRANCH   8   9
ENDBRANCH   7   8
ENDBRANCH   6   7
ENDBRANCH   5   6
ENDBRANCH   4   5
ENDBRANCH   3   4
ENDBRANCH   2   3
ENDBRANCH   1   2
BRANCH   1  12
ATOM     12  C   UNL     1     -18.918  -7.141 -27.765  1.00  0.00     0.000 C 
BRANCH  12  13
ATOM     13  C   UNL     1     -18.206  -6.325 -26.672  1.00  0.00    -0.000 C 
BRANCH  13  14
ATOM     14  C   UNL     1     -16.676  -6.420 -26.770  1.00  0.00    -0.000 C 
BRANCH  14  15
ATOM     15  C   UNL     1     -15.967  -5.791 -25.556  1.00  0.00    -0.000 C 
BRANCH  15  16
ATOM     16  C   UNL     1     -16.876  -5.707 -24.320  1.00  0.00    -0.000 C 
BRANCH  16  17
ATOM     17  C   UNL     1     -16.686  -6.897 -23.364  1.00  0.00    -0.000 C 
BRANCH  17  18
ATOM     18  C   UNL     1     -16.490  -6.444 -21.902  1.00  0.00    -0.000 C 
BRANCH  18  19
ATOM     19  C   UNL     1     -17.241  -5.147 -21.553  1.00  0.00    -0.003 C 
ATOM     20  C   UNL     1     -17.703  -5.097 -20.098  1.00  0.00     0.004 C 
ENDBRANCH  18  19
ENDBRANCH  17  18
ENDBRANCH  16  17
ENDBRANCH  15  16
ENDBRANCH  14  15
ENDBRANCH  13  14
ENDBRANCH  12  13
ENDBRANCH   1  12
TORSDOF 16
ENDMDL
