MODEL 1
REMARK VINA RESULT:    -3.805      0.000      0.000
REMARK INTER + INTRA:          -7.845
REMARK INTER:                  -6.474
REMARK INTRA:                  -1.371
REMARK UNBOUND:                -1.371
REMARK SMILES CCCCCCCCCCCCCC(=O)[O-]
REMARK SMILES IDX 8 1 9 2 10 3 11 4 12 5 13 6 14 7 15 8 16 9 7 10 6 11 5 12
REMARK SMILES IDX 4 13 3 14 2 15 1 16
REMARK H PARENT
REMARK Flexibility Score: inf
ROOT
ATOM      1  C   UNL     1      39.612  24.552 224.573  1.00  0.00     0.000 C 
ENDROOT
BRANCH   1   2
ATOM      2  C   UNL     1      38.820  25.868 224.609  1.00  0.00     0.000 C 
BRANCH   2   3
ATOM      3  C   UNL     1      37.297  25.650 224.623  1.00  0.00     0.000 C 
BRANCH   3   4
ATOM      4  C   UNL     1      36.665  25.360 223.245  1.00  0.00     0.000 C 
BRANCH   4   5
ATOM      5  C   UNL     1      35.942  24.007 223.131  1.00  0.00     0.006 C 
BRANCH   5   6
ATOM      6  C   UNL     1      35.301  23.788 221.755  1.00  0.00     0.053 C 
BRANCH   6   7
ATOM      7  C   UNL     1      36.304  24.014 220.670  1.00  0.00     0.041 C 
ATOM      8  O   UNL     1      36.051  24.812 219.729  1.00  0.00    -0.550 OA
ATOM      9  O   UNL     1      37.499  23.306 220.669  1.00  0.00    -0.550 OA
ENDBRANCH   6   7
ENDBRANCH   5   6
ENDBRANCH   4   5
ENDBRANCH   3   4
ENDBRANCH   2   3
ENDBRANCH   1   2
BRANCH   1  10
ATOM     10  C   UNL     1      40.099  24.243 223.154  1.00  0.00     0.000 C 
BRANCH  10  11
ATOM     11  C   UNL     1      40.955  22.971 223.130  1.00  0.00    -0.000 C 
BRANCH  11  12
ATOM     12  C   UNL     1      41.809  22.857 224.400  1.00  0.00    -0.000 C 
BRANCH  12  13
ATOM     13  C   UNL     1      41.661  21.468 225.039  1.00  0.00    -0.000 C 
BRANCH  13  14
ATOM     14  C   UNL     1      40.339  20.774 224.665  1.00  0.00    -0.000 C 
BRANCH  14  15
ATOM     15  C   UNL     1      39.219  20.908 225.713  1.00  0.00    -0.003 C 
ATOM     16  C   UNL     1      37.930  21.496 225.140  1.00  0.00     0.004 C 
ENDBRANCH  14  15
ENDBRANCH  13  14
ENDBRANCH  12  13
ENDBRANCH  11  12
ENDBRANCH  10  11
ENDBRANCH   1  10
TORSDOF 12
ENDMDL
MODEL 2
REMARK VINA RESULT:    -3.729      3.108      6.067
REMARK INTER + INTRA:          -7.716
REMARK INTER:                  -6.490
REMARK INTRA:                  -1.225
REMARK UNBOUND:                -1.371
REMARK SMILES CCCCCCCCCCCCCC(=O)[O-]
REMARK SMILES IDX 8 1 9 2 10 3 11 4 12 5 13 6 14 7 15 8 16 9 7 10 6 11 5 12
REMARK SMILES IDX 4 13 3 14 2 15 1 16
REMARK H PARENT
REMARK Flexibility Score: inf
ROOT
ATOM      1  C   UNL     1      39.566  24.397 223.661  1.00  0.00     0.000 C 
ENDROOT
BRANCH   1   2
ATOM      2  C   UNL     1      40.965  23.856 223.330  1.00  0.00     0.000 C 
BRANCH   2   3
ATOM      3  C   UNL     1      40.935  22.424 222.767  1.00  0.00     0.000 C 
BRANCH   3   4
ATOM      4  C   UNL     1      42.168  21.561 223.110  1.00  0.00     0.000 C 
BRANCH   4   5
ATOM      5  C   UNL     1      41.867  20.287 223.919  1.00  0.00     0.006 C 
BRANCH   5   6
ATOM      6  C   UNL     1      40.529  20.356 224.665  1.00  0.00     0.053 C 
BRANCH   6   7
ATOM      7  C   UNL     1      40.220  19.040 225.304  1.00  0.00     0.041 C 
ATOM      8  O   UNL     1      39.024  18.697 225.503  1.00  0.00    -0.550 OA
ATOM      9  O   UNL     1      41.252  18.213 225.728  1.00  0.00    -0.550 OA
ENDBRANCH   6   7
ENDBRANCH   5   6
ENDBRANCH   4   5
ENDBRANCH   3   4
ENDBRANCH   2   3
ENDBRANCH   1   2
BRANCH   1  10
ATOM     10  C   UNL     1      39.048  23.812 224.980  1.00  0.00     0.000 C 
BRANCH  10  11
ATOM     11  C   UNL     1      37.618  23.284 224.824  1.00  0.00    -0.000 C 
BRANCH  11  12
ATOM     12  C   UNL     1      37.283  23.026 223.350  1.00  0.00    -0.000 C 
BRANCH  12  13
ATOM     13  C   UNL     1      36.015  23.786 222.932  1.00  0.00    -0.000 C 
BRANCH  13  14
ATOM     14  C   UNL     1      36.034  24.215 221.454  1.00  0.00    -0.000 C 
BRANCH  14  15
ATOM     15  C   UNL     1      37.132  23.552 220.602  1.00  0.00    -0.003 C 
ATOM     16  C   UNL     1      36.813  23.556 219.107  1.00  0.00     0.004 C 
ENDBRANCH  14  15
ENDBRANCH  13  14
ENDBRANCH  12  13
ENDBRANCH  11  12
ENDBRANCH  10  11
ENDBRANCH   1  10
TORSDOF 12
ENDMDL
MODEL 3
REMARK VINA RESULT:    -3.641      1.454      2.689
REMARK INTER + INTRA:          -7.567
REMARK INTER:                  -6.020
REMARK INTRA:                  -1.547
REMARK UNBOUND:                -1.371
REMARK SMILES CCCCCCCCCCCCCC(=O)[O-]
REMARK SMILES IDX 8 1 9 2 10 3 11 4 12 5 13 6 14 7 15 8 16 9 7 10 6 11 5 12
REMARK SMILES IDX 4 13 3 14 2 15 1 16
REMARK H PARENT
REMARK Flexibility Score: inf
ROOT
ATOM      1  C   UNL     1      41.061  23.209 223.462  1.00  0.00     0.000 C 
ENDROOT
BRANCH   1   2
ATOM      2  C   UNL     1      40.231  24.400 222.959  1.00  0.00     0.000 C 
BRANCH   2   3
ATOM      3  C   UNL     1      39.237  24.924 224.011  1.00  0.00     0.000 C 
BRANCH   3   4
ATOM      4  C   UNL     1      37.748  24.753 223.647  1.00  0.00     0.000 C 
BRANCH   4   5
ATOM      5  C   UNL     1      37.293  23.299 223.427  1.00  0.00     0.006 C 
BRANCH   5   6
ATOM      6  C   UNL     1      36.259  23.161 222.304  1.00  0.00     0.053 C 
BRANCH   6   7
ATOM      7  C   UNL     1      36.801  23.713 221.024  1.00  0.00     0.041 C 
ATOM      8  O   UNL     1      37.890  23.284 220.559  1.00  0.00    -0.550 OA
ATOM      9  O   UNL     1      36.129  24.739 220.370  1.00  0.00    -0.550 OA
ENDBRANCH   6   7
ENDBRANCH   5   6
ENDBRANCH   4   5
ENDBRANCH   3   4
ENDBRANCH   2   3
ENDBRANCH   1   2
BRANCH   1  10
ATOM     10  C   UNL     1      41.378  23.351 224.955  1.00  0.00     0.000 C 
BRANCH  10  11
ATOM     11  C   UNL     1      40.835  22.157 225.749  1.00  0.00    -0.000 C 
BRANCH  11  12
ATOM     12  C   UNL     1      40.073  21.188 224.835  1.00  0.00    -0.000 C 
BRANCH  12  13
ATOM     13  C   UNL     1      40.642  19.766 224.947  1.00  0.00    -0.000 C 
BRANCH  13  14
ATOM     14  C   UNL     1      42.034  19.626 224.304  1.00  0.00    -0.000 C 
BRANCH  14  15
ATOM     15  C   UNL     1      42.056  19.765 222.772  1.00  0.00    -0.003 C 
ATOM     16  C   UNL     1      43.214  20.625 222.266  1.00  0.00     0.004 C 
ENDBRANCH  14  15
ENDBRANCH  13  14
ENDBRANCH  12  13
ENDBRANCH  11  12
ENDBRANCH  10  11
ENDBRANCH   1  10
TORSDOF 12
ENDMDL
MODEL 4
REMARK VINA RESULT:    -3.606      1.911      3.641
REMARK INTER + INTRA:          -7.507
REMARK INTER:                  -5.830
REMARK INTRA:                  -1.677
REMARK UNBOUND:                -1.371
REMARK SMILES CCCCCCCCCCCCCC(=O)[O-]
REMARK SMILES IDX 8 1 9 2 10 3 11 4 12 5 13 6 14 7 15 8 16 9 7 10 6 11 5 12
REMARK SMILES IDX 4 13 3 14 2 15 1 16
REMARK H PARENT
REMARK Flexibility Score: inf
ROOT
ATOM      1  C   UNL     1      41.399  23.011 224.220  1.00  0.00     0.000 C 
ENDROOT
BRANCH   1   2
ATOM      2  C   UNL     1      40.494  23.201 222.993  1.00  0.00     0.000 C 
BRANCH   2   3
ATOM      3  C   UNL     1      39.181  23.931 223.325  1.00  0.00     0.000 C 
BRANCH   3   4
ATOM      4  C   UNL     1      38.208  23.148 224.232  1.00  0.00     0.000 C 
BRANCH   4   5
ATOM      5  C   UNL     1      36.876  22.751 223.570  1.00  0.00     0.006 C 
BRANCH   5   6
ATOM      6  C   UNL     1      35.982  23.957 223.259  1.00  0.00     0.053 C 
BRANCH   6   7
ATOM      7  C   UNL     1      35.522  23.913 221.837  1.00  0.00     0.041 C 
ATOM      8  O   UNL     1      36.358  23.978 220.897  1.00  0.00    -0.550 OA
ATOM      9  O   UNL     1      34.165  23.850 221.547  1.00  0.00    -0.550 OA
ENDBRANCH   6   7
ENDBRANCH   5   6
ENDBRANCH   4   5
ENDBRANCH   3   4
ENDBRANCH   2   3
ENDBRANCH   1   2
BRANCH   1  10
ATOM     10  C   UNL     1      41.819  24.363 224.807  1.00  0.00     0.000 C 
BRANCH  10  11
ATOM     11  C   UNL     1      41.954  24.282 226.332  1.00  0.00    -0.000 C 
BRANCH  11  12
ATOM     12  C   UNL     1      40.644  23.813 226.977  1.00  0.00    -0.000 C 
BRANCH  12  13
ATOM     13  C   UNL     1      39.935  24.974 227.691  1.00  0.00    -0.000 C 
BRANCH  13  14
ATOM     14  C   UNL     1      38.722  25.507 226.908  1.00  0.00    -0.000 C 
BRANCH  14  15
ATOM     15  C   UNL     1      39.045  26.615 225.890  1.00  0.00    -0.003 C 
ATOM     16  C   UNL     1      40.154  27.555 226.362  1.00  0.00     0.004 C 
ENDBRANCH  14  15
ENDBRANCH  13  14
ENDBRANCH  12  13
ENDBRANCH  11  12
ENDBRANCH  10  11
ENDBRANCH   1  10
TORSDOF 12
ENDMDL
MODEL 5
REMARK VINA RESULT:    -3.580      2.448      5.348
REMARK INTER + INTRA:          -7.462
REMARK INTER:                  -6.110
REMARK INTRA:                  -1.352
REMARK UNBOUND:                -1.371
REMARK SMILES CCCCCCCCCCCCCC(=O)[O-]
REMARK SMILES IDX 8 1 9 2 10 3 11 4 12 5 13 6 14 7 15 8 16 9 7 10 6 11 5 12
REMARK SMILES IDX 4 13 3 14 2 15 1 16
REMARK H PARENT
REMARK Flexibility Score: inf
ROOT
ATOM      1  C   UNL     1      38.987  26.347 225.256  1.00  0.00     0.000 C 
ENDROOT
BRANCH   1   2
ATOM      2  C   UNL     1      38.718  25.969 226.720  1.00  0.00     0.000 C 
BRANCH   2   3
ATOM      3  C   UNL     1      39.657  24.864 227.236  1.00  0.00     0.000 C 
BRANCH   3   4
ATOM      4  C   UNL     1      39.237  23.425 226.871  1.00  0.00     0.000 C 
BRANCH   4   5
ATOM      5  C   UNL     1      40.396  22.478 226.513  1.00  0.00     0.006 C 
BRANCH   5   6
ATOM      6  C   UNL     1      40.387  22.055 225.039  1.00  0.00     0.053 C 
BRANCH   6   7
ATOM      7  C   UNL     1      41.378  22.860 224.260  1.00  0.00     0.041 C 
ATOM      8  O   UNL     1      42.140  23.671 224.849  1.00  0.00    -0.550 OA
ATOM      9  O   UNL     1      41.425  22.753 222.875  1.00  0.00    -0.550 OA
ENDBRANCH   6   7
ENDBRANCH   5   6
ENDBRANCH   4   5
ENDBRANCH   3   4
ENDBRANCH   2   3
ENDBRANCH   1   2
BRANCH   1  10
ATOM     10  C   UNL     1      37.818  25.931 224.356  1.00  0.00     0.000 C 
BRANCH  10  11
ATOM     11  C   UNL     1      38.154  24.659 223.569  1.00  0.00    -0.000 C 
BRANCH  11  12
ATOM     12  C   UNL     1      37.004  23.647 223.640  1.00  0.00    -0.000 C 
BRANCH  12  13
ATOM     13  C   UNL     1      36.588  23.189 222.233  1.00  0.00    -0.000 C 
BRANCH  13  14
ATOM     14  C   UNL     1      35.861  24.288 221.437  1.00  0.00    -0.000 C 
BRANCH  14  15
ATOM     15  C   UNL     1      36.085  24.239 219.915  1.00  0.00    -0.003 C 
ATOM     16  C   UNL     1      37.220  23.299 219.507  1.00  0.00     0.004 C 
ENDBRANCH  14  15
ENDBRANCH  13  14
ENDBRANCH  12  13
ENDBRANCH  11  12
ENDBRANCH  10  11
ENDBRANCH   1  10
TORSDOF 12
ENDMDL
MODEL 6
REMARK VINA RESULT:    -3.544      3.040      5.506
REMARK INTER + INTRA:          -7.401
REMARK INTER:                  -5.897
REMARK INTRA:                  -1.504
REMARK UNBOUND:                -1.371
REMARK SMILES CCCCCCCCCCCCCC(=O)[O-]
REMARK SMILES IDX 8 1 9 2 10 3 11 4 12 5 13 6 14 7 15 8 16 9 7 10 6 11 5 12
REMARK SMILES IDX 4 13 3 14 2 15 1 16
REMARK H PARENT
REMARK Flexibility Score: inf
ROOT
ATOM      1  C   UNL     1      41.637  23.921 224.721  1.00  0.00     0.000 C 
ENDROOT
BRANCH   1   2
ATOM      2  C   UNL     1      41.737  22.971 225.924  1.00  0.00     0.000 C 
BRANCH   2   3
ATOM      3  C   UNL     1      41.005  21.636 225.695  1.00  0.00     0.000 C 
BRANCH   3   4
ATOM      4  C   UNL     1      39.594  21.549 226.313  1.00  0.00     0.000 C 
BRANCH   4   5
ATOM      5  C   UNL     1      38.617  20.615 225.578  1.00  0.00     0.006 C 
BRANCH   5   6
ATOM      6  C   UNL     1      38.953  19.131 225.769  1.00  0.00     0.053 C 
BRANCH   6   7
ATOM      7  C   UNL     1      37.722  18.358 226.119  1.00  0.00     0.041 C 
ATOM      8  O   UNL     1      36.720  18.381 225.356  1.00  0.00    -0.550 OA
ATOM      9  O   UNL     1      37.661  17.651 227.314  1.00  0.00    -0.550 OA
ENDBRANCH   6   7
ENDBRANCH   5   6
ENDBRANCH   4   5
ENDBRANCH   3   4
ENDBRANCH   2   3
ENDBRANCH   1   2
BRANCH   1  10
ATOM     10  C   UNL     1      41.251  23.159 223.449  1.00  0.00     0.000 C 
BRANCH  10  11
ATOM     11  C   UNL     1      39.954  23.712 222.848  1.00  0.00    -0.000 C 
BRANCH  11  12
ATOM     12  C   UNL     1      39.276  24.696 223.810  1.00  0.00    -0.000 C 
BRANCH  12  13
ATOM     13  C   UNL     1      37.919  24.153 224.285  1.00  0.00    -0.000 C 
BRANCH  13  14
ATOM     14  C   UNL     1      37.241  23.244 223.245  1.00  0.00    -0.000 C 
BRANCH  14  15
ATOM     15  C   UNL     1      36.083  23.898 222.471  1.00  0.00    -0.003 C 
ATOM     16  C   UNL     1      36.334  23.970 220.965  1.00  0.00     0.004 C 
ENDBRANCH  14  15
ENDBRANCH  13  14
ENDBRANCH  12  13
ENDBRANCH  11  12
ENDBRANCH  10  11
ENDBRANCH   1  10
TORSDOF 12
ENDMDL
MODEL 7
REMARK VINA RESULT:    -3.540      3.184      4.887
REMARK INTER + INTRA:          -7.395
REMARK INTER:                  -5.670
REMARK INTRA:                  -1.725
REMARK UNBOUND:                -1.371
REMARK SMILES CCCCCCCCCCCCCC(=O)[O-]
REMARK SMILES IDX 8 1 9 2 10 3 11 4 12 5 13 6 14 7 15 8 16 9 7 10 6 11 5 12
REMARK SMILES IDX 4 13 3 14 2 15 1 16
REMARK H PARENT
REMARK Flexibility Score: inf
ROOT
ATOM      1  C   UNL     1      36.768  25.572 224.819  1.00  0.00     0.000 C 
ENDROOT
BRANCH   1   2
ATOM      2  C   UNL     1      36.256  24.632 223.717  1.00  0.00     0.000 C 
BRANCH   2   3
ATOM      3  C   UNL     1      37.272  23.538 223.344  1.00  0.00     0.000 C 
BRANCH   3   4
ATOM      4  C   UNL     1      37.088  22.196 224.083  1.00  0.00     0.000 C 
BRANCH   4   5
ATOM      5  C   UNL     1      37.933  22.033 225.359  1.00  0.00     0.006 C 
BRANCH   5   6
ATOM      6  C   UNL     1      38.345  20.579 225.621  1.00  0.00     0.053 C 
BRANCH   6   7
ATOM      7  C   UNL     1      37.556  20.010 226.757  1.00  0.00     0.041 C 
ATOM      8  O   UNL     1      37.961  20.149 227.942  1.00  0.00    -0.550 OA
ATOM      9  O   UNL     1      36.401  19.282 226.505  1.00  0.00    -0.550 OA
ENDBRANCH   6   7
ENDBRANCH   5   6
ENDBRANCH   4   5
ENDBRANCH   3   4
ENDBRANCH   2   3
ENDBRANCH   1   2
BRANCH   1  10
ATOM     10  C   UNL     1      38.192  26.051 224.515  1.00  0.00     0.000 C 
BRANCH  10  11
ATOM     11  C   UNL     1      38.982  26.284 225.808  1.00  0.00    -0.000 C 
BRANCH  11  12
ATOM     12  C   UNL     1      39.810  25.047 226.179  1.00  0.00    -0.000 C 
BRANCH  12  13
ATOM     13  C   UNL     1      41.233  25.147 225.609  1.00  0.00    -0.000 C 
BRANCH  13  14
ATOM     14  C   UNL     1      41.617  23.936 224.740  1.00  0.00    -0.000 C 
BRANCH  14  15
ATOM     15  C   UNL     1      40.974  23.914 223.342  1.00  0.00    -0.003 C 
ATOM     16  C   UNL     1      40.785  22.500 222.793  1.00  0.00     0.004 C 
ENDBRANCH  14  15
ENDBRANCH  13  14
ENDBRANCH  12  13
ENDBRANCH  11  12
ENDBRANCH  10  11
ENDBRANCH   1  10
TORSDOF 12
ENDMDL
MODEL 8
REMARK VINA RESULT:    -3.515      1.300      2.233
REMARK INTER + INTRA:          -7.352
REMARK INTER:                  -6.203
REMARK INTRA:                  -1.150
REMARK UNBOUND:                -1.371
REMARK SMILES CCCCCCCCCCCCCC(=O)[O-]
REMARK SMILES IDX 8 1 9 2 10 3 11 4 12 5 13 6 14 7 15 8 16 9 7 10 6 11 5 12
REMARK SMILES IDX 4 13 3 14 2 15 1 16
REMARK H PARENT
REMARK Flexibility Score: inf
ROOT
ATOM      1  C   UNL     1      41.075  23.592 223.414  1.00  0.00     0.000 C 
ENDROOT
BRANCH   1   2
ATOM      2  C   UNL     1      39.757  23.625 222.627  1.00  0.00     0.000 C 
BRANCH   2   3
ATOM      3  C   UNL     1      38.599  24.250 223.425  1.00  0.00     0.000 C 
BRANCH   3   4
ATOM      4  C   UNL     1      37.464  23.276 223.804  1.00  0.00     0.000 C 
BRANCH   4   5
ATOM      5  C   UNL     1      36.412  23.042 222.705  1.00  0.00     0.006 C 
BRANCH   5   6
ATOM      6  C   UNL     1      36.124  24.300 221.877  1.00  0.00     0.053 C 
BRANCH   6   7
ATOM      7  C   UNL     1      36.290  24.014 220.419  1.00  0.00     0.041 C 
ATOM      8  O   UNL     1      37.353  23.492 219.992  1.00  0.00    -0.550 OA
ATOM      9  O   UNL     1      35.290  24.371 219.522  1.00  0.00    -0.550 OA
ENDBRANCH   6   7
ENDBRANCH   5   6
ENDBRANCH   4   5
ENDBRANCH   3   4
ENDBRANCH   2   3
ENDBRANCH   1   2
BRANCH   1  10
ATOM     10  C   UNL     1      40.898  22.868 224.753  1.00  0.00     0.000 C 
BRANCH  10  11
ATOM     11  C   UNL     1      41.379  21.415 224.662  1.00  0.00    -0.000 C 
BRANCH  11  12
ATOM     12  C   UNL     1      41.143  20.673 225.983  1.00  0.00    -0.000 C 
BRANCH  12  13
ATOM     13  C   UNL     1      39.679  20.804 226.434  1.00  0.00    -0.000 C 
BRANCH  13  14
ATOM     14  C   UNL     1      38.748  19.789 225.747  1.00  0.00    -0.000 C 
BRANCH  14  15
ATOM     15  C   UNL     1      37.270  20.213 225.675  1.00  0.00    -0.003 C 
ATOM     16  C   UNL     1      36.311  19.026 225.596  1.00  0.00     0.004 C 
ENDBRANCH  14  15
ENDBRANCH  13  14
ENDBRANCH  12  13
ENDBRANCH  11  12
ENDBRANCH  10  11
ENDBRANCH   1  10
TORSDOF 12
ENDMDL
MODEL 9
REMARK VINA RESULT:    -3.481      2.438      5.618
REMARK INTER + INTRA:          -7.294
REMARK INTER:                  -5.999
REMARK INTRA:                  -1.296
REMARK UNBOUND:                -1.371
REMARK SMILES CCCCCCCCCCCCCC(=O)[O-]
REMARK SMILES IDX 8 1 9 2 10 3 11 4 12 5 13 6 14 7 15 8 16 9 7 10 6 11 5 12
REMARK SMILES IDX 4 13 3 14 2 15 1 16
REMARK H PARENT
REMARK Flexibility Score: inf
ROOT
ATOM      1  C   UNL     1      38.514  20.732 225.644  1.00  0.00     0.000 C 
ENDROOT
BRANCH   1   2
ATOM      2  C   UNL     1      39.967  20.822 225.156  1.00  0.00     0.000 C 
BRANCH   2   3
ATOM      3  C   UNL     1      40.670  22.116 225.604  1.00  0.00     0.000 C 
BRANCH   3   4
ATOM      4  C   UNL     1      41.250  22.975 224.461  1.00  0.00     0.000 C 
BRANCH   4   5
ATOM      5  C   UNL     1      40.716  24.417 224.393  1.00  0.00     0.006 C 
BRANCH   5   6
ATOM      6  C   UNL     1      40.074  24.877 225.708  1.00  0.00     0.053 C 
BRANCH   6   7
ATOM      7  C   UNL     1      39.413  26.207 225.528  1.00  0.00     0.041 C 
ATOM      8  O   UNL     1      38.431  26.327 224.749  1.00  0.00    -0.550 OA
ATOM      9  O   UNL     1      39.912  27.326 226.183  1.00  0.00    -0.550 OA
ENDBRANCH   6   7
ENDBRANCH   5   6
ENDBRANCH   4   5
ENDBRANCH   3   4
ENDBRANCH   2   3
ENDBRANCH   1   2
BRANCH   1  10
ATOM     10  C   UNL     1      37.785  22.066 225.448  1.00  0.00     0.000 C 
BRANCH  10  11
ATOM     11  C   UNL     1      37.059  22.104 224.098  1.00  0.00    -0.000 C 
BRANCH  11  12
ATOM     12  C   UNL     1      37.378  23.397 223.338  1.00  0.00    -0.000 C 
BRANCH  12  13
ATOM     13  C   UNL     1      36.089  24.128 222.930  1.00  0.00    -0.000 C 
BRANCH  13  14
ATOM     14  C   UNL     1      35.742  23.943 221.442  1.00  0.00    -0.000 C 
BRANCH  14  15
ATOM     15  C   UNL     1      36.933  23.572 220.541  1.00  0.00    -0.003 C 
ATOM     16  C   UNL     1      36.625  23.719 219.051  1.00  0.00     0.004 C 
ENDBRANCH  14  15
ENDBRANCH  13  14
ENDBRANCH  12  13
ENDBRANCH  11  12
ENDBRANCH  10  11
ENDBRANCH   1  10
TORSDOF 12
ENDMDL
