MODEL 1
REMARK VINA RESULT:    10.067      0.000      0.000
REMARK INTER + INTRA:          17.419
REMARK INTER:                  18.307
REMARK INTRA:                  -0.888
REMARK UNBOUND:                -0.888
REMARK SMILES CCCCCCCCCCCCCCCC(=O)[O-]
REMARK SMILES IDX 9 1 10 2 11 3 12 4 13 5 14 6 15 7 16 8 17 9 18 10 8 11 7 12
REMARK SMILES IDX 6 13 5 14 4 15 3 16 2 17 1 18
REMARK H PARENT
REMARK Flexibility Score: inf
ROOT
ATOM      1  C   UNL     1      12.342  13.131  30.647  1.00  0.00     0.000 C 
ENDROOT
BRANCH   1   2
ATOM      2  C   UNL     1      12.537  11.817  29.870  1.00  0.00     0.000 C 
BRANCH   2   3
ATOM      3  C   UNL     1      11.208  11.101  29.577  1.00  0.00     0.000 C 
BRANCH   3   4
ATOM      4  C   UNL     1      10.098  11.474  30.574  1.00  0.00     0.000 C 
BRANCH   4   5
ATOM      5  C   UNL     1      10.033  10.496  31.769  1.00  0.00     0.000 C 
BRANCH   5   6
ATOM      6  C   UNL     1       9.076   9.312  31.542  1.00  0.00     0.006 C 
BRANCH   6   7
ATOM      7  C   UNL     1       7.845   9.319  32.461  1.00  0.00     0.053 C 
BRANCH   7   8
ATOM      8  C   UNL     1       7.290   7.942  32.660  1.00  0.00     0.041 C 
ATOM      9  O   UNL     1       6.301   7.557  31.984  1.00  0.00    -0.550 OA
ATOM     10  O   UNL     1       7.880   7.074  33.570  1.00  0.00    -0.550 OA
ENDBRANCH   7   8
ENDBRANCH   6   7
ENDBRANCH   5   6
ENDBRANCH   4   5
ENDBRANCH   3   4
ENDBRANCH   2   3
ENDBRANCH   1   2
BRANCH   1  11
ATOM     11  C   UNL     1      13.164  14.291  30.062  1.00  0.00     0.000 C 
BRANCH  11  12
ATOM     12  C   UNL     1      14.181  13.821  29.008  1.00  0.00    -0.000 C 
BRANCH  12  13
ATOM     13  C   UNL     1      13.896  14.387  27.605  1.00  0.00    -0.000 C 
BRANCH  13  14
ATOM     14  C   UNL     1      12.405  14.535  27.250  1.00  0.00    -0.000 C 
BRANCH  14  15
ATOM     15  C   UNL     1      12.143  14.525  25.737  1.00  0.00    -0.000 C 
BRANCH  15  16
ATOM     16  C   UNL     1      10.738  13.991  25.426  1.00  0.00    -0.000 C 
BRANCH  16  17
ATOM     17  C   UNL     1       9.929  14.942  24.531  1.00  0.00    -0.003 C 
ATOM     18  C   UNL     1      10.715  16.190  24.129  1.00  0.00     0.004 C 
ENDBRANCH  16  17
ENDBRANCH  15  16
ENDBRANCH  14  15
ENDBRANCH  13  14
ENDBRANCH  12  13
ENDBRANCH  11  12
ENDBRANCH   1  11
TORSDOF 14
ENDMDL
MODEL 2
REMARK VINA RESULT:    10.119      0.457      1.265
REMARK INTER + INTRA:          17.512
REMARK INTER:                  18.202
REMARK INTRA:                  -0.690
REMARK UNBOUND:                -0.888
REMARK SMILES CCCCCCCCCCCCCCCC(=O)[O-]
REMARK SMILES IDX 9 1 10 2 11 3 12 4 13 5 14 6 15 7 16 8 17 9 18 10 8 11 7 12
REMARK SMILES IDX 6 13 5 14 4 15 3 16 2 17 1 18
REMARK H PARENT
REMARK Flexibility Score: inf
ROOT
ATOM      1  C   UNL     1      12.818  11.630  29.907  1.00  0.00     0.000 C 
ENDROOT
BRANCH   1   2
ATOM      2  C   UNL     1      11.566  10.831  29.506  1.00  0.00     0.000 C 
BRANCH   2   3
ATOM      3  C   UNL     1      10.278  11.665  29.602  1.00  0.00     0.000 C 
BRANCH   3   4
ATOM      4  C   UNL     1       9.666  11.656  31.014  1.00  0.00     0.000 C 
BRANCH   4   5
ATOM      5  C   UNL     1      10.061  10.394  31.814  1.00  0.00     0.000 C 
BRANCH   5   6
ATOM      6  C   UNL     1       9.100   9.209  31.604  1.00  0.00     0.006 C 
BRANCH   6   7
ATOM      7  C   UNL     1       7.869   9.235  32.522  1.00  0.00     0.053 C 
BRANCH   7   8
ATOM      8  C   UNL     1       7.233   7.883  32.639  1.00  0.00     0.041 C 
ATOM      9  O   UNL     1       7.589   7.096  33.554  1.00  0.00    -0.550 OA
ATOM     10  O   UNL     1       6.231   7.502  31.756  1.00  0.00    -0.550 OA
ENDBRANCH   7   8
ENDBRANCH   6   7
ENDBRANCH   5   6
ENDBRANCH   4   5
ENDBRANCH   3   4
ENDBRANCH   2   3
ENDBRANCH   1   2
BRANCH   1  11
ATOM     11  C   UNL     1      12.475  12.966  30.585  1.00  0.00     0.000 C 
BRANCH  11  12
ATOM     12  C   UNL     1      13.240  14.152  29.973  1.00  0.00    -0.000 C 
BRANCH  12  13
ATOM     13  C   UNL     1      13.964  13.787  28.665  1.00  0.00    -0.000 C 
BRANCH  13  14
ATOM     14  C   UNL     1      13.532  14.600  27.430  1.00  0.00    -0.000 C 
BRANCH  14  15
ATOM     15  C   UNL     1      12.096  14.294  26.980  1.00  0.00    -0.000 C 
BRANCH  15  16
ATOM     16  C   UNL     1      11.932  14.528  25.472  1.00  0.00    -0.000 C 
BRANCH  16  17
ATOM     17  C   UNL     1      10.459  14.641  25.049  1.00  0.00    -0.003 C 
ATOM     18  C   UNL     1      10.185  15.869  24.181  1.00  0.00     0.004 C 
ENDBRANCH  16  17
ENDBRANCH  15  16
ENDBRANCH  14  15
ENDBRANCH  13  14
ENDBRANCH  12  13
ENDBRANCH  11  12
ENDBRANCH   1  11
TORSDOF 14
ENDMDL
MODEL 3
REMARK VINA RESULT:    10.127      3.886      8.434
REMARK INTER + INTRA:          17.527
REMARK INTER:                  18.235
REMARK INTRA:                  -0.708
REMARK UNBOUND:                -0.888
REMARK SMILES CCCCCCCCCCCCCCCC(=O)[O-]
REMARK SMILES IDX 9 1 10 2 11 3 12 4 13 5 14 6 15 7 16 8 17 9 18 10 8 11 7 12
REMARK SMILES IDX 6 13 5 14 4 15 3 16 2 17 1 18
REMARK H PARENT
REMARK Flexibility Score: inf
ROOT
ATOM      1  C   UNL     1      12.346  11.492  29.818  1.00  0.00     0.000 C 
ENDROOT
BRANCH   1   2
ATOM      2  C   UNL     1      12.159  12.960  30.239  1.00  0.00     0.000 C 
BRANCH   2   3
ATOM      3  C   UNL     1      13.302  13.865  29.751  1.00  0.00     0.000 C 
BRANCH   3   4
ATOM      4  C   UNL     1      13.585  13.711  28.247  1.00  0.00     0.000 C 
BRANCH   4   5
ATOM      5  C   UNL     1      13.157  14.958  27.442  1.00  0.00     0.000 C 
BRANCH   5   6
ATOM      6  C   UNL     1      12.550  14.622  26.067  1.00  0.00     0.006 C 
BRANCH   6   7
ATOM      7  C   UNL     1      11.080  14.181  26.126  1.00  0.00     0.053 C 
BRANCH   7   8
ATOM      8  C   UNL     1      10.312  14.637  24.923  1.00  0.00     0.041 C 
ATOM      9  O   UNL     1       9.390  13.921  24.453  1.00  0.00    -0.550 OA
ATOM     10  O   UNL     1      10.595  15.864  24.337  1.00  0.00    -0.550 OA
ENDBRANCH   7   8
ENDBRANCH   6   7
ENDBRANCH   5   6
ENDBRANCH   4   5
ENDBRANCH   3   4
ENDBRANCH   2   3
ENDBRANCH   1   2
BRANCH   1  11
ATOM     11  C   UNL     1      11.066  10.659  29.995  1.00  0.00     0.000 C 
BRANCH  11  12
ATOM     12  C   UNL     1      10.076  11.301  30.982  1.00  0.00    -0.000 C 
BRANCH  12  13
ATOM     13  C   UNL     1       9.573  10.316  32.053  1.00  0.00    -0.000 C 
BRANCH  13  14
ATOM     14  C   UNL     1       8.479   9.341  31.581  1.00  0.00    -0.000 C 
BRANCH  14  15
ATOM     15  C   UNL     1       7.559   8.872  32.719  1.00  0.00    -0.000 C 
BRANCH  15  16
ATOM     16  C   UNL     1       7.011   7.466  32.438  1.00  0.00    -0.000 C 
BRANCH  16  17
ATOM     17  C   UNL     1       6.310   7.367  31.074  1.00  0.00    -0.003 C 
ATOM     18  C   UNL     1       5.387   6.153  30.970  1.00  0.00     0.004 C 
ENDBRANCH  16  17
ENDBRANCH  15  16
ENDBRANCH  14  15
ENDBRANCH  13  14
ENDBRANCH  12  13
ENDBRANCH  11  12
ENDBRANCH   1  11
TORSDOF 14
ENDMDL
MODEL 4
REMARK VINA RESULT:    10.945      1.171      2.383
REMARK INTER + INTRA:          19.014
REMARK INTER:                  19.605
REMARK INTRA:                  -0.591
REMARK UNBOUND:                -0.888
REMARK SMILES CCCCCCCCCCCCCCCC(=O)[O-]
REMARK SMILES IDX 9 1 10 2 11 3 12 4 13 5 14 6 15 7 16 8 17 9 18 10 8 11 7 12
REMARK SMILES IDX 6 13 5 14 4 15 3 16 2 17 1 18
REMARK H PARENT
REMARK Flexibility Score: inf
ROOT
ATOM      1  C   UNL     1      10.932  11.252  29.558  1.00  0.00     0.000 C 
ENDROOT
BRANCH   1   2
ATOM      2  C   UNL     1       9.902  11.635  30.635  1.00  0.00     0.000 C 
BRANCH   2   3
ATOM      3  C   UNL     1       9.810  10.593  31.761  1.00  0.00     0.000 C 
BRANCH   3   4
ATOM      4  C   UNL     1       8.769   9.497  31.476  1.00  0.00     0.000 C 
BRANCH   4   5
ATOM      5  C   UNL     1       7.961   9.117  32.738  1.00  0.00     0.000 C 
BRANCH   5   6
ATOM      6  C   UNL     1       7.128   7.833  32.568  1.00  0.00     0.006 C 
BRANCH   6   7
ATOM      7  C   UNL     1       6.668   7.574  31.126  1.00  0.00     0.053 C 
BRANCH   7   8
ATOM      8  C   UNL     1       5.556   6.571  31.067  1.00  0.00     0.041 C 
ATOM      9  O   UNL     1       5.791   5.388  30.709  1.00  0.00    -0.550 OA
ATOM     10  O   UNL     1       4.267   6.935  31.433  1.00  0.00    -0.550 OA
ENDBRANCH   7   8
ENDBRANCH   6   7
ENDBRANCH   5   6
ENDBRANCH   4   5
ENDBRANCH   3   4
ENDBRANCH   2   3
ENDBRANCH   1   2
BRANCH   1  11
ATOM     11  C   UNL     1      12.342  11.778  29.875  1.00  0.00     0.000 C 
BRANCH  11  12
ATOM     12  C   UNL     1      12.401  13.314  29.927  1.00  0.00    -0.000 C 
BRANCH  12  13
ATOM     13  C   UNL     1      13.686  13.886  29.301  1.00  0.00    -0.000 C 
BRANCH  13  14
ATOM     14  C   UNL     1      13.557  14.330  27.832  1.00  0.00    -0.000 C 
BRANCH  14  15
ATOM     15  C   UNL     1      12.149  14.110  27.259  1.00  0.00    -0.000 C 
BRANCH  15  16
ATOM     16  C   UNL     1      12.094  14.500  25.775  1.00  0.00    -0.000 C 
BRANCH  16  17
ATOM     17  C   UNL     1      10.660  14.524  25.223  1.00  0.00    -0.003 C 
ATOM     18  C   UNL     1      10.389  15.737  24.332  1.00  0.00     0.004 C 
ENDBRANCH  16  17
ENDBRANCH  15  16
ENDBRANCH  14  15
ENDBRANCH  13  14
ENDBRANCH  12  13
ENDBRANCH  11  12
ENDBRANCH   1  11
TORSDOF 14
ENDMDL
