MODEL 1
REMARK VINA RESULT:    -6.040      0.000      0.000
REMARK INTER + INTRA:          -6.787
REMARK INTER:                  -6.570
REMARK INTRA:                  -0.216
REMARK UNBOUND:                -0.216
REMARK SMILES C[C@H]1[C@H](C)CC[C@]2(C(=O)[O-])CC[C@@]3(C)C(=CC[C@H]4[C@@]5(C)CC[C@H](O)C(C)(C)[C@H]5CC[C@]43C)[C@H]12
REMARK SMILES IDX 7 1 6 2 11 3 33 4 5 5 12 6 15 7 2 8 3 9 13 10 16 11 1 12
REMARK SMILES IDX 4 13 14 14 31 15 17 16 18 17 30 18 32 19 19 20 29 21 28 22
REMARK SMILES IDX 21 23 20 24 25 25 22 26 23 27 26 28 27 29 8 30 9 31 10 32
REMARK SMILES IDX 24 33
REMARK H PARENT 24 34
REMARK Flexibility Score: inf
ROOT
ATOM      1  C   UNL     1     109.516 141.546  53.807  1.00  0.00     0.017 C 
ATOM      2  C   UNL     1     108.935 141.896  52.395  1.00  0.00     0.014 C 
ATOM      3  C   UNL     1     109.662 140.009  53.882  1.00  0.00     0.014 C 
ATOM      4  C   UNL     1     108.561 142.011  54.965  1.00  0.00     0.030 C 
ATOM      5  C   UNL     1     107.945 143.057  52.441  1.00  0.00     0.004 C 
ATOM      6  C   UNL     1     110.270 139.480  55.182  1.00  0.00     0.013 C 
ATOM      7  C   UNL     1     108.922 141.385  56.329  1.00  0.00    -0.063 C 
ATOM      8  C   UNL     1     107.057 141.804  54.536  1.00  0.00    -0.003 C 
ATOM      9  C   UNL     1     106.705 142.694  53.293  1.00  0.00    -0.011 C 
ATOM     10  C   UNL     1     109.928 140.239  56.527  1.00  0.00    -0.006 C 
ATOM     11  C   UNL     1     108.470 142.005  57.433  1.00  0.00    -0.027 C 
ATOM     12  C   UNL     1     106.023 142.059  55.650  1.00  0.00     0.008 C 
ATOM     13  C   UNL     1     105.629 142.027  52.414  1.00  0.00     0.008 C 
ATOM     14  C   UNL     1     111.255 140.905  57.022  1.00  0.00     0.017 C 
ATOM     15  C   UNL     1     109.371 139.224  57.642  1.00  0.00    -0.020 C 
ATOM     16  C   UNL     1     108.271 141.314  58.747  1.00  0.00     0.032 C 
ATOM     17  C   UNL     1     109.047 139.983  58.999  1.00  0.00     0.006 C 
ATOM     18  C   UNL     1     108.073 138.521  57.113  1.00  0.00     0.008 C 
ATOM     19  C   UNL     1     110.463 138.130  57.913  1.00  0.00     0.012 C 
ATOM     20  C   UNL     1     108.401 139.054  60.162  1.00  0.00    -0.025 C 
ATOM     21  C   UNL     1     106.965 138.284  58.154  1.00  0.00     0.005 C 
ATOM     22  C   UNL     1     107.503 137.887  59.556  1.00  0.00     0.003 C 
ATOM     23  C   UNL     1     107.586 139.888  61.230  1.00  0.00     0.010 C 
ATOM     24  C   UNL     1     109.593 138.426  60.968  1.00  0.00     0.012 C 
ATOM     25  C   UNL     1     106.354 137.363  60.520  1.00  0.00    -0.006 C 
ATOM     26  C   UNL     1     106.057 139.914  61.050  1.00  0.00     0.033 C 
ATOM     27  C   UNL     1     105.386 138.528  60.922  1.00  0.00     0.120 C 
ATOM     28  C   UNL     1     105.521 136.244  59.824  1.00  0.00     0.014 C 
ATOM     29  C   UNL     1     106.961 136.689  61.786  1.00  0.00     0.014 C 
ENDROOT
BRANCH   1  30
ATOM     30  C   UNL     1     110.873 142.231  53.911  1.00  0.00     0.048 C 
ATOM     31  O   UNL     1     111.843 141.842  53.206  1.00  0.00    -0.550 OA
ATOM     32  O   UNL     1     111.035 143.364  54.702  1.00  0.00    -0.550 OA
ENDBRANCH   1  30
BRANCH  27  33
ATOM     33  O   UNL     1     104.707 138.232  62.121  1.00  0.00    -0.393 OA
ATOM     34  H   UNL     1     103.779 137.977  61.877  1.00  0.00     0.210 HD
ENDBRANCH  27  33
TORSDOF 2
ENDMDL
MODEL 2
REMARK VINA RESULT:    -5.228      2.249      4.210
REMARK INTER + INTRA:          -5.903
REMARK INTER:                  -5.659
REMARK INTRA:                  -0.244
REMARK UNBOUND:                -0.216
REMARK SMILES C[C@H]1[C@H](C)CC[C@]2(C(=O)[O-])CC[C@@]3(C)C(=CC[C@H]4[C@@]5(C)CC[C@H](O)C(C)(C)[C@H]5CC[C@]43C)[C@H]12
REMARK SMILES IDX 7 1 6 2 11 3 33 4 5 5 12 6 15 7 2 8 3 9 13 10 16 11 1 12
REMARK SMILES IDX 4 13 14 14 31 15 17 16 18 17 30 18 32 19 19 20 29 21 28 22
REMARK SMILES IDX 21 23 20 24 25 25 22 26 23 27 26 28 27 29 8 30 9 31 10 32
REMARK SMILES IDX 24 33
REMARK H PARENT 24 34
REMARK Flexibility Score: inf
ROOT
ATOM      1  C   UNL     1     107.774 143.223  53.351  1.00  0.00     0.017 C 
ATOM      2  C   UNL     1     108.664 144.120  52.426  1.00  0.00     0.014 C 
ATOM      3  C   UNL     1     107.450 144.042  54.621  1.00  0.00     0.014 C 
ATOM      4  C   UNL     1     108.518 141.908  53.784  1.00  0.00     0.030 C 
ATOM      5  C   UNL     1     109.745 143.322  51.701  1.00  0.00     0.004 C 
ATOM      6  C   UNL     1     106.536 143.340  55.628  1.00  0.00     0.013 C 
ATOM      7  C   UNL     1     107.821 141.182  54.954  1.00  0.00    -0.063 C 
ATOM      8  C   UNL     1     110.046 142.213  54.031  1.00  0.00    -0.003 C 
ATOM      9  C   UNL     1     110.739 142.693  52.707  1.00  0.00    -0.011 C 
ATOM     10  C   UNL     1     106.677 141.773  55.795  1.00  0.00    -0.006 C 
ATOM     11  C   UNL     1     108.104 139.879  55.129  1.00  0.00    -0.027 C 
ATOM     12  C   UNL     1     110.853 141.044  54.628  1.00  0.00     0.008 C 
ATOM     13  C   UNL     1     111.891 143.672  53.002  1.00  0.00     0.008 C 
ATOM     14  C   UNL     1     105.358 141.137  55.243  1.00  0.00     0.017 C 
ATOM     15  C   UNL     1     106.881 141.369  57.337  1.00  0.00    -0.020 C 
ATOM     16  C   UNL     1     107.954 139.169  56.440  1.00  0.00     0.032 C 
ATOM     17  C   UNL     1     107.003 139.794  57.507  1.00  0.00     0.006 C 
ATOM     18  C   UNL     1     108.176 142.057  57.894  1.00  0.00     0.008 C 
ATOM     19  C   UNL     1     105.646 141.880  58.157  1.00  0.00     0.012 C 
ATOM     20  C   UNL     1     107.294 139.294  59.023  1.00  0.00    -0.025 C 
ATOM     21  C   UNL     1     109.016 141.217  58.871  1.00  0.00     0.005 C 
ATOM     22  C   UNL     1     108.164 140.349  59.838  1.00  0.00     0.003 C 
ATOM     23  C   UNL     1     107.961 137.860  59.077  1.00  0.00     0.010 C 
ATOM     24  C   UNL     1     105.902 139.116  59.727  1.00  0.00     0.012 C 
ATOM     25  C   UNL     1     109.030 139.729  61.017  1.00  0.00    -0.006 C 
ATOM     26  C   UNL     1     109.487 137.827  59.271  1.00  0.00     0.033 C 
ATOM     27  C   UNL     1     110.016 138.639  60.475  1.00  0.00     0.120 C 
ATOM     28  C   UNL     1     109.860 140.838  61.732  1.00  0.00     0.014 C 
ATOM     29  C   UNL     1     108.108 139.136  62.124  1.00  0.00     0.014 C 
ENDROOT
BRANCH   1  30
ATOM     30  C   UNL     1     106.507 142.900  52.569  1.00  0.00     0.048 C 
ATOM     31  O   UNL     1     105.635 143.787  52.365  1.00  0.00    -0.550 OA
ATOM     32  O   UNL     1     106.340 141.653  51.974  1.00  0.00    -0.550 OA
ENDBRANCH   1  30
BRANCH  27  33
ATOM     33  O   UNL     1     110.401 137.749  61.497  1.00  0.00    -0.393 OA
ATOM     34  H   UNL     1     110.508 136.854  61.082  1.00  0.00     0.210 HD
ENDBRANCH  27  33
TORSDOF 2
ENDMDL
MODEL 3
REMARK VINA RESULT:    -4.330      1.729      7.436
REMARK INTER + INTRA:          -4.926
REMARK INTER:                  -4.666
REMARK INTRA:                  -0.260
REMARK UNBOUND:                -0.216
REMARK SMILES C[C@H]1[C@H](C)CC[C@]2(C(=O)[O-])CC[C@@]3(C)C(=CC[C@H]4[C@@]5(C)CC[C@H](O)C(C)(C)[C@H]5CC[C@]43C)[C@H]12
REMARK SMILES IDX 7 1 6 2 11 3 33 4 5 5 12 6 15 7 2 8 3 9 13 10 16 11 1 12
REMARK SMILES IDX 4 13 14 14 31 15 17 16 18 17 30 18 32 19 19 20 29 21 28 22
REMARK SMILES IDX 21 23 20 24 25 25 22 26 23 27 26 28 27 29 8 30 9 31 10 32
REMARK SMILES IDX 24 33
REMARK H PARENT 24 34
REMARK Flexibility Score: inf
ROOT
ATOM      1  C   UNL     1     106.527 139.585  60.822  1.00  0.00     0.017 C 
ATOM      2  C   UNL     1     105.936 140.223  62.125  1.00  0.00     0.014 C 
ATOM      3  C   UNL     1     108.067 139.662  60.924  1.00  0.00     0.014 C 
ATOM      4  C   UNL     1     106.075 140.362  59.532  1.00  0.00     0.030 C 
ATOM      5  C   UNL     1     104.664 141.025  61.859  1.00  0.00     0.004 C 
ATOM      6  C   UNL     1     108.825 139.033  59.753  1.00  0.00     0.013 C 
ATOM      7  C   UNL     1     106.902 139.985  58.284  1.00  0.00    -0.063 C 
ATOM      8  C   UNL     1     106.023 141.911  59.831  1.00  0.00    -0.003 C 
ATOM      9  C   UNL     1     104.952 142.230  60.932  1.00  0.00    -0.011 C 
ATOM     10  C   UNL     1     108.190 139.146  58.308  1.00  0.00    -0.006 C 
ATOM     11  C   UNL     1     106.361 140.249  57.082  1.00  0.00    -0.027 C 
ATOM     12  C   UNL     1     105.762 142.800  58.599  1.00  0.00     0.008 C 
ATOM     13  C   UNL     1     105.357 143.461  61.766  1.00  0.00     0.008 C 
ATOM     14  C   UNL     1     107.775 137.700  57.880  1.00  0.00     0.017 C 
ATOM     15  C   UNL     1     109.244 139.752  57.256  1.00  0.00    -0.020 C 
ATOM     16  C   UNL     1     107.168 140.438  55.835  1.00  0.00     0.032 C 
ATOM     17  C   UNL     1     108.613 139.847  55.802  1.00  0.00     0.006 C 
ATOM     18  C   UNL     1     109.695 141.179  57.725  1.00  0.00     0.008 C 
ATOM     19  C   UNL     1     110.501 138.815  57.211  1.00  0.00     0.012 C 
ATOM     20  C   UNL     1     109.576 140.525  54.685  1.00  0.00    -0.025 C 
ATOM     21  C   UNL     1     109.899 142.220  56.611  1.00  0.00     0.005 C 
ATOM     22  C   UNL     1     110.529 141.632  55.318  1.00  0.00     0.003 C 
ATOM     23  C   UNL     1     108.770 141.117  53.459  1.00  0.00     0.010 C 
ATOM     24  C   UNL     1     110.452 139.375  54.071  1.00  0.00     0.012 C 
ATOM     25  C   UNL     1     111.001 142.762  54.306  1.00  0.00    -0.006 C 
ATOM     26  C   UNL     1     108.514 142.635  53.484  1.00  0.00     0.033 C 
ATOM     27  C   UNL     1     109.770 143.511  53.690  1.00  0.00     0.120 C 
ATOM     28  C   UNL     1     111.906 143.805  55.030  1.00  0.00     0.014 C 
ATOM     29  C   UNL     1     111.897 142.158  53.184  1.00  0.00     0.014 C 
ENDROOT
BRANCH   1  30
ATOM     30  C   UNL     1     106.051 138.138  60.780  1.00  0.00     0.048 C 
ATOM     31  O   UNL     1     106.592 137.265  61.510  1.00  0.00    -0.550 OA
ATOM     32  O   UNL     1     104.942 137.779  60.021  1.00  0.00    -0.550 OA
ENDBRANCH   1  30
BRANCH  27  33
ATOM     33  O   UNL     1     110.110 144.125  52.468  1.00  0.00    -0.393 OA
ATOM     34  H   UNL     1     109.423 143.856  51.804  1.00  0.00     0.210 HD
ENDBRANCH  27  33
TORSDOF 2
ENDMDL
MODEL 4
REMARK VINA RESULT:    -4.290      2.672      6.763
REMARK INTER + INTRA:          -4.883
REMARK INTER:                  -4.628
REMARK INTRA:                  -0.255
REMARK UNBOUND:                -0.216
REMARK SMILES C[C@H]1[C@H](C)CC[C@]2(C(=O)[O-])CC[C@@]3(C)C(=CC[C@H]4[C@@]5(C)CC[C@H](O)C(C)(C)[C@H]5CC[C@]43C)[C@H]12
REMARK SMILES IDX 7 1 6 2 11 3 33 4 5 5 12 6 15 7 2 8 3 9 13 10 16 11 1 12
REMARK SMILES IDX 4 13 14 14 31 15 17 16 18 17 30 18 32 19 19 20 29 21 28 22
REMARK SMILES IDX 21 23 20 24 25 25 22 26 23 27 26 28 27 29 8 30 9 31 10 32
REMARK SMILES IDX 24 33
REMARK H PARENT 24 34
REMARK Flexibility Score: inf
ROOT
ATOM      1  C   UNL     1     110.401 140.704  59.185  1.00  0.00     0.017 C 
ATOM      2  C   UNL     1     110.606 140.208  60.656  1.00  0.00     0.014 C 
ATOM      3  C   UNL     1     109.980 142.190  59.250  1.00  0.00     0.014 C 
ATOM      4  C   UNL     1     109.270 139.899  58.447  1.00  0.00     0.030 C 
ATOM      5  C   UNL     1     110.135 138.770  60.860  1.00  0.00     0.004 C 
ATOM      6  C   UNL     1     109.784 142.867  57.892  1.00  0.00     0.013 C 
ATOM      7  C   UNL     1     108.807 140.577  57.140  1.00  0.00    -0.063 C 
ATOM      8  C   UNL     1     108.102 139.570  59.455  1.00  0.00    -0.003 C 
ATOM      9  C   UNL     1     108.612 138.645  60.616  1.00  0.00    -0.011 C 
ATOM     10  C   UNL     1     109.195 142.000  56.706  1.00  0.00    -0.006 C 
ATOM     11  C   UNL     1     108.176 139.808  56.235  1.00  0.00    -0.027 C 
ATOM     12  C   UNL     1     106.852 138.935  58.814  1.00  0.00     0.008 C 
ATOM     13  C   UNL     1     107.838 138.910  61.922  1.00  0.00     0.008 C 
ATOM     14  C   UNL     1     110.339 141.836  55.652  1.00  0.00     0.017 C 
ATOM     15  C   UNL     1     107.925 142.721  56.035  1.00  0.00    -0.020 C 
ATOM     16  C   UNL     1     107.236 140.348  55.201  1.00  0.00     0.032 C 
ATOM     17  C   UNL     1     107.346 141.861  54.831  1.00  0.00     0.006 C 
ATOM     18  C   UNL     1     106.807 142.930  57.114  1.00  0.00     0.008 C 
ATOM     19  C   UNL     1     108.373 144.124  55.494  1.00  0.00     0.012 C 
ATOM     20  C   UNL     1     106.009 142.469  54.141  1.00  0.00    -0.025 C 
ATOM     21  C   UNL     1     105.360 142.730  56.630  1.00  0.00     0.005 C 
ATOM     22  C   UNL     1     105.107 143.256  55.190  1.00  0.00     0.003 C 
ATOM     23  C   UNL     1     105.157 141.371  53.384  1.00  0.00     0.010 C 
ATOM     24  C   UNL     1     106.479 143.458  53.015  1.00  0.00     0.012 C 
ATOM     25  C   UNL     1     103.561 143.311  54.829  1.00  0.00    -0.006 C 
ATOM     26  C   UNL     1     103.944 140.808  54.146  1.00  0.00     0.033 C 
ATOM     27  C   UNL     1     102.964 141.868  54.698  1.00  0.00     0.120 C 
ATOM     28  C   UNL     1     102.766 144.079  55.928  1.00  0.00     0.014 C 
ATOM     29  C   UNL     1     103.330 144.123  53.520  1.00  0.00     0.014 C 
ENDROOT
BRANCH   1  30
ATOM     30  C   UNL     1     111.737 140.544  58.472  1.00  0.00     0.048 C 
ATOM     31  O   UNL     1     112.688 141.338  58.706  1.00  0.00    -0.550 OA
ATOM     32  O   UNL     1     111.968 139.457  57.636  1.00  0.00    -0.550 OA
ENDBRANCH   1  30
BRANCH  27  33
ATOM     33  O   UNL     1     101.796 141.871  53.910  1.00  0.00    -0.393 OA
ATOM     34  H   UNL     1     101.313 141.024  54.097  1.00  0.00     0.210 HD
ENDBRANCH  27  33
TORSDOF 2
ENDMDL
MODEL 5
REMARK VINA RESULT:    -4.268      2.995      7.488
REMARK INTER + INTRA:          -4.859
REMARK INTER:                  -4.666
REMARK INTRA:                  -0.193
REMARK UNBOUND:                -0.216
REMARK SMILES C[C@H]1[C@H](C)CC[C@]2(C(=O)[O-])CC[C@@]3(C)C(=CC[C@H]4[C@@]5(C)CC[C@H](O)C(C)(C)[C@H]5CC[C@]43C)[C@H]12
REMARK SMILES IDX 7 1 6 2 11 3 33 4 5 5 12 6 15 7 2 8 3 9 13 10 16 11 1 12
REMARK SMILES IDX 4 13 14 14 31 15 17 16 18 17 30 18 32 19 19 20 29 21 28 22
REMARK SMILES IDX 21 23 20 24 25 25 22 26 23 27 26 28 27 29 8 30 9 31 10 32
REMARK SMILES IDX 24 33
REMARK H PARENT 24 34
REMARK Flexibility Score: inf
ROOT
ATOM      1  C   UNL     1     102.334 141.170  60.020  1.00  0.00     0.017 C 
ATOM      2  C   UNL     1     101.046 140.281  60.088  1.00  0.00     0.014 C 
ATOM      3  C   UNL     1     102.471 141.680  58.567  1.00  0.00     0.014 C 
ATOM      4  C   UNL     1     103.628 140.357  60.385  1.00  0.00     0.030 C 
ATOM      5  C   UNL     1     101.218 139.072  61.005  1.00  0.00     0.004 C 
ATOM      6  C   UNL     1     103.654 142.618  58.320  1.00  0.00     0.013 C 
ATOM      7  C   UNL     1     104.929 141.092  59.996  1.00  0.00    -0.063 C 
ATOM      8  C   UNL     1     103.519 138.890  59.813  1.00  0.00    -0.003 C 
ATOM      9  C   UNL     1     102.319 138.124  60.473  1.00  0.00    -0.011 C 
ATOM     10  C   UNL     1     104.992 142.356  59.122  1.00  0.00    -0.006 C 
ATOM     11  C   UNL     1     106.061 140.714  60.615  1.00  0.00    -0.027 C 
ATOM     12  C   UNL     1     104.798 138.043  59.953  1.00  0.00     0.008 C 
ATOM     13  C   UNL     1     101.712 137.093  59.501  1.00  0.00     0.008 C 
ATOM     14  C   UNL     1     105.173 143.558  60.108  1.00  0.00     0.017 C 
ATOM     15  C   UNL     1     106.255 142.259  58.132  1.00  0.00    -0.020 C 
ATOM     16  C   UNL     1     107.428 140.920  60.037  1.00  0.00     0.032 C 
ATOM     17  C   UNL     1     107.601 142.016  58.940  1.00  0.00     0.006 C 
ATOM     18  C   UNL     1     106.037 141.087  57.114  1.00  0.00     0.008 C 
ATOM     19  C   UNL     1     106.370 143.605  57.335  1.00  0.00     0.012 C 
ATOM     20  C   UNL     1     108.922 141.823  58.018  1.00  0.00    -0.025 C 
ATOM     21  C   UNL     1     107.289 140.269  56.751  1.00  0.00     0.005 C 
ATOM     22  C   UNL     1     108.578 141.127  56.628  1.00  0.00     0.003 C 
ATOM     23  C   UNL     1     110.079 141.041  58.762  1.00  0.00     0.010 C 
ATOM     24  C   UNL     1     109.513 143.253  57.750  1.00  0.00     0.012 C 
ATOM     25  C   UNL     1     109.780 140.323  55.970  1.00  0.00    -0.006 C 
ATOM     26  C   UNL     1     110.204 139.542  58.437  1.00  0.00     0.033 C 
ATOM     27  C   UNL     1     110.295 139.199  56.933  1.00  0.00     0.120 C 
ATOM     28  C   UNL     1     109.332 139.662  54.631  1.00  0.00     0.014 C 
ATOM     29  C   UNL     1     110.939 141.287  55.578  1.00  0.00     0.014 C 
ENDROOT
BRANCH   1  30
ATOM     30  C   UNL     1     102.126 142.327  60.989  1.00  0.00     0.048 C 
ATOM     31  O   UNL     1     102.675 142.320  62.124  1.00  0.00    -0.550 OA
ATOM     32  O   UNL     1     101.419 143.460  60.599  1.00  0.00    -0.550 OA
ENDBRANCH   1  30
BRANCH  27  33
ATOM     33  O   UNL     1     111.620 138.833  56.623  1.00  0.00    -0.393 OA
ATOM     34  H   UNL     1     112.203 139.591  56.889  1.00  0.00     0.210 HD
ENDBRANCH  27  33
TORSDOF 2
ENDMDL
MODEL 6
REMARK VINA RESULT:    -4.225      3.245      5.967
REMARK INTER + INTRA:          -4.812
REMARK INTER:                  -4.556
REMARK INTRA:                  -0.256
REMARK UNBOUND:                -0.216
REMARK SMILES C[C@H]1[C@H](C)CC[C@]2(C(=O)[O-])CC[C@@]3(C)C(=CC[C@H]4[C@@]5(C)CC[C@H](O)C(C)(C)[C@H]5CC[C@]43C)[C@H]12
REMARK SMILES IDX 7 1 6 2 11 3 33 4 5 5 12 6 15 7 2 8 3 9 13 10 16 11 1 12
REMARK SMILES IDX 4 13 14 14 31 15 17 16 18 17 30 18 32 19 19 20 29 21 28 22
REMARK SMILES IDX 21 23 20 24 25 25 22 26 23 27 26 28 27 29 8 30 9 31 10 32
REMARK SMILES IDX 24 33
REMARK H PARENT 24 34
REMARK Flexibility Score: inf
ROOT
ATOM      1  C   UNL     1     112.687 141.624  57.828  1.00  0.00     0.017 C 
ATOM      2  C   UNL     1     114.145 141.635  57.254  1.00  0.00     0.014 C 
ATOM      3  C   UNL     1     112.037 140.282  57.420  1.00  0.00     0.014 C 
ATOM      4  C   UNL     1     111.818 142.796  57.244  1.00  0.00     0.030 C 
ATOM      5  C   UNL     1     114.567 143.016  56.758  1.00  0.00     0.004 C 
ATOM      6  C   UNL     1     110.615 140.068  57.943  1.00  0.00     0.013 C 
ATOM      7  C   UNL     1     110.309 142.613  57.511  1.00  0.00    -0.063 C 
ATOM      8  C   UNL     1     112.184 143.029  55.726  1.00  0.00    -0.003 C 
ATOM      9  C   UNL     1     113.680 143.477  55.577  1.00  0.00    -0.011 C 
ATOM     10  C   UNL     1     109.665 141.327  58.054  1.00  0.00    -0.006 C 
ATOM     11  C   UNL     1     109.532 143.709  57.441  1.00  0.00    -0.027 C 
ATOM     12  C   UNL     1     111.278 144.035  54.989  1.00  0.00     0.008 C 
ATOM     13  C   UNL     1     114.276 142.996  54.240  1.00  0.00     0.008 C 
ATOM     14  C   UNL     1     109.416 141.576  59.579  1.00  0.00     0.017 C 
ATOM     15  C   UNL     1     108.267 141.068  57.302  1.00  0.00    -0.020 C 
ATOM     16  C   UNL     1     108.061 143.664  57.160  1.00  0.00     0.032 C 
ATOM     17  C   UNL     1     107.305 142.326  57.431  1.00  0.00     0.006 C 
ATOM     18  C   UNL     1     108.533 140.766  55.787  1.00  0.00     0.008 C 
ATOM     19  C   UNL     1     107.573 139.821  57.952  1.00  0.00     0.012 C 
ATOM     20  C   UNL     1     105.899 142.191  56.633  1.00  0.00    -0.025 C 
ATOM     21  C   UNL     1     107.513 141.352  54.795  1.00  0.00     0.005 C 
ATOM     22  C   UNL     1     106.049 141.314  55.312  1.00  0.00     0.003 C 
ATOM     23  C   UNL     1     105.247 143.593  56.299  1.00  0.00     0.010 C 
ATOM     24  C   UNL     1     104.880 141.495  57.604  1.00  0.00     0.012 C 
ATOM     25  C   UNL     1     104.995 141.643  54.170  1.00  0.00    -0.006 C 
ATOM     26  C   UNL     1     105.469 144.125  54.872  1.00  0.00     0.033 C 
ATOM     27  C   UNL     1     105.088 143.147  53.738  1.00  0.00     0.120 C 
ATOM     28  C   UNL     1     105.244 140.750  52.918  1.00  0.00     0.014 C 
ATOM     29  C   UNL     1     103.550 141.293  54.637  1.00  0.00     0.014 C 
ENDROOT
BRANCH   1  30
ATOM     30  C   UNL     1     112.807 141.737  59.343  1.00  0.00     0.048 C 
ATOM     31  O   UNL     1     113.186 140.752  60.032  1.00  0.00    -0.550 OA
ATOM     32  O   UNL     1     112.606 142.957  59.980  1.00  0.00    -0.550 OA
ENDBRANCH   1  30
BRANCH  27  33
ATOM     33  O   UNL     1     103.888 143.578  53.141  1.00  0.00    -0.393 OA
ATOM     34  H   UNL     1     104.082 144.433  52.675  1.00  0.00     0.210 HD
ENDBRANCH  27  33
TORSDOF 2
ENDMDL
MODEL 7
REMARK VINA RESULT:    -4.211      3.106      5.240
REMARK INTER + INTRA:          -4.797
REMARK INTER:                  -4.542
REMARK INTRA:                  -0.255
REMARK UNBOUND:                -0.216
REMARK SMILES C[C@H]1[C@H](C)CC[C@]2(C(=O)[O-])CC[C@@]3(C)C(=CC[C@H]4[C@@]5(C)CC[C@H](O)C(C)(C)[C@H]5CC[C@]43C)[C@H]12
REMARK SMILES IDX 7 1 6 2 11 3 33 4 5 5 12 6 15 7 2 8 3 9 13 10 16 11 1 12
REMARK SMILES IDX 4 13 14 14 31 15 17 16 18 17 30 18 32 19 19 20 29 21 28 22
REMARK SMILES IDX 21 23 20 24 25 25 22 26 23 27 26 28 27 29 8 30 9 31 10 32
REMARK SMILES IDX 24 33
REMARK H PARENT 24 34
REMARK Flexibility Score: inf
ROOT
ATOM      1  C   UNL     1     105.179 142.869  54.181  1.00  0.00     0.017 C 
ATOM      2  C   UNL     1     105.249 143.541  52.768  1.00  0.00     0.014 C 
ATOM      3  C   UNL     1     105.250 143.997  55.236  1.00  0.00     0.014 C 
ATOM      4  C   UNL     1     106.382 141.887  54.423  1.00  0.00     0.030 C 
ATOM      5  C   UNL     1     106.059 142.719  51.769  1.00  0.00     0.004 C 
ATOM      6  C   UNL     1     105.141 143.530  56.689  1.00  0.00     0.013 C 
ATOM      7  C   UNL     1     106.537 141.482  55.904  1.00  0.00    -0.063 C 
ATOM      8  C   UNL     1     107.694 142.475  53.772  1.00  0.00    -0.003 C 
ATOM      9  C   UNL     1     107.536 142.598  52.216  1.00  0.00    -0.011 C 
ATOM     10  C   UNL     1     105.787 142.139  57.075  1.00  0.00    -0.006 C 
ATOM     11  C   UNL     1     107.230 140.360  56.169  1.00  0.00    -0.027 C 
ATOM     12  C   UNL     1     108.982 141.690  54.089  1.00  0.00     0.008 C 
ATOM     13  C   UNL     1     108.359 143.777  51.662  1.00  0.00     0.008 C 
ATOM     14  C   UNL     1     104.607 141.174  57.432  1.00  0.00     0.017 C 
ATOM     15  C   UNL     1     106.778 142.287  58.332  1.00  0.00    -0.020 C 
ATOM     16  C   UNL     1     107.906 140.096  57.480  1.00  0.00     0.032 C 
ATOM     17  C   UNL     1     107.411 140.886  58.731  1.00  0.00     0.006 C 
ATOM     18  C   UNL     1     107.924 143.298  57.982  1.00  0.00     0.008 C 
ATOM     19  C   UNL     1     105.963 142.848  59.548  1.00  0.00     0.012 C 
ATOM     20  C   UNL     1     108.491 140.948  59.941  1.00  0.00    -0.025 C 
ATOM     21  C   UNL     1     109.319 142.949  58.528  1.00  0.00     0.005 C 
ATOM     22  C   UNL     1     109.292 142.323  59.950  1.00  0.00     0.003 C 
ATOM     23  C   UNL     1     109.490 139.720  59.933  1.00  0.00     0.010 C 
ATOM     24  C   UNL     1     107.691 140.804  61.284  1.00  0.00     0.012 C 
ATOM     25  C   UNL     1     110.737 142.248  60.606  1.00  0.00    -0.006 C 
ATOM     26  C   UNL     1     110.874 139.974  59.308  1.00  0.00     0.033 C 
ATOM     27  C   UNL     1     111.634 141.198  59.867  1.00  0.00     0.120 C 
ATOM     28  C   UNL     1     111.442 143.637  60.542  1.00  0.00     0.014 C 
ATOM     29  C   UNL     1     110.635 141.915  62.125  1.00  0.00     0.014 C 
ENDROOT
BRANCH   1  30
ATOM     30  C   UNL     1     103.849 142.131  54.256  1.00  0.00     0.048 C 
ATOM     31  O   UNL     1     102.781 142.756  54.497  1.00  0.00    -0.550 OA
ATOM     32  O   UNL     1     103.773 140.776  53.951  1.00  0.00    -0.550 OA
ENDBRANCH   1  30
BRANCH  27  33
ATOM     33  O   UNL     1     112.680 140.750  60.698  1.00  0.00    -0.393 OA
ATOM     34  H   UNL     1     112.351 140.794  61.633  1.00  0.00     0.210 HD
ENDBRANCH  27  33
TORSDOF 2
ENDMDL
MODEL 8
REMARK VINA RESULT:    -4.040      2.550      7.212
REMARK INTER + INTRA:          -4.611
REMARK INTER:                  -5.055
REMARK INTRA:                   0.445
REMARK UNBOUND:                -0.216
REMARK SMILES C[C@H]1[C@H](C)CC[C@]2(C(=O)[O-])CC[C@@]3(C)C(=CC[C@H]4[C@@]5(C)CC[C@H](O)C(C)(C)[C@H]5CC[C@]43C)[C@H]12
REMARK SMILES IDX 7 1 6 2 11 3 33 4 5 5 12 6 15 7 2 8 3 9 13 10 16 11 1 12
REMARK SMILES IDX 4 13 14 14 31 15 17 16 18 17 30 18 32 19 19 20 29 21 28 22
REMARK SMILES IDX 21 23 20 24 25 25 22 26 23 27 26 28 27 29 8 30 9 31 10 32
REMARK SMILES IDX 24 33
REMARK H PARENT 24 34
REMARK Flexibility Score: inf
ROOT
ATOM      1  C   UNL     1     104.411 138.560  60.584  1.00  0.00     0.017 C 
ATOM      2  C   UNL     1     103.300 139.042  61.577  1.00  0.00     0.014 C 
ATOM      3  C   UNL     1     105.641 138.149  61.425  1.00  0.00     0.014 C 
ATOM      4  C   UNL     1     104.846 139.699  59.592  1.00  0.00     0.030 C 
ATOM      5  C   UNL     1     102.503 140.224  61.033  1.00  0.00     0.004 C 
ATOM      6  C   UNL     1     106.819 137.596  60.621  1.00  0.00     0.013 C 
ATOM      7  C   UNL     1     106.158 139.377  58.846  1.00  0.00    -0.063 C 
ATOM      8  C   UNL     1     104.852 141.088  60.342  1.00  0.00    -0.003 C 
ATOM      9  C   UNL     1     103.410 141.462  60.834  1.00  0.00    -0.011 C 
ATOM     10  C   UNL     1     107.096 138.208  59.189  1.00  0.00    -0.006 C 
ATOM     11  C   UNL     1     106.401 140.047  57.706  1.00  0.00    -0.027 C 
ATOM     12  C   UNL     1     105.428 142.262  59.526  1.00  0.00     0.008 C 
ATOM     13  C   UNL     1     103.460 142.301  62.125  1.00  0.00     0.008 C 
ATOM     14  C   UNL     1     106.788 137.082  58.147  1.00  0.00     0.017 C 
ATOM     15  C   UNL     1     108.624 138.688  59.047  1.00  0.00    -0.020 C 
ATOM     16  C   UNL     1     107.774 140.256  57.145  1.00  0.00     0.032 C 
ATOM     17  C   UNL     1     108.907 139.284  57.602  1.00  0.00     0.006 C 
ATOM     18  C   UNL     1     108.937 139.776  60.132  1.00  0.00     0.008 C 
ATOM     19  C   UNL     1     109.561 137.453  59.285  1.00  0.00     0.012 C 
ATOM     20  C   UNL     1     110.404 139.871  57.389  1.00  0.00    -0.025 C 
ATOM     21  C   UNL     1     109.855 140.926  59.685  1.00  0.00     0.005 C 
ATOM     22  C   UNL     1     111.000 140.476  58.736  1.00  0.00     0.003 C 
ATOM     23  C   UNL     1     110.485 140.931  56.217  1.00  0.00     0.010 C 
ATOM     24  C   UNL     1     111.306 138.677  56.913  1.00  0.00     0.012 C 
ATOM     25  C   UNL     1     112.096 141.608  58.530  1.00  0.00    -0.006 C 
ATOM     26  C   UNL     1     110.468 142.412  56.638  1.00  0.00     0.033 C 
ATOM     27  C   UNL     1     111.515 142.806  57.704  1.00  0.00     0.120 C 
ATOM     28  C   UNL     1     112.593 142.148  59.905  1.00  0.00     0.014 C 
ATOM     29  C   UNL     1     113.365 141.026  57.840  1.00  0.00     0.014 C 
ENDROOT
BRANCH   1  30
ATOM     30  C   UNL     1     103.842 137.367  59.827  1.00  0.00     0.048 C 
ATOM     31  O   UNL     1     104.376 136.229  59.928  1.00  0.00    -0.550 OA
ATOM     32  O   UNL     1     102.662 137.486  59.100  1.00  0.00    -0.550 OA
ENDBRANCH   1  30
BRANCH  27  33
ATOM     33  O   UNL     1     112.546 143.544  57.087  1.00  0.00    -0.393 OA
ATOM     34  H   UNL     1     113.002 144.062  57.800  1.00  0.00     0.210 HD
ENDBRANCH  27  33
TORSDOF 2
ENDMDL
