MODEL 1
REMARK VINA RESULT:    -7.304      0.000      0.000
REMARK INTER + INTRA:          -8.874
REMARK INTER:                  -8.585
REMARK INTRA:                  -0.289
REMARK UNBOUND:                -0.289
REMARK SMILES O=c1cc(-c2ccc(O)c(O)c2)oc2cc(O)cc(O)c12
REMARK SMILES IDX 4 1 3 2 2 3 1 4 21 5 19 6 18 7 16 8 15 9 14 10 13 11 5 12
REMARK SMILES IDX 6 13 7 14 8 15 12 16 10 17 9 18 11 20 20 22 17 24
REMARK H PARENT 9 19 11 21 20 23 17 25
REMARK Flexibility Score: inf
ROOT
ATOM      1  C   UNL     1       2.905  -8.925   8.487  1.00  0.00     0.138 A 
ATOM      2  C   UNL     1       2.646  -7.979   9.493  1.00  0.00     0.100 A 
ATOM      3  C   UNL     1       1.450  -8.049  10.209  1.00  0.00     0.197 A 
ATOM      4  O   UNL     1       1.225  -7.195  11.108  1.00  0.00    -0.289 OA
ATOM      5  C   UNL     1       0.519  -9.064   9.911  1.00  0.00     0.107 A 
ATOM      6  C   UNL     1      -0.715  -9.206  10.587  1.00  0.00     0.134 A 
ATOM      7  C   UNL     1      -1.590 -10.242  10.227  1.00  0.00     0.093 A 
ATOM      8  C   UNL     1      -1.255 -11.134   9.202  1.00  0.00     0.123 A 
ATOM      9  C   UNL     1      -0.038 -10.997   8.532  1.00  0.00     0.094 A 
ATOM     10  C   UNL     1       0.848  -9.973   8.876  1.00  0.00     0.146 A 
ATOM     11  O   UNL     1       2.001  -9.865   8.224  1.00  0.00    -0.456 OA
ENDROOT
BRANCH   1  12
ATOM     12  C   UNL     1       4.160  -8.899   7.693  1.00  0.00     0.021 A 
ATOM     13  C   UNL     1       4.648 -10.046   7.040  1.00  0.00     0.016 A 
ATOM     14  C   UNL     1       5.826  -9.989   6.291  1.00  0.00     0.051 A 
ATOM     15  C   UNL     1       6.534  -8.786   6.176  1.00  0.00     0.157 A 
ATOM     16  C   UNL     1       4.869  -7.691   7.560  1.00  0.00     0.062 A 
ATOM     17  C   UNL     1       6.050  -7.631   6.812  1.00  0.00     0.158 A 
BRANCH  15  18
ATOM     18  O   UNL     1       7.710  -8.734   5.430  1.00  0.00    -0.504 OA
ATOM     19  H   UNL     1       8.121  -9.567   5.028  1.00  0.00     0.293 HD
ENDBRANCH  15  18
BRANCH  17  20
ATOM     20  O   UNL     1       6.728  -6.417   6.713  1.00  0.00    -0.504 OA
ATOM     21  H   UNL     1       7.182  -5.987   7.509  1.00  0.00     0.293 HD
ENDBRANCH  17  20
ENDBRANCH   1  12
BRANCH   6  22
ATOM     22  O   UNL     1      -1.077  -8.331  11.612  1.00  0.00    -0.507 OA
ATOM     23  H   UNL     1      -1.451  -8.666  12.492  1.00  0.00     0.293 HD
ENDBRANCH   6  22
BRANCH   8  24
ATOM     24  O   UNL     1      -2.124 -12.163   8.844  1.00  0.00    -0.508 OA
ATOM     25  H   UNL     1      -1.789 -13.102   8.666  1.00  0.00     0.293 HD
ENDBRANCH   8  24
TORSDOF 5
ENDMDL
MODEL 2
REMARK VINA RESULT:    -7.297      2.886      4.054
REMARK INTER + INTRA:          -8.865
REMARK INTER:                  -8.596
REMARK INTRA:                  -0.269
REMARK UNBOUND:                -0.289
REMARK SMILES O=c1cc(-c2ccc(O)c(O)c2)oc2cc(O)cc(O)c12
REMARK SMILES IDX 4 1 3 2 2 3 1 4 21 5 19 6 18 7 16 8 15 9 14 10 13 11 5 12
REMARK SMILES IDX 6 13 7 14 8 15 12 16 10 17 9 18 11 20 20 22 17 24
REMARK H PARENT 9 19 11 21 20 23 17 25
REMARK Flexibility Score: inf
ROOT
ATOM      1  C   UNL     1       3.511  -7.011   7.730  1.00  0.00     0.138 A 
ATOM      2  C   UNL     1       4.467  -7.886   8.275  1.00  0.00     0.100 A 
ATOM      3  C   UNL     1       4.137  -8.648   9.397  1.00  0.00     0.197 A 
ATOM      4  O   UNL     1       5.001  -9.428   9.880  1.00  0.00    -0.289 OA
ATOM      5  C   UNL     1       2.854  -8.529   9.967  1.00  0.00     0.107 A 
ATOM      6  C   UNL     1       2.440  -9.265  11.102  1.00  0.00     0.134 A 
ATOM      7  C   UNL     1       1.145  -9.085  11.612  1.00  0.00     0.093 A 
ATOM      8  C   UNL     1       0.261  -8.182  11.010  1.00  0.00     0.123 A 
ATOM      9  C   UNL     1       0.667  -7.453   9.890  1.00  0.00     0.094 A 
ATOM     10  C   UNL     1       1.951  -7.619   9.366  1.00  0.00     0.146 A 
ATOM     11  O   UNL     1       2.312  -6.915   8.298  1.00  0.00    -0.456 OA
ENDROOT
BRANCH   1  12
ATOM     12  C   UNL     1       3.806  -6.175   6.538  1.00  0.00     0.021 A 
ATOM     13  C   UNL     1       4.623  -5.031   6.620  1.00  0.00     0.016 A 
ATOM     14  C   UNL     1       4.892  -4.269   5.480  1.00  0.00     0.051 A 
ATOM     15  C   UNL     1       4.357  -4.639   4.239  1.00  0.00     0.157 A 
ATOM     16  C   UNL     1       3.284  -6.547   5.286  1.00  0.00     0.062 A 
ATOM     17  C   UNL     1       3.550  -5.785   4.143  1.00  0.00     0.158 A 
BRANCH  15  18
ATOM     18  O   UNL     1       4.626  -3.875   3.104  1.00  0.00    -0.504 OA
ATOM     19  H   UNL     1       4.194  -2.970   2.959  1.00  0.00     0.293 HD
ENDBRANCH  15  18
BRANCH  17  20
ATOM     20  O   UNL     1       3.007  -6.182   2.922  1.00  0.00    -0.504 OA
ATOM     21  H   UNL     1       3.566  -6.617   2.200  1.00  0.00     0.293 HD
ENDBRANCH  17  20
ENDBRANCH   1  12
BRANCH   6  22
ATOM     22  O   UNL     1       3.300 -10.171  11.723  1.00  0.00    -0.507 OA
ATOM     23  H   UNL     1       2.953 -11.000  12.191  1.00  0.00     0.293 HD
ENDBRANCH   6  22
BRANCH   8  24
ATOM     24  O   UNL     1      -1.024  -8.002  11.517  1.00  0.00    -0.508 OA
ATOM     25  H   UNL     1      -1.208  -8.021  12.514  1.00  0.00     0.293 HD
ENDBRANCH   8  24
TORSDOF 5
ENDMDL
MODEL 3
REMARK VINA RESULT:    -6.883      3.170      4.464
REMARK INTER + INTRA:          -8.380
REMARK INTER:                  -8.114
REMARK INTRA:                  -0.265
REMARK UNBOUND:                -0.289
REMARK SMILES O=c1cc(-c2ccc(O)c(O)c2)oc2cc(O)cc(O)c12
REMARK SMILES IDX 4 1 3 2 2 3 1 4 21 5 19 6 18 7 16 8 15 9 14 10 13 11 5 12
REMARK SMILES IDX 6 13 7 14 8 15 12 16 10 17 9 18 11 20 20 22 17 24
REMARK H PARENT 9 19 11 21 20 23 17 25
REMARK Flexibility Score: inf
ROOT
ATOM      1  C   UNL     1       3.235  -6.960   7.698  1.00  0.00     0.138 A 
ATOM      2  C   UNL     1       1.908  -7.029   8.156  1.00  0.00     0.100 A 
ATOM      3  C   UNL     1       1.606  -7.818   9.267  1.00  0.00     0.197 A 
ATOM      4  O   UNL     1       0.412  -7.876   9.668  1.00  0.00    -0.289 OA
ATOM      5  C   UNL     1       2.633  -8.535   9.912  1.00  0.00     0.107 A 
ATOM      6  C   UNL     1       2.413  -9.356  11.042  1.00  0.00     0.134 A 
ATOM      7  C   UNL     1       3.491 -10.041  11.624  1.00  0.00     0.093 A 
ATOM      8  C   UNL     1       4.781  -9.921  11.095  1.00  0.00     0.123 A 
ATOM      9  C   UNL     1       5.002  -9.112   9.978  1.00  0.00     0.094 A 
ATOM     10  C   UNL     1       3.943  -8.421   9.385  1.00  0.00     0.146 A 
ATOM     11  O   UNL     1       4.180  -7.656   8.324  1.00  0.00    -0.456 OA
ENDROOT
BRANCH   1  12
ATOM     12  C   UNL     1       3.615  -6.137   6.521  1.00  0.00     0.021 A 
ATOM     13  C   UNL     1       4.475  -5.030   6.637  1.00  0.00     0.016 A 
ATOM     14  C   UNL     1       4.824  -4.281   5.511  1.00  0.00     0.051 A 
ATOM     15  C   UNL     1       4.325  -4.628   4.249  1.00  0.00     0.157 A 
ATOM     16  C   UNL     1       3.129  -6.488   5.248  1.00  0.00     0.062 A 
ATOM     17  C   UNL     1       3.475  -5.739   4.118  1.00  0.00     0.158 A 
BRANCH  15  18
ATOM     18  O   UNL     1       4.672  -3.877   3.127  1.00  0.00    -0.504 OA
ATOM     19  H   UNL     1       4.530  -2.875   3.094  1.00  0.00     0.293 HD
ENDBRANCH  15  18
BRANCH  17  20
ATOM     20  O   UNL     1       2.965  -6.113   2.875  1.00  0.00    -0.504 OA
ATOM     21  H   UNL     1       2.145  -6.699   2.784  1.00  0.00     0.293 HD
ENDBRANCH  17  20
ENDBRANCH   1  12
BRANCH   6  22
ATOM     22  O   UNL     1       1.138  -9.494  11.591  1.00  0.00    -0.507 OA
ATOM     23  H   UNL     1       0.338  -9.749  11.024  1.00  0.00     0.293 HD
ENDBRANCH   6  22
BRANCH   8  24
ATOM     24  O   UNL     1       5.851 -10.602  11.672  1.00  0.00    -0.508 OA
ATOM     25  H   UNL     1       6.736 -10.704  11.190  1.00  0.00     0.293 HD
ENDBRANCH   8  24
TORSDOF 5
ENDMDL
MODEL 4
REMARK VINA RESULT:    -6.805      2.535      7.004
REMARK INTER + INTRA:          -8.287
REMARK INTER:                  -8.021
REMARK INTRA:                  -0.266
REMARK UNBOUND:                -0.289
REMARK SMILES O=c1cc(-c2ccc(O)c(O)c2)oc2cc(O)cc(O)c12
REMARK SMILES IDX 4 1 3 2 2 3 1 4 21 5 19 6 18 7 16 8 15 9 14 10 13 11 5 12
REMARK SMILES IDX 6 13 7 14 8 15 12 16 10 17 9 18 11 20 20 22 17 24
REMARK H PARENT 9 19 11 21 20 23 17 25
REMARK Flexibility Score: inf
ROOT
ATOM      1  C   UNL     1       4.556  -8.665   7.960  1.00  0.00     0.138 A 
ATOM      2  C   UNL     1       5.379  -7.605   7.541  1.00  0.00     0.100 A 
ATOM      3  C   UNL     1       6.252  -7.796   6.470  1.00  0.00     0.197 A 
ATOM      4  O   UNL     1       6.987  -6.840   6.103  1.00  0.00    -0.289 OA
ATOM      5  C   UNL     1       6.299  -9.048   5.825  1.00  0.00     0.107 A 
ATOM      6  C   UNL     1       7.154  -9.325   4.732  1.00  0.00     0.134 A 
ATOM      7  C   UNL     1       7.143 -10.601   4.148  1.00  0.00     0.093 A 
ATOM      8  C   UNL     1       6.297 -11.602   4.638  1.00  0.00     0.123 A 
ATOM      9  C   UNL     1       5.453 -11.333   5.717  1.00  0.00     0.094 A 
ATOM     10  C   UNL     1       5.447 -10.069   6.312  1.00  0.00     0.146 A 
ATOM     11  O   UNL     1       4.632  -9.837   7.336  1.00  0.00    -0.456 OA
ENDROOT
BRANCH   1  12
ATOM     12  C   UNL     1       3.609  -8.519   9.095  1.00  0.00     0.021 A 
ATOM     13  C   UNL     1       3.782  -9.226  10.299  1.00  0.00     0.016 A 
ATOM     14  C   UNL     1       2.880  -9.061  11.354  1.00  0.00     0.051 A 
ATOM     15  C   UNL     1       1.796  -8.184  11.227  1.00  0.00     0.157 A 
ATOM     16  C   UNL     1       2.526  -7.629   8.981  1.00  0.00     0.062 A 
ATOM     17  C   UNL     1       1.621  -7.463  10.034  1.00  0.00     0.158 A 
BRANCH  15  18
ATOM     18  O   UNL     1       0.897  -8.023  12.281  1.00  0.00    -0.504 OA
ATOM     19  H   UNL     1      -0.078  -7.805  12.117  1.00  0.00     0.293 HD
ENDBRANCH  15  18
BRANCH  17  20
ATOM     20  O   UNL     1       0.554  -6.578   9.879  1.00  0.00    -0.504 OA
ATOM     21  H   UNL     1       0.195  -6.323   8.967  1.00  0.00     0.293 HD
ENDBRANCH  17  20
ENDBRANCH   1  12
BRANCH   6  22
ATOM     22  O   UNL     1       8.008  -8.346   4.223  1.00  0.00    -0.507 OA
ATOM     23  H   UNL     1       7.930  -8.014   3.269  1.00  0.00     0.293 HD
ENDBRANCH   6  22
BRANCH   8  24
ATOM     24  O   UNL     1       6.288 -12.870   4.058  1.00  0.00    -0.508 OA
ATOM     25  H   UNL     1       6.974 -13.572   4.310  1.00  0.00     0.293 HD
ENDBRANCH   8  24
TORSDOF 5
ENDMDL
MODEL 5
REMARK VINA RESULT:    -6.791      1.797      7.027
REMARK INTER + INTRA:          -8.271
REMARK INTER:                  -7.993
REMARK INTRA:                  -0.278
REMARK UNBOUND:                -0.289
REMARK SMILES O=c1cc(-c2ccc(O)c(O)c2)oc2cc(O)cc(O)c12
REMARK SMILES IDX 4 1 3 2 2 3 1 4 21 5 19 6 18 7 16 8 15 9 14 10 13 11 5 12
REMARK SMILES IDX 6 13 7 14 8 15 12 16 10 17 9 18 11 20 20 22 17 24
REMARK H PARENT 9 19 11 21 20 23 17 25
REMARK Flexibility Score: inf
ROOT
ATOM      1  C   UNL     1       2.158  -7.895   8.193  1.00  0.00     0.138 A 
ATOM      2  C   UNL     1       1.920  -6.576   7.772  1.00  0.00     0.100 A 
ATOM      3  C   UNL     1       2.903  -5.898   7.049  1.00  0.00     0.197 A 
ATOM      4  O   UNL     1       2.681  -4.714   6.678  1.00  0.00    -0.289 OA
ATOM      5  C   UNL     1       4.120  -6.544   6.754  1.00  0.00     0.107 A 
ATOM      6  C   UNL     1       5.167  -5.930   6.028  1.00  0.00     0.134 A 
ATOM      7  C   UNL     1       6.351  -6.641   5.780  1.00  0.00     0.093 A 
ATOM      8  C   UNL     1       6.507  -7.951   6.248  1.00  0.00     0.123 A 
ATOM      9  C   UNL     1       5.476  -8.560   6.966  1.00  0.00     0.094 A 
ATOM     10  C   UNL     1       4.288  -7.870   7.222  1.00  0.00     0.146 A 
ATOM     11  O   UNL     1       3.322  -8.473   7.906  1.00  0.00    -0.456 OA
ENDROOT
BRANCH   1  12
ATOM     12  C   UNL     1       1.149  -8.665   8.965  1.00  0.00     0.021 A 
ATOM     13  C   UNL     1       0.891 -10.022   8.700  1.00  0.00     0.016 A 
ATOM     14  C   UNL     1      -0.057 -10.724   9.450  1.00  0.00     0.051 A 
ATOM     15  C   UNL     1      -0.757 -10.085  10.480  1.00  0.00     0.157 A 
ATOM     16  C   UNL     1       0.452  -8.034  10.011  1.00  0.00     0.062 A 
ATOM     17  C   UNL     1      -0.498  -8.733  10.763  1.00  0.00     0.158 A 
BRANCH  15  18
ATOM     18  O   UNL     1      -1.703 -10.787  11.225  1.00  0.00    -0.504 OA
ATOM     19  H   UNL     1      -2.305 -10.321  11.893  1.00  0.00     0.293 HD
ENDBRANCH  15  18
BRANCH  17  20
ATOM     20  O   UNL     1      -1.175  -8.070  11.786  1.00  0.00    -0.504 OA
ATOM     21  H   UNL     1      -2.186  -8.029  11.824  1.00  0.00     0.293 HD
ENDBRANCH  17  20
ENDBRANCH   1  12
BRANCH   6  22
ATOM     22  O   UNL     1       5.039  -4.625   5.550  1.00  0.00    -0.507 OA
ATOM     23  H   UNL     1       5.839  -4.010   5.462  1.00  0.00     0.293 HD
ENDBRANCH   6  22
BRANCH   8  24
ATOM     24  O   UNL     1       7.683  -8.656   6.002  1.00  0.00    -0.508 OA
ATOM     25  H   UNL     1       8.532  -8.468   6.522  1.00  0.00     0.293 HD
ENDBRANCH   8  24
TORSDOF 5
ENDMDL
MODEL 6
REMARK VINA RESULT:    -6.766      1.551      7.301
REMARK INTER + INTRA:          -8.241
REMARK INTER:                  -7.941
REMARK INTRA:                  -0.300
REMARK UNBOUND:                -0.289
REMARK SMILES O=c1cc(-c2ccc(O)c(O)c2)oc2cc(O)cc(O)c12
REMARK SMILES IDX 4 1 3 2 2 3 1 4 21 5 19 6 18 7 16 8 15 9 14 10 13 11 5 12
REMARK SMILES IDX 6 13 7 14 8 15 12 16 10 17 9 18 11 20 20 22 17 24
REMARK H PARENT 9 19 11 21 20 23 17 25
REMARK Flexibility Score: inf
ROOT
ATOM      1  C   UNL     1       3.265  -9.203   8.185  1.00  0.00     0.138 A 
ATOM      2  C   UNL     1       3.860 -10.292   7.525  1.00  0.00     0.100 A 
ATOM      3  C   UNL     1       4.908 -10.063   6.632  1.00  0.00     0.197 A 
ATOM      4  O   UNL     1       5.434 -11.046   6.043  1.00  0.00    -0.289 OA
ATOM      5  C   UNL     1       5.352  -8.746   6.403  1.00  0.00     0.107 A 
ATOM      6  C   UNL     1       6.407  -8.428   5.516  1.00  0.00     0.134 A 
ATOM      7  C   UNL     1       6.787  -7.089   5.340  1.00  0.00     0.093 A 
ATOM      8  C   UNL     1       6.130  -6.065   6.032  1.00  0.00     0.123 A 
ATOM      9  C   UNL     1       5.088  -6.374   6.907  1.00  0.00     0.094 A 
ATOM     10  C   UNL     1       4.695  -7.702   7.098  1.00  0.00     0.146 A 
ATOM     11  O   UNL     1       3.702  -7.970   7.939  1.00  0.00    -0.456 OA
ENDROOT
BRANCH   1  12
ATOM     12  C   UNL     1       2.146  -9.386   9.144  1.00  0.00     0.021 A 
ATOM     13  C   UNL     1       1.143 -10.351   8.937  1.00  0.00     0.016 A 
ATOM     14  C   UNL     1       0.108 -10.508   9.863  1.00  0.00     0.051 A 
ATOM     15  C   UNL     1       0.060  -9.710  11.013  1.00  0.00     0.157 A 
ATOM     16  C   UNL     1       2.098  -8.598  10.309  1.00  0.00     0.062 A 
ATOM     17  C   UNL     1       1.062  -8.751  11.236  1.00  0.00     0.158 A 
BRANCH  15  18
ATOM     18  O   UNL     1      -0.975  -9.868  11.933  1.00  0.00    -0.504 OA
ATOM     19  H   UNL     1      -1.303 -10.785  12.211  1.00  0.00     0.293 HD
ENDBRANCH  15  18
BRANCH  17  20
ATOM     20  O   UNL     1       1.045  -7.945  12.374  1.00  0.00    -0.504 OA
ATOM     21  H   UNL     1       1.339  -6.976  12.351  1.00  0.00     0.293 HD
ENDBRANCH  17  20
ENDBRANCH   1  12
BRANCH   6  22
ATOM     22  O   UNL     1       7.079  -9.428   4.812  1.00  0.00    -0.507 OA
ATOM     23  H   UNL     1       6.755 -10.388   4.810  1.00  0.00     0.293 HD
ENDBRANCH   6  22
BRANCH   8  24
ATOM     24  O   UNL     1       6.507  -4.735   5.856  1.00  0.00    -0.508 OA
ATOM     25  H   UNL     1       6.122  -3.995   6.431  1.00  0.00     0.293 HD
ENDBRANCH   8  24
TORSDOF 5
ENDMDL
MODEL 7
REMARK VINA RESULT:    -6.740      2.604      7.749
REMARK INTER + INTRA:          -8.211
REMARK INTER:                  -7.938
REMARK INTRA:                  -0.273
REMARK UNBOUND:                -0.289
REMARK SMILES O=c1cc(-c2ccc(O)c(O)c2)oc2cc(O)cc(O)c12
REMARK SMILES IDX 4 1 3 2 2 3 1 4 21 5 19 6 18 7 16 8 15 9 14 10 13 11 5 12
REMARK SMILES IDX 6 13 7 14 8 15 12 16 10 17 9 18 11 20 20 22 17 24
REMARK H PARENT 9 19 11 21 20 23 17 25
REMARK Flexibility Score: inf
ROOT
ATOM      1  C   UNL     1       4.699  -8.377   8.011  1.00  0.00     0.138 A 
ATOM      2  C   UNL     1       5.007  -9.592   7.375  1.00  0.00     0.100 A 
ATOM      3  C   UNL     1       5.932  -9.604   6.330  1.00  0.00     0.197 A 
ATOM      4  O   UNL     1       6.200 -10.697   5.764  1.00  0.00    -0.289 OA
ATOM      5  C   UNL     1       6.543  -8.399   5.928  1.00  0.00     0.107 A 
ATOM      6  C   UNL     1       7.490  -8.323   4.880  1.00  0.00     0.134 A 
ATOM      7  C   UNL     1       8.048  -7.082   4.536  1.00  0.00     0.093 A 
ATOM      8  C   UNL     1       7.674  -5.919   5.219  1.00  0.00     0.123 A 
ATOM      9  C   UNL     1       6.739  -5.990   6.253  1.00  0.00     0.094 A 
ATOM     10  C   UNL     1       6.172  -7.216   6.612  1.00  0.00     0.146 A 
ATOM     11  O   UNL     1       5.286  -7.256   7.601  1.00  0.00    -0.456 OA
ENDROOT
BRANCH   1  12
ATOM     12  C   UNL     1       3.721  -8.305   9.128  1.00  0.00     0.021 A 
ATOM     13  C   UNL     1       3.981  -8.894  10.379  1.00  0.00     0.016 A 
ATOM     14  C   UNL     1       3.048  -8.800  11.414  1.00  0.00     0.051 A 
ATOM     15  C   UNL     1       1.843  -8.113  11.221  1.00  0.00     0.157 A 
ATOM     16  C   UNL     1       2.515  -7.604   8.945  1.00  0.00     0.062 A 
ATOM     17  C   UNL     1       1.577  -7.511   9.979  1.00  0.00     0.158 A 
BRANCH  15  18
ATOM     18  O   UNL     1       0.912  -8.024  12.255  1.00  0.00    -0.504 OA
ATOM     19  H   UNL     1       0.939  -8.653  13.048  1.00  0.00     0.293 HD
ENDBRANCH  15  18
BRANCH  17  20
ATOM     20  O   UNL     1       0.390  -6.815   9.756  1.00  0.00    -0.504 OA
ATOM     21  H   UNL     1      -0.151  -6.932   8.909  1.00  0.00     0.293 HD
ENDBRANCH  17  20
ENDBRANCH   1  12
BRANCH   6  22
ATOM     22  O   UNL     1       7.881  -9.466   4.182  1.00  0.00    -0.507 OA
ATOM     23  H   UNL     1       7.571  -9.644   3.234  1.00  0.00     0.293 HD
ENDBRANCH   6  22
BRANCH   8  24
ATOM     24  O   UNL     1       8.228  -4.687   4.877  1.00  0.00    -0.508 OA
ATOM     25  H   UNL     1       9.209  -4.595   4.641  1.00  0.00     0.293 HD
ENDBRANCH   8  24
TORSDOF 5
ENDMDL
MODEL 8
REMARK VINA RESULT:    -6.723      2.907      3.779
REMARK INTER + INTRA:          -8.191
REMARK INTER:                  -7.931
REMARK INTRA:                  -0.260
REMARK UNBOUND:                -0.289
REMARK SMILES O=c1cc(-c2ccc(O)c(O)c2)oc2cc(O)cc(O)c12
REMARK SMILES IDX 4 1 3 2 2 3 1 4 21 5 19 6 18 7 16 8 15 9 14 10 13 11 5 12
REMARK SMILES IDX 6 13 7 14 8 15 12 16 10 17 9 18 11 20 20 22 17 24
REMARK H PARENT 9 19 11 21 20 23 17 25
REMARK Flexibility Score: inf
ROOT
ATOM      1  C   UNL     1       4.455  -9.060   7.517  1.00  0.00     0.138 A 
ATOM      2  C   UNL     1       4.517  -9.277   8.905  1.00  0.00     0.100 A 
ATOM      3  C   UNL     1       3.590  -8.651   9.739  1.00  0.00     0.197 A 
ATOM      4  O   UNL     1       3.655  -8.849  10.982  1.00  0.00    -0.289 OA
ATOM      5  C   UNL     1       2.607  -7.810   9.181  1.00  0.00     0.107 A 
ATOM      6  C   UNL     1       1.631  -7.138   9.954  1.00  0.00     0.134 A 
ATOM      7  C   UNL     1       0.689  -6.314   9.321  1.00  0.00     0.093 A 
ATOM      8  C   UNL     1       0.708  -6.147   7.931  1.00  0.00     0.123 A 
ATOM      9  C   UNL     1       1.670  -6.807   7.165  1.00  0.00     0.094 A 
ATOM     10  C   UNL     1       2.616  -7.634   7.776  1.00  0.00     0.146 A 
ATOM     11  O   UNL     1       3.520  -8.252   7.023  1.00  0.00    -0.456 OA
ENDROOT
BRANCH   1  12
ATOM     12  C   UNL     1       5.415  -9.699   6.582  1.00  0.00     0.021 A 
ATOM     13  C   UNL     1       6.490  -8.984   6.021  1.00  0.00     0.016 A 
ATOM     14  C   UNL     1       7.384  -9.614   5.152  1.00  0.00     0.051 A 
ATOM     15  C   UNL     1       7.225 -10.968   4.833  1.00  0.00     0.157 A 
ATOM     16  C   UNL     1       5.270 -11.062   6.267  1.00  0.00     0.062 A 
ATOM     17  C   UNL     1       6.163 -11.695   5.396  1.00  0.00     0.158 A 
BRANCH  15  18
ATOM     18  O   UNL     1       8.118 -11.593   3.963  1.00  0.00    -0.504 OA
ATOM     19  H   UNL     1       8.149 -12.601   3.869  1.00  0.00     0.293 HD
ENDBRANCH  15  18
BRANCH  17  20
ATOM     20  O   UNL     1       5.980 -13.046   5.102  1.00  0.00    -0.504 OA
ATOM     21  H   UNL     1       6.349 -13.780   5.693  1.00  0.00     0.293 HD
ENDBRANCH  17  20
ENDBRANCH   1  12
BRANCH   6  22
ATOM     22  O   UNL     1       1.589  -7.286  11.341  1.00  0.00    -0.507 OA
ATOM     23  H   UNL     1       1.442  -8.189  11.777  1.00  0.00     0.293 HD
ENDBRANCH   6  22
BRANCH   8  24
ATOM     24  O   UNL     1      -0.227  -5.327   7.303  1.00  0.00    -0.508 OA
ATOM     25  H   UNL     1      -0.876  -5.693   6.617  1.00  0.00     0.293 HD
ENDBRANCH   8  24
TORSDOF 5
ENDMDL
MODEL 9
REMARK VINA RESULT:    -6.588      2.006      7.303
REMARK INTER + INTRA:          -8.033
REMARK INTER:                  -7.762
REMARK INTRA:                  -0.270
REMARK UNBOUND:                -0.289
REMARK SMILES O=c1cc(-c2ccc(O)c(O)c2)oc2cc(O)cc(O)c12
REMARK SMILES IDX 4 1 3 2 2 3 1 4 21 5 19 6 18 7 16 8 15 9 14 10 13 11 5 12
REMARK SMILES IDX 6 13 7 14 8 15 12 16 10 17 9 18 11 20 20 22 17 24
REMARK H PARENT 9 19 11 21 20 23 17 25
REMARK Flexibility Score: inf
ROOT
ATOM      1  C   UNL     1       2.694  -7.007   7.750  1.00  0.00     0.138 A 
ATOM      2  C   UNL     1       2.589  -5.777   7.079  1.00  0.00     0.100 A 
ATOM      3  C   UNL     1       3.632  -5.355   6.253  1.00  0.00     0.197 A 
ATOM      4  O   UNL     1       3.530  -4.249   5.657  1.00  0.00    -0.289 OA
ATOM      5  C   UNL     1       4.775  -6.167   6.105  1.00  0.00     0.107 A 
ATOM      6  C   UNL     1       5.874  -5.815   5.288  1.00  0.00     0.134 A 
ATOM      7  C   UNL     1       6.977  -6.677   5.198  1.00  0.00     0.093 A 
ATOM      8  C   UNL     1       7.001  -7.881   5.911  1.00  0.00     0.123 A 
ATOM      9  C   UNL     1       5.918  -8.231   6.719  1.00  0.00     0.094 A 
ATOM     10  C   UNL     1       4.809  -7.387   6.821  1.00  0.00     0.146 A 
ATOM     11  O   UNL     1       3.790  -7.745   7.596  1.00  0.00    -0.456 OA
ENDROOT
BRANCH   1  12
ATOM     12  C   UNL     1       1.616  -7.506   8.643  1.00  0.00     0.021 A 
ATOM     13  C   UNL     1       0.406  -8.011   8.132  1.00  0.00     0.016 A 
ATOM     14  C   UNL     1      -0.586  -8.483   8.995  1.00  0.00     0.051 A 
ATOM     15  C   UNL     1      -0.385  -8.465  10.381  1.00  0.00     0.157 A 
ATOM     16  C   UNL     1       1.816  -7.504  10.035  1.00  0.00     0.062 A 
ATOM     17  C   UNL     1       0.824  -7.974  10.902  1.00  0.00     0.158 A 
BRANCH  15  18
ATOM     18  O   UNL     1      -1.377  -8.935  11.240  1.00  0.00    -0.504 OA
ATOM     19  H   UNL     1      -1.667  -9.905  11.235  1.00  0.00     0.293 HD
ENDBRANCH  15  18
BRANCH  17  20
ATOM     20  O   UNL     1       1.057  -7.947  12.277  1.00  0.00    -0.504 OA
ATOM     21  H   UNL     1       0.358  -8.243  12.947  1.00  0.00     0.293 HD
ENDBRANCH  17  20
ENDBRANCH   1  12
BRANCH   6  22
ATOM     22  O   UNL     1       5.878  -4.621   4.565  1.00  0.00    -0.507 OA
ATOM     23  H   UNL     1       6.326  -4.547   3.660  1.00  0.00     0.293 HD
ENDBRANCH   6  22
BRANCH   8  24
ATOM     24  O   UNL     1       8.097  -8.737   5.822  1.00  0.00    -0.508 OA
ATOM     25  H   UNL     1       7.983  -9.743   5.808  1.00  0.00     0.293 HD
ENDBRANCH   8  24
TORSDOF 5
ENDMDL
