MODEL 1
REMARK VINA RESULT:    42.092      0.000      0.000
REMARK INTER + INTRA:          43.323
REMARK INTER:                  43.323
REMARK INTRA:                   0.000
REMARK UNBOUND:                 0.000
REMARK SMILES CC1(C)CC[C@]2(C)CC[C@@]3(C)C(=CC[C@H]4[C@]5(C)CC[C@H](O)C(C)(C)[C@@H]5CC[C@@]43C)[C@@H]2C1
REMARK SMILES IDX 1 1 2 2 4 3 5 4 6 5 8 6 9 7 10 8 12 9 13 10 14 11 15 12
REMARK SMILES IDX 28 13 27 14 26 15 25 16 16 17 18 18 19 19 20 20 22 21 23 22
REMARK SMILES IDX 24 23 17 24 29 25 30 26 31 27 11 28 7 29 3 30 21 31
REMARK H PARENT 21 32
REMARK Flexibility Score: inf
ROOT
ATOM      1  C   UNL     1       9.776  15.725  23.973  1.00  0.00     0.011 C 
ATOM      2  C   UNL     1      10.985  16.674  24.134  1.00  0.00    -0.035 C 
ATOM      3  C   UNL     1      11.955  16.438  22.955  1.00  0.00     0.007 C 
ATOM      4  C   UNL     1      13.262  17.227  23.100  1.00  0.00     0.008 C 
ATOM      5  C   UNL     1      14.020  16.976  24.444  1.00  0.00    -0.026 C 
ATOM      6  C   UNL     1      14.750  15.583  24.390  1.00  0.00     0.008 C 
ATOM      7  C   UNL     1      14.677  14.705  25.665  1.00  0.00     0.012 C 
ATOM      8  C   UNL     1      14.727  15.484  27.015  1.00  0.00    -0.006 C 
ATOM      9  C   UNL     1      13.698  16.627  26.976  1.00  0.00    -0.064 C 
ATOM     10  C   UNL     1      13.228  17.160  28.129  1.00  0.00    -0.027 C 
ATOM     11  C   UNL     1      13.416  16.546  29.499  1.00  0.00     0.032 C 
ATOM     12  C   UNL     1      14.454  15.385  29.581  1.00  0.00     0.006 C 
ATOM     13  C   UNL     1      14.378  14.528  28.272  1.00  0.00    -0.020 C 
ATOM     14  C   UNL     1      15.395  13.376  28.428  1.00  0.00     0.008 C 
ATOM     15  C   UNL     1      15.080  12.410  29.571  1.00  0.00     0.005 C 
ATOM     16  C   UNL     1      14.396  12.997  30.852  1.00  0.00     0.003 C 
ATOM     17  C   UNL     1      14.567  14.578  30.990  1.00  0.00    -0.025 C 
ATOM     18  C   UNL     1      15.984  14.848  31.592  1.00  0.00     0.010 C 
ATOM     19  C   UNL     1      16.299  14.085  32.887  1.00  0.00     0.033 C 
ATOM     20  C   UNL     1      16.166  12.562  32.726  1.00  0.00     0.120 C 
ATOM     21  C   UNL     1      14.772  12.137  32.153  1.00  0.00    -0.006 C 
ATOM     22  C   UNL     1      14.792  10.608  31.828  1.00  0.00     0.014 C 
ATOM     23  C   UNL     1      13.688  12.275  33.276  1.00  0.00     0.014 C 
ATOM     24  C   UNL     1      13.503  15.146  31.979  1.00  0.00     0.012 C 
ATOM     25  C   UNL     1      12.945  13.915  28.089  1.00  0.00     0.012 C 
ATOM     26  C   UNL     1      13.050  17.088  25.662  1.00  0.00     0.022 C 
ATOM     27  C   UNL     1      11.710  16.334  25.456  1.00  0.00     0.015 C 
ATOM     28  C   UNL     1      16.153  16.128  27.133  1.00  0.00     0.017 C 
ATOM     29  C   UNL     1      15.066  18.125  24.550  1.00  0.00     0.012 C 
ATOM     30  C   UNL     1      10.447  18.125  24.147  1.00  0.00     0.011 C 
ENDROOT
BRANCH  20  31
ATOM     31  O   UNL     1      17.221  12.112  31.909  1.00  0.00    -0.393 OA
ATOM     32  H   UNL     1      17.940  12.795  31.946  1.00  0.00     0.210 HD
ENDBRANCH  20  31
TORSDOF 1
ENDMDL
