MODEL 1
REMARK VINA RESULT:    -4.399      0.000      0.000
REMARK INTER + INTRA:          -8.465
REMARK INTER:                  -6.971
REMARK INTRA:                  -1.494
REMARK UNBOUND:                -1.494
REMARK SMILES CCCCCCCCCCCC(=O)[O-]
REMARK SMILES IDX 7 1 8 2 9 3 10 4 11 5 12 6 13 7 14 8 6 9 5 10 4 11 3 12 2 13
REMARK SMILES IDX 1 14
REMARK H PARENT
REMARK Flexibility Score: inf
ROOT
ATOM      1  C   UNL     1      63.126  29.448  13.399  1.00  0.00     0.000 C 
ENDROOT
BRANCH   1   2
ATOM      2  C   UNL     1      62.148  28.272  13.303  1.00  0.00     0.000 C 
BRANCH   2   3
ATOM      3  C   UNL     1      60.739  28.690  13.741  1.00  0.00     0.000 C 
BRANCH   3   4
ATOM      4  C   UNL     1      59.703  28.354  12.658  1.00  0.00     0.006 C 
BRANCH   4   5
ATOM      5  C   UNL     1      59.546  29.485  11.634  1.00  0.00     0.053 C 
BRANCH   5   6
ATOM      6  C   UNL     1      59.961  29.050  10.261  1.00  0.00     0.041 C 
ATOM      7  O   UNL     1      59.615  29.719   9.252  1.00  0.00    -0.550 OA
ATOM      8  O   UNL     1      60.756  27.923  10.099  1.00  0.00    -0.550 OA
ENDBRANCH   5   6
ENDBRANCH   4   5
ENDBRANCH   3   4
ENDBRANCH   2   3
ENDBRANCH   1   2
BRANCH   1   9
ATOM      9  C   UNL     1      63.255  30.166  12.047  1.00  0.00     0.000 C 
BRANCH   9  10
ATOM     10  C   UNL     1      63.017  31.681  12.156  1.00  0.00    -0.000 C 
BRANCH  10  11
ATOM     11  C   UNL     1      62.308  32.077  13.460  1.00  0.00    -0.000 C 
BRANCH  11  12
ATOM     12  C   UNL     1      60.890  32.591  13.180  1.00  0.00    -0.000 C 
BRANCH  12  13
ATOM     13  C   UNL     1      60.105  32.777  14.484  1.00  0.00    -0.003 C 
ATOM     14  C   UNL     1      59.035  31.701  14.642  1.00  0.00     0.004 C 
ENDBRANCH  12  13
ENDBRANCH  11  12
ENDBRANCH  10  11
ENDBRANCH   9  10
ENDBRANCH   1   9
TORSDOF 10
ENDMDL
MODEL 2
REMARK VINA RESULT:    -4.319     12.555     13.825
REMARK INTER + INTRA:          -8.338
REMARK INTER:                  -6.788
REMARK INTRA:                  -1.550
REMARK UNBOUND:                -1.494
REMARK SMILES CCCCCCCCCCCC(=O)[O-]
REMARK SMILES IDX 7 1 8 2 9 3 10 4 11 5 12 6 13 7 14 8 6 9 5 10 4 11 3 12 2 13
REMARK SMILES IDX 1 14
REMARK H PARENT
REMARK Flexibility Score: inf
ROOT
ATOM      1  C   UNL     1      62.024  29.656  24.658  1.00  0.00     0.000 C 
ENDROOT
BRANCH   1   2
ATOM      2  C   UNL     1      63.483  29.618  25.128  1.00  0.00     0.000 C 
BRANCH   2   3
ATOM      3  C   UNL     1      64.283  28.562  24.357  1.00  0.00     0.000 C 
BRANCH   3   4
ATOM      4  C   UNL     1      65.056  27.647  25.318  1.00  0.00     0.006 C 
BRANCH   4   5
ATOM      5  C   UNL     1      64.470  26.230  25.369  1.00  0.00     0.053 C 
BRANCH   5   6
ATOM      6  C   UNL     1      64.365  25.625  24.002  1.00  0.00     0.041 C 
ATOM      7  O   UNL     1      63.247  25.251  23.558  1.00  0.00    -0.550 OA
ATOM      8  O   UNL     1      65.496  25.502  23.206  1.00  0.00    -0.550 OA
ENDBRANCH   5   6
ENDBRANCH   4   5
ENDBRANCH   3   4
ENDBRANCH   2   3
ENDBRANCH   1   2
BRANCH   1   9
ATOM      9  C   UNL     1      61.468  28.235  24.479  1.00  0.00     0.000 C 
BRANCH   9  10
ATOM     10  C   UNL     1      60.358  27.901  25.489  1.00  0.00    -0.000 C 
BRANCH  10  11
ATOM     11  C   UNL     1      60.790  26.843  26.515  1.00  0.00    -0.000 C 
BRANCH  11  12
ATOM     12  C   UNL     1      61.693  27.459  27.592  1.00  0.00    -0.000 C 
BRANCH  12  13
ATOM     13  C   UNL     1      60.984  28.613  28.310  1.00  0.00    -0.003 C 
ATOM     14  C   UNL     1      61.918  29.806  28.493  1.00  0.00     0.004 C 
ENDBRANCH  12  13
ENDBRANCH  11  12
ENDBRANCH  10  11
ENDBRANCH   9  10
ENDBRANCH   1   9
TORSDOF 10
ENDMDL
MODEL 3
REMARK VINA RESULT:    -4.305      2.524      4.762
REMARK INTER + INTRA:          -8.317
REMARK INTER:                  -6.714
REMARK INTRA:                  -1.603
REMARK UNBOUND:                -1.494
REMARK SMILES CCCCCCCCCCCC(=O)[O-]
REMARK SMILES IDX 7 1 8 2 9 3 10 4 11 5 12 6 13 7 14 8 6 9 5 10 4 11 3 12 2 13
REMARK SMILES IDX 1 14
REMARK H PARENT
REMARK Flexibility Score: inf
ROOT
ATOM      1  C   UNL     1      61.986  28.444  13.044  1.00  0.00     0.000 C 
ENDROOT
BRANCH   1   2
ATOM      2  C   UNL     1      62.839  29.688  13.320  1.00  0.00     0.000 C 
BRANCH   2   3
ATOM      3  C   UNL     1      62.507  30.814  12.333  1.00  0.00     0.000 C 
BRANCH   3   4
ATOM      4  C   UNL     1      61.976  32.053  13.070  1.00  0.00     0.006 C 
BRANCH   4   5
ATOM      5  C   UNL     1      60.460  32.219  12.910  1.00  0.00     0.053 C 
BRANCH   5   6
ATOM      6  C   UNL     1      59.761  32.231  14.235  1.00  0.00     0.041 C 
ATOM      7  O   UNL     1      58.687  31.592  14.393  1.00  0.00    -0.550 OA
ATOM      8  O   UNL     1      60.313  32.923  15.306  1.00  0.00    -0.550 OA
ENDBRANCH   5   6
ENDBRANCH   4   5
ENDBRANCH   3   4
ENDBRANCH   2   3
ENDBRANCH   1   2
BRANCH   1   9
ATOM      9  C   UNL     1      60.602  28.569  13.699  1.00  0.00     0.000 C 
BRANCH   9  10
ATOM     10  C   UNL     1      59.463  28.631  12.669  1.00  0.00    -0.000 C 
BRANCH  10  11
ATOM     11  C   UNL     1      59.937  28.315  11.242  1.00  0.00    -0.000 C 
BRANCH  11  12
ATOM     12  C   UNL     1      59.683  29.502  10.304  1.00  0.00    -0.000 C 
BRANCH  12  13
ATOM     13  C   UNL     1      60.543  29.397   9.039  1.00  0.00    -0.003 C 
ATOM     14  C   UNL     1      61.880  28.722   9.335  1.00  0.00     0.004 C 
ENDBRANCH  12  13
ENDBRANCH  11  12
ENDBRANCH  10  11
ENDBRANCH   9  10
ENDBRANCH   1   9
TORSDOF 10
ENDMDL
MODEL 4
REMARK VINA RESULT:    -4.264      2.987      4.965
REMARK INTER + INTRA:          -8.251
REMARK INTER:                  -6.778
REMARK INTRA:                  -1.473
REMARK UNBOUND:                -1.494
REMARK SMILES CCCCCCCCCCCC(=O)[O-]
REMARK SMILES IDX 7 1 8 2 9 3 10 4 11 5 12 6 13 7 14 8 6 9 5 10 4 11 3 12 2 13
REMARK SMILES IDX 1 14
REMARK H PARENT
REMARK Flexibility Score: inf
ROOT
ATOM      1  C   UNL     1      62.927  30.011  13.548  1.00  0.00     0.000 C 
ENDROOT
BRANCH   1   2
ATOM      2  C   UNL     1      62.454  31.003  12.477  1.00  0.00     0.000 C 
BRANCH   2   3
ATOM      3  C   UNL     1      61.918  32.289  13.117  1.00  0.00     0.000 C 
BRANCH   3   4
ATOM      4  C   UNL     1      60.385  32.344  13.042  1.00  0.00     0.006 C 
BRANCH   4   5
ATOM      5  C   UNL     1      59.726  32.071  14.400  1.00  0.00     0.053 C 
BRANCH   5   6
ATOM      6  C   UNL     1      60.361  32.873  15.495  1.00  0.00     0.041 C 
ATOM      7  O   UNL     1      60.091  34.097  15.623  1.00  0.00    -0.550 OA
ATOM      8  O   UNL     1      61.225  32.263  16.394  1.00  0.00    -0.550 OA
ENDBRANCH   5   6
ENDBRANCH   4   5
ENDBRANCH   3   4
ENDBRANCH   2   3
ENDBRANCH   1   2
BRANCH   1   9
ATOM      9  C   UNL     1      62.289  28.630  13.337  1.00  0.00     0.000 C 
BRANCH   9  10
ATOM     10  C   UNL     1      60.788  28.614  13.670  1.00  0.00    -0.000 C 
BRANCH  10  11
ATOM     11  C   UNL     1      59.944  27.964  12.564  1.00  0.00    -0.000 C 
BRANCH  11  12
ATOM     12  C   UNL     1      59.260  29.028  11.698  1.00  0.00    -0.000 C 
BRANCH  12  13
ATOM     13  C   UNL     1      60.037  29.261  10.396  1.00  0.00    -0.003 C 
ATOM     14  C   UNL     1      60.796  28.006   9.974  1.00  0.00     0.004 C 
ENDBRANCH  12  13
ENDBRANCH  11  12
ENDBRANCH  10  11
ENDBRANCH   9  10
ENDBRANCH   1   9
TORSDOF 10
ENDMDL
MODEL 5
REMARK VINA RESULT:    -4.263      2.466      4.435
REMARK INTER + INTRA:          -8.250
REMARK INTER:                  -6.736
REMARK INTRA:                  -1.514
REMARK UNBOUND:                -1.494
REMARK SMILES CCCCCCCCCCCC(=O)[O-]
REMARK SMILES IDX 7 1 8 2 9 3 10 4 11 5 12 6 13 7 14 8 6 9 5 10 4 11 3 12 2 13
REMARK SMILES IDX 1 14
REMARK H PARENT
REMARK Flexibility Score: inf
ROOT
ATOM      1  C   UNL     1      63.351  29.505  11.296  1.00  0.00     0.000 C 
ENDROOT
BRANCH   1   2
ATOM      2  C   UNL     1      62.714  30.886  11.492  1.00  0.00     0.000 C 
BRANCH   2   3
ATOM      3  C   UNL     1      63.383  31.642  12.647  1.00  0.00     0.000 C 
BRANCH   3   4
ATOM      4  C   UNL     1      62.346  32.429  13.463  1.00  0.00     0.006 C 
BRANCH   4   5
ATOM      5  C   UNL     1      60.909  32.142  13.009  1.00  0.00     0.053 C 
BRANCH   5   6
ATOM      6  C   UNL     1      59.929  32.319  14.129  1.00  0.00     0.041 C 
ATOM      7  O   UNL     1      60.135  33.184  15.021  1.00  0.00    -0.550 OA
ATOM      8  O   UNL     1      58.773  31.552  14.169  1.00  0.00    -0.550 OA
ENDBRANCH   5   6
ENDBRANCH   4   5
ENDBRANCH   3   4
ENDBRANCH   2   3
ENDBRANCH   1   2
BRANCH   1   9
ATOM      9  C   UNL     1      62.493  28.632  10.367  1.00  0.00     0.000 C 
BRANCH   9  10
ATOM     10  C   UNL     1      61.202  29.336   9.920  1.00  0.00    -0.000 C 
BRANCH  10  11
ATOM     11  C   UNL     1      59.937  28.562  10.320  1.00  0.00    -0.000 C 
BRANCH  11  12
ATOM     12  C   UNL     1      59.390  29.061  11.663  1.00  0.00    -0.000 C 
BRANCH  12  13
ATOM     13  C   UNL     1      59.655  28.043  12.778  1.00  0.00    -0.003 C 
ATOM     14  C   UNL     1      60.740  28.536  13.731  1.00  0.00     0.004 C 
ENDBRANCH  12  13
ENDBRANCH  11  12
ENDBRANCH  10  11
ENDBRANCH   9  10
ENDBRANCH   1   9
TORSDOF 10
ENDMDL
MODEL 6
REMARK VINA RESULT:    -4.223     13.672     14.849
REMARK INTER + INTRA:          -8.186
REMARK INTER:                  -6.573
REMARK INTRA:                  -1.613
REMARK UNBOUND:                -1.494
REMARK SMILES CCCCCCCCCCCC(=O)[O-]
REMARK SMILES IDX 7 1 8 2 9 3 10 4 11 5 12 6 13 7 14 8 6 9 5 10 4 11 3 12 2 13
REMARK SMILES IDX 1 14
REMARK H PARENT
REMARK Flexibility Score: inf
ROOT
ATOM      1  C   UNL     1      65.593  28.897  25.606  1.00  0.00     0.000 C 
ENDROOT
BRANCH   1   2
ATOM      2  C   UNL     1      64.846  29.297  26.884  1.00  0.00     0.000 C 
BRANCH   2   3
ATOM      3  C   UNL     1      63.628  30.170  26.560  1.00  0.00     0.000 C 
BRANCH   3   4
ATOM      4  C   UNL     1      62.611  30.145  27.712  1.00  0.00     0.006 C 
BRANCH   4   5
ATOM      5  C   UNL     1      62.728  28.875  28.564  1.00  0.00     0.053 C 
BRANCH   5   6
ATOM      6  C   UNL     1      61.429  28.132  28.632  1.00  0.00     0.041 C 
ATOM      7  O   UNL     1      60.347  28.760  28.785  1.00  0.00    -0.550 OA
ATOM      8  O   UNL     1      61.409  26.750  28.497  1.00  0.00    -0.550 OA
ENDBRANCH   5   6
ENDBRANCH   4   5
ENDBRANCH   3   4
ENDBRANCH   2   3
ENDBRANCH   1   2
BRANCH   1   9
ATOM      9  C   UNL     1      64.750  27.933  24.757  1.00  0.00     0.000 C 
BRANCH   9  10
ATOM     10  C   UNL     1      64.154  26.782  25.584  1.00  0.00    -0.000 C 
BRANCH  10  11
ATOM     11  C   UNL     1      62.701  26.466  25.200  1.00  0.00    -0.000 C 
BRANCH  11  12
ATOM     12  C   UNL     1      62.101  27.594  24.351  1.00  0.00    -0.000 C 
BRANCH  12  13
ATOM     13  C   UNL     1      60.855  28.184  25.022  1.00  0.00    -0.003 C 
ATOM     14  C   UNL     1      59.846  27.094  25.370  1.00  0.00     0.004 C 
ENDBRANCH  12  13
ENDBRANCH  11  12
ENDBRANCH  10  11
ENDBRANCH   9  10
ENDBRANCH   1   9
TORSDOF 10
ENDMDL
MODEL 7
REMARK VINA RESULT:    -4.183     12.972     14.221
REMARK INTER + INTRA:          -8.123
REMARK INTER:                  -6.696
REMARK INTRA:                  -1.427
REMARK UNBOUND:                -1.494
REMARK SMILES CCCCCCCCCCCC(=O)[O-]
REMARK SMILES IDX 7 1 8 2 9 3 10 4 11 5 12 6 13 7 14 8 6 9 5 10 4 11 3 12 2 13
REMARK SMILES IDX 1 14
REMARK H PARENT
REMARK Flexibility Score: inf
ROOT
ATOM      1  C   UNL     1      63.661  30.067  26.516  1.00  0.00     0.000 C 
ENDROOT
BRANCH   1   2
ATOM      2  C   UNL     1      65.151  29.770  26.721  1.00  0.00     0.000 C 
BRANCH   2   3
ATOM      3  C   UNL     1      65.630  28.670  25.765  1.00  0.00     0.000 C 
BRANCH   3   4
ATOM      4  C   UNL     1      64.440  27.909  25.161  1.00  0.00     0.006 C 
BRANCH   4   5
ATOM      5  C   UNL     1      64.599  26.389  25.286  1.00  0.00     0.053 C 
BRANCH   5   6
ATOM      6  C   UNL     1      64.502  25.710  23.954  1.00  0.00     0.041 C 
ATOM      7  O   UNL     1      63.399  25.252  23.554  1.00  0.00    -0.550 OA
ATOM      8  O   UNL     1      65.623  25.611  23.141  1.00  0.00    -0.550 OA
ENDBRANCH   5   6
ENDBRANCH   4   5
ENDBRANCH   3   4
ENDBRANCH   2   3
ENDBRANCH   1   2
BRANCH   1   9
ATOM      9  C   UNL     1      62.940  30.215  27.864  1.00  0.00     0.000 C 
BRANCH   9  10
ATOM     10  C   UNL     1      61.694  29.320  27.971  1.00  0.00    -0.000 C 
BRANCH  10  11
ATOM     11  C   UNL     1      62.045  27.831  28.108  1.00  0.00    -0.000 C 
BRANCH  11  12
ATOM     12  C   UNL     1      61.373  27.005  27.004  1.00  0.00    -0.000 C 
BRANCH  12  13
ATOM     13  C   UNL     1      60.483  27.888  26.120  1.00  0.00    -0.003 C 
ATOM     14  C   UNL     1      60.944  27.856  24.666  1.00  0.00     0.004 C 
ENDBRANCH  12  13
ENDBRANCH  11  12
ENDBRANCH  10  11
ENDBRANCH   9  10
ENDBRANCH   1   9
TORSDOF 10
ENDMDL
MODEL 8
REMARK VINA RESULT:    -4.183      1.911      2.518
REMARK INTER + INTRA:          -8.122
REMARK INTER:                  -7.079
REMARK INTRA:                  -1.042
REMARK UNBOUND:                -1.494
REMARK SMILES CCCCCCCCCCCC(=O)[O-]
REMARK SMILES IDX 7 1 8 2 9 3 10 4 11 5 12 6 13 7 14 8 6 9 5 10 4 11 3 12 2 13
REMARK SMILES IDX 1 14
REMARK H PARENT
REMARK Flexibility Score: inf
ROOT
ATOM      1  C   UNL     1      62.859  29.125  10.718  1.00  0.00     0.000 C 
ENDROOT
BRANCH   1   2
ATOM      2  C   UNL     1      61.874  28.897   9.566  1.00  0.00     0.000 C 
BRANCH   2   3
ATOM      3  C   UNL     1      60.768  27.915   9.973  1.00  0.00     0.000 C 
BRANCH   3   4
ATOM      4  C   UNL     1      59.421  28.637  10.127  1.00  0.00     0.006 C 
BRANCH   4   5
ATOM      5  C   UNL     1      59.288  29.336  11.486  1.00  0.00     0.053 C 
BRANCH   5   6
ATOM      6  C   UNL     1      59.225  28.349  12.613  1.00  0.00     0.041 C 
ATOM      7  O   UNL     1      58.194  27.647  12.784  1.00  0.00    -0.550 OA
ATOM      8  O   UNL     1      60.318  28.184  13.454  1.00  0.00    -0.550 OA
ENDBRANCH   5   6
ENDBRANCH   4   5
ENDBRANCH   3   4
ENDBRANCH   2   3
ENDBRANCH   1   2
BRANCH   1   9
ATOM      9  C   UNL     1      63.679  30.405  10.494  1.00  0.00     0.000 C 
BRANCH   9  10
ATOM     10  C   UNL     1      63.512  31.422  11.635  1.00  0.00    -0.000 C 
BRANCH  10  11
ATOM     11  C   UNL     1      62.380  31.046  12.603  1.00  0.00    -0.000 C 
BRANCH  11  12
ATOM     12  C   UNL     1      61.815  32.291  13.297  1.00  0.00    -0.000 C 
BRANCH  12  13
ATOM     13  C   UNL     1      60.308  32.423  13.050  1.00  0.00    -0.003 C 
ATOM     14  C   UNL     1      59.506  31.918  14.246  1.00  0.00     0.004 C 
ENDBRANCH  12  13
ENDBRANCH  11  12
ENDBRANCH  10  11
ENDBRANCH   9  10
ENDBRANCH   1   9
TORSDOF 10
ENDMDL
MODEL 9
REMARK VINA RESULT:    -4.105      1.299      2.741
REMARK INTER + INTRA:          -7.998
REMARK INTER:                  -6.611
REMARK INTRA:                  -1.388
REMARK UNBOUND:                -1.494
REMARK SMILES CCCCCCCCCCCC(=O)[O-]
REMARK SMILES IDX 7 1 8 2 9 3 10 4 11 5 12 6 13 7 14 8 6 9 5 10 4 11 3 12 2 13
REMARK SMILES IDX 1 14
REMARK H PARENT
REMARK Flexibility Score: inf
ROOT
ATOM      1  C   UNL     1      63.137  31.653  12.687  1.00  0.00     0.000 C 
ENDROOT
BRANCH   1   2
ATOM      2  C   UNL     1      63.297  30.277  13.346  1.00  0.00     0.000 C 
BRANCH   2   3
ATOM      3  C   UNL     1      63.124  29.151  12.320  1.00  0.00     0.000 C 
BRANCH   3   4
ATOM      4  C   UNL     1      62.863  29.720  10.917  1.00  0.00     0.006 C 
BRANCH   4   5
ATOM      5  C   UNL     1      62.696  28.617   9.864  1.00  0.00     0.053 C 
BRANCH   5   6
ATOM      6  C   UNL     1      61.299  28.576   9.323  1.00  0.00     0.041 C 
ATOM      7  O   UNL     1      60.786  27.480   8.972  1.00  0.00    -0.550 OA
ATOM      8  O   UNL     1      60.552  29.744   9.236  1.00  0.00    -0.550 OA
ENDBRANCH   5   6
ENDBRANCH   4   5
ENDBRANCH   3   4
ENDBRANCH   2   3
ENDBRANCH   1   2
BRANCH   1   9
ATOM      9  C   UNL     1      62.935  32.748  13.746  1.00  0.00     0.000 C 
BRANCH   9  10
ATOM     10  C   UNL     1      61.620  32.581  14.526  1.00  0.00    -0.000 C 
BRANCH  10  11
ATOM     11  C   UNL     1      60.379  32.758  13.640  1.00  0.00    -0.000 C 
BRANCH  11  12
ATOM     12  C   UNL     1      59.464  31.530  13.724  1.00  0.00    -0.000 C 
BRANCH  12  13
ATOM     13  C   UNL     1      59.617  30.644  12.483  1.00  0.00    -0.003 C 
ATOM     14  C   UNL     1      59.544  29.164  12.849  1.00  0.00     0.004 C 
ENDBRANCH  12  13
ENDBRANCH  11  12
ENDBRANCH  10  11
ENDBRANCH   9  10
ENDBRANCH   1   9
TORSDOF 10
ENDMDL
