MODEL 1
REMARK VINA RESULT:    -5.310      0.000      0.000
REMARK INTER + INTRA:          -9.712
REMARK INTER:                  -8.414
REMARK INTRA:                  -1.298
REMARK UNBOUND:                -1.298
REMARK SMILES CCCCCCCCCCCC(=O)[O-]
REMARK SMILES IDX 7 1 8 2 9 3 10 4 11 5 12 6 13 7 14 8 6 9 5 10 4 11 3 12 2 13
REMARK SMILES IDX 1 14
REMARK H PARENT
REMARK Flexibility Score: inf
ROOT
ATOM      1  C   UNL     1      84.303  -1.874   1.537  1.00  0.00     0.000 C 
ENDROOT
BRANCH   1   2
ATOM      2  C   UNL     1      83.432  -0.616   1.336  1.00  0.00     0.000 C 
BRANCH   2   3
ATOM      3  C   UNL     1      83.649   0.124   0.003  1.00  0.00     0.000 C 
BRANCH   3   4
ATOM      4  C   UNL     1      82.389   0.856  -0.485  1.00  0.00     0.006 C 
BRANCH   4   5
ATOM      5  C   UNL     1      81.368   1.067   0.641  1.00  0.00     0.053 C 
BRANCH   5   6
ATOM      6  C   UNL     1      81.335   2.493   1.101  1.00  0.00     0.041 C 
ATOM      7  O   UNL     1      82.091   3.348   0.571  1.00  0.00    -0.550 OA
ATOM      8  O   UNL     1      80.489   2.869   2.137  1.00  0.00    -0.550 OA
ENDBRANCH   5   6
ENDBRANCH   4   5
ENDBRANCH   3   4
ENDBRANCH   2   3
ENDBRANCH   1   2
BRANCH   1   9
ATOM      9  C   UNL     1      83.986  -2.697   2.798  1.00  0.00     0.000 C 
BRANCH   9  10
ATOM     10  C   UNL     1      83.004  -3.850   2.527  1.00  0.00    -0.000 C 
BRANCH  10  11
ATOM     11  C   UNL     1      81.547  -3.467   2.833  1.00  0.00    -0.000 C 
BRANCH  11  12
ATOM     12  C   UNL     1      80.749  -3.123   1.564  1.00  0.00    -0.000 C 
BRANCH  12  13
ATOM     13  C   UNL     1      81.286  -3.844   0.317  1.00  0.00    -0.003 C 
ATOM     14  C   UNL     1      81.556  -2.893  -0.849  1.00  0.00     0.004 C 
ENDBRANCH  12  13
ENDBRANCH  11  12
ENDBRANCH  10  11
ENDBRANCH   9  10
ENDBRANCH   1   9
TORSDOF 10
ENDMDL
MODEL 2
REMARK VINA RESULT:    -5.280     15.143     17.294
REMARK INTER + INTRA:          -9.665
REMARK INTER:                  -8.409
REMARK INTRA:                  -1.257
REMARK UNBOUND:                -1.298
REMARK SMILES CCCCCCCCCCCC(=O)[O-]
REMARK SMILES IDX 7 1 8 2 9 3 10 4 11 5 12 6 13 7 14 8 6 9 5 10 4 11 3 12 2 13
REMARK SMILES IDX 1 14
REMARK H PARENT
REMARK Flexibility Score: inf
ROOT
ATOM      1  C   UNL     1      94.693  -2.833   7.877  1.00  0.00     0.000 C 
ENDROOT
BRANCH   1   2
ATOM      2  C   UNL     1      96.045  -3.446   7.455  1.00  0.00     0.000 C 
BRANCH   2   3
ATOM      3  C   UNL     1      97.055  -2.452   6.852  1.00  0.00     0.000 C 
BRANCH   3   4
ATOM      4  C   UNL     1      98.514  -2.896   7.041  1.00  0.00     0.006 C 
BRANCH   4   5
ATOM      5  C   UNL     1      98.622  -4.364   7.475  1.00  0.00     0.053 C 
BRANCH   5   6
ATOM      6  C   UNL     1      99.307  -5.201   6.438  1.00  0.00     0.041 C 
ATOM      7  O   UNL     1     100.065  -6.145   6.784  1.00  0.00    -0.550 OA
ATOM      8  O   UNL     1      99.130  -4.920   5.089  1.00  0.00    -0.550 OA
ENDBRANCH   5   6
ENDBRANCH   4   5
ENDBRANCH   3   4
ENDBRANCH   2   3
ENDBRANCH   1   2
BRANCH   1   9
ATOM      9  C   UNL     1      93.743  -3.788   8.620  1.00  0.00     0.000 C 
BRANCH   9  10
ATOM     10  C   UNL     1      94.043  -3.878  10.126  1.00  0.00    -0.000 C 
BRANCH  10  11
ATOM     11  C   UNL     1      95.017  -5.018  10.466  1.00  0.00    -0.000 C 
BRANCH  11  12
ATOM     12  C   UNL     1      96.386  -4.502  10.942  1.00  0.00    -0.000 C 
BRANCH  12  13
ATOM     13  C   UNL     1      96.372  -2.997  11.254  1.00  0.00    -0.003 C 
ATOM     14  C   UNL     1      97.454  -2.224  10.501  1.00  0.00     0.004 C 
ENDBRANCH  12  13
ENDBRANCH  11  12
ENDBRANCH  10  11
ENDBRANCH   9  10
ENDBRANCH   1   9
TORSDOF 10
ENDMDL
MODEL 3
REMARK VINA RESULT:    -5.185     12.015     13.540
REMARK INTER + INTRA:          -9.514
REMARK INTER:                  -8.895
REMARK INTRA:                  -0.619
REMARK UNBOUND:                -1.298
REMARK SMILES CCCCCCCCCCCC(=O)[O-]
REMARK SMILES IDX 7 1 8 2 9 3 10 4 11 5 12 6 13 7 14 8 6 9 5 10 4 11 3 12 2 13
REMARK SMILES IDX 1 14
REMARK H PARENT
REMARK Flexibility Score: inf
ROOT
ATOM      1  C   UNL     1      91.958  -9.055  -3.841  1.00  0.00     0.000 C 
ENDROOT
BRANCH   1   2
ATOM      2  C   UNL     1      90.503  -8.802  -3.393  1.00  0.00     0.000 C 
BRANCH   2   3
ATOM      3  C   UNL     1      89.503  -8.539  -4.533  1.00  0.00     0.000 C 
BRANCH   3   4
ATOM      4  C   UNL     1      89.914  -7.358  -5.427  1.00  0.00     0.006 C 
BRANCH   4   5
ATOM      5  C   UNL     1      88.719  -6.760  -6.182  1.00  0.00     0.053 C 
BRANCH   5   6
ATOM      6  C   UNL     1      88.575  -5.291  -5.920  1.00  0.00     0.041 C 
ATOM      7  O   UNL     1      88.468  -4.865  -4.741  1.00  0.00    -0.550 OA
ATOM      8  O   UNL     1      88.528  -4.397  -6.983  1.00  0.00    -0.550 OA
ENDBRANCH   5   6
ENDBRANCH   4   5
ENDBRANCH   3   4
ENDBRANCH   2   3
ENDBRANCH   1   2
BRANCH   1   9
ATOM      9  C   UNL     1      93.039  -8.615  -2.838  1.00  0.00     0.000 C 
BRANCH   9  10
ATOM     10  C   UNL     1      94.247  -7.947  -3.518  1.00  0.00    -0.000 C 
BRANCH  10  11
ATOM     11  C   UNL     1      94.067  -7.812  -5.039  1.00  0.00    -0.000 C 
BRANCH  11  12
ATOM     12  C   UNL     1      95.224  -7.047  -5.705  1.00  0.00    -0.000 C 
BRANCH  12  13
ATOM     13  C   UNL     1      96.109  -6.314  -4.684  1.00  0.00    -0.003 C 
ATOM     14  C   UNL     1      96.728  -5.034  -5.246  1.00  0.00     0.004 C 
ENDBRANCH  12  13
ENDBRANCH  11  12
ENDBRANCH  10  11
ENDBRANCH   9  10
ENDBRANCH   1   9
TORSDOF 10
ENDMDL
MODEL 4
REMARK VINA RESULT:    -5.138      3.496      5.284
REMARK INTER + INTRA:          -9.440
REMARK INTER:                  -8.422
REMARK INTRA:                  -1.018
REMARK UNBOUND:                -1.298
REMARK SMILES CCCCCCCCCCCC(=O)[O-]
REMARK SMILES IDX 7 1 8 2 9 3 10 4 11 5 12 6 13 7 14 8 6 9 5 10 4 11 3 12 2 13
REMARK SMILES IDX 1 14
REMARK H PARENT
REMARK Flexibility Score: inf
ROOT
ATOM      1  C   UNL     1      82.118  -3.560   3.321  1.00  0.00     0.000 C 
ENDROOT
BRANCH   1   2
ATOM      2  C   UNL     1      83.576  -3.665   2.827  1.00  0.00     0.000 C 
BRANCH   2   3
ATOM      3  C   UNL     1      84.436  -2.408   3.055  1.00  0.00     0.000 C 
BRANCH   3   4
ATOM      4  C   UNL     1      85.515  -2.221   1.977  1.00  0.00     0.006 C 
BRANCH   4   5
ATOM      5  C   UNL     1      86.925  -2.501   2.514  1.00  0.00     0.053 C 
BRANCH   5   6
ATOM      6  C   UNL     1      87.983  -2.127   1.521  1.00  0.00     0.041 C 
ATOM      7  O   UNL     1      88.855  -2.968   1.176  1.00  0.00    -0.550 OA
ATOM      8  O   UNL     1      88.023  -0.840   0.999  1.00  0.00    -0.550 OA
ENDBRANCH   5   6
ENDBRANCH   4   5
ENDBRANCH   3   4
ENDBRANCH   2   3
ENDBRANCH   1   2
BRANCH   1   9
ATOM      9  C   UNL     1      81.068  -3.321   2.221  1.00  0.00     0.000 C 
BRANCH   9  10
ATOM     10  C   UNL     1      81.540  -3.790   0.834  1.00  0.00    -0.000 C 
BRANCH  10  11
ATOM     11  C   UNL     1      81.544  -2.654  -0.202  1.00  0.00    -0.000 C 
BRANCH  11  12
ATOM     12  C   UNL     1      81.557  -1.260   0.450  1.00  0.00    -0.000 C 
BRANCH  12  13
ATOM     13  C   UNL     1      82.830  -0.466   0.115  1.00  0.00    -0.003 C 
ATOM     14  C   UNL     1      82.621   0.543  -1.014  1.00  0.00     0.004 C 
ENDBRANCH  12  13
ENDBRANCH  11  12
ENDBRANCH  10  11
ENDBRANCH   9  10
ENDBRANCH   1   9
TORSDOF 10
ENDMDL
MODEL 5
REMARK VINA RESULT:    -5.071      1.991      4.072
REMARK INTER + INTRA:          -9.334
REMARK INTER:                  -8.613
REMARK INTRA:                  -0.721
REMARK UNBOUND:                -1.298
REMARK SMILES CCCCCCCCCCCC(=O)[O-]
REMARK SMILES IDX 7 1 8 2 9 3 10 4 11 5 12 6 13 7 14 8 6 9 5 10 4 11 3 12 2 13
REMARK SMILES IDX 1 14
REMARK H PARENT
REMARK Flexibility Score: inf
ROOT
ATOM      1  C   UNL     1      81.306  -3.497   2.852  1.00  0.00     0.000 C 
ENDROOT
BRANCH   1   2
ATOM      2  C   UNL     1      80.538  -3.046   1.592  1.00  0.00     0.000 C 
BRANCH   2   3
ATOM      3  C   UNL     1      81.225  -3.376   0.254  1.00  0.00     0.000 C 
BRANCH   3   4
ATOM      4  C   UNL     1      81.979  -2.177  -0.341  1.00  0.00     0.006 C 
BRANCH   4   5
ATOM      5  C   UNL     1      81.862  -0.924   0.537  1.00  0.00     0.053 C 
BRANCH   5   6
ATOM      6  C   UNL     1      82.351   0.302  -0.174  1.00  0.00     0.041 C 
ATOM      7  O   UNL     1      82.498   0.293  -1.424  1.00  0.00    -0.550 OA
ATOM      8  O   UNL     1      82.671   1.443   0.550  1.00  0.00    -0.550 OA
ENDBRANCH   5   6
ENDBRANCH   4   5
ENDBRANCH   3   4
ENDBRANCH   2   3
ENDBRANCH   1   2
BRANCH   1   9
ATOM      9  C   UNL     1      82.746  -3.983   2.605  1.00  0.00     0.000 C 
BRANCH   9  10
ATOM     10  C   UNL     1      83.800  -3.098   3.292  1.00  0.00    -0.000 C 
BRANCH  10  11
ATOM     11  C   UNL     1      84.744  -2.417   2.287  1.00  0.00    -0.000 C 
BRANCH  11  12
ATOM     12  C   UNL     1      86.223  -2.744   2.551  1.00  0.00    -0.000 C 
BRANCH  12  13
ATOM     13  C   UNL     1      87.176  -1.888   1.701  1.00  0.00    -0.003 C 
ATOM     14  C   UNL     1      88.534  -2.555   1.477  1.00  0.00     0.004 C 
ENDBRANCH  12  13
ENDBRANCH  11  12
ENDBRANCH  10  11
ENDBRANCH   9  10
ENDBRANCH   1   9
TORSDOF 10
ENDMDL
MODEL 6
REMARK VINA RESULT:    -5.067      0.925      2.564
REMARK INTER + INTRA:          -9.327
REMARK INTER:                  -8.301
REMARK INTRA:                  -1.027
REMARK UNBOUND:                -1.298
REMARK SMILES CCCCCCCCCCCC(=O)[O-]
REMARK SMILES IDX 7 1 8 2 9 3 10 4 11 5 12 6 13 7 14 8 6 9 5 10 4 11 3 12 2 13
REMARK SMILES IDX 1 14
REMARK H PARENT
REMARK Flexibility Score: inf
ROOT
ATOM      1  C   UNL     1      81.816  -2.535  -0.352  1.00  0.00     0.000 C 
ENDROOT
BRANCH   1   2
ATOM      2  C   UNL     1      81.790  -1.139   0.305  1.00  0.00     0.000 C 
BRANCH   2   3
ATOM      3  C   UNL     1      83.162  -0.453   0.438  1.00  0.00     0.000 C 
BRANCH   3   4
ATOM      4  C   UNL     1      83.301   0.784  -0.463  1.00  0.00     0.006 C 
BRANCH   4   5
ATOM      5  C   UNL     1      81.942   1.418  -0.790  1.00  0.00     0.053 C 
BRANCH   5   6
ATOM      6  C   UNL     1      81.486   2.347   0.294  1.00  0.00     0.041 C 
ATOM      7  O   UNL     1      82.193   3.336   0.620  1.00  0.00    -0.550 OA
ATOM      8  O   UNL     1      80.294   2.102   0.964  1.00  0.00    -0.550 OA
ENDBRANCH   5   6
ENDBRANCH   4   5
ENDBRANCH   3   4
ENDBRANCH   2   3
ENDBRANCH   1   2
BRANCH   1   9
ATOM      9  C   UNL     1      81.364  -3.695   0.553  1.00  0.00     0.000 C 
BRANCH   9  10
ATOM     10  C   UNL     1      80.794  -3.215   1.898  1.00  0.00    -0.000 C 
BRANCH  10  11
ATOM     11  C   UNL     1      81.658  -3.651   3.093  1.00  0.00    -0.000 C 
BRANCH  11  12
ATOM     12  C   UNL     1      83.145  -3.790   2.727  1.00  0.00    -0.000 C 
BRANCH  12  13
ATOM     13  C   UNL     1      83.994  -2.624   3.258  1.00  0.00    -0.003 C 
ATOM     14  C   UNL     1      85.403  -2.597   2.667  1.00  0.00     0.004 C 
ENDBRANCH  12  13
ENDBRANCH  11  12
ENDBRANCH  10  11
ENDBRANCH   9  10
ENDBRANCH   1   9
TORSDOF 10
ENDMDL
MODEL 7
REMARK VINA RESULT:    -5.054     14.616     16.224
REMARK INTER + INTRA:          -9.307
REMARK INTER:                  -8.147
REMARK INTRA:                  -1.160
REMARK UNBOUND:                -1.298
REMARK SMILES CCCCCCCCCCCC(=O)[O-]
REMARK SMILES IDX 7 1 8 2 9 3 10 4 11 5 12 6 13 7 14 8 6 9 5 10 4 11 3 12 2 13
REMARK SMILES IDX 1 14
REMARK H PARENT
REMARK Flexibility Score: inf
ROOT
ATOM      1  C   UNL     1      89.871   7.663  12.101  1.00  0.00     0.000 C 
ENDROOT
BRANCH   1   2
ATOM      2  C   UNL     1      91.148   6.797  12.068  1.00  0.00     0.000 C 
BRANCH   2   3
ATOM      3  C   UNL     1      91.697   6.496  10.661  1.00  0.00     0.000 C 
BRANCH   3   4
ATOM      4  C   UNL     1      92.804   7.472  10.231  1.00  0.00     0.006 C 
BRANCH   4   5
ATOM      5  C   UNL     1      94.207   6.917  10.511  1.00  0.00     0.053 C 
BRANCH   5   6
ATOM      6  C   UNL     1      94.840   6.357   9.273  1.00  0.00     0.041 C 
ATOM      7  O   UNL     1      94.401   5.295   8.760  1.00  0.00    -0.550 OA
ATOM      8  O   UNL     1      95.935   6.995   8.703  1.00  0.00    -0.550 OA
ENDBRANCH   5   6
ENDBRANCH   4   5
ENDBRANCH   3   4
ENDBRANCH   2   3
ENDBRANCH   1   2
BRANCH   1   9
ATOM      9  C   UNL     1      90.098   9.156  12.399  1.00  0.00     0.000 C 
BRANCH   9  10
ATOM     10  C   UNL     1      90.339   9.988  11.128  1.00  0.00    -0.000 C 
BRANCH  10  11
ATOM     11  C   UNL     1      89.201   9.844  10.104  1.00  0.00    -0.000 C 
BRANCH  11  12
ATOM     12  C   UNL     1      89.619   9.028   8.869  1.00  0.00    -0.000 C 
BRANCH  12  13
ATOM     13  C   UNL     1      88.434   8.298   8.217  1.00  0.00    -0.003 C 
ATOM     14  C   UNL     1      88.091   6.981   8.914  1.00  0.00     0.004 C 
ENDBRANCH  12  13
ENDBRANCH  11  12
ENDBRANCH  10  11
ENDBRANCH   9  10
ENDBRANCH   1   9
TORSDOF 10
ENDMDL
MODEL 8
REMARK VINA RESULT:    -5.030      4.319      5.848
REMARK INTER + INTRA:          -9.268
REMARK INTER:                  -8.331
REMARK INTRA:                  -0.938
REMARK UNBOUND:                -1.298
REMARK SMILES CCCCCCCCCCCC(=O)[O-]
REMARK SMILES IDX 7 1 8 2 9 3 10 4 11 5 12 6 13 7 14 8 6 9 5 10 4 11 3 12 2 13
REMARK SMILES IDX 1 14
REMARK H PARENT
REMARK Flexibility Score: inf
ROOT
ATOM      1  C   UNL     1      83.234  -3.768   2.619  1.00  0.00     0.000 C 
ENDROOT
BRANCH   1   2
ATOM      2  C   UNL     1      84.232  -2.840   3.343  1.00  0.00     0.000 C 
BRANCH   2   3
ATOM      3  C   UNL     1      85.562  -2.604   2.604  1.00  0.00     0.000 C 
BRANCH   3   4
ATOM      4  C   UNL     1      86.776  -2.606   3.546  1.00  0.00     0.006 C 
BRANCH   4   5
ATOM      5  C   UNL     1      86.395  -2.226   4.983  1.00  0.00     0.053 C 
BRANCH   5   6
ATOM      6  C   UNL     1      87.208  -2.980   5.992  1.00  0.00     0.041 C 
ATOM      7  O   UNL     1      88.466  -2.925   5.961  1.00  0.00    -0.550 OA
ATOM      8  O   UNL     1      86.576  -3.765   6.947  1.00  0.00    -0.550 OA
ENDBRANCH   5   6
ENDBRANCH   4   5
ENDBRANCH   3   4
ENDBRANCH   2   3
ENDBRANCH   1   2
BRANCH   1   9
ATOM      9  C   UNL     1      81.763  -3.607   3.040  1.00  0.00     0.000 C 
BRANCH   9  10
ATOM     10  C   UNL     1      80.875  -3.058   1.910  1.00  0.00    -0.000 C 
BRANCH  10  11
ATOM     11  C   UNL     1      81.341  -3.515   0.519  1.00  0.00    -0.000 C 
BRANCH  11  12
ATOM     12  C   UNL     1      81.779  -2.340  -0.373  1.00  0.00    -0.000 C 
BRANCH  12  13
ATOM     13  C   UNL     1      81.850  -1.012   0.398  1.00  0.00    -0.003 C 
ATOM     14  C   UNL     1      83.284  -0.528   0.616  1.00  0.00     0.004 C 
ENDBRANCH  12  13
ENDBRANCH  11  12
ENDBRANCH  10  11
ENDBRANCH   9  10
ENDBRANCH   1   9
TORSDOF 10
ENDMDL
MODEL 9
REMARK VINA RESULT:    -4.977     12.287     14.391
REMARK INTER + INTRA:          -9.185
REMARK INTER:                  -8.286
REMARK INTRA:                  -0.898
REMARK UNBOUND:                -1.298
REMARK SMILES CCCCCCCCCCCC(=O)[O-]
REMARK SMILES IDX 7 1 8 2 9 3 10 4 11 5 12 6 13 7 14 8 6 9 5 10 4 11 3 12 2 13
REMARK SMILES IDX 1 14
REMARK H PARENT
REMARK Flexibility Score: inf
ROOT
ATOM      1  C   UNL     1      94.025  -3.950  10.193  1.00  0.00     0.000 C 
ENDROOT
BRANCH   1   2
ATOM      2  C   UNL     1      93.552  -4.130   8.735  1.00  0.00     0.000 C 
BRANCH   2   3
ATOM      3  C   UNL     1      93.542  -2.845   7.887  1.00  0.00     0.000 C 
BRANCH   3   4
ATOM      4  C   UNL     1      92.234  -2.657   7.103  1.00  0.00     0.006 C 
BRANCH   4   5
ATOM      5  C   UNL     1      92.206  -1.330   6.333  1.00  0.00     0.053 C 
BRANCH   5   6
ATOM      6  C   UNL     1      90.947  -1.178   5.533  1.00  0.00     0.041 C 
ATOM      7  O   UNL     1      89.863  -1.655   5.961  1.00  0.00    -0.550 OA
ATOM      8  O   UNL     1      90.979  -0.534   4.303  1.00  0.00    -0.550 OA
ENDBRANCH   5   6
ENDBRANCH   4   5
ENDBRANCH   3   4
ENDBRANCH   2   3
ENDBRANCH   1   2
BRANCH   1   9
ATOM      9  C   UNL     1      95.024  -5.008  10.694  1.00  0.00     0.000 C 
BRANCH   9  10
ATOM     10  C   UNL     1      96.443  -4.445  10.885  1.00  0.00    -0.000 C 
BRANCH  10  11
ATOM     11  C   UNL     1      96.482  -2.910  10.818  1.00  0.00    -0.000 C 
BRANCH  11  12
ATOM     12  C   UNL     1      97.287  -2.393   9.613  1.00  0.00    -0.000 C 
BRANCH  12  13
ATOM     13  C   UNL     1      97.219  -3.344   8.407  1.00  0.00    -0.003 C 
ATOM     14  C   UNL     1      97.367  -2.619   7.070  1.00  0.00     0.004 C 
ENDBRANCH  12  13
ENDBRANCH  11  12
ENDBRANCH  10  11
ENDBRANCH   9  10
ENDBRANCH   1   9
TORSDOF 10
ENDMDL
