MODEL 1
REMARK VINA RESULT:    -3.989      0.000      0.000
REMARK INTER + INTRA:          -7.323
REMARK INTER:                  -6.787
REMARK INTRA:                  -0.536
REMARK UNBOUND:                -0.536
REMARK SMILES CCCCCCCCCCCCCC(=O)[O-]
REMARK SMILES IDX 8 1 9 2 10 3 11 4 12 5 13 6 14 7 15 8 16 9 7 10 6 11 5 12
REMARK SMILES IDX 4 13 3 14 2 15 1 16
REMARK H PARENT
REMARK Flexibility Score: inf
ROOT
ATOM      1  C   UNL     1       8.521   6.117   9.129  1.00  0.00     0.000 C 
ENDROOT
BRANCH   1   2
ATOM      2  C   UNL     1       9.369   4.912   9.569  1.00  0.00     0.000 C 
BRANCH   2   3
ATOM      3  C   UNL     1       8.510   3.693   9.950  1.00  0.00     0.000 C 
BRANCH   3   4
ATOM      4  C   UNL     1       7.007   3.950   9.761  1.00  0.00     0.000 C 
BRANCH   4   5
ATOM      5  C   UNL     1       6.448   3.300   8.483  1.00  0.00     0.006 C 
BRANCH   5   6
ATOM      6  C   UNL     1       5.800   1.937   8.762  1.00  0.00     0.053 C 
BRANCH   6   7
ATOM      7  C   UNL     1       4.918   1.500   7.634  1.00  0.00     0.041 C 
ATOM      8  O   UNL     1       5.409   0.889   6.648  1.00  0.00    -0.550 OA
ATOM      9  O   UNL     1       3.550   1.736   7.687  1.00  0.00    -0.550 OA
ENDBRANCH   6   7
ENDBRANCH   5   6
ENDBRANCH   4   5
ENDBRANCH   3   4
ENDBRANCH   2   3
ENDBRANCH   1   2
BRANCH   1  10
ATOM     10  C   UNL     1       9.259   7.024   8.128  1.00  0.00     0.000 C 
BRANCH  10  11
ATOM     11  C   UNL     1       8.860   8.502   8.264  1.00  0.00    -0.000 C 
BRANCH  11  12
ATOM     12  C   UNL     1       7.939   8.759   9.468  1.00  0.00    -0.000 C 
BRANCH  12  13
ATOM     13  C   UNL     1       7.587  10.248   9.580  1.00  0.00    -0.000 C 
BRANCH  13  14
ATOM     14  C   UNL     1       6.897  10.747   8.301  1.00  0.00    -0.000 C 
BRANCH  14  15
ATOM     15  C   UNL     1       5.899  11.884   8.574  1.00  0.00    -0.003 C 
ATOM     16  C   UNL     1       4.770  11.940   7.545  1.00  0.00     0.004 C 
ENDBRANCH  14  15
ENDBRANCH  13  14
ENDBRANCH  12  13
ENDBRANCH  11  12
ENDBRANCH  10  11
ENDBRANCH   1  10
TORSDOF 12
ENDMDL
MODEL 2
REMARK VINA RESULT:    -3.811      1.257      2.229
REMARK INTER + INTRA:          -7.021
REMARK INTER:                  -6.322
REMARK INTRA:                  -0.699
REMARK UNBOUND:                -0.536
REMARK SMILES CCCCCCCCCCCCCC(=O)[O-]
REMARK SMILES IDX 8 1 9 2 10 3 11 4 12 5 13 6 14 7 15 8 16 9 7 10 6 11 5 12
REMARK SMILES IDX 4 13 3 14 2 15 1 16
REMARK H PARENT
REMARK Flexibility Score: inf
ROOT
ATOM      1  C   UNL     1       8.228   5.151   9.780  1.00  0.00     0.000 C 
ENDROOT
BRANCH   1   2
ATOM      2  C   UNL     1       7.494   4.019   9.043  1.00  0.00     0.000 C 
BRANCH   2   3
ATOM      3  C   UNL     1       7.126   2.849   9.972  1.00  0.00     0.000 C 
BRANCH   3   4
ATOM      4  C   UNL     1       5.607   2.670  10.121  1.00  0.00     0.000 C 
BRANCH   4   5
ATOM      5  C   UNL     1       4.822   3.225   8.920  1.00  0.00     0.006 C 
BRANCH   5   6
ATOM      6  C   UNL     1       3.829   2.200   8.354  1.00  0.00     0.053 C 
BRANCH   6   7
ATOM      7  C   UNL     1       4.380   1.498   7.152  1.00  0.00     0.041 C 
ATOM      8  O   UNL     1       3.637   1.256   6.165  1.00  0.00    -0.550 OA
ATOM      9  O   UNL     1       5.722   1.142   7.108  1.00  0.00    -0.550 OA
ENDBRANCH   6   7
ENDBRANCH   5   6
ENDBRANCH   4   5
ENDBRANCH   3   4
ENDBRANCH   2   3
ENDBRANCH   1   2
BRANCH   1  10
ATOM     10  C   UNL     1       9.728   5.204   9.437  1.00  0.00     0.000 C 
BRANCH  10  11
ATOM     11  C   UNL     1      10.305   6.625   9.533  1.00  0.00    -0.000 C 
BRANCH  11  12
ATOM     12  C   UNL     1      10.107   7.436   8.243  1.00  0.00    -0.000 C 
BRANCH  12  13
ATOM     13  C   UNL     1       8.783   8.210   8.280  1.00  0.00    -0.000 C 
BRANCH  13  14
ATOM     14  C   UNL     1       8.649   9.006   9.588  1.00  0.00    -0.000 C 
BRANCH  14  15
ATOM     15  C   UNL     1       7.396   9.895   9.611  1.00  0.00    -0.003 C 
ATOM     16  C   UNL     1       7.138  10.589   8.273  1.00  0.00     0.004 C 
ENDBRANCH  14  15
ENDBRANCH  13  14
ENDBRANCH  12  13
ENDBRANCH  11  12
ENDBRANCH  10  11
ENDBRANCH   1  10
TORSDOF 12
ENDMDL
MODEL 3
REMARK VINA RESULT:    -3.660      5.177      6.902
REMARK INTER + INTRA:          -6.764
REMARK INTER:                  -5.954
REMARK INTRA:                  -0.811
REMARK UNBOUND:                -0.536
REMARK SMILES CCCCCCCCCCCCCC(=O)[O-]
REMARK SMILES IDX 8 1 9 2 10 3 11 4 12 5 13 6 14 7 15 8 16 9 7 10 6 11 5 12
REMARK SMILES IDX 4 13 3 14 2 15 1 16
REMARK H PARENT
REMARK Flexibility Score: inf
ROOT
ATOM      1  C   UNL     1      -0.477   3.472   8.947  1.00  0.00     0.000 C 
ENDROOT
BRANCH   1   2
ATOM      2  C   UNL     1       0.855   4.141   9.327  1.00  0.00     0.000 C 
BRANCH   2   3
ATOM      3  C   UNL     1       1.949   3.118   9.679  1.00  0.00     0.000 C 
BRANCH   3   4
ATOM      4  C   UNL     1       3.298   3.784   9.993  1.00  0.00     0.000 C 
BRANCH   4   5
ATOM      5  C   UNL     1       4.431   3.297   9.072  1.00  0.00     0.006 C 
BRANCH   5   6
ATOM      6  C   UNL     1       4.344   1.790   8.795  1.00  0.00     0.053 C 
BRANCH   6   7
ATOM      7  C   UNL     1       4.597   1.476   7.353  1.00  0.00     0.041 C 
ATOM      8  O   UNL     1       3.674   1.607   6.506  1.00  0.00    -0.550 OA
ATOM      9  O   UNL     1       5.860   1.072   6.939  1.00  0.00    -0.550 OA
ENDBRANCH   6   7
ENDBRANCH   5   6
ENDBRANCH   4   5
ENDBRANCH   3   4
ENDBRANCH   2   3
ENDBRANCH   1   2
BRANCH   1  10
ATOM     10  C   UNL     1      -1.646   4.472   8.891  1.00  0.00     0.000 C 
BRANCH  10  11
ATOM     11  C   UNL     1      -1.552   5.551   9.981  1.00  0.00    -0.000 C 
BRANCH  11  12
ATOM     12  C   UNL     1      -1.802   6.967   9.438  1.00  0.00    -0.000 C 
BRANCH  12  13
ATOM     13  C   UNL     1      -0.874   7.985  10.114  1.00  0.00    -0.000 C 
BRANCH  13  14
ATOM     14  C   UNL     1       0.578   7.482  10.123  1.00  0.00    -0.000 C 
BRANCH  14  15
ATOM     15  C   UNL     1       1.528   8.411   9.351  1.00  0.00    -0.003 C 
ATOM     16  C   UNL     1       1.671   9.786  10.003  1.00  0.00     0.004 C 
ENDBRANCH  14  15
ENDBRANCH  13  14
ENDBRANCH  12  13
ENDBRANCH  11  12
ENDBRANCH  10  11
ENDBRANCH   1  10
TORSDOF 12
ENDMDL
MODEL 4
REMARK VINA RESULT:    -3.658      4.043      6.455
REMARK INTER + INTRA:          -6.760
REMARK INTER:                  -6.210
REMARK INTRA:                  -0.549
REMARK UNBOUND:                -0.536
REMARK SMILES CCCCCCCCCCCCCC(=O)[O-]
REMARK SMILES IDX 8 1 9 2 10 3 11 4 12 5 13 6 14 7 15 8 16 9 7 10 6 11 5 12
REMARK SMILES IDX 4 13 3 14 2 15 1 16
REMARK H PARENT
REMARK Flexibility Score: inf
ROOT
ATOM      1  C   UNL     1       4.216   2.932   8.277  1.00  0.00     0.000 C 
ENDROOT
BRANCH   1   2
ATOM      2  C   UNL     1       3.301   1.777   8.717  1.00  0.00     0.000 C 
BRANCH   2   3
ATOM      3  C   UNL     1       2.455   2.132   9.952  1.00  0.00     0.000 C 
BRANCH   3   4
ATOM      4  C   UNL     1       1.783   3.508   9.831  1.00  0.00     0.000 C 
BRANCH   4   5
ATOM      5  C   UNL     1       0.256   3.413   9.667  1.00  0.00     0.006 C 
BRANCH   5   6
ATOM      6  C   UNL     1      -0.410   4.795   9.631  1.00  0.00     0.053 C 
BRANCH   6   7
ATOM      7  C   UNL     1      -1.688   4.776   8.851  1.00  0.00     0.041 C 
ATOM      8  O   UNL     1      -2.307   3.693   8.678  1.00  0.00    -0.550 OA
ATOM      9  O   UNL     1      -2.213   5.958   8.344  1.00  0.00    -0.550 OA
ENDBRANCH   6   7
ENDBRANCH   5   6
ENDBRANCH   4   5
ENDBRANCH   3   4
ENDBRANCH   2   3
ENDBRANCH   1   2
BRANCH   1  10
ATOM     10  C   UNL     1       5.702   2.532   8.251  1.00  0.00     0.000 C 
BRANCH  10  11
ATOM     11  C   UNL     1       6.371   2.654   9.630  1.00  0.00    -0.000 C 
BRANCH  11  12
ATOM     12  C   UNL     1       6.823   4.088   9.945  1.00  0.00    -0.000 C 
BRANCH  12  13
ATOM     13  C   UNL     1       8.328   4.256   9.698  1.00  0.00    -0.000 C 
BRANCH  13  14
ATOM     14  C   UNL     1       8.744   5.729   9.820  1.00  0.00    -0.000 C 
BRANCH  14  15
ATOM     15  C   UNL     1       8.837   6.431   8.456  1.00  0.00    -0.003 C 
ATOM     16  C   UNL     1      10.187   7.112   8.231  1.00  0.00     0.004 C 
ENDBRANCH  14  15
ENDBRANCH  13  14
ENDBRANCH  12  13
ENDBRANCH  11  12
ENDBRANCH  10  11
ENDBRANCH   1  10
TORSDOF 12
ENDMDL
MODEL 5
REMARK VINA RESULT:    -3.599      2.563      3.907
REMARK INTER + INTRA:          -6.660
REMARK INTER:                  -6.074
REMARK INTRA:                  -0.587
REMARK UNBOUND:                -0.536
REMARK SMILES CCCCCCCCCCCCCC(=O)[O-]
REMARK SMILES IDX 8 1 9 2 10 3 11 4 12 5 13 6 14 7 15 8 16 9 7 10 6 11 5 12
REMARK SMILES IDX 4 13 3 14 2 15 1 16
REMARK H PARENT
REMARK Flexibility Score: inf
ROOT
ATOM      1  C   UNL     1       7.918   4.928   9.486  1.00  0.00     0.000 C 
ENDROOT
BRANCH   1   2
ATOM      2  C   UNL     1       8.317   3.538  10.010  1.00  0.00     0.000 C 
BRANCH   2   3
ATOM      3  C   UNL     1       7.143   2.543   9.996  1.00  0.00     0.000 C 
BRANCH   3   4
ATOM      4  C   UNL     1       5.776   3.243  10.045  1.00  0.00     0.000 C 
BRANCH   4   5
ATOM      5  C   UNL     1       5.029   3.184   8.701  1.00  0.00     0.006 C 
BRANCH   5   6
ATOM      6  C   UNL     1       4.269   1.863   8.518  1.00  0.00     0.053 C 
BRANCH   6   7
ATOM      7  C   UNL     1       4.418   1.324   7.129  1.00  0.00     0.041 C 
ATOM      8  O   UNL     1       3.517   1.525   6.273  1.00  0.00    -0.550 OA
ATOM      9  O   UNL     1       5.567   0.630   6.771  1.00  0.00    -0.550 OA
ENDBRANCH   6   7
ENDBRANCH   5   6
ENDBRANCH   4   5
ENDBRANCH   3   4
ENDBRANCH   2   3
ENDBRANCH   1   2
BRANCH   1  10
ATOM     10  C   UNL     1       8.798   6.052  10.062  1.00  0.00     0.000 C 
BRANCH  10  11
ATOM     11  C   UNL     1       8.491   7.422   9.437  1.00  0.00    -0.000 C 
BRANCH  11  12
ATOM     12  C   UNL     1       9.670   7.982   8.626  1.00  0.00    -0.000 C 
BRANCH  12  13
ATOM     13  C   UNL     1      10.602   8.814   9.517  1.00  0.00    -0.000 C 
BRANCH  13  14
ATOM     14  C   UNL     1      11.794   7.974  10.001  1.00  0.00    -0.000 C 
BRANCH  14  15
ATOM     15  C   UNL     1      12.559   7.315   8.843  1.00  0.00    -0.003 C 
ATOM     16  C   UNL     1      12.302   5.811   8.744  1.00  0.00     0.004 C 
ENDBRANCH  14  15
ENDBRANCH  13  14
ENDBRANCH  12  13
ENDBRANCH  11  12
ENDBRANCH  10  11
ENDBRANCH   1  10
TORSDOF 12
ENDMDL
MODEL 6
REMARK VINA RESULT:    -3.539      4.192      7.657
REMARK INTER + INTRA:          -6.558
REMARK INTER:                  -5.781
REMARK INTRA:                  -0.777
REMARK UNBOUND:                -0.536
REMARK SMILES CCCCCCCCCCCCCC(=O)[O-]
REMARK SMILES IDX 8 1 9 2 10 3 11 4 12 5 13 6 14 7 15 8 16 9 7 10 6 11 5 12
REMARK SMILES IDX 4 13 3 14 2 15 1 16
REMARK H PARENT
REMARK Flexibility Score: inf
ROOT
ATOM      1  C   UNL     1       6.707  10.828   9.589  1.00  0.00     0.000 C 
ENDROOT
BRANCH   1   2
ATOM      2  C   UNL     1       6.531  11.208   8.109  1.00  0.00     0.000 C 
BRANCH   2   3
ATOM      3  C   UNL     1       5.327  12.137   7.877  1.00  0.00     0.000 C 
BRANCH   3   4
ATOM      4  C   UNL     1       4.762  12.709   9.186  1.00  0.00     0.000 C 
BRANCH   4   5
ATOM      5  C   UNL     1       3.248  12.475   9.334  1.00  0.00     0.006 C 
BRANCH   5   6
ATOM      6  C   UNL     1       2.720  11.442   8.329  1.00  0.00     0.053 C 
BRANCH   6   7
ATOM      7  C   UNL     1       1.592  10.639   8.898  1.00  0.00     0.041 C 
ATOM      8  O   UNL     1       0.965  11.057   9.907  1.00  0.00    -0.550 OA
ATOM      9  O   UNL     1       1.211   9.448   8.295  1.00  0.00    -0.550 OA
ENDBRANCH   6   7
ENDBRANCH   5   6
ENDBRANCH   4   5
ENDBRANCH   3   4
ENDBRANCH   2   3
ENDBRANCH   1   2
BRANCH   1  10
ATOM     10  C   UNL     1       8.023  10.076   9.853  1.00  0.00     0.000 C 
BRANCH  10  11
ATOM     11  C   UNL     1       8.299   8.982   8.809  1.00  0.00    -0.000 C 
BRANCH  11  12
ATOM     12  C   UNL     1       8.402   7.580   9.430  1.00  0.00    -0.000 C 
BRANCH  12  13
ATOM     13  C   UNL     1       9.039   6.591   8.446  1.00  0.00    -0.000 C 
BRANCH  13  14
ATOM     14  C   UNL     1      10.302   5.954   9.047  1.00  0.00    -0.000 C 
BRANCH  14  15
ATOM     15  C   UNL     1      11.595   6.539   8.458  1.00  0.00    -0.003 C 
ATOM     16  C   UNL     1      12.135   7.716   9.271  1.00  0.00     0.004 C 
ENDBRANCH  14  15
ENDBRANCH  13  14
ENDBRANCH  12  13
ENDBRANCH  11  12
ENDBRANCH  10  11
ENDBRANCH   1  10
TORSDOF 12
ENDMDL
MODEL 7
REMARK VINA RESULT:    -3.509      4.747      8.524
REMARK INTER + INTRA:          -6.507
REMARK INTER:                  -5.391
REMARK INTRA:                  -1.116
REMARK UNBOUND:                -0.536
REMARK SMILES CCCCCCCCCCCCCC(=O)[O-]
REMARK SMILES IDX 8 1 9 2 10 3 11 4 12 5 13 6 14 7 15 8 16 9 7 10 6 11 5 12
REMARK SMILES IDX 4 13 3 14 2 15 1 16
REMARK H PARENT
REMARK Flexibility Score: inf
ROOT
ATOM      1  C   UNL     1       6.210  12.424   8.255  1.00  0.00     0.000 C 
ENDROOT
BRANCH   1   2
ATOM      2  C   UNL     1       5.491  11.396   7.365  1.00  0.00     0.000 C 
BRANCH   2   3
ATOM      3  C   UNL     1       4.112  11.887   6.891  1.00  0.00     0.000 C 
BRANCH   3   4
ATOM      4  C   UNL     1       4.002  13.419   6.886  1.00  0.00     0.000 C 
BRANCH   4   5
ATOM      5  C   UNL     1       2.660  13.921   7.449  1.00  0.00     0.006 C 
BRANCH   5   6
ATOM      6  C   UNL     1       2.415  13.433   8.883  1.00  0.00     0.053 C 
BRANCH   6   7
ATOM      7  C   UNL     1       1.089  12.750   9.018  1.00  0.00     0.041 C 
ATOM      8  O   UNL     1       1.034  11.505   9.197  1.00  0.00    -0.550 OA
ATOM      9  O   UNL     1      -0.084  13.494   8.983  1.00  0.00    -0.550 OA
ENDBRANCH   6   7
ENDBRANCH   5   6
ENDBRANCH   4   5
ENDBRANCH   3   4
ENDBRANCH   2   3
ENDBRANCH   1   2
BRANCH   1  10
ATOM     10  C   UNL     1       6.008  12.150   9.756  1.00  0.00     0.000 C 
BRANCH  10  11
ATOM     11  C   UNL     1       6.249  10.678  10.125  1.00  0.00    -0.000 C 
BRANCH  11  12
ATOM     12  C   UNL     1       7.729  10.275  10.028  1.00  0.00    -0.000 C 
BRANCH  12  13
ATOM     13  C   UNL     1       7.876   8.863   9.447  1.00  0.00    -0.000 C 
BRANCH  13  14
ATOM     14  C   UNL     1       8.604   8.899   8.095  1.00  0.00    -0.000 C 
BRANCH  14  15
ATOM     15  C   UNL     1       9.381   7.604   7.809  1.00  0.00    -0.003 C 
ATOM     16  C   UNL     1       8.952   6.446   8.710  1.00  0.00     0.004 C 
ENDBRANCH  14  15
ENDBRANCH  13  14
ENDBRANCH  12  13
ENDBRANCH  11  12
ENDBRANCH  10  11
ENDBRANCH   1  10
TORSDOF 12
ENDMDL
MODEL 8
REMARK VINA RESULT:    -3.502      3.812      7.728
REMARK INTER + INTRA:          -6.495
REMARK INTER:                  -5.970
REMARK INTRA:                  -0.526
REMARK UNBOUND:                -0.536
REMARK SMILES CCCCCCCCCCCCCC(=O)[O-]
REMARK SMILES IDX 8 1 9 2 10 3 11 4 12 5 13 6 14 7 15 8 16 9 7 10 6 11 5 12
REMARK SMILES IDX 4 13 3 14 2 15 1 16
REMARK H PARENT
REMARK Flexibility Score: inf
ROOT
ATOM      1  C   UNL     1       8.690   8.509   8.051  1.00  0.00     0.000 C 
ENDROOT
BRANCH   1   2
ATOM      2  C   UNL     1       8.529   9.242   9.393  1.00  0.00     0.000 C 
BRANCH   2   3
ATOM      3  C   UNL     1       7.283  10.144   9.428  1.00  0.00     0.000 C 
BRANCH   3   4
ATOM      4  C   UNL     1       6.943  10.732   8.050  1.00  0.00     0.000 C 
BRANCH   4   5
ATOM      5  C   UNL     1       6.142  12.043   8.143  1.00  0.00     0.006 C 
BRANCH   5   6
ATOM      6  C   UNL     1       4.627  11.801   8.112  1.00  0.00     0.053 C 
BRANCH   6   7
ATOM      7  C   UNL     1       4.053  12.046   6.751  1.00  0.00     0.041 C 
ATOM      8  O   UNL     1       4.043  11.123   5.894  1.00  0.00    -0.550 OA
ATOM      9  O   UNL     1       3.499  13.281   6.441  1.00  0.00    -0.550 OA
ENDBRANCH   6   7
ENDBRANCH   5   6
ENDBRANCH   4   5
ENDBRANCH   3   4
ENDBRANCH   2   3
ENDBRANCH   1   2
BRANCH   1  10
ATOM     10  C   UNL     1       9.204   7.068   8.223  1.00  0.00     0.000 C 
BRANCH  10  11
ATOM     11  C   UNL     1       8.702   6.412   9.519  1.00  0.00    -0.000 C 
BRANCH  11  12
ATOM     12  C   UNL     1       8.569   4.886   9.399  1.00  0.00    -0.000 C 
BRANCH  12  13
ATOM     13  C   UNL     1       7.192   4.416   9.885  1.00  0.00    -0.000 C 
BRANCH  13  14
ATOM     14  C   UNL     1       6.922   2.967   9.451  1.00  0.00    -0.000 C 
BRANCH  14  15
ATOM     15  C   UNL     1       5.502   2.772   8.897  1.00  0.00    -0.003 C 
ATOM     16  C   UNL     1       5.432   1.698   7.812  1.00  0.00     0.004 C 
ENDBRANCH  14  15
ENDBRANCH  13  14
ENDBRANCH  12  13
ENDBRANCH  11  12
ENDBRANCH  10  11
ENDBRANCH   1  10
TORSDOF 12
ENDMDL
MODEL 9
REMARK VINA RESULT:    -3.466      4.278      7.478
REMARK INTER + INTRA:          -6.434
REMARK INTER:                  -5.981
REMARK INTRA:                  -0.453
REMARK UNBOUND:                -0.536
REMARK SMILES CCCCCCCCCCCCCC(=O)[O-]
REMARK SMILES IDX 8 1 9 2 10 3 11 4 12 5 13 6 14 7 15 8 16 9 7 10 6 11 5 12
REMARK SMILES IDX 4 13 3 14 2 15 1 16
REMARK H PARENT
REMARK Flexibility Score: inf
ROOT
ATOM      1  C   UNL     1       6.198   3.259   8.840  1.00  0.00     0.000 C 
ENDROOT
BRANCH   1   2
ATOM      2  C   UNL     1       7.489   3.202   9.675  1.00  0.00     0.000 C 
BRANCH   2   3
ATOM      3  C   UNL     1       8.105   4.593   9.905  1.00  0.00     0.000 C 
BRANCH   3   4
ATOM      4  C   UNL     1       9.627   4.606   9.689  1.00  0.00     0.000 C 
BRANCH   4   5
ATOM      5  C   UNL     1      10.146   5.968   9.196  1.00  0.00     0.006 C 
BRANCH   5   6
ATOM      6  C   UNL     1       9.104   6.716   8.354  1.00  0.00     0.053 C 
BRANCH   6   7
ATOM      7  C   UNL     1       9.206   8.199   8.531  1.00  0.00     0.041 C 
ATOM      8  O   UNL     1      10.211   8.700   9.101  1.00  0.00    -0.550 OA
ATOM      9  O   UNL     1       8.209   9.030   8.037  1.00  0.00    -0.550 OA
ENDBRANCH   6   7
ENDBRANCH   5   6
ENDBRANCH   4   5
ENDBRANCH   3   4
ENDBRANCH   2   3
ENDBRANCH   1   2
BRANCH   1  10
ATOM     10  C   UNL     1       5.523   1.883   8.702  1.00  0.00     0.000 C 
BRANCH  10  11
ATOM     11  C   UNL     1       4.140   1.967   8.037  1.00  0.00    -0.000 C 
BRANCH  11  12
ATOM     12  C   UNL     1       2.990   1.708   9.022  1.00  0.00    -0.000 C 
BRANCH  12  13
ATOM     13  C   UNL     1       2.255   3.011   9.362  1.00  0.00    -0.000 C 
BRANCH  13  14
ATOM     14  C   UNL     1       0.799   2.731   9.766  1.00  0.00    -0.000 C 
BRANCH  14  15
ATOM     15  C   UNL     1      -0.156   3.859   9.344  1.00  0.00    -0.003 C 
ATOM     16  C   UNL     1      -1.545   3.345   8.962  1.00  0.00     0.004 C 
ENDBRANCH  14  15
ENDBRANCH  13  14
ENDBRANCH  12  13
ENDBRANCH  11  12
ENDBRANCH  10  11
ENDBRANCH   1  10
TORSDOF 12
ENDMDL
