MODEL 1
REMARK VINA RESULT:    -4.720      0.000      0.000
REMARK INTER + INTRA:          -9.808
REMARK INTER:                  -8.584
REMARK INTRA:                  -1.225
REMARK UNBOUND:                -1.225
REMARK SMILES CCCCCCCCCCCCCCCC(=O)[O-]
REMARK SMILES IDX 9 1 10 2 11 3 12 4 13 5 14 6 15 7 16 8 17 9 18 10 8 11 7 12
REMARK SMILES IDX 6 13 5 14 4 15 3 16 2 17 1 18
REMARK H PARENT
REMARK Flexibility Score: inf
ROOT
ATOM      1  C   UNL     1      -3.559  11.072 -19.235  1.00  0.00     0.000 C 
ENDROOT
BRANCH   1   2
ATOM      2  C   UNL     1      -4.846  11.791 -19.677  1.00  0.00     0.000 C 
BRANCH   2   3
ATOM      3  C   UNL     1      -6.062  11.403 -18.819  1.00  0.00     0.000 C 
BRANCH   3   4
ATOM      4  C   UNL     1      -6.461  12.502 -17.822  1.00  0.00     0.000 C 
BRANCH   4   5
ATOM      5  C   UNL     1      -5.986  12.152 -16.403  1.00  0.00     0.000 C 
BRANCH   5   6
ATOM      6  C   UNL     1      -4.774  12.988 -15.961  1.00  0.00     0.006 C 
BRANCH   6   7
ATOM      7  C   UNL     1      -4.287  12.623 -14.553  1.00  0.00     0.053 C 
BRANCH   7   8
ATOM      8  C   UNL     1      -3.092  11.727 -14.630  1.00  0.00     0.041 C 
ATOM      9  O   UNL     1      -1.971  12.129 -14.219  1.00  0.00    -0.550 OA
ATOM     10  O   UNL     1      -3.204  10.465 -15.201  1.00  0.00    -0.550 OA
ENDBRANCH   7   8
ENDBRANCH   6   7
ENDBRANCH   5   6
ENDBRANCH   4   5
ENDBRANCH   3   4
ENDBRANCH   2   3
ENDBRANCH   1   2
BRANCH   1  11
ATOM     11  C   UNL     1      -2.671  11.951 -18.341  1.00  0.00     0.000 C 
BRANCH  11  12
ATOM     12  C   UNL     1      -2.347  13.312 -18.978  1.00  0.00    -0.000 C 
BRANCH  12  13
ATOM     13  C   UNL     1      -1.796  14.289 -17.933  1.00  0.00    -0.000 C 
BRANCH  13  14
ATOM     14  C   UNL     1      -1.288  15.577 -18.599  1.00  0.00    -0.000 C 
BRANCH  14  15
ATOM     15  C   UNL     1       0.247  15.664 -18.624  1.00  0.00    -0.000 C 
BRANCH  15  16
ATOM     16  C   UNL     1       0.756  17.100 -18.837  1.00  0.00    -0.000 C 
BRANCH  16  17
ATOM     17  C   UNL     1      -0.387  18.125 -18.905  1.00  0.00    -0.003 C 
ATOM     18  C   UNL     1      -0.108  19.253 -19.899  1.00  0.00     0.004 C 
ENDBRANCH  16  17
ENDBRANCH  15  16
ENDBRANCH  14  15
ENDBRANCH  13  14
ENDBRANCH  12  13
ENDBRANCH  11  12
ENDBRANCH   1  11
TORSDOF 14
ENDMDL
MODEL 2
REMARK VINA RESULT:    -4.589      3.224      6.959
REMARK INTER + INTRA:          -9.569
REMARK INTER:                  -8.068
REMARK INTRA:                  -1.500
REMARK UNBOUND:                -1.225
REMARK SMILES CCCCCCCCCCCCCCCC(=O)[O-]
REMARK SMILES IDX 9 1 10 2 11 3 12 4 13 5 14 6 15 7 16 8 17 9 18 10 8 11 7 12
REMARK SMILES IDX 6 13 5 14 4 15 3 16 2 17 1 18
REMARK H PARENT
REMARK Flexibility Score: inf
ROOT
ATOM      1  C   UNL     1      -2.393  12.098 -18.860  1.00  0.00     0.000 C 
ENDROOT
BRANCH   1   2
ATOM      2  C   UNL     1      -2.445  13.507 -18.245  1.00  0.00     0.000 C 
BRANCH   2   3
ATOM      3  C   UNL     1      -1.606  14.526 -19.034  1.00  0.00     0.000 C 
BRANCH   3   4
ATOM      4  C   UNL     1      -0.859  15.514 -18.124  1.00  0.00     0.000 C 
BRANCH   4   5
ATOM      5  C   UNL     1       0.474  15.941 -18.758  1.00  0.00     0.000 C 
BRANCH   5   6
ATOM      6  C   UNL     1       0.569  17.461 -18.971  1.00  0.00     0.006 C 
BRANCH   6   7
ATOM      7  C   UNL     1      -0.806  18.130 -19.077  1.00  0.00     0.053 C 
BRANCH   7   8
ATOM      8  C   UNL     1      -0.795  19.456 -18.386  1.00  0.00     0.041 C 
ATOM      9  O   UNL     1       0.296  20.043 -18.158  1.00  0.00    -0.550 OA
ATOM     10  O   UNL     1      -1.986  20.023 -17.950  1.00  0.00    -0.550 OA
ENDBRANCH   7   8
ENDBRANCH   6   7
ENDBRANCH   5   6
ENDBRANCH   4   5
ENDBRANCH   3   4
ENDBRANCH   2   3
ENDBRANCH   1   2
BRANCH   1  11
ATOM     11  C   UNL     1      -3.633  11.259 -18.514  1.00  0.00     0.000 C 
BRANCH  11  12
ATOM     12  C   UNL     1      -4.942  11.908 -18.990  1.00  0.00    -0.000 C 
BRANCH  12  13
ATOM     13  C   UNL     1      -6.002  11.880 -17.883  1.00  0.00    -0.000 C 
BRANCH  13  14
ATOM     14  C   UNL     1      -5.718  12.954 -16.822  1.00  0.00    -0.000 C 
BRANCH  14  15
ATOM     15  C   UNL     1      -5.278  12.354 -15.476  1.00  0.00    -0.000 C 
BRANCH  15  16
ATOM     16  C   UNL     1      -3.978  12.982 -14.945  1.00  0.00    -0.000 C 
BRANCH  16  17
ATOM     17  C   UNL     1      -2.875  11.939 -14.708  1.00  0.00    -0.003 C 
ATOM     18  C   UNL     1      -3.362  10.506 -14.923  1.00  0.00     0.004 C 
ENDBRANCH  16  17
ENDBRANCH  15  16
ENDBRANCH  14  15
ENDBRANCH  13  14
ENDBRANCH  12  13
ENDBRANCH  11  12
ENDBRANCH   1  11
TORSDOF 14
ENDMDL
MODEL 3
REMARK VINA RESULT:    -4.560      3.287      7.140
REMARK INTER + INTRA:          -9.516
REMARK INTER:                  -8.523
REMARK INTRA:                  -0.993
REMARK UNBOUND:                -1.225
REMARK SMILES CCCCCCCCCCCCCCCC(=O)[O-]
REMARK SMILES IDX 9 1 10 2 11 3 12 4 13 5 14 6 15 7 16 8 17 9 18 10 8 11 7 12
REMARK SMILES IDX 6 13 5 14 4 15 3 16 2 17 1 18
REMARK H PARENT
REMARK Flexibility Score: inf
ROOT
ATOM      1  C   UNL     1      -2.669  14.026 -16.514  1.00  0.00     0.000 C 
ENDROOT
BRANCH   1   2
ATOM      2  C   UNL     1      -2.521  13.330 -17.878  1.00  0.00     0.000 C 
BRANCH   2   3
ATOM      3  C   UNL     1      -1.674  14.148 -18.868  1.00  0.00     0.000 C 
BRANCH   3   4
ATOM      4  C   UNL     1      -1.185  15.477 -18.274  1.00  0.00     0.000 C 
BRANCH   4   5
ATOM      5  C   UNL     1       0.214  15.831 -18.803  1.00  0.00     0.000 C 
BRANCH   5   6
ATOM      6  C   UNL     1       0.472  17.347 -18.830  1.00  0.00     0.006 C 
BRANCH   6   7
ATOM      7  C   UNL     1      -0.805  18.160 -19.067  1.00  0.00     0.053 C 
BRANCH   7   8
ATOM      8  C   UNL     1      -0.777  19.422 -18.264  1.00  0.00     0.041 C 
ATOM      9  O   UNL     1      -1.849  20.024 -17.993  1.00  0.00    -0.550 OA
ATOM     10  O   UNL     1       0.438  19.960 -17.857  1.00  0.00    -0.550 OA
ENDBRANCH   7   8
ENDBRANCH   6   7
ENDBRANCH   5   6
ENDBRANCH   4   5
ENDBRANCH   3   4
ENDBRANCH   2   3
ENDBRANCH   1   2
BRANCH   1  11
ATOM     11  C   UNL     1      -2.937  13.032 -15.372  1.00  0.00     0.000 C 
BRANCH  11  12
ATOM     12  C   UNL     1      -4.075  12.050 -15.693  1.00  0.00    -0.000 C 
BRANCH  12  13
ATOM     13  C   UNL     1      -5.439  12.745 -15.612  1.00  0.00    -0.000 C 
BRANCH  13  14
ATOM     14  C   UNL     1      -6.346  12.314 -16.774  1.00  0.00    -0.000 C 
BRANCH  14  15
ATOM     15  C   UNL     1      -5.553  11.950 -18.040  1.00  0.00    -0.000 C 
BRANCH  15  16
ATOM     16  C   UNL     1      -6.446  11.383 -19.156  1.00  0.00    -0.000 C 
BRANCH  16  17
ATOM     17  C   UNL     1      -5.719  11.301 -20.507  1.00  0.00    -0.003 C 
ATOM     18  C   UNL     1      -4.286  10.783 -20.374  1.00  0.00     0.004 C 
ENDBRANCH  16  17
ENDBRANCH  15  16
ENDBRANCH  14  15
ENDBRANCH  13  14
ENDBRANCH  12  13
ENDBRANCH  11  12
ENDBRANCH   1  11
TORSDOF 14
ENDMDL
MODEL 4
REMARK VINA RESULT:    -4.517      2.701      5.939
REMARK INTER + INTRA:          -9.438
REMARK INTER:                  -7.767
REMARK INTRA:                  -1.671
REMARK UNBOUND:                -1.225
REMARK SMILES CCCCCCCCCCCCCCCC(=O)[O-]
REMARK SMILES IDX 9 1 10 2 11 3 12 4 13 5 14 6 15 7 16 8 17 9 18 10 8 11 7 12
REMARK SMILES IDX 6 13 5 14 4 15 3 16 2 17 1 18
REMARK H PARENT
REMARK Flexibility Score: inf
ROOT
ATOM      1  C   UNL     1      -5.827  11.273 -19.630  1.00  0.00     0.000 C 
ENDROOT
BRANCH   1   2
ATOM      2  C   UNL     1      -4.345  10.984 -19.921  1.00  0.00     0.000 C 
BRANCH   2   3
ATOM      3  C   UNL     1      -3.459  11.127 -18.672  1.00  0.00     0.000 C 
BRANCH   3   4
ATOM      4  C   UNL     1      -2.242  12.035 -18.908  1.00  0.00     0.000 C 
BRANCH   4   5
ATOM      5  C   UNL     1      -2.439  13.401 -18.233  1.00  0.00     0.000 C 
BRANCH   5   6
ATOM      6  C   UNL     1      -1.658  14.526 -18.932  1.00  0.00     0.006 C 
BRANCH   6   7
ATOM      7  C   UNL     1      -0.928  15.442 -17.942  1.00  0.00     0.053 C 
BRANCH   7   8
ATOM      8  C   UNL     1       0.123  16.239 -18.647  1.00  0.00     0.041 C 
ATOM      9  O   UNL     1      -0.070  17.458 -18.900  1.00  0.00    -0.550 OA
ATOM     10  O   UNL     1       1.296  15.625 -19.068  1.00  0.00    -0.550 OA
ENDBRANCH   7   8
ENDBRANCH   6   7
ENDBRANCH   5   6
ENDBRANCH   4   5
ENDBRANCH   3   4
ENDBRANCH   2   3
ENDBRANCH   1   2
BRANCH   1  11
ATOM     11  C   UNL     1      -6.017  12.295 -18.497  1.00  0.00     0.000 C 
BRANCH  11  12
ATOM     12  C   UNL     1      -7.066  11.852 -17.466  1.00  0.00    -0.000 C 
BRANCH  12  13
ATOM     13  C   UNL     1      -6.537  12.023 -16.037  1.00  0.00    -0.000 C 
BRANCH  13  14
ATOM     14  C   UNL     1      -5.322  12.963 -16.010  1.00  0.00    -0.000 C 
BRANCH  14  15
ATOM     15  C   UNL     1      -4.643  13.011 -14.631  1.00  0.00    -0.000 C 
BRANCH  15  16
ATOM     16  C   UNL     1      -3.107  13.023 -14.727  1.00  0.00    -0.000 C 
BRANCH  16  17
ATOM     17  C   UNL     1      -2.483  11.668 -14.359  1.00  0.00    -0.003 C 
ATOM     18  C   UNL     1      -3.179  10.493 -15.048  1.00  0.00     0.004 C 
ENDBRANCH  16  17
ENDBRANCH  15  16
ENDBRANCH  14  15
ENDBRANCH  13  14
ENDBRANCH  12  13
ENDBRANCH  11  12
ENDBRANCH   1  11
TORSDOF 14
ENDMDL
MODEL 5
REMARK VINA RESULT:    -4.475      3.234      6.697
REMARK INTER + INTRA:          -9.362
REMARK INTER:                  -7.670
REMARK INTRA:                  -1.692
REMARK UNBOUND:                -1.225
REMARK SMILES CCCCCCCCCCCCCCCC(=O)[O-]
REMARK SMILES IDX 9 1 10 2 11 3 12 4 13 5 14 6 15 7 16 8 17 9 18 10 8 11 7 12
REMARK SMILES IDX 6 13 5 14 4 15 3 16 2 17 1 18
REMARK H PARENT
REMARK Flexibility Score: inf
ROOT
ATOM      1  C   UNL     1      -3.625  10.763 -18.874  1.00  0.00     0.000 C 
ENDROOT
BRANCH   1   2
ATOM      2  C   UNL     1      -2.469  11.727 -18.555  1.00  0.00     0.000 C 
BRANCH   2   3
ATOM      3  C   UNL     1      -2.717  13.145 -19.097  1.00  0.00     0.000 C 
BRANCH   3   4
ATOM      4  C   UNL     1      -1.989  14.227 -18.285  1.00  0.00     0.000 C 
BRANCH   4   5
ATOM      5  C   UNL     1      -0.817  14.816 -19.086  1.00  0.00     0.000 C 
BRANCH   5   6
ATOM      6  C   UNL     1      -0.098  15.950 -18.337  1.00  0.00     0.006 C 
BRANCH   6   7
ATOM      7  C   UNL     1       1.136  16.464 -19.088  1.00  0.00     0.053 C 
BRANCH   7   8
ATOM      8  C   UNL     1       1.077  17.952 -19.231  1.00  0.00     0.041 C 
ATOM      9  O   UNL     1       0.457  18.472 -20.197  1.00  0.00    -0.550 OA
ATOM     10  O   UNL     1       1.747  18.766 -18.326  1.00  0.00    -0.550 OA
ENDBRANCH   7   8
ENDBRANCH   6   7
ENDBRANCH   5   6
ENDBRANCH   4   5
ENDBRANCH   3   4
ENDBRANCH   2   3
ENDBRANCH   1   2
BRANCH   1  11
ATOM     11  C   UNL     1      -4.696  11.404 -19.772  1.00  0.00     0.000 C 
BRANCH  11  12
ATOM     12  C   UNL     1      -6.077  11.461 -19.101  1.00  0.00    -0.000 C 
BRANCH  12  13
ATOM     13  C   UNL     1      -6.107  12.527 -17.999  1.00  0.00    -0.000 C 
BRANCH  13  14
ATOM     14  C   UNL     1      -6.493  11.908 -16.646  1.00  0.00    -0.000 C 
BRANCH  14  15
ATOM     15  C   UNL     1      -5.833  12.627 -15.458  1.00  0.00    -0.000 C 
BRANCH  15  16
ATOM     16  C   UNL     1      -4.402  13.098 -15.771  1.00  0.00    -0.000 C 
BRANCH  16  17
ATOM     17  C   UNL     1      -3.350  12.413 -14.887  1.00  0.00    -0.003 C 
ATOM     18  C   UNL     1      -3.284  10.902 -15.113  1.00  0.00     0.004 C 
ENDBRANCH  16  17
ENDBRANCH  15  16
ENDBRANCH  14  15
ENDBRANCH  13  14
ENDBRANCH  12  13
ENDBRANCH  11  12
ENDBRANCH   1  11
TORSDOF 14
ENDMDL
MODEL 6
REMARK VINA RESULT:    -4.473      3.190      6.829
REMARK INTER + INTRA:          -9.358
REMARK INTER:                  -7.954
REMARK INTRA:                  -1.404
REMARK UNBOUND:                -1.225
REMARK SMILES CCCCCCCCCCCCCCCC(=O)[O-]
REMARK SMILES IDX 9 1 10 2 11 3 12 4 13 5 14 6 15 7 16 8 17 9 18 10 8 11 7 12
REMARK SMILES IDX 6 13 5 14 4 15 3 16 2 17 1 18
REMARK H PARENT
REMARK Flexibility Score: inf
ROOT
ATOM      1  C   UNL     1      -3.988  12.333 -14.875  1.00  0.00     0.000 C 
ENDROOT
BRANCH   1   2
ATOM      2  C   UNL     1      -2.805  13.293 -15.091  1.00  0.00     0.000 C 
BRANCH   2   3
ATOM      3  C   UNL     1      -2.776  13.882 -16.512  1.00  0.00     0.000 C 
BRANCH   3   4
ATOM      4  C   UNL     1      -1.473  14.637 -16.816  1.00  0.00     0.000 C 
BRANCH   4   5
ATOM      5  C   UNL     1      -1.378  14.985 -18.309  1.00  0.00     0.000 C 
BRANCH   5   6
ATOM      6  C   UNL     1      -0.167  15.874 -18.635  1.00  0.00     0.006 C 
BRANCH   6   7
ATOM      7  C   UNL     1      -0.532  17.360 -18.726  1.00  0.00     0.053 C 
BRANCH   7   8
ATOM      8  C   UNL     1       0.406  18.073 -19.647  1.00  0.00     0.041 C 
ATOM      9  O   UNL     1       0.201  19.277 -19.954  1.00  0.00    -0.550 OA
ATOM     10  O   UNL     1       1.482  17.394 -20.207  1.00  0.00    -0.550 OA
ENDBRANCH   7   8
ENDBRANCH   6   7
ENDBRANCH   5   6
ENDBRANCH   4   5
ENDBRANCH   3   4
ENDBRANCH   2   3
ENDBRANCH   1   2
BRANCH   1  11
ATOM     11  C   UNL     1      -5.293  12.856 -15.495  1.00  0.00     0.000 C 
BRANCH  11  12
ATOM     12  C   UNL     1      -5.979  11.819 -16.398  1.00  0.00    -0.000 C 
BRANCH  12  13
ATOM     13  C   UNL     1      -6.399  12.447 -17.732  1.00  0.00    -0.000 C 
BRANCH  13  14
ATOM     14  C   UNL     1      -6.327  11.418 -18.871  1.00  0.00    -0.000 C 
BRANCH  14  15
ATOM     15  C   UNL     1      -5.168  11.693 -19.843  1.00  0.00    -0.000 C 
BRANCH  15  16
ATOM     16  C   UNL     1      -3.958  10.776 -19.596  1.00  0.00    -0.000 C 
BRANCH  16  17
ATOM     17  C   UNL     1      -2.908  11.423 -18.680  1.00  0.00    -0.003 C 
ATOM     18  C   UNL     1      -2.370  10.455 -17.625  1.00  0.00     0.004 C 
ENDBRANCH  16  17
ENDBRANCH  15  16
ENDBRANCH  14  15
ENDBRANCH  13  14
ENDBRANCH  12  13
ENDBRANCH  11  12
ENDBRANCH   1  11
TORSDOF 14
ENDMDL
MODEL 7
REMARK VINA RESULT:    -4.367      0.855      1.924
REMARK INTER + INTRA:          -9.165
REMARK INTER:                  -7.896
REMARK INTRA:                  -1.269
REMARK UNBOUND:                -1.225
REMARK SMILES CCCCCCCCCCCCCCCC(=O)[O-]
REMARK SMILES IDX 9 1 10 2 11 3 12 4 13 5 14 6 15 7 16 8 17 9 18 10 8 11 7 12
REMARK SMILES IDX 6 13 5 14 4 15 3 16 2 17 1 18
REMARK H PARENT
REMARK Flexibility Score: inf
ROOT
ATOM      1  C   UNL     1      -2.395  13.058 -19.124  1.00  0.00     0.000 C 
ENDROOT
BRANCH   1   2
ATOM      2  C   UNL     1      -2.691  11.689 -18.488  1.00  0.00     0.000 C 
BRANCH   2   3
ATOM      3  C   UNL     1      -3.905  10.992 -19.127  1.00  0.00     0.000 C 
BRANCH   3   4
ATOM      4  C   UNL     1      -5.125  11.918 -19.248  1.00  0.00     0.000 C 
BRANCH   4   5
ATOM      5  C   UNL     1      -5.972  11.875 -17.966  1.00  0.00     0.000 C 
BRANCH   5   6
ATOM      6  C   UNL     1      -5.536  12.925 -16.932  1.00  0.00     0.006 C 
BRANCH   6   7
ATOM      7  C   UNL     1      -5.452  12.355 -15.511  1.00  0.00     0.053 C 
BRANCH   7   8
ATOM      8  C   UNL     1      -4.027  12.090 -15.139  1.00  0.00     0.041 C 
ATOM      9  O   UNL     1      -3.226  13.048 -14.976  1.00  0.00    -0.550 OA
ATOM     10  O   UNL     1      -3.571  10.783 -15.021  1.00  0.00    -0.550 OA
ENDBRANCH   7   8
ENDBRANCH   6   7
ENDBRANCH   5   6
ENDBRANCH   4   5
ENDBRANCH   3   4
ENDBRANCH   2   3
ENDBRANCH   1   2
BRANCH   1  11
ATOM     11  C   UNL     1      -2.006  14.119 -18.082  1.00  0.00     0.000 C 
BRANCH  11  12
ATOM     12  C   UNL     1      -1.393  15.378 -18.716  1.00  0.00    -0.000 C 
BRANCH  12  13
ATOM     13  C   UNL     1      -0.020  15.685 -18.106  1.00  0.00    -0.000 C 
BRANCH  13  14
ATOM     14  C   UNL     1       1.005  16.022 -19.199  1.00  0.00    -0.000 C 
BRANCH  14  15
ATOM     15  C   UNL     1       1.449  17.494 -19.160  1.00  0.00    -0.000 C 
BRANCH  15  16
ATOM     16  C   UNL     1       0.817  18.333 -20.283  1.00  0.00    -0.000 C 
BRANCH  16  17
ATOM     17  C   UNL     1       0.055  19.555 -19.747  1.00  0.00    -0.003 C 
ATOM     18  C   UNL     1      -1.012  19.179 -18.719  1.00  0.00     0.004 C 
ENDBRANCH  16  17
ENDBRANCH  15  16
ENDBRANCH  14  15
ENDBRANCH  13  14
ENDBRANCH  12  13
ENDBRANCH  11  12
ENDBRANCH   1  11
TORSDOF 14
ENDMDL
MODEL 8
REMARK VINA RESULT:    -4.365      2.392      4.115
REMARK INTER + INTRA:          -9.162
REMARK INTER:                  -8.101
REMARK INTRA:                  -1.061
REMARK UNBOUND:                -1.225
REMARK SMILES CCCCCCCCCCCCCCCC(=O)[O-]
REMARK SMILES IDX 9 1 10 2 11 3 12 4 13 5 14 6 15 7 16 8 17 9 18 10 8 11 7 12
REMARK SMILES IDX 6 13 5 14 4 15 3 16 2 17 1 18
REMARK H PARENT
REMARK Flexibility Score: inf
ROOT
ATOM      1  C   UNL     1      -2.748  13.209 -14.886  1.00  0.00     0.000 C 
ENDROOT
BRANCH   1   2
ATOM      2  C   UNL     1      -3.086  11.710 -14.811  1.00  0.00     0.000 C 
BRANCH   2   3
ATOM      3  C   UNL     1      -3.555  11.143 -16.161  1.00  0.00     0.000 C 
BRANCH   3   4
ATOM      4  C   UNL     1      -2.451  10.365 -16.895  1.00  0.00     0.000 C 
BRANCH   4   5
ATOM      5  C   UNL     1      -2.385  10.774 -18.375  1.00  0.00     0.000 C 
BRANCH   5   6
ATOM      6  C   UNL     1      -3.623  11.567 -18.826  1.00  0.00     0.006 C 
BRANCH   6   7
ATOM      7  C   UNL     1      -4.359  10.899 -19.994  1.00  0.00     0.053 C 
BRANCH   7   8
ATOM      8  C   UNL     1      -5.807  11.274 -19.980  1.00  0.00     0.041 C 
ATOM      9  O   UNL     1      -6.453  11.343 -21.059  1.00  0.00    -0.550 OA
ATOM     10  O   UNL     1      -6.432  11.594 -18.782  1.00  0.00    -0.550 OA
ENDBRANCH   7   8
ENDBRANCH   6   7
ENDBRANCH   5   6
ENDBRANCH   4   5
ENDBRANCH   3   4
ENDBRANCH   2   3
ENDBRANCH   1   2
BRANCH   1  11
ATOM     11  C   UNL     1      -2.888  13.774 -16.309  1.00  0.00     0.000 C 
BRANCH  11  12
ATOM     12  C   UNL     1      -1.628  14.518 -16.780  1.00  0.00    -0.000 C 
BRANCH  12  13
ATOM     13  C   UNL     1      -1.638  14.704 -18.302  1.00  0.00    -0.000 C 
BRANCH  13  14
ATOM     14  C   UNL     1      -0.893  15.985 -18.704  1.00  0.00    -0.000 C 
BRANCH  14  15
ATOM     15  C   UNL     1       0.633  15.799 -18.729  1.00  0.00    -0.000 C 
BRANCH  15  16
ATOM     16  C   UNL     1       1.385  17.112 -19.005  1.00  0.00    -0.000 C 
BRANCH  16  17
ATOM     17  C   UNL     1       1.743  17.285 -20.489  1.00  0.00    -0.003 C 
ATOM     18  C   UNL     1       1.704  18.746 -20.938  1.00  0.00     0.004 C 
ENDBRANCH  16  17
ENDBRANCH  15  16
ENDBRANCH  14  15
ENDBRANCH  13  14
ENDBRANCH  12  13
ENDBRANCH  11  12
ENDBRANCH   1  11
TORSDOF 14
ENDMDL
MODEL 9
REMARK VINA RESULT:    -4.359      2.214      3.701
REMARK INTER + INTRA:          -9.152
REMARK INTER:                  -8.079
REMARK INTRA:                  -1.073
REMARK UNBOUND:                -1.225
REMARK SMILES CCCCCCCCCCCCCCCC(=O)[O-]
REMARK SMILES IDX 9 1 10 2 11 3 12 4 13 5 14 6 15 7 16 8 17 9 18 10 8 11 7 12
REMARK SMILES IDX 6 13 5 14 4 15 3 16 2 17 1 18
REMARK H PARENT
REMARK Flexibility Score: inf
ROOT
ATOM      1  C   UNL     1      -2.020  14.430 -16.238  1.00  0.00     0.000 C 
ENDROOT
BRANCH   1   2
ATOM      2  C   UNL     1      -2.319  13.503 -15.046  1.00  0.00     0.000 C 
BRANCH   2   3
ATOM      3  C   UNL     1      -3.317  12.388 -15.402  1.00  0.00     0.000 C 
BRANCH   3   4
ATOM      4  C   UNL     1      -4.737  12.677 -14.892  1.00  0.00     0.000 C 
BRANCH   4   5
ATOM      5  C   UNL     1      -5.771  12.485 -16.012  1.00  0.00     0.000 C 
BRANCH   5   6
ATOM      6  C   UNL     1      -5.151  11.918 -17.300  1.00  0.00     0.006 C 
BRANCH   6   7
ATOM      7  C   UNL     1      -6.128  11.933 -18.482  1.00  0.00     0.053 C 
BRANCH   7   8
ATOM      8  C   UNL     1      -5.398  11.688 -19.765  1.00  0.00     0.041 C 
ATOM      9  O   UNL     1      -4.179  11.987 -19.867  1.00  0.00    -0.550 OA
ATOM     10  O   UNL     1      -6.076  11.175 -20.864  1.00  0.00    -0.550 OA
ENDBRANCH   7   8
ENDBRANCH   6   7
ENDBRANCH   5   6
ENDBRANCH   4   5
ENDBRANCH   3   4
ENDBRANCH   2   3
ENDBRANCH   1   2
BRANCH   1  11
ATOM     11  C   UNL     1      -2.307  13.761 -17.591  1.00  0.00     0.000 C 
BRANCH  11  12
ATOM     12  C   UNL     1      -1.626  14.479 -18.766  1.00  0.00    -0.000 C 
BRANCH  12  13
ATOM     13  C   UNL     1      -1.100  15.854 -18.337  1.00  0.00    -0.000 C 
BRANCH  13  14
ATOM     14  C   UNL     1       0.383  16.015 -18.705  1.00  0.00    -0.000 C 
BRANCH  14  15
ATOM     15  C   UNL     1       0.736  17.452 -19.122  1.00  0.00    -0.000 C 
BRANCH  15  16
ATOM     16  C   UNL     1      -0.498  18.367 -19.199  1.00  0.00    -0.000 C 
BRANCH  16  17
ATOM     17  C   UNL     1      -0.330  19.653 -18.376  1.00  0.00    -0.003 C 
ATOM     18  C   UNL     1      -1.638  20.116 -17.734  1.00  0.00     0.004 C 
ENDBRANCH  16  17
ENDBRANCH  15  16
ENDBRANCH  14  15
ENDBRANCH  13  14
ENDBRANCH  12  13
ENDBRANCH  11  12
ENDBRANCH   1  11
TORSDOF 14
ENDMDL
