MODEL 1
REMARK VINA RESULT:    -8.371      0.000      0.000
REMARK INTER + INTRA:         -15.215
REMARK INTER:                 -13.755
REMARK INTRA:                  -1.461
REMARK UNBOUND:                -1.461
REMARK SMILES C[C@H]1O[C@H](OC[C@@H]2O[C@@H](Oc3c(-c4ccc(O)c(O)c4)oc4cc(O)cc(O)c4c3=O)[C@H](O)[C@@H](O)[C@@H]2O)[C@H](O)[C@@H](O)[C@H]1O
REMARK SMILES IDX 7 1 36 2 34 3 32 4 9 5 8 6 6 7 5 8 4 9 1 10 2 11 42 12 3 13
REMARK SMILES IDX 40 14 38 15 43 16 41 18 39 20 37 22 35 24 10 26 11 27 12 28
REMARK SMILES IDX 30 29 21 30 29 31 31 32 22 33 27 34 23 35 26 36 24 37 13 38
REMARK SMILES IDX 20 39 14 40 18 41 15 42 16 43 19 44 17 46 28 48 25 50 33 52
REMARK H PARENT 43 17 41 19 39 21 37 23 35 25 19 45 17 47 28 49 25 51 33 53
REMARK Flexibility Score: inf
ROOT
ATOM      1  C   UNL     1       1.973  -3.740  21.333  1.00  0.00     0.180 C 
ATOM      2  C   UNL     1       0.525  -4.134  21.675  1.00  0.00     0.177 C 
ATOM      3  C   UNL     1      -0.223  -4.577  20.429  1.00  0.00     0.180 C 
ATOM      4  C   UNL     1      -0.134  -3.469  19.350  1.00  0.00     0.214 C 
ATOM      5  C   UNL     1       1.303  -2.869  19.215  1.00  0.00     0.339 C 
ATOM      6  O   UNL     1       1.984  -2.618  20.457  1.00  0.00    -0.332 OA
ENDROOT
BRANCH   1   7
ATOM      7  C   UNL     1       2.720  -3.416  22.639  1.00  0.00     0.198 C 
BRANCH   7   8
ATOM      8  O   UNL     1       2.902  -4.508  23.515  1.00  0.00    -0.347 OA
BRANCH   8   9
ATOM      9  C   UNL     1       4.158  -5.142  23.491  1.00  0.00     0.281 C 
ATOM     10  C   UNL     1       3.891  -7.086  26.608  1.00  0.00     0.041 C 
ATOM     11  C   UNL     1       3.915  -6.836  25.105  1.00  0.00     0.150 C 
ATOM     12  C   UNL     1       4.701  -7.947  24.341  1.00  0.00     0.174 C 
ATOM     13  O   UNL     1       4.505  -5.563  24.829  1.00  0.00    -0.344 OA
ATOM     14  C   UNL     1       5.294  -7.354  23.004  1.00  0.00     0.179 C 
ATOM     15  C   UNL     1       4.305  -6.311  22.468  1.00  0.00     0.202 C 
BRANCH  12  16
ATOM     16  O   UNL     1       5.708  -8.550  25.111  1.00  0.00    -0.388 OA
ATOM     17  H   UNL     1       5.985  -9.349  24.611  1.00  0.00     0.211 HD
ENDBRANCH  12  16
BRANCH  14  18
ATOM     18  O   UNL     1       6.507  -6.692  23.252  1.00  0.00    -0.387 OA
ATOM     19  H   UNL     1       6.660  -6.045  22.503  1.00  0.00     0.211 HD
ENDBRANCH  14  18
BRANCH  15  20
ATOM     20  O   UNL     1       3.071  -6.977  22.261  1.00  0.00    -0.385 OA
ATOM     21  H   UNL     1       2.972  -7.716  22.924  1.00  0.00     0.211 HD
ENDBRANCH  15  20
ENDBRANCH   8   9
ENDBRANCH   7   8
ENDBRANCH   1   7
BRANCH   2  22
ATOM     22  O   UNL     1      -0.153  -3.041  22.211  1.00  0.00    -0.387 OA
ATOM     23  H   UNL     1      -1.093  -3.301  22.462  1.00  0.00     0.211 HD
ENDBRANCH   2  22
BRANCH   3  24
ATOM     24  O   UNL     1       0.239  -5.821  19.974  1.00  0.00    -0.387 OA
ATOM     25  H   UNL     1       1.041  -6.084  20.490  1.00  0.00     0.211 HD
ENDBRANCH   3  24
BRANCH   5  26
ATOM     26  O   UNL     1       2.093  -3.688  18.383  1.00  0.00    -0.454 OA
BRANCH  26  27
ATOM     27  C   UNL     1       3.186  -3.160  17.679  1.00  0.00     0.214 A 
ATOM     28  C   UNL     1       3.075  -2.677  16.341  1.00  0.00     0.180 A 
ATOM     29  C   UNL     1       4.448  -3.077  18.302  1.00  0.00     0.239 A 
ATOM     30  O   UNL     1       4.208  -2.423  15.673  1.00  0.00    -0.452 OA
ATOM     31  C   UNL     1       5.573  -2.641  17.583  1.00  0.00     0.111 A 
ATOM     32  O   UNL     1       4.570  -3.415  19.509  1.00  0.00    -0.285 OA
ATOM     33  C   UNL     1       5.405  -2.359  16.217  1.00  0.00     0.146 A 
ATOM     34  C   UNL     1       6.819  -2.363  18.196  1.00  0.00     0.134 A 
ATOM     35  C   UNL     1       6.470  -1.961  15.411  1.00  0.00     0.094 A 
ATOM     36  C   UNL     1       7.856  -1.840  17.427  1.00  0.00     0.093 A 
ATOM     37  C   UNL     1       7.703  -1.639  16.023  1.00  0.00     0.123 A 
BRANCH  28  38
ATOM     38  C   UNL     1       1.804  -2.136  15.750  1.00  0.00     0.025 A 
ATOM     39  C   UNL     1       1.838  -0.925  15.014  1.00  0.00     0.062 A 
ATOM     40  C   UNL     1       0.805  -3.070  15.359  1.00  0.00     0.016 A 
ATOM     41  C   UNL     1       1.324  -0.887  13.716  1.00  0.00     0.158 A 
ATOM     42  C   UNL     1       0.278  -3.039  14.054  1.00  0.00     0.051 A 
ATOM     43  C   UNL     1       0.647  -1.997  13.192  1.00  0.00     0.157 A 
BRANCH  41  44
ATOM     44  O   UNL     1       1.532   0.236  12.895  1.00  0.00    -0.504 OA
ATOM     45  H   UNL     1       2.122   0.987  13.258  1.00  0.00     0.293 HD
ENDBRANCH  41  44
BRANCH  43  46
ATOM     46  O   UNL     1       0.455  -2.139  11.815  1.00  0.00    -0.504 OA
ATOM     47  H   UNL     1      -0.497  -2.213  11.458  1.00  0.00     0.293 HD
ENDBRANCH  43  46
ENDBRANCH  28  38
BRANCH  34  48
ATOM     48  O   UNL     1       7.010  -2.577  19.540  1.00  0.00    -0.507 OA
ATOM     49  H   UNL     1       7.937  -2.392  19.965  1.00  0.00     0.293 HD
ENDBRANCH  34  48
BRANCH  37  50
ATOM     50  O   UNL     1       8.776  -1.138  15.277  1.00  0.00    -0.508 OA
ATOM     51  H   UNL     1       8.768  -1.284  14.285  1.00  0.00     0.293 HD
ENDBRANCH  37  50
ENDBRANCH  26  27
ENDBRANCH   5  26
BRANCH   4  52
ATOM     52  O   UNL     1      -1.037  -2.424  19.639  1.00  0.00    -0.384 OA
ATOM     53  H   UNL     1      -0.739  -1.987  20.487  1.00  0.00     0.211 HD
ENDBRANCH   4  52
TORSDOF 16
ENDMDL
MODEL 2
REMARK VINA RESULT:    -8.188      1.328      4.353
REMARK INTER + INTRA:         -14.914
REMARK INTER:                 -13.272
REMARK INTRA:                  -1.643
REMARK UNBOUND:                -1.461
REMARK SMILES C[C@H]1O[C@H](OC[C@@H]2O[C@@H](Oc3c(-c4ccc(O)c(O)c4)oc4cc(O)cc(O)c4c3=O)[C@H](O)[C@@H](O)[C@@H]2O)[C@H](O)[C@@H](O)[C@H]1O
REMARK SMILES IDX 7 1 36 2 34 3 32 4 9 5 8 6 6 7 5 8 4 9 1 10 2 11 42 12 3 13
REMARK SMILES IDX 40 14 38 15 43 16 41 18 39 20 37 22 35 24 10 26 11 27 12 28
REMARK SMILES IDX 30 29 21 30 29 31 31 32 22 33 27 34 23 35 26 36 24 37 13 38
REMARK SMILES IDX 20 39 14 40 18 41 15 42 16 43 19 44 17 46 28 48 25 50 33 52
REMARK H PARENT 43 17 41 19 39 21 37 23 35 25 19 45 17 47 28 49 25 51 33 53
REMARK Flexibility Score: inf
ROOT
ATOM      1  C   UNL     1       2.081  -3.677  21.445  1.00  0.00     0.180 C 
ATOM      2  C   UNL     1       0.625  -4.098  21.709  1.00  0.00     0.177 C 
ATOM      3  C   UNL     1      -0.053  -4.536  20.421  1.00  0.00     0.180 C 
ATOM      4  C   UNL     1       0.071  -3.413  19.362  1.00  0.00     0.214 C 
ATOM      5  C   UNL     1       1.502  -2.787  19.307  1.00  0.00     0.339 C 
ATOM      6  O   UNL     1       2.116  -2.543  20.585  1.00  0.00    -0.332 OA
ENDROOT
BRANCH   1   7
ATOM      7  C   UNL     1       2.756  -3.359  22.790  1.00  0.00     0.198 C 
BRANCH   7   8
ATOM      8  O   UNL     1       2.936  -4.464  23.649  1.00  0.00    -0.347 OA
BRANCH   8   9
ATOM      9  C   UNL     1       4.175  -5.126  23.586  1.00  0.00     0.281 C 
ATOM     10  C   UNL     1       3.956  -7.078  26.702  1.00  0.00     0.041 C 
ATOM     11  C   UNL     1       3.942  -6.822  25.200  1.00  0.00     0.150 C 
ATOM     12  C   UNL     1       4.678  -7.947  24.409  1.00  0.00     0.174 C 
ATOM     13  O   UNL     1       4.553  -5.561  24.911  1.00  0.00    -0.344 OA
ATOM     14  C   UNL     1       5.245  -7.361  23.057  1.00  0.00     0.179 C 
ATOM     15  C   UNL     1       4.265  -6.294  22.555  1.00  0.00     0.202 C 
BRANCH  12  16
ATOM     16  O   UNL     1       5.695  -8.576  25.146  1.00  0.00    -0.388 OA
ATOM     17  H   UNL     1       5.238  -9.191  25.760  1.00  0.00     0.211 HD
ENDBRANCH  12  16
BRANCH  14  18
ATOM     18  O   UNL     1       6.480  -6.729  23.270  1.00  0.00    -0.387 OA
ATOM     19  H   UNL     1       6.860  -7.082  24.128  1.00  0.00     0.211 HD
ENDBRANCH  14  18
BRANCH  15  20
ATOM     20  O   UNL     1       3.011  -6.930  22.382  1.00  0.00    -0.385 OA
ATOM     21  H   UNL     1       2.482  -6.867  23.226  1.00  0.00     0.211 HD
ENDBRANCH  15  20
ENDBRANCH   8   9
ENDBRANCH   7   8
ENDBRANCH   1   7
BRANCH   2  22
ATOM     22  O   UNL     1      -0.098  -3.025  22.224  1.00  0.00    -0.387 OA
ATOM     23  H   UNL     1      -1.072  -3.108  21.981  1.00  0.00     0.211 HD
ENDBRANCH   2  22
BRANCH   3  24
ATOM     24  O   UNL     1       0.452  -5.766  19.973  1.00  0.00    -0.387 OA
ATOM     25  H   UNL     1      -0.104  -6.098  19.225  1.00  0.00     0.211 HD
ENDBRANCH   3  24
BRANCH   5  26
ATOM     26  O   UNL     1       2.347  -3.582  18.505  1.00  0.00    -0.454 OA
BRANCH  26  27
ATOM     27  C   UNL     1       2.835  -3.105  17.278  1.00  0.00     0.214 A 
ATOM     28  C   UNL     1       4.112  -2.483  17.152  1.00  0.00     0.180 A 
ATOM     29  C   UNL     1       2.058  -3.251  16.111  1.00  0.00     0.239 A 
ATOM     30  O   UNL     1       4.384  -1.845  16.005  1.00  0.00    -0.452 OA
ATOM     31  C   UNL     1       2.486  -2.696  14.894  1.00  0.00     0.111 A 
ATOM     32  O   UNL     1       0.962  -3.870  16.165  1.00  0.00    -0.285 OA
ATOM     33  C   UNL     1       3.671  -1.941  14.903  1.00  0.00     0.146 A 
ATOM     34  C   UNL     1       1.849  -2.964  13.659  1.00  0.00     0.134 A 
ATOM     35  C   UNL     1       4.154  -1.316  13.754  1.00  0.00     0.094 A 
ATOM     36  C   UNL     1       2.395  -2.452  12.484  1.00  0.00     0.093 A 
ATOM     37  C   UNL     1       3.549  -1.614  12.511  1.00  0.00     0.123 A 
BRANCH  28  38
ATOM     38  C   UNL     1       5.272  -2.759  18.065  1.00  0.00     0.025 A 
ATOM     39  C   UNL     1       6.594  -2.657  17.563  1.00  0.00     0.062 A 
ATOM     40  C   UNL     1       5.111  -2.466  19.448  1.00  0.00     0.016 A 
ATOM     41  C   UNL     1       7.521  -1.839  18.211  1.00  0.00     0.158 A 
ATOM     42  C   UNL     1       6.041  -1.644  20.111  1.00  0.00     0.051 A 
ATOM     43  C   UNL     1       7.196  -1.232  19.432  1.00  0.00     0.157 A 
BRANCH  41  44
ATOM     44  O   UNL     1       8.767  -1.560  17.620  1.00  0.00    -0.504 OA
ATOM     45  H   UNL     1       8.965  -1.980  16.710  1.00  0.00     0.293 HD
ENDBRANCH  41  44
BRANCH  43  46
ATOM     46  O   UNL     1       7.925  -0.140  19.909  1.00  0.00    -0.504 OA
ATOM     47  H   UNL     1       8.050  -0.036  20.916  1.00  0.00     0.293 HD
ENDBRANCH  43  46
ENDBRANCH  28  38
BRANCH  34  48
ATOM     48  O   UNL     1       0.715  -3.739  13.600  1.00  0.00    -0.507 OA
ATOM     49  H   UNL     1      -0.218  -3.289  13.595  1.00  0.00     0.293 HD
ENDBRANCH  34  48
BRANCH  37  50
ATOM     50  O   UNL     1       4.054  -1.095  11.314  1.00  0.00    -0.508 OA
ATOM     51  H   UNL     1       5.036  -1.192  11.137  1.00  0.00     0.293 HD
ENDBRANCH  37  50
ENDBRANCH  26  27
ENDBRANCH   5  26
BRANCH   4  52
ATOM     52  O   UNL     1      -0.863  -2.386  19.619  1.00  0.00    -0.384 OA
ATOM     53  H   UNL     1      -1.660  -2.799  20.058  1.00  0.00     0.211 HD
ENDBRANCH   4  52
TORSDOF 16
ENDMDL
MODEL 3
REMARK VINA RESULT:    -8.097      2.363      6.626
REMARK INTER + INTRA:         -14.764
REMARK INTER:                 -13.018
REMARK INTRA:                  -1.746
REMARK UNBOUND:                -1.461
REMARK SMILES C[C@H]1O[C@H](OC[C@@H]2O[C@@H](Oc3c(-c4ccc(O)c(O)c4)oc4cc(O)cc(O)c4c3=O)[C@H](O)[C@@H](O)[C@@H]2O)[C@H](O)[C@@H](O)[C@H]1O
REMARK SMILES IDX 7 1 36 2 34 3 32 4 9 5 8 6 6 7 5 8 4 9 1 10 2 11 42 12 3 13
REMARK SMILES IDX 40 14 38 15 43 16 41 18 39 20 37 22 35 24 10 26 11 27 12 28
REMARK SMILES IDX 30 29 21 30 29 31 31 32 22 33 27 34 23 35 26 36 24 37 13 38
REMARK SMILES IDX 20 39 14 40 18 41 15 42 16 43 19 44 17 46 28 48 25 50 33 52
REMARK H PARENT 43 17 41 19 39 21 37 23 35 25 19 45 17 47 28 49 25 51 33 53
REMARK Flexibility Score: inf
ROOT
ATOM      1  C   UNL     1       2.017  -3.952  21.798  1.00  0.00     0.180 C 
ATOM      2  C   UNL     1       3.267  -4.420  22.563  1.00  0.00     0.177 C 
ATOM      3  C   UNL     1       4.533  -4.049  21.810  1.00  0.00     0.180 C 
ATOM      4  C   UNL     1       4.461  -4.607  20.367  1.00  0.00     0.214 C 
ATOM      5  C   UNL     1       3.068  -4.376  19.697  1.00  0.00     0.339 C 
ATOM      6  O   UNL     1       1.930  -4.620  20.543  1.00  0.00    -0.332 OA
ENDROOT
BRANCH   1   7
ATOM      7  C   UNL     1       0.773  -4.243  22.654  1.00  0.00     0.198 C 
BRANCH   7   8
ATOM      8  O   UNL     1      -0.317  -3.371  22.447  1.00  0.00    -0.347 OA
BRANCH   8   9
ATOM      9  C   UNL     1      -0.069  -1.994  22.596  1.00  0.00     0.281 C 
ATOM     10  C   UNL     1      -1.939  -0.745  19.678  1.00  0.00     0.041 C 
ATOM     11  C   UNL     1      -1.650  -1.022  21.149  1.00  0.00     0.150 C 
ATOM     12  C   UNL     1      -2.027   0.188  22.057  1.00  0.00     0.174 C 
ATOM     13  O   UNL     1      -0.265  -1.334  21.325  1.00  0.00    -0.344 OA
ATOM     14  C   UNL     1      -1.131   0.178  23.356  1.00  0.00     0.179 C 
ATOM     15  C   UNL     1      -0.864  -1.284  23.736  1.00  0.00     0.202 C 
BRANCH  12  16
ATOM     16  O   UNL     1      -1.943   1.427  21.401  1.00  0.00    -0.388 OA
ATOM     17  H   UNL     1      -0.988   1.571  21.221  1.00  0.00     0.211 HD
ENDBRANCH  12  16
BRANCH  14  18
ATOM     18  O   UNL     1       0.112   0.779  23.104  1.00  0.00    -0.387 OA
ATOM     19  H   UNL     1       0.699   0.095  22.667  1.00  0.00     0.211 HD
ENDBRANCH  14  18
BRANCH  15  20
ATOM     20  O   UNL     1      -2.125  -1.895  23.947  1.00  0.00    -0.385 OA
ATOM     21  H   UNL     1      -2.805  -1.197  24.164  1.00  0.00     0.211 HD
ENDBRANCH  15  20
ENDBRANCH   8   9
ENDBRANCH   7   8
ENDBRANCH   1   7
BRANCH   2  22
ATOM     22  O   UNL     1       3.249  -5.806  22.705  1.00  0.00    -0.387 OA
ATOM     23  H   UNL     1       2.656  -6.073  23.473  1.00  0.00     0.211 HD
ENDBRANCH   2  22
BRANCH   3  24
ATOM     24  O   UNL     1       4.760  -2.665  21.849  1.00  0.00    -0.387 OA
ATOM     25  H   UNL     1       4.117  -2.243  22.470  1.00  0.00     0.211 HD
ENDBRANCH   3  24
BRANCH   5  26
ATOM     26  O   UNL     1       3.003  -3.076  19.155  1.00  0.00    -0.454 OA
BRANCH  26  27
ATOM     27  C   UNL     1       3.261  -2.848  17.794  1.00  0.00     0.214 A 
ATOM     28  C   UNL     1       4.524  -2.382  17.322  1.00  0.00     0.180 A 
ATOM     29  C   UNL     1       2.256  -3.098  16.838  1.00  0.00     0.239 A 
ATOM     30  O   UNL     1       4.599  -1.962  16.052  1.00  0.00    -0.452 OA
ATOM     31  C   UNL     1       2.464  -2.787  15.485  1.00  0.00     0.111 A 
ATOM     32  O   UNL     1       1.156  -3.590  17.205  1.00  0.00    -0.285 OA
ATOM     33  C   UNL     1       3.672  -2.160  15.138  1.00  0.00     0.146 A 
ATOM     34  C   UNL     1       1.573  -3.181  14.458  1.00  0.00     0.134 A 
ATOM     35  C   UNL     1       3.952  -1.774  13.828  1.00  0.00     0.094 A 
ATOM     36  C   UNL     1       1.901  -2.916  13.130  1.00  0.00     0.093 A 
ATOM     37  C   UNL     1       3.090  -2.202  12.793  1.00  0.00     0.123 A 
BRANCH  28  38
ATOM     38  C   UNL     1       5.825  -2.624  18.034  1.00  0.00     0.025 A 
ATOM     39  C   UNL     1       6.877  -3.290  17.356  1.00  0.00     0.062 A 
ATOM     40  C   UNL     1       6.224  -1.683  19.022  1.00  0.00     0.016 A 
ATOM     41  C   UNL     1       8.138  -2.695  17.278  1.00  0.00     0.158 A 
ATOM     42  C   UNL     1       7.494  -1.079  18.954  1.00  0.00     0.051 A 
ATOM     43  C   UNL     1       8.408  -1.517  17.986  1.00  0.00     0.157 A 
BRANCH  41  44
ATOM     44  O   UNL     1       9.133  -3.233  16.440  1.00  0.00    -0.504 OA
ATOM     45  H   UNL     1       9.422  -2.681  15.632  1.00  0.00     0.293 HD
ENDBRANCH  41  44
BRANCH  43  46
ATOM     46  O   UNL     1       9.496  -0.708  17.648  1.00  0.00    -0.504 OA
ATOM     47  H   UNL     1      10.181  -1.061  16.979  1.00  0.00     0.293 HD
ENDBRANCH  43  46
ENDBRANCH  28  38
BRANCH  34  48
ATOM     48  O   UNL     1       0.403  -3.841  14.750  1.00  0.00    -0.507 OA
ATOM     49  H   UNL     1      -0.288  -3.407  15.390  1.00  0.00     0.293 HD
ENDBRANCH  34  48
BRANCH  37  50
ATOM     50  O   UNL     1       3.374  -1.930  11.450  1.00  0.00    -0.508 OA
ATOM     51  H   UNL     1       3.269  -0.987  11.129  1.00  0.00     0.293 HD
ENDBRANCH  37  50
ENDBRANCH  26  27
ENDBRANCH   5  26
BRANCH   4  52
ATOM     52  O   UNL     1       4.745  -5.991  20.358  1.00  0.00    -0.384 OA
ATOM     53  H   UNL     1       5.600  -6.131  20.855  1.00  0.00     0.211 HD
ENDBRANCH   4  52
TORSDOF 16
ENDMDL
MODEL 4
REMARK VINA RESULT:    -7.891      1.687      5.353
REMARK INTER + INTRA:         -14.427
REMARK INTER:                 -11.816
REMARK INTRA:                  -2.611
REMARK UNBOUND:                -1.461
REMARK SMILES C[C@H]1O[C@H](OC[C@@H]2O[C@@H](Oc3c(-c4ccc(O)c(O)c4)oc4cc(O)cc(O)c4c3=O)[C@H](O)[C@@H](O)[C@@H]2O)[C@H](O)[C@@H](O)[C@H]1O
REMARK SMILES IDX 7 1 36 2 34 3 32 4 9 5 8 6 6 7 5 8 4 9 1 10 2 11 42 12 3 13
REMARK SMILES IDX 40 14 38 15 43 16 41 18 39 20 37 22 35 24 10 26 11 27 12 28
REMARK SMILES IDX 30 29 21 30 29 31 31 32 22 33 27 34 23 35 26 36 24 37 13 38
REMARK SMILES IDX 20 39 14 40 18 41 15 42 16 43 19 44 17 46 28 48 25 50 33 52
REMARK H PARENT 43 17 41 19 39 21 37 23 35 25 19 45 17 47 28 49 25 51 33 53
REMARK Flexibility Score: inf
ROOT
ATOM      1  C   UNL     1       4.484  -2.965  21.057  1.00  0.00     0.180 C 
ATOM      2  C   UNL     1       5.920  -2.416  21.023  1.00  0.00     0.177 C 
ATOM      3  C   UNL     1       6.144  -1.566  19.783  1.00  0.00     0.180 C 
ATOM      4  C   UNL     1       5.778  -2.385  18.520  1.00  0.00     0.214 C 
ATOM      5  C   UNL     1       4.441  -3.179  18.681  1.00  0.00     0.339 C 
ATOM      6  O   UNL     1       4.262  -3.832  19.950  1.00  0.00    -0.332 OA
ENDROOT
BRANCH   1   7
ATOM      7  C   UNL     1       4.271  -3.715  22.384  1.00  0.00     0.198 C 
BRANCH   7   8
ATOM      8  O   UNL     1       3.839  -5.053  22.257  1.00  0.00    -0.347 OA
BRANCH   8   9
ATOM      9  C   UNL     1       4.561  -6.027  22.969  1.00  0.00     0.281 C 
ATOM     10  C   UNL     1       4.489  -4.482  26.312  1.00  0.00     0.041 C 
ATOM     11  C   UNL     1       4.117  -5.468  25.211  1.00  0.00     0.150 C 
ATOM     12  C   UNL     1       3.983  -6.924  25.752  1.00  0.00     0.174 C 
ATOM     13  O   UNL     1       5.101  -5.437  24.173  1.00  0.00    -0.344 OA
ATOM     14  C   UNL     1       4.292  -7.952  24.595  1.00  0.00     0.179 C 
ATOM     15  C   UNL     1       3.790  -7.348  23.278  1.00  0.00     0.202 C 
BRANCH  12  16
ATOM     16  O   UNL     1       4.785  -7.180  26.876  1.00  0.00    -0.388 OA
ATOM     17  H   UNL     1       4.706  -6.386  27.448  1.00  0.00     0.211 HD
ENDBRANCH  12  16
BRANCH  14  18
ATOM     18  O   UNL     1       5.676  -8.149  24.464  1.00  0.00    -0.387 OA
ATOM     19  H   UNL     1       6.136  -7.487  25.060  1.00  0.00     0.211 HD
ENDBRANCH  14  18
BRANCH  15  20
ATOM     20  O   UNL     1       2.400  -7.113  23.432  1.00  0.00    -0.385 OA
ATOM     21  H   UNL     1       1.935  -7.973  23.634  1.00  0.00     0.211 HD
ENDBRANCH  15  20
ENDBRANCH   8   9
ENDBRANCH   7   8
ENDBRANCH   1   7
BRANCH   2  22
ATOM     22  O   UNL     1       6.834  -3.467  20.987  1.00  0.00    -0.387 OA
ATOM     23  H   UNL     1       6.578  -4.177  21.653  1.00  0.00     0.211 HD
ENDBRANCH   2  22
BRANCH   3  24
ATOM     24  O   UNL     1       5.448  -0.351  19.867  1.00  0.00    -0.387 OA
ATOM     25  H   UNL     1       6.039   0.388  19.576  1.00  0.00     0.211 HD
ENDBRANCH   3  24
BRANCH   5  26
ATOM     26  O   UNL     1       3.343  -2.338  18.406  1.00  0.00    -0.454 OA
BRANCH  26  27
ATOM     27  C   UNL     1       2.577  -2.509  17.242  1.00  0.00     0.214 A 
ATOM     28  C   UNL     1       1.347  -3.230  17.233  1.00  0.00     0.180 A 
ATOM     29  C   UNL     1       3.013  -1.941  16.027  1.00  0.00     0.239 A 
ATOM     30  O   UNL     1       0.818  -3.547  16.044  1.00  0.00    -0.452 OA
ATOM     31  C   UNL     1       2.312  -2.180  14.835  1.00  0.00     0.111 A 
ATOM     32  O   UNL     1       4.050  -1.227  16.010  1.00  0.00    -0.285 OA
ATOM     33  C   UNL     1       1.213  -3.054  14.888  1.00  0.00     0.146 A 
ATOM     34  C   UNL     1       2.589  -1.496  13.627  1.00  0.00     0.134 A 
ATOM     35  C   UNL     1       0.480  -3.386  13.750  1.00  0.00     0.094 A 
ATOM     36  C   UNL     1       1.783  -1.722  12.514  1.00  0.00     0.093 A 
ATOM     37  C   UNL     1       0.722  -2.675  12.553  1.00  0.00     0.123 A 
BRANCH  28  38
ATOM     38  C   UNL     1       0.452  -3.374  18.432  1.00  0.00     0.025 A 
ATOM     39  C   UNL     1       0.648  -4.462  19.320  1.00  0.00     0.062 A 
ATOM     40  C   UNL     1      -0.074  -2.188  19.013  1.00  0.00     0.016 A 
ATOM     41  C   UNL     1       0.825  -4.220  20.684  1.00  0.00     0.158 A 
ATOM     42  C   UNL     1       0.098  -1.935  20.387  1.00  0.00     0.051 A 
ATOM     43  C   UNL     1       0.668  -2.926  21.198  1.00  0.00     0.157 A 
BRANCH  41  44
ATOM     44  O   UNL     1       1.226  -5.255  21.549  1.00  0.00    -0.504 OA
ATOM     45  H   UNL     1       1.978  -5.870  21.236  1.00  0.00     0.293 HD
ENDBRANCH  41  44
BRANCH  43  46
ATOM     46  O   UNL     1       1.190  -2.579  22.447  1.00  0.00    -0.504 OA
ATOM     47  H   UNL     1       0.550  -2.479  23.235  1.00  0.00     0.293 HD
ENDBRANCH  43  46
ENDBRANCH  28  38
BRANCH  34  48
ATOM     48  O   UNL     1       3.625  -0.596  13.545  1.00  0.00    -0.507 OA
ATOM     49  H   UNL     1       3.732   0.135  14.272  1.00  0.00     0.293 HD
ENDBRANCH  34  48
BRANCH  37  50
ATOM     50  O   UNL     1      -0.050  -2.896  11.407  1.00  0.00    -0.508 OA
ATOM     51  H   UNL     1      -0.443  -2.098  10.944  1.00  0.00     0.293 HD
ENDBRANCH  37  50
ENDBRANCH  26  27
ENDBRANCH   5  26
BRANCH   4  52
ATOM     52  O   UNL     1       6.810  -3.294  18.203  1.00  0.00    -0.384 OA
ATOM     53  H   UNL     1       7.363  -3.427  19.025  1.00  0.00     0.211 HD
ENDBRANCH   4  52
TORSDOF 16
ENDMDL
MODEL 5
REMARK VINA RESULT:    -7.807      2.025      5.243
REMARK INTER + INTRA:         -14.288
REMARK INTER:                 -11.040
REMARK INTRA:                  -3.248
REMARK UNBOUND:                -1.461
REMARK SMILES C[C@H]1O[C@H](OC[C@@H]2O[C@@H](Oc3c(-c4ccc(O)c(O)c4)oc4cc(O)cc(O)c4c3=O)[C@H](O)[C@@H](O)[C@@H]2O)[C@H](O)[C@@H](O)[C@H]1O
REMARK SMILES IDX 7 1 36 2 34 3 32 4 9 5 8 6 6 7 5 8 4 9 1 10 2 11 42 12 3 13
REMARK SMILES IDX 40 14 38 15 43 16 41 18 39 20 37 22 35 24 10 26 11 27 12 28
REMARK SMILES IDX 30 29 21 30 29 31 31 32 22 33 27 34 23 35 26 36 24 37 13 38
REMARK SMILES IDX 20 39 14 40 18 41 15 42 16 43 19 44 17 46 28 48 25 50 33 52
REMARK H PARENT 43 17 41 19 39 21 37 23 35 25 19 45 17 47 28 49 25 51 33 53
REMARK Flexibility Score: inf
ROOT
ATOM      1  C   UNL     1       4.139  -3.364  21.819  1.00  0.00     0.180 C 
ATOM      2  C   UNL     1       5.604  -3.798  21.632  1.00  0.00     0.177 C 
ATOM      3  C   UNL     1       6.069  -3.528  20.210  1.00  0.00     0.180 C 
ATOM      4  C   UNL     1       5.102  -4.209  19.210  1.00  0.00     0.214 C 
ATOM      5  C   UNL     1       3.599  -3.999  19.583  1.00  0.00     0.339 C 
ATOM      6  O   UNL     1       3.287  -4.136  20.981  1.00  0.00    -0.332 OA
ENDROOT
BRANCH   1   7
ATOM      7  C   UNL     1       3.754  -3.545  23.298  1.00  0.00     0.198 C 
BRANCH   7   8
ATOM      8  O   UNL     1       2.730  -4.485  23.542  1.00  0.00    -0.347 OA
BRANCH   8   9
ATOM      9  C   UNL     1       3.097  -5.669  24.208  1.00  0.00     0.281 C 
ATOM     10  C   UNL     1      -0.259  -6.948  25.024  1.00  0.00     0.041 C 
ATOM     11  C   UNL     1       1.075  -6.867  24.291  1.00  0.00     0.150 C 
ATOM     12  C   UNL     1       1.673  -8.281  24.013  1.00  0.00     0.174 C 
ATOM     13  O   UNL     1       2.008  -6.099  25.055  1.00  0.00    -0.344 OA
ATOM     14  C   UNL     1       3.246  -8.183  23.921  1.00  0.00     0.179 C 
ATOM     15  C   UNL     1       3.601  -6.829  23.293  1.00  0.00     0.202 C 
BRANCH  12  16
ATOM     16  O   UNL     1       1.287  -9.248  24.954  1.00  0.00    -0.388 OA
ATOM     17  H   UNL     1       2.121  -9.595  25.340  1.00  0.00     0.211 HD
ENDBRANCH  12  16
BRANCH  14  18
ATOM     18  O   UNL     1       3.819  -8.213  25.202  1.00  0.00    -0.387 OA
ATOM     19  H   UNL     1       3.082  -8.084  25.869  1.00  0.00     0.211 HD
ENDBRANCH  14  18
BRANCH  15  20
ATOM     20  O   UNL     1       2.984  -6.789  22.018  1.00  0.00    -0.385 OA
ATOM     21  H   UNL     1       2.346  -7.551  21.929  1.00  0.00     0.211 HD
ENDBRANCH  15  20
ENDBRANCH   8   9
ENDBRANCH   7   8
ENDBRANCH   1   7
BRANCH   2  22
ATOM     22  O   UNL     1       5.731  -5.165  21.867  1.00  0.00    -0.387 OA
ATOM     23  H   UNL     1       5.203  -5.689  21.189  1.00  0.00     0.211 HD
ENDBRANCH   2  22
BRANCH   3  24
ATOM     24  O   UNL     1       6.218  -2.153  19.976  1.00  0.00    -0.387 OA
ATOM     25  H   UNL     1       7.180  -1.921  19.979  1.00  0.00     0.211 HD
ENDBRANCH   3  24
BRANCH   5  26
ATOM     26  O   UNL     1       3.152  -2.750  19.104  1.00  0.00    -0.454 OA
BRANCH  26  27
ATOM     27  C   UNL     1       2.477  -2.647  17.878  1.00  0.00     0.214 A 
ATOM     28  C   UNL     1       1.120  -3.056  17.714  1.00  0.00     0.180 A 
ATOM     29  C   UNL     1       3.138  -2.106  16.757  1.00  0.00     0.239 A 
ATOM     30  O   UNL     1       0.644  -3.150  16.465  1.00  0.00    -0.452 OA
ATOM     31  C   UNL     1       2.512  -2.084  15.500  1.00  0.00     0.111 A 
ATOM     32  O   UNL     1       4.309  -1.656  16.881  1.00  0.00    -0.285 OA
ATOM     33  C   UNL     1       1.243  -2.676  15.393  1.00  0.00     0.146 A 
ATOM     34  C   UNL     1       3.047  -1.394  14.385  1.00  0.00     0.134 A 
ATOM     35  C   UNL     1       0.560  -2.741  14.180  1.00  0.00     0.094 A 
ATOM     36  C   UNL     1       2.314  -1.339  13.202  1.00  0.00     0.093 A 
ATOM     37  C   UNL     1       1.066  -2.017  13.075  1.00  0.00     0.123 A 
BRANCH  28  38
ATOM     38  C   UNL     1       0.112  -3.078  18.828  1.00  0.00     0.025 A 
ATOM     39  C   UNL     1       0.123  -4.148  19.757  1.00  0.00     0.062 A 
ATOM     40  C   UNL     1      -0.350  -1.829  19.327  1.00  0.00     0.016 A 
ATOM     41  C   UNL     1       0.198  -3.878  21.125  1.00  0.00     0.158 A 
ATOM     42  C   UNL     1      -0.280  -1.548  20.705  1.00  0.00     0.051 A 
ATOM     43  C   UNL     1       0.118  -2.559  21.590  1.00  0.00     0.157 A 
BRANCH  41  44
ATOM     44  O   UNL     1       0.418  -4.916  22.049  1.00  0.00    -0.504 OA
ATOM     45  H   UNL     1       0.482  -5.869  21.686  1.00  0.00     0.293 HD
ENDBRANCH  41  44
BRANCH  43  46
ATOM     46  O   UNL     1       0.555  -2.220  22.873  1.00  0.00    -0.504 OA
ATOM     47  H   UNL     1       1.065  -1.346  23.003  1.00  0.00     0.293 HD
ENDBRANCH  43  46
ENDBRANCH  28  38
BRANCH  34  48
ATOM     48  O   UNL     1       4.263  -0.758  14.462  1.00  0.00    -0.507 OA
ATOM     49  H   UNL     1       4.553  -0.108  13.710  1.00  0.00     0.293 HD
ENDBRANCH  34  48
BRANCH  37  50
ATOM     50  O   UNL     1       0.371  -1.963  11.862  1.00  0.00    -0.508 OA
ATOM     51  H   UNL     1       0.032  -2.824  11.475  1.00  0.00     0.293 HD
ENDBRANCH  37  50
ENDBRANCH  26  27
ENDBRANCH   5  26
BRANCH   4  52
ATOM     52  O   UNL     1       5.362  -5.595  19.137  1.00  0.00    -0.384 OA
ATOM     53  H   UNL     1       5.057  -5.916  18.241  1.00  0.00     0.211 HD
ENDBRANCH   4  52
TORSDOF 16
ENDMDL
MODEL 6
REMARK VINA RESULT:    -7.725      2.379      9.896
REMARK INTER + INTRA:         -14.153
REMARK INTER:                 -11.961
REMARK INTRA:                  -2.193
REMARK UNBOUND:                -1.461
REMARK SMILES C[C@H]1O[C@H](OC[C@@H]2O[C@@H](Oc3c(-c4ccc(O)c(O)c4)oc4cc(O)cc(O)c4c3=O)[C@H](O)[C@@H](O)[C@@H]2O)[C@H](O)[C@@H](O)[C@H]1O
REMARK SMILES IDX 7 1 36 2 34 3 32 4 9 5 8 6 6 7 5 8 4 9 1 10 2 11 42 12 3 13
REMARK SMILES IDX 40 14 38 15 43 16 41 18 39 20 37 22 35 24 10 26 11 27 12 28
REMARK SMILES IDX 30 29 21 30 29 31 31 32 22 33 27 34 23 35 26 36 24 37 13 38
REMARK SMILES IDX 20 39 14 40 18 41 15 42 16 43 19 44 17 46 28 48 25 50 33 52
REMARK H PARENT 43 17 41 19 39 21 37 23 35 25 19 45 17 47 28 49 25 51 33 53
REMARK Flexibility Score: inf
ROOT
ATOM      1  C   UNL     1       2.635  -3.173  18.404  1.00  0.00     0.180 C 
ATOM      2  C   UNL     1       1.182  -3.000  17.929  1.00  0.00     0.177 C 
ATOM      3  C   UNL     1       0.213  -3.157  19.089  1.00  0.00     0.180 C 
ATOM      4  C   UNL     1       0.463  -4.513  19.794  1.00  0.00     0.214 C 
ATOM      5  C   UNL     1       1.981  -4.812  20.011  1.00  0.00     0.339 C 
ATOM      6  O   UNL     1       2.837  -4.493  18.899  1.00  0.00    -0.332 OA
ENDROOT
BRANCH   1   7
ATOM      7  C   UNL     1       3.580  -2.887  17.224  1.00  0.00     0.198 C 
BRANCH   7   8
ATOM      8  O   UNL     1       3.054  -2.043  16.223  1.00  0.00    -0.347 OA
BRANCH   8   9
ATOM      9  C   UNL     1       3.034  -2.546  14.909  1.00  0.00     0.281 C 
ATOM     10  C   UNL     1      -0.413  -1.631  13.984  1.00  0.00     0.041 C 
ATOM     11  C   UNL     1       1.109  -1.545  13.998  1.00  0.00     0.150 C 
ATOM     12  C   UNL     1       1.691  -1.259  12.580  1.00  0.00     0.174 C 
ATOM     13  O   UNL     1       1.664  -2.764  14.502  1.00  0.00    -0.344 OA
ATOM     14  C   UNL     1       3.153  -1.846  12.477  1.00  0.00     0.179 C 
ATOM     15  C   UNL     1       3.817  -1.707  13.852  1.00  0.00     0.202 C 
BRANCH  12  16
ATOM     16  O   UNL     1       0.884  -1.742  11.536  1.00  0.00    -0.388 OA
ATOM     17  H   UNL     1       0.105  -2.155  11.969  1.00  0.00     0.211 HD
ENDBRANCH  12  16
BRANCH  14  18
ATOM     18  O   UNL     1       3.116  -3.214  12.166  1.00  0.00    -0.387 OA
ATOM     19  H   UNL     1       2.596  -3.320  11.316  1.00  0.00     0.211 HD
ENDBRANCH  14  18
BRANCH  15  20
ATOM     20  O   UNL     1       3.812  -0.328  14.178  1.00  0.00    -0.385 OA
ATOM     21  H   UNL     1       2.967  -0.098  14.657  1.00  0.00     0.211 HD
ENDBRANCH  15  20
ENDBRANCH   8   9
ENDBRANCH   7   8
ENDBRANCH   1   7
BRANCH   2  22
ATOM     22  O   UNL     1       0.870  -3.971  16.981  1.00  0.00    -0.387 OA
ATOM     23  H   UNL     1      -0.109  -3.931  16.747  1.00  0.00     0.211 HD
ENDBRANCH   2  22
BRANCH   3  24
ATOM     24  O   UNL     1       0.287  -2.064  19.966  1.00  0.00    -0.387 OA
ATOM     25  H   UNL     1       0.083  -1.231  19.472  1.00  0.00     0.211 HD
ENDBRANCH   3  24
BRANCH   5  26
ATOM     26  O   UNL     1       2.439  -4.166  21.179  1.00  0.00    -0.454 OA
BRANCH  26  27
ATOM     27  C   UNL     1       1.846  -4.423  22.424  1.00  0.00     0.214 A 
ATOM     28  C   UNL     1       1.800  -5.729  22.996  1.00  0.00     0.180 A 
ATOM     29  C   UNL     1       1.281  -3.364  23.165  1.00  0.00     0.239 A 
ATOM     30  O   UNL     1       1.006  -5.918  24.059  1.00  0.00    -0.452 OA
ATOM     31  C   UNL     1       0.600  -3.615  24.366  1.00  0.00     0.111 A 
ATOM     32  O   UNL     1       1.375  -2.184  22.734  1.00  0.00    -0.285 OA
ATOM     33  C   UNL     1       0.446  -4.954  24.761  1.00  0.00     0.146 A 
ATOM     34  C   UNL     1       0.176  -2.586  25.241  1.00  0.00     0.134 A 
ATOM     35  C   UNL     1      -0.251  -5.307  25.915  1.00  0.00     0.094 A 
ATOM     36  C   UNL     1      -0.407  -2.924  26.461  1.00  0.00     0.093 A 
ATOM     37  C   UNL     1      -0.638  -4.287  26.815  1.00  0.00     0.123 A 
BRANCH  28  38
ATOM     38  C   UNL     1       2.803  -6.808  22.700  1.00  0.00     0.025 A 
ATOM     39  C   UNL     1       4.165  -6.461  22.514  1.00  0.00     0.062 A 
ATOM     40  C   UNL     1       2.562  -8.102  23.237  1.00  0.00     0.016 A 
ATOM     41  C   UNL     1       5.151  -7.090  23.277  1.00  0.00     0.158 A 
ATOM     42  C   UNL     1       3.550  -8.746  24.005  1.00  0.00     0.051 A 
ATOM     43  C   UNL     1       4.818  -8.160  24.119  1.00  0.00     0.157 A 
BRANCH  41  44
ATOM     44  O   UNL     1       6.478  -6.621  23.261  1.00  0.00    -0.504 OA
ATOM     45  H   UNL     1       6.905  -6.437  22.352  1.00  0.00     0.293 HD
ENDBRANCH  41  44
BRANCH  43  46
ATOM     46  O   UNL     1       5.672  -8.557  25.150  1.00  0.00    -0.504 OA
ATOM     47  H   UNL     1       5.340  -9.247  25.824  1.00  0.00     0.293 HD
ENDBRANCH  43  46
ENDBRANCH  28  38
BRANCH  34  48
ATOM     48  O   UNL     1       0.353  -1.262  24.916  1.00  0.00    -0.507 OA
ATOM     49  H   UNL     1      -0.408  -0.582  25.095  1.00  0.00     0.293 HD
ENDBRANCH  34  48
BRANCH  37  50
ATOM     50  O   UNL     1      -1.250  -4.588  28.036  1.00  0.00    -0.508 OA
ATOM     51  H   UNL     1      -1.259  -3.880  28.745  1.00  0.00     0.293 HD
ENDBRANCH  37  50
ENDBRANCH  26  27
ENDBRANCH   5  26
BRANCH   4  52
ATOM     52  O   UNL     1      -0.105  -5.569  19.048  1.00  0.00    -0.384 OA
ATOM     53  H   UNL     1      -0.922  -5.218  18.593  1.00  0.00     0.211 HD
ENDBRANCH   4  52
TORSDOF 16
ENDMDL
MODEL 7
REMARK VINA RESULT:    -7.705      2.428      8.741
REMARK INTER + INTRA:         -14.120
REMARK INTER:                 -11.441
REMARK INTRA:                  -2.679
REMARK UNBOUND:                -1.461
REMARK SMILES C[C@H]1O[C@H](OC[C@@H]2O[C@@H](Oc3c(-c4ccc(O)c(O)c4)oc4cc(O)cc(O)c4c3=O)[C@H](O)[C@@H](O)[C@@H]2O)[C@H](O)[C@@H](O)[C@H]1O
REMARK SMILES IDX 7 1 36 2 34 3 32 4 9 5 8 6 6 7 5 8 4 9 1 10 2 11 42 12 3 13
REMARK SMILES IDX 40 14 38 15 43 16 41 18 39 20 37 22 35 24 10 26 11 27 12 28
REMARK SMILES IDX 30 29 21 30 29 31 31 32 22 33 27 34 23 35 26 36 24 37 13 38
REMARK SMILES IDX 20 39 14 40 18 41 15 42 16 43 19 44 17 46 28 48 25 50 33 52
REMARK H PARENT 43 17 41 19 39 21 37 23 35 25 19 45 17 47 28 49 25 51 33 53
REMARK Flexibility Score: inf
ROOT
ATOM      1  C   UNL     1       4.085  -2.872  18.788  1.00  0.00     0.180 C 
ATOM      2  C   UNL     1       5.438  -3.567  18.556  1.00  0.00     0.177 C 
ATOM      3  C   UNL     1       5.702  -4.609  19.630  1.00  0.00     0.180 C 
ATOM      4  C   UNL     1       5.589  -3.953  21.028  1.00  0.00     0.214 C 
ATOM      5  C   UNL     1       4.350  -3.009  21.156  1.00  0.00     0.339 C 
ATOM      6  O   UNL     1       4.103  -2.161  20.021  1.00  0.00    -0.332 OA
ENDROOT
BRANCH   1   7
ATOM      7  C   UNL     1       3.811  -1.917  17.614  1.00  0.00     0.198 C 
BRANCH   7   8
ATOM      8  O   UNL     1       2.957  -2.426  16.611  1.00  0.00    -0.347 OA
BRANCH   8   9
ATOM      9  C   UNL     1       3.244  -2.059  15.284  1.00  0.00     0.281 C 
ATOM     10  C   UNL     1       0.440  -3.745  13.592  1.00  0.00     0.041 C 
ATOM     11  C   UNL     1       1.246  -2.581  14.157  1.00  0.00     0.150 C 
ATOM     12  C   UNL     1       1.228  -1.343  13.209  1.00  0.00     0.174 C 
ATOM     13  O   UNL     1       2.599  -2.986  14.382  1.00  0.00    -0.344 OA
ATOM     14  C   UNL     1       2.537  -0.488  13.426  1.00  0.00     0.179 C 
ATOM     15  C   UNL     1       2.922  -0.579  14.908  1.00  0.00     0.202 C 
BRANCH  12  16
ATOM     16  O   UNL     1       1.068  -1.678  11.854  1.00  0.00    -0.388 OA
ATOM     17  H   UNL     1       1.796  -2.304  11.646  1.00  0.00     0.211 HD
ENDBRANCH  12  16
BRANCH  14  18
ATOM     18  O   UNL     1       3.603  -1.018  12.682  1.00  0.00    -0.387 OA
ATOM     19  H   UNL     1       3.678  -0.488  11.835  1.00  0.00     0.211 HD
ENDBRANCH  14  18
BRANCH  15  20
ATOM     20  O   UNL     1       1.824  -0.082  15.653  1.00  0.00    -0.385 OA
ATOM     21  H   UNL     1       2.079   0.776  16.095  1.00  0.00     0.211 HD
ENDBRANCH  15  20
ENDBRANCH   8   9
ENDBRANCH   7   8
ENDBRANCH   1   7
BRANCH   2  22
ATOM     22  O   UNL     1       6.471  -2.633  18.610  1.00  0.00    -0.387 OA
ATOM     23  H   UNL     1       6.235  -1.818  18.066  1.00  0.00     0.211 HD
ENDBRANCH   2  22
BRANCH   3  24
ATOM     24  O   UNL     1       4.859  -5.720  19.479  1.00  0.00    -0.387 OA
ATOM     25  H   UNL     1       4.169  -5.520  18.799  1.00  0.00     0.211 HD
ENDBRANCH   3  24
BRANCH   5  26
ATOM     26  O   UNL     1       3.198  -3.763  21.461  1.00  0.00    -0.454 OA
BRANCH  26  27
ATOM     27  C   UNL     1       2.368  -3.410  22.536  1.00  0.00     0.214 A 
ATOM     28  C   UNL     1       1.035  -2.936  22.353  1.00  0.00     0.180 A 
ATOM     29  C   UNL     1       2.843  -3.534  23.858  1.00  0.00     0.239 A 
ATOM     30  O   UNL     1       0.414  -2.396  23.410  1.00  0.00    -0.452 OA
ATOM     31  C   UNL     1       2.064  -3.096  24.941  1.00  0.00     0.111 A 
ATOM     32  O   UNL     1       3.983  -4.027  24.067  1.00  0.00    -0.285 OA
ATOM     33  C   UNL     1       0.838  -2.474  24.654  1.00  0.00     0.146 A 
ATOM     34  C   UNL     1       2.403  -3.361  26.290  1.00  0.00     0.134 A 
ATOM     35  C   UNL     1       0.015  -1.969  25.658  1.00  0.00     0.094 A 
ATOM     36  C   UNL     1       1.526  -2.976  27.302  1.00  0.00     0.093 A 
ATOM     37  C   UNL     1       0.323  -2.267  27.006  1.00  0.00     0.123 A 
BRANCH  28  38
ATOM     38  C   UNL     1       0.179  -3.285  21.169  1.00  0.00     0.025 A 
ATOM     39  C   UNL     1       0.044  -2.355  20.108  1.00  0.00     0.062 A 
ATOM     40  C   UNL     1       0.077  -4.657  20.806  1.00  0.00     0.016 A 
ATOM     41  C   UNL     1       0.330  -2.750  18.799  1.00  0.00     0.158 A 
ATOM     42  C   UNL     1       0.362  -5.065  19.489  1.00  0.00     0.051 A 
ATOM     43  C   UNL     1       0.610  -4.092  18.511  1.00  0.00     0.157 A 
BRANCH  41  44
ATOM     44  O   UNL     1       0.405  -1.799  17.764  1.00  0.00    -0.504 OA
ATOM     45  H   UNL     1      -0.469  -1.382  17.438  1.00  0.00     0.293 HD
ENDBRANCH  41  44
BRANCH  43  46
ATOM     46  O   UNL     1       1.253  -4.455  17.325  1.00  0.00    -0.504 OA
ATOM     47  H   UNL     1       1.209  -5.428  17.021  1.00  0.00     0.293 HD
ENDBRANCH  43  46
ENDBRANCH  28  38
BRANCH  34  48
ATOM     48  O   UNL     1       3.569  -4.012  26.613  1.00  0.00    -0.507 OA
ATOM     49  H   UNL     1       4.464  -3.705  26.191  1.00  0.00     0.293 HD
ENDBRANCH  34  48
BRANCH  37  50
ATOM     50  O   UNL     1      -0.520  -1.872  28.049  1.00  0.00    -0.508 OA
ATOM     51  H   UNL     1      -0.147  -1.869  28.980  1.00  0.00     0.293 HD
ENDBRANCH  37  50
ENDBRANCH  26  27
ENDBRANCH   5  26
BRANCH   4  52
ATOM     52  O   UNL     1       6.755  -3.213  21.323  1.00  0.00    -0.384 OA
ATOM     53  H   UNL     1       6.822  -2.470  20.658  1.00  0.00     0.211 HD
ENDBRANCH   4  52
TORSDOF 16
ENDMDL
MODEL 8
REMARK VINA RESULT:    -7.684      1.954      8.750
REMARK INTER + INTRA:         -14.086
REMARK INTER:                 -11.788
REMARK INTRA:                  -2.298
REMARK UNBOUND:                -1.461
REMARK SMILES C[C@H]1O[C@H](OC[C@@H]2O[C@@H](Oc3c(-c4ccc(O)c(O)c4)oc4cc(O)cc(O)c4c3=O)[C@H](O)[C@@H](O)[C@@H]2O)[C@H](O)[C@@H](O)[C@H]1O
REMARK SMILES IDX 7 1 36 2 34 3 32 4 9 5 8 6 6 7 5 8 4 9 1 10 2 11 42 12 3 13
REMARK SMILES IDX 40 14 38 15 43 16 41 18 39 20 37 22 35 24 10 26 11 27 12 28
REMARK SMILES IDX 30 29 21 30 29 31 31 32 22 33 27 34 23 35 26 36 24 37 13 38
REMARK SMILES IDX 20 39 14 40 18 41 15 42 16 43 19 44 17 46 28 48 25 50 33 52
REMARK H PARENT 43 17 41 19 39 21 37 23 35 25 19 45 17 47 28 49 25 51 33 53
REMARK Flexibility Score: inf
ROOT
ATOM      1  C   UNL     1       2.389  -2.272  17.778  1.00  0.00     0.180 C 
ATOM      2  C   UNL     1       0.878  -2.330  17.496  1.00  0.00     0.177 C 
ATOM      3  C   UNL     1       0.136  -2.967  18.660  1.00  0.00     0.180 C 
ATOM      4  C   UNL     1       0.749  -4.354  18.970  1.00  0.00     0.214 C 
ATOM      5  C   UNL     1       2.312  -4.340  18.967  1.00  0.00     0.339 C 
ATOM      6  O   UNL     1       2.918  -3.588  17.901  1.00  0.00    -0.332 OA
ENDROOT
BRANCH   1   7
ATOM      7  C   UNL     1       3.079  -1.515  16.630  1.00  0.00     0.198 C 
BRANCH   7   8
ATOM      8  O   UNL     1       2.333  -1.424  15.435  1.00  0.00    -0.347 OA
BRANCH   8   9
ATOM      9  C   UNL     1       2.963  -1.856  14.255  1.00  0.00     0.281 C 
ATOM     10  C   UNL     1       0.403  -4.216  13.054  1.00  0.00     0.041 C 
ATOM     11  C   UNL     1       1.219  -2.930  13.097  1.00  0.00     0.150 C 
ATOM     12  C   UNL     1       1.596  -2.429  11.669  1.00  0.00     0.174 C 
ATOM     13  O   UNL     1       2.413  -3.132  13.859  1.00  0.00    -0.344 OA
ATOM     14  C   UNL     1       2.931  -1.589  11.735  1.00  0.00     0.179 C 
ATOM     15  C   UNL     1       2.952  -0.838  13.072  1.00  0.00     0.202 C 
BRANCH  12  16
ATOM     16  O   UNL     1       1.701  -3.462  10.723  1.00  0.00    -0.388 OA
ATOM     17  H   UNL     1       2.634  -3.767  10.764  1.00  0.00     0.211 HD
ENDBRANCH  12  16
BRANCH  14  18
ATOM     18  O   UNL     1       4.050  -2.436  11.712  1.00  0.00    -0.387 OA
ATOM     19  H   UNL     1       4.858  -1.880  11.916  1.00  0.00     0.211 HD
ENDBRANCH  14  18
BRANCH  15  20
ATOM     20  O   UNL     1       1.797  -0.017  13.105  1.00  0.00    -0.385 OA
ATOM     21  H   UNL     1       1.242  -0.184  12.293  1.00  0.00     0.211 HD
ENDBRANCH  15  20
ENDBRANCH   8   9
ENDBRANCH   7   8
ENDBRANCH   1   7
BRANCH   2  22
ATOM     22  O   UNL     1       0.633  -3.104  16.364  1.00  0.00    -0.387 OA
ATOM     23  H   UNL     1       0.230  -2.539  15.634  1.00  0.00     0.211 HD
ENDBRANCH   2  22
BRANCH   3  24
ATOM     24  O   UNL     1       0.116  -2.117  19.776  1.00  0.00    -0.387 OA
ATOM     25  H   UNL     1      -0.769  -1.678  19.841  1.00  0.00     0.211 HD
ENDBRANCH   3  24
BRANCH   5  26
ATOM     26  O   UNL     1       2.794  -3.892  20.215  1.00  0.00    -0.454 OA
BRANCH  26  27
ATOM     27  C   UNL     1       3.343  -4.792  21.141  1.00  0.00     0.214 A 
ATOM     28  C   UNL     1       4.733  -5.112  21.165  1.00  0.00     0.180 A 
ATOM     29  C   UNL     1       2.513  -5.402  22.103  1.00  0.00     0.239 A 
ATOM     30  O   UNL     1       5.120  -6.155  21.913  1.00  0.00    -0.452 OA
ATOM     31  C   UNL     1       3.026  -6.376  22.975  1.00  0.00     0.111 A 
ATOM     32  O   UNL     1       1.297  -5.082  22.169  1.00  0.00    -0.285 OA
ATOM     33  C   UNL     1       4.366  -6.762  22.806  1.00  0.00     0.146 A 
ATOM     34  C   UNL     1       2.296  -6.887  24.075  1.00  0.00     0.134 A 
ATOM     35  C   UNL     1       4.953  -7.750  23.594  1.00  0.00     0.094 A 
ATOM     36  C   UNL     1       2.913  -7.779  24.949  1.00  0.00     0.093 A 
ATOM     37  C   UNL     1       4.247  -8.232  24.720  1.00  0.00     0.123 A 
BRANCH  28  38
ATOM     38  C   UNL     1       5.814  -4.188  20.680  1.00  0.00     0.025 A 
ATOM     39  C   UNL     1       6.016  -4.022  19.287  1.00  0.00     0.062 A 
ATOM     40  C   UNL     1       6.138  -3.065  21.490  1.00  0.00     0.016 A 
ATOM     41  C   UNL     1       6.005  -2.741  18.732  1.00  0.00     0.158 A 
ATOM     42  C   UNL     1       6.132  -1.769  20.941  1.00  0.00     0.051 A 
ATOM     43  C   UNL     1       5.940  -1.613  19.561  1.00  0.00     0.157 A 
BRANCH  41  44
ATOM     44  O   UNL     1       5.995  -2.565  17.336  1.00  0.00    -0.504 OA
ATOM     45  H   UNL     1       6.272  -1.652  16.971  1.00  0.00     0.293 HD
ENDBRANCH  41  44
BRANCH  43  46
ATOM     46  O   UNL     1       5.555  -0.369  19.054  1.00  0.00    -0.504 OA
ATOM     47  H   UNL     1       5.193   0.333  19.700  1.00  0.00     0.293 HD
ENDBRANCH  43  46
ENDBRANCH  28  38
BRANCH  34  48
ATOM     48  O   UNL     1       0.998  -6.497  24.306  1.00  0.00    -0.507 OA
ATOM     49  H   UNL     1       0.230  -6.902  23.741  1.00  0.00     0.293 HD
ENDBRANCH  34  48
BRANCH  37  50
ATOM     50  O   UNL     1       4.825  -9.150  25.603  1.00  0.00    -0.508 OA
ATOM     51  H   UNL     1       4.312  -9.983  25.818  1.00  0.00     0.293 HD
ENDBRANCH  37  50
ENDBRANCH  26  27
ENDBRANCH   5  26
BRANCH   4  52
ATOM     52  O   UNL     1       0.302  -5.312  18.034  1.00  0.00    -0.384 OA
ATOM     53  H   UNL     1      -0.216  -4.832  17.328  1.00  0.00     0.211 HD
ENDBRANCH   4  52
TORSDOF 16
ENDMDL
MODEL 9
REMARK VINA RESULT:    -7.544      2.050      9.321
REMARK INTER + INTRA:         -13.857
REMARK INTER:                 -11.261
REMARK INTRA:                  -2.595
REMARK UNBOUND:                -1.461
REMARK SMILES C[C@H]1O[C@H](OC[C@@H]2O[C@@H](Oc3c(-c4ccc(O)c(O)c4)oc4cc(O)cc(O)c4c3=O)[C@H](O)[C@@H](O)[C@@H]2O)[C@H](O)[C@@H](O)[C@H]1O
REMARK SMILES IDX 7 1 36 2 34 3 32 4 9 5 8 6 6 7 5 8 4 9 1 10 2 11 42 12 3 13
REMARK SMILES IDX 40 14 38 15 43 16 41 18 39 20 37 22 35 24 10 26 11 27 12 28
REMARK SMILES IDX 30 29 21 30 29 31 31 32 22 33 27 34 23 35 26 36 24 37 13 38
REMARK SMILES IDX 20 39 14 40 18 41 15 42 16 43 19 44 17 46 28 48 25 50 33 52
REMARK H PARENT 43 17 41 19 39 21 37 23 35 25 19 45 17 47 28 49 25 51 33 53
REMARK Flexibility Score: inf
ROOT
ATOM      1  C   UNL     1       2.378  -3.643  19.865  1.00  0.00     0.180 C 
ATOM      2  C   UNL     1       3.784  -3.688  19.240  1.00  0.00     0.177 C 
ATOM      3  C   UNL     1       4.711  -4.570  20.060  1.00  0.00     0.180 C 
ATOM      4  C   UNL     1       4.717  -4.090  21.532  1.00  0.00     0.214 C 
ATOM      5  C   UNL     1       3.285  -3.768  22.069  1.00  0.00     0.339 C 
ATOM      6  O   UNL     1       2.433  -3.051  21.158  1.00  0.00    -0.332 OA
ENDROOT
BRANCH   1   7
ATOM      7  C   UNL     1       1.449  -2.840  18.939  1.00  0.00     0.198 C 
BRANCH   7   8
ATOM      8  O   UNL     1       1.575  -3.128  17.563  1.00  0.00    -0.347 OA
BRANCH   8   9
ATOM      9  C   UNL     1       1.615  -2.031  16.682  1.00  0.00     0.281 C 
ATOM     10  C   UNL     1       5.154  -2.215  15.677  1.00  0.00     0.041 C 
ATOM     11  C   UNL     1       3.643  -2.358  15.536  1.00  0.00     0.150 C 
ATOM     12  C   UNL     1       3.144  -1.914  14.126  1.00  0.00     0.174 C 
ATOM     13  O   UNL     1       2.981  -1.583  16.539  1.00  0.00    -0.344 OA
ATOM     14  C   UNL     1       1.649  -1.415  14.224  1.00  0.00     0.179 C 
ATOM     15  C   UNL     1       0.939  -2.255  15.293  1.00  0.00     0.202 C 
BRANCH  12  16
ATOM     16  O   UNL     1       3.957  -0.939  13.526  1.00  0.00    -0.388 OA
ATOM     17  H   UNL     1       4.101  -0.251  14.212  1.00  0.00     0.211 HD
ENDBRANCH  12  16
BRANCH  14  18
ATOM     18  O   UNL     1       1.600  -0.077  14.643  1.00  0.00    -0.387 OA
ATOM     19  H   UNL     1       2.510   0.320  14.505  1.00  0.00     0.211 HD
ENDBRANCH  14  18
BRANCH  15  20
ATOM     20  O   UNL     1       1.029  -3.609  14.886  1.00  0.00    -0.385 OA
ATOM     21  H   UNL     1       1.690  -3.694  14.143  1.00  0.00     0.211 HD
ENDBRANCH  15  20
ENDBRANCH   8   9
ENDBRANCH   7   8
ENDBRANCH   1   7
BRANCH   2  22
ATOM     22  O   UNL     1       4.334  -2.408  19.210  1.00  0.00    -0.387 OA
ATOM     23  H   UNL     1       5.335  -2.454  19.303  1.00  0.00     0.211 HD
ENDBRANCH   2  22
BRANCH   3  24
ATOM     24  O   UNL     1       4.372  -5.925  19.928  1.00  0.00    -0.387 OA
ATOM     25  H   UNL     1       4.157  -6.299  20.818  1.00  0.00     0.211 HD
ENDBRANCH   3  24
BRANCH   5  26
ATOM     26  O   UNL     1       2.651  -4.952  22.498  1.00  0.00    -0.454 OA
BRANCH  26  27
ATOM     27  C   UNL     1       3.054  -5.599  23.677  1.00  0.00     0.214 A 
ATOM     28  C   UNL     1       2.828  -5.043  24.971  1.00  0.00     0.180 A 
ATOM     29  C   UNL     1       3.693  -6.854  23.605  1.00  0.00     0.239 A 
ATOM     30  O   UNL     1       3.459  -5.606  26.011  1.00  0.00    -0.452 OA
ATOM     31  C   UNL     1       4.188  -7.471  24.765  1.00  0.00     0.111 A 
ATOM     32  O   UNL     1       3.835  -7.417  22.488  1.00  0.00    -0.285 OA
ATOM     33  C   UNL     1       4.083  -6.765  25.975  1.00  0.00     0.146 A 
ATOM     34  C   UNL     1       4.669  -8.802  24.784  1.00  0.00     0.134 A 
ATOM     35  C   UNL     1       4.583  -7.276  27.171  1.00  0.00     0.094 A 
ATOM     36  C   UNL     1       5.052  -9.372  25.996  1.00  0.00     0.093 A 
ATOM     37  C   UNL     1       5.024  -8.619  27.207  1.00  0.00     0.123 A 
BRANCH  28  38
ATOM     38  C   UNL     1       1.707  -4.096  25.292  1.00  0.00     0.025 A 
ATOM     39  C   UNL     1       2.007  -2.765  25.675  1.00  0.00     0.062 A 
ATOM     40  C   UNL     1       0.470  -4.281  24.615  1.00  0.00     0.016 A 
ATOM     41  C   UNL     1       1.426  -1.697  24.986  1.00  0.00     0.158 A 
ATOM     42  C   UNL     1      -0.125  -3.211  23.920  1.00  0.00     0.051 A 
ATOM     43  C   UNL     1       0.442  -1.933  24.018  1.00  0.00     0.157 A 
BRANCH  41  44
ATOM     44  O   UNL     1       1.864  -0.379  25.208  1.00  0.00    -0.504 OA
ATOM     45  H   UNL     1       1.193   0.286  25.596  1.00  0.00     0.293 HD
ENDBRANCH  41  44
BRANCH  43  46
ATOM     46  O   UNL     1       0.118  -0.961  23.068  1.00  0.00    -0.504 OA
ATOM     47  H   UNL     1      -0.855  -0.863  22.779  1.00  0.00     0.293 HD
ENDBRANCH  43  46
ENDBRANCH  28  38
BRANCH  34  48
ATOM     48  O   UNL     1       4.741  -9.546  23.630  1.00  0.00    -0.507 OA
ATOM     49  H   UNL     1       5.062  -9.102  22.750  1.00  0.00     0.293 HD
ENDBRANCH  34  48
BRANCH  37  50
ATOM     50  O   UNL     1       5.442  -9.216  28.401  1.00  0.00    -0.508 OA
ATOM     51  H   UNL     1       6.304  -8.903  28.807  1.00  0.00     0.293 HD
ENDBRANCH  37  50
ENDBRANCH  26  27
ENDBRANCH   5  26
BRANCH   4  52
ATOM     52  O   UNL     1       5.524  -2.941  21.675  1.00  0.00    -0.384 OA
ATOM     53  H   UNL     1       5.827  -2.896  22.626  1.00  0.00     0.211 HD
ENDBRANCH   4  52
TORSDOF 16
ENDMDL
