MODEL 1
REMARK VINA RESULT:    -8.290      0.000      0.000
REMARK INTER + INTRA:          -9.737
REMARK INTER:                  -9.986
REMARK INTRA:                   0.249
REMARK UNBOUND:                 0.249
REMARK SMILES O=c1c(O)c(-c2ccc(O)c(O)c2)oc2cc(O)cc(O)c12
REMARK SMILES IDX 5 1 3 2 2 3 1 4 22 5 20 6 19 7 17 8 16 9 15 10 14 11 6 12
REMARK SMILES IDX 7 13 8 14 9 15 13 16 11 17 10 18 12 20 4 22 21 24 18 26
REMARK H PARENT 10 19 12 21 4 23 21 25 18 27
REMARK Flexibility Score: inf
ROOT
ATOM      1  C   UNL     1      -1.545  11.117  -8.555  1.00  0.00     0.180 A 
ATOM      2  C   UNL     1      -2.459  12.174  -8.708  1.00  0.00     0.208 A 
ATOM      3  C   UNL     1      -3.685  11.927  -9.346  1.00  0.00     0.238 A 
ATOM      4  O   UNL     1      -4.522  12.865  -9.430  1.00  0.00    -0.285 OA
ATOM      5  C   UNL     1      -3.975  10.632  -9.837  1.00  0.00     0.111 A 
ATOM      6  C   UNL     1      -5.170  10.280 -10.536  1.00  0.00     0.134 A 
ATOM      7  C   UNL     1      -5.409   8.939 -10.862  1.00  0.00     0.093 A 
ATOM      8  C   UNL     1      -4.469   7.949 -10.575  1.00  0.00     0.123 A 
ATOM      9  C   UNL     1      -3.272   8.292  -9.946  1.00  0.00     0.094 A 
ATOM     10  C   UNL     1      -3.021   9.616  -9.575  1.00  0.00     0.146 A 
ATOM     11  O   UNL     1      -1.874   9.898  -8.969  1.00  0.00    -0.452 OA
ENDROOT
BRANCH   1  12
ATOM     12  C   UNL     1      -0.222  11.304  -7.917  1.00  0.00     0.025 A 
ATOM     13  C   UNL     1      -0.037  12.230  -6.876  1.00  0.00     0.016 A 
ATOM     14  C   UNL     1       1.226  12.406  -6.304  1.00  0.00     0.051 A 
ATOM     15  C   UNL     1       2.322  11.671  -6.771  1.00  0.00     0.157 A 
ATOM     16  C   UNL     1       0.885  10.584  -8.396  1.00  0.00     0.062 A 
ATOM     17  C   UNL     1       2.150  10.757  -7.825  1.00  0.00     0.158 A 
BRANCH  15  18
ATOM     18  O   UNL     1       3.580  11.847  -6.197  1.00  0.00    -0.504 OA
ATOM     19  H   UNL     1       4.188  11.060  -5.998  1.00  0.00     0.293 HD
ENDBRANCH  15  18
BRANCH  17  20
ATOM     20  O   UNL     1       3.224  10.015  -8.317  1.00  0.00    -0.504 OA
ATOM     21  H   UNL     1       3.506  10.056  -9.289  1.00  0.00     0.293 HD
ENDBRANCH  17  20
ENDBRANCH   1  12
BRANCH   2  22
ATOM     22  O   UNL     1      -2.161  13.439  -8.195  1.00  0.00    -0.502 OA
ATOM     23  H   UNL     1      -1.640  14.131  -8.722  1.00  0.00     0.293 HD
ENDBRANCH   2  22
BRANCH   6  24
ATOM     24  O   UNL     1      -6.132  11.204 -10.953  1.00  0.00    -0.507 OA
ATOM     25  H   UNL     1      -6.244  12.129 -10.568  1.00  0.00     0.293 HD
ENDBRANCH   6  24
BRANCH   8  26
ATOM     26  O   UNL     1      -4.733   6.628 -10.927  1.00  0.00    -0.508 OA
ATOM     27  H   UNL     1      -3.997   6.006 -11.239  1.00  0.00     0.293 HD
ENDBRANCH   8  26
TORSDOF 6
ENDMDL
MODEL 2
REMARK VINA RESULT:    -8.086      1.690      6.877
REMARK INTER + INTRA:          -9.492
REMARK INTER:                 -10.036
REMARK INTRA:                   0.544
REMARK UNBOUND:                 0.249
REMARK SMILES O=c1c(O)c(-c2ccc(O)c(O)c2)oc2cc(O)cc(O)c12
REMARK SMILES IDX 5 1 3 2 2 3 1 4 22 5 20 6 19 7 17 8 16 9 15 10 14 11 6 12
REMARK SMILES IDX 7 13 8 14 9 15 13 16 11 17 10 18 12 20 4 22 21 24 18 26
REMARK H PARENT 10 19 12 21 4 23 21 25 18 27
REMARK Flexibility Score: inf
ROOT
ATOM      1  C   UNL     1      -1.786  11.931  -8.457  1.00  0.00     0.180 A 
ATOM      2  C   UNL     1      -1.584  12.904  -7.463  1.00  0.00     0.208 A 
ATOM      3  C   UNL     1      -0.321  13.011  -6.861  1.00  0.00     0.238 A 
ATOM      4  O   UNL     1      -0.131  13.921  -6.011  1.00  0.00    -0.285 OA
ATOM      5  C   UNL     1       0.720  12.134  -7.248  1.00  0.00     0.111 A 
ATOM      6  C   UNL     1       2.029  12.126  -6.675  1.00  0.00     0.134 A 
ATOM      7  C   UNL     1       3.018  11.303  -7.226  1.00  0.00     0.093 A 
ATOM      8  C   UNL     1       2.731  10.439  -8.282  1.00  0.00     0.123 A 
ATOM      9  C   UNL     1       1.441  10.395  -8.810  1.00  0.00     0.094 A 
ATOM     10  C   UNL     1       0.441  11.232  -8.306  1.00  0.00     0.146 A 
ATOM     11  O   UNL     1      -0.771  11.166  -8.844  1.00  0.00    -0.452 OA
ENDROOT
BRANCH   1  12
ATOM     12  C   UNL     1      -3.096  11.740  -9.119  1.00  0.00     0.025 A 
ATOM     13  C   UNL     1      -3.293  10.726 -10.073  1.00  0.00     0.016 A 
ATOM     14  C   UNL     1      -4.532  10.579 -10.702  1.00  0.00     0.051 A 
ATOM     15  C   UNL     1      -5.586  11.450 -10.400  1.00  0.00     0.157 A 
ATOM     16  C   UNL     1      -4.151  12.624  -8.835  1.00  0.00     0.062 A 
ATOM     17  C   UNL     1      -5.393  12.479  -9.463  1.00  0.00     0.158 A 
BRANCH  15  18
ATOM     18  O   UNL     1      -6.821  11.300 -11.028  1.00  0.00    -0.504 OA
ATOM     19  H   UNL     1      -6.905  10.860 -11.938  1.00  0.00     0.293 HD
ENDBRANCH  15  18
BRANCH  17  20
ATOM     20  O   UNL     1      -6.420  13.367  -9.145  1.00  0.00    -0.504 OA
ATOM     21  H   UNL     1      -6.260  14.361  -9.039  1.00  0.00     0.293 HD
ENDBRANCH  17  20
ENDBRANCH   1  12
BRANCH   2  22
ATOM     22  O   UNL     1      -2.620  13.775  -7.112  1.00  0.00    -0.502 OA
ATOM     23  H   UNL     1      -2.633  14.748  -7.395  1.00  0.00     0.293 HD
ENDBRANCH   2  22
BRANCH   6  24
ATOM     24  O   UNL     1       2.397  12.883  -5.559  1.00  0.00    -0.507 OA
ATOM     25  H   UNL     1       3.314  12.877  -5.139  1.00  0.00     0.293 HD
ENDBRANCH   6  24
BRANCH   8  26
ATOM     26  O   UNL     1       3.737   9.623  -8.795  1.00  0.00    -0.508 OA
ATOM     27  H   UNL     1       3.814   8.648  -8.530  1.00  0.00     0.293 HD
ENDBRANCH   8  26
TORSDOF 6
ENDMDL
MODEL 3
REMARK VINA RESULT:    -7.984      1.587      6.742
REMARK INTER + INTRA:          -9.369
REMARK INTER:                  -9.057
REMARK INTRA:                  -0.312
REMARK UNBOUND:                 0.249
REMARK SMILES O=c1c(O)c(-c2ccc(O)c(O)c2)oc2cc(O)cc(O)c12
REMARK SMILES IDX 5 1 3 2 2 3 1 4 22 5 20 6 19 7 17 8 16 9 15 10 14 11 6 12
REMARK SMILES IDX 7 13 8 14 9 15 13 16 11 17 10 18 12 20 4 22 21 24 18 26
REMARK H PARENT 10 19 12 21 4 23 21 25 18 27
REMARK Flexibility Score: inf
ROOT
ATOM      1  C   UNL     1      -2.145  11.165  -8.446  1.00  0.00     0.180 A 
ATOM      2  C   UNL     1      -2.063  12.262  -7.571  1.00  0.00     0.208 A 
ATOM      3  C   UNL     1      -0.815  12.610  -7.030  1.00  0.00     0.238 A 
ATOM      4  O   UNL     1      -0.739  13.626  -6.290  1.00  0.00    -0.285 OA
ATOM      5  C   UNL     1       0.332  11.849  -7.358  1.00  0.00     0.111 A 
ATOM      6  C   UNL     1       1.640  12.087  -6.836  1.00  0.00     0.134 A 
ATOM      7  C   UNL     1       2.724  11.353  -7.331  1.00  0.00     0.093 A 
ATOM      8  C   UNL     1       2.542  10.346  -8.277  1.00  0.00     0.123 A 
ATOM      9  C   UNL     1       1.259  10.064  -8.750  1.00  0.00     0.094 A 
ATOM     10  C   UNL     1       0.162  10.804  -8.303  1.00  0.00     0.146 A 
ATOM     11  O   UNL     1      -1.040  10.511  -8.786  1.00  0.00    -0.452 OA
ENDROOT
BRANCH   1  12
ATOM     12  C   UNL     1      -3.428  10.721  -9.036  1.00  0.00     0.025 A 
ATOM     13  C   UNL     1      -3.837  11.155 -10.310  1.00  0.00     0.016 A 
ATOM     14  C   UNL     1      -5.063  10.741 -10.837  1.00  0.00     0.051 A 
ATOM     15  C   UNL     1      -5.903   9.901 -10.096  1.00  0.00     0.157 A 
ATOM     16  C   UNL     1      -4.285   9.895  -8.289  1.00  0.00     0.062 A 
ATOM     17  C   UNL     1      -5.512   9.478  -8.814  1.00  0.00     0.158 A 
BRANCH  15  18
ATOM     18  O   UNL     1      -7.125   9.488 -10.625  1.00  0.00    -0.504 OA
ATOM     19  H   UNL     1      -7.965   9.455 -10.059  1.00  0.00     0.293 HD
ENDBRANCH  15  18
BRANCH  17  20
ATOM     20  O   UNL     1      -6.330   8.647  -8.049  1.00  0.00    -0.504 OA
ATOM     21  H   UNL     1      -6.610   8.887  -7.105  1.00  0.00     0.293 HD
ENDBRANCH  17  20
ENDBRANCH   1  12
BRANCH   2  22
ATOM     22  O   UNL     1      -3.205  13.013  -7.278  1.00  0.00    -0.502 OA
ATOM     23  H   UNL     1      -3.162  13.999  -7.045  1.00  0.00     0.293 HD
ENDBRANCH   2  22
BRANCH   6  24
ATOM     24  O   UNL     1       1.919  13.007  -5.822  1.00  0.00    -0.507 OA
ATOM     25  H   UNL     1       2.835  13.168  -5.429  1.00  0.00     0.293 HD
ENDBRANCH   6  24
BRANCH   8  26
ATOM     26  O   UNL     1       3.642   9.625  -8.736  1.00  0.00    -0.508 OA
ATOM     27  H   UNL     1       3.670   8.613  -8.688  1.00  0.00     0.293 HD
ENDBRANCH   8  26
TORSDOF 6
ENDMDL
MODEL 4
REMARK VINA RESULT:    -7.932      1.811      6.829
REMARK INTER + INTRA:          -9.306
REMARK INTER:                  -8.987
REMARK INTRA:                  -0.318
REMARK UNBOUND:                 0.249
REMARK SMILES O=c1c(O)c(-c2ccc(O)c(O)c2)oc2cc(O)cc(O)c12
REMARK SMILES IDX 5 1 3 2 2 3 1 4 22 5 20 6 19 7 17 8 16 9 15 10 14 11 6 12
REMARK SMILES IDX 7 13 8 14 9 15 13 16 11 17 10 18 12 20 4 22 21 24 18 26
REMARK H PARENT 10 19 12 21 4 23 21 25 18 27
REMARK Flexibility Score: inf
ROOT
ATOM      1  C   UNL     1      -1.968  11.748  -8.062  1.00  0.00     0.180 A 
ATOM      2  C   UNL     1      -2.379  12.999  -7.572  1.00  0.00     0.208 A 
ATOM      3  C   UNL     1      -1.480  13.759  -6.805  1.00  0.00     0.238 A 
ATOM      4  O   UNL     1      -1.835  14.902  -6.415  1.00  0.00    -0.285 OA
ATOM      5  C   UNL     1      -0.189  13.251  -6.526  1.00  0.00     0.111 A 
ATOM      6  C   UNL     1       0.788  13.918  -5.726  1.00  0.00     0.134 A 
ATOM      7  C   UNL     1       2.078  13.383  -5.624  1.00  0.00     0.093 A 
ATOM      8  C   UNL     1       2.408  12.175  -6.237  1.00  0.00     0.123 A 
ATOM      9  C   UNL     1       1.443  11.485  -6.971  1.00  0.00     0.094 A 
ATOM     10  C   UNL     1       0.157  12.011  -7.122  1.00  0.00     0.146 A 
ATOM     11  O   UNL     1      -0.728  11.328  -7.838  1.00  0.00    -0.452 OA
ENDROOT
BRANCH   1  12
ATOM     12  C   UNL     1      -2.867  10.878  -8.855  1.00  0.00     0.025 A 
ATOM     13  C   UNL     1      -2.992  11.031 -10.247  1.00  0.00     0.016 A 
ATOM     14  C   UNL     1      -3.863  10.214 -10.971  1.00  0.00     0.051 A 
ATOM     15  C   UNL     1      -4.631   9.243 -10.317  1.00  0.00     0.157 A 
ATOM     16  C   UNL     1      -3.655   9.917  -8.200  1.00  0.00     0.062 A 
ATOM     17  C   UNL     1      -4.527   9.097  -8.922  1.00  0.00     0.158 A 
BRANCH  15  18
ATOM     18  O   UNL     1      -5.498   8.428 -11.042  1.00  0.00    -0.504 OA
ATOM     19  H   UNL     1      -6.360   8.788 -11.437  1.00  0.00     0.293 HD
ENDBRANCH  15  18
BRANCH  17  20
ATOM     20  O   UNL     1      -5.284   8.144  -8.240  1.00  0.00    -0.504 OA
ATOM     21  H   UNL     1      -6.223   8.335  -7.914  1.00  0.00     0.293 HD
ENDBRANCH  17  20
ENDBRANCH   1  12
BRANCH   2  22
ATOM     22  O   UNL     1      -3.651  13.491  -7.878  1.00  0.00    -0.502 OA
ATOM     23  H   UNL     1      -4.468  12.894  -7.925  1.00  0.00     0.293 HD
ENDBRANCH   2  22
BRANCH   6  24
ATOM     24  O   UNL     1       0.537  15.083  -4.996  1.00  0.00    -0.507 OA
ATOM     25  H   UNL     1      -0.209  15.191  -4.326  1.00  0.00     0.293 HD
ENDBRANCH   6  24
BRANCH   8  26
ATOM     26  O   UNL     1       3.697  11.664  -6.101  1.00  0.00    -0.508 OA
ATOM     27  H   UNL     1       4.189  11.255  -6.886  1.00  0.00     0.293 HD
ENDBRANCH   8  26
TORSDOF 6
ENDMDL
MODEL 5
REMARK VINA RESULT:    -7.358      2.184      7.392
REMARK INTER + INTRA:          -8.615
REMARK INTER:                  -8.283
REMARK INTRA:                  -0.331
REMARK UNBOUND:                 0.249
REMARK SMILES O=c1c(O)c(-c2ccc(O)c(O)c2)oc2cc(O)cc(O)c12
REMARK SMILES IDX 5 1 3 2 2 3 1 4 22 5 20 6 19 7 17 8 16 9 15 10 14 11 6 12
REMARK SMILES IDX 7 13 8 14 9 15 13 16 11 17 10 18 12 20 4 22 21 24 18 26
REMARK H PARENT 10 19 12 21 4 23 21 25 18 27
REMARK Flexibility Score: inf
ROOT
ATOM      1  C   UNL     1      -1.236  11.710  -7.739  1.00  0.00     0.180 A 
ATOM      2  C   UNL     1       0.073  11.199  -7.711  1.00  0.00     0.208 A 
ATOM      3  C   UNL     1       1.042  11.851  -6.930  1.00  0.00     0.238 A 
ATOM      4  O   UNL     1       2.198  11.357  -6.866  1.00  0.00    -0.285 OA
ATOM      5  C   UNL     1       0.693  13.012  -6.200  1.00  0.00     0.111 A 
ATOM      6  C   UNL     1       1.605  13.776  -5.408  1.00  0.00     0.134 A 
ATOM      7  C   UNL     1       1.122  14.831  -4.626  1.00  0.00     0.093 A 
ATOM      8  C   UNL     1      -0.224  15.194  -4.656  1.00  0.00     0.123 A 
ATOM      9  C   UNL     1      -1.113  14.492  -5.472  1.00  0.00     0.094 A 
ATOM     10  C   UNL     1      -0.668  13.410  -6.237  1.00  0.00     0.146 A 
ATOM     11  O   UNL     1      -1.547  12.763  -6.992  1.00  0.00    -0.452 OA
ENDROOT
BRANCH   1  12
ATOM     12  C   UNL     1      -2.305  11.094  -8.558  1.00  0.00     0.025 A 
ATOM     13  C   UNL     1      -2.530  11.493  -9.887  1.00  0.00     0.016 A 
ATOM     14  C   UNL     1      -3.560  10.915 -10.633  1.00  0.00     0.051 A 
ATOM     15  C   UNL     1      -4.387   9.941 -10.060  1.00  0.00     0.157 A 
ATOM     16  C   UNL     1      -3.151  10.132  -7.981  1.00  0.00     0.062 A 
ATOM     17  C   UNL     1      -4.182   9.550  -8.725  1.00  0.00     0.158 A 
BRANCH  15  18
ATOM     18  O   UNL     1      -5.412   9.364 -10.807  1.00  0.00    -0.504 OA
ATOM     19  H   UNL     1      -5.218   8.783 -11.615  1.00  0.00     0.293 HD
ENDBRANCH  15  18
BRANCH  17  20
ATOM     20  O   UNL     1      -4.993   8.588  -8.124  1.00  0.00    -0.504 OA
ATOM     21  H   UNL     1      -4.703   8.080  -7.297  1.00  0.00     0.293 HD
ENDBRANCH  17  20
ENDBRANCH   1  12
BRANCH   2  22
ATOM     22  O   UNL     1       0.390  10.038  -8.421  1.00  0.00    -0.502 OA
ATOM     23  H   UNL     1       0.059   9.122  -8.142  1.00  0.00     0.293 HD
ENDBRANCH   2  22
BRANCH   6  24
ATOM     24  O   UNL     1       2.985  13.556  -5.377  1.00  0.00    -0.507 OA
ATOM     25  H   UNL     1       3.422  12.692  -5.093  1.00  0.00     0.293 HD
ENDBRANCH   6  24
BRANCH   8  26
ATOM     26  O   UNL     1      -0.667  16.259  -3.875  1.00  0.00    -0.508 OA
ATOM     27  H   UNL     1      -1.442  16.157  -3.230  1.00  0.00     0.293 HD
ENDBRANCH   8  26
TORSDOF 6
ENDMDL
MODEL 6
REMARK VINA RESULT:    -7.136      2.103      2.567
REMARK INTER + INTRA:          -8.347
REMARK INTER:                  -8.012
REMARK INTRA:                  -0.335
REMARK UNBOUND:                 0.249
REMARK SMILES O=c1c(O)c(-c2ccc(O)c(O)c2)oc2cc(O)cc(O)c12
REMARK SMILES IDX 5 1 3 2 2 3 1 4 22 5 20 6 19 7 17 8 16 9 15 10 14 11 6 12
REMARK SMILES IDX 7 13 8 14 9 15 13 16 11 17 10 18 12 20 4 22 21 24 18 26
REMARK H PARENT 10 19 12 21 4 23 21 25 18 27
REMARK Flexibility Score: inf
ROOT
ATOM      1  C   UNL     1      -1.651  11.502  -7.593  1.00  0.00     0.180 A 
ATOM      2  C   UNL     1      -2.254  12.376  -8.514  1.00  0.00     0.208 A 
ATOM      3  C   UNL     1      -3.609  12.199  -8.834  1.00  0.00     0.238 A 
ATOM      4  O   UNL     1      -4.157  13.018  -9.618  1.00  0.00    -0.285 OA
ATOM      5  C   UNL     1      -4.340  11.142  -8.241  1.00  0.00     0.111 A 
ATOM      6  C   UNL     1      -5.708  10.844  -8.524  1.00  0.00     0.134 A 
ATOM      7  C   UNL     1      -6.367   9.857  -7.782  1.00  0.00     0.093 A 
ATOM      8  C   UNL     1      -5.693   9.111  -6.816  1.00  0.00     0.123 A 
ATOM      9  C   UNL     1      -4.340   9.352  -6.574  1.00  0.00     0.094 A 
ATOM     10  C   UNL     1      -3.665  10.356  -7.272  1.00  0.00     0.146 A 
ATOM     11  O   UNL     1      -2.380  10.561  -7.004  1.00  0.00    -0.452 OA
ENDROOT
BRANCH   1  12
ATOM     12  C   UNL     1      -0.221  11.609  -7.224  1.00  0.00     0.025 A 
ATOM     13  C   UNL     1       0.776  10.942  -7.958  1.00  0.00     0.016 A 
ATOM     14  C   UNL     1       2.117  11.039  -7.577  1.00  0.00     0.051 A 
ATOM     15  C   UNL     1       2.480  11.790  -6.453  1.00  0.00     0.157 A 
ATOM     16  C   UNL     1       0.147  12.344  -6.084  1.00  0.00     0.062 A 
ATOM     17  C   UNL     1       1.489  12.444  -5.701  1.00  0.00     0.158 A 
BRANCH  15  18
ATOM     18  O   UNL     1       3.819  11.886  -6.077  1.00  0.00    -0.504 OA
ATOM     19  H   UNL     1       4.544  11.363  -6.555  1.00  0.00     0.293 HD
ENDBRANCH  15  18
BRANCH  17  20
ATOM     20  O   UNL     1       1.818  13.194  -4.572  1.00  0.00    -0.504 OA
ATOM     21  H   UNL     1       1.135  13.424  -3.861  1.00  0.00     0.293 HD
ENDBRANCH  17  20
ENDBRANCH   1  12
BRANCH   2  22
ATOM     22  O   UNL     1      -1.519  13.426  -9.070  1.00  0.00    -0.502 OA
ATOM     23  H   UNL     1      -1.540  14.366  -8.692  1.00  0.00     0.293 HD
ENDBRANCH   2  22
BRANCH   6  24
ATOM     24  O   UNL     1      -6.450  11.467  -9.532  1.00  0.00    -0.507 OA
ATOM     25  H   UNL     1      -6.770  11.012 -10.373  1.00  0.00     0.293 HD
ENDBRANCH   6  24
BRANCH   8  26
ATOM     26  O   UNL     1      -6.377   8.125  -6.108  1.00  0.00    -0.508 OA
ATOM     27  H   UNL     1      -5.991   7.196  -5.987  1.00  0.00     0.293 HD
ENDBRANCH   8  26
TORSDOF 6
ENDMDL
MODEL 7
REMARK VINA RESULT:    -7.110      2.376      3.142
REMARK INTER + INTRA:          -8.316
REMARK INTER:                  -7.982
REMARK INTRA:                  -0.334
REMARK UNBOUND:                 0.249
REMARK SMILES O=c1c(O)c(-c2ccc(O)c(O)c2)oc2cc(O)cc(O)c12
REMARK SMILES IDX 5 1 3 2 2 3 1 4 22 5 20 6 19 7 17 8 16 9 15 10 14 11 6 12
REMARK SMILES IDX 7 13 8 14 9 15 13 16 11 17 10 18 12 20 4 22 21 24 18 26
REMARK H PARENT 10 19 12 21 4 23 21 25 18 27
REMARK Flexibility Score: inf
ROOT
ATOM      1  C   UNL     1      -1.385  11.727  -6.491  1.00  0.00     0.180 A 
ATOM      2  C   UNL     1      -2.119  10.883  -5.641  1.00  0.00     0.208 A 
ATOM      3  C   UNL     1      -3.229  10.194  -6.157  1.00  0.00     0.238 A 
ATOM      4  O   UNL     1      -3.849   9.398  -5.404  1.00  0.00    -0.285 OA
ATOM      5  C   UNL     1      -3.599  10.370  -7.511  1.00  0.00     0.111 A 
ATOM      6  C   UNL     1      -4.729   9.752  -8.129  1.00  0.00     0.134 A 
ATOM      7  C   UNL     1      -4.925   9.894  -9.508  1.00  0.00     0.093 A 
ATOM      8  C   UNL     1      -4.072  10.683 -10.280  1.00  0.00     0.123 A 
ATOM      9  C   UNL     1      -2.999  11.339  -9.676  1.00  0.00     0.094 A 
ATOM     10  C   UNL     1      -2.757  11.187  -8.308  1.00  0.00     0.146 A 
ATOM     11  O   UNL     1      -1.719  11.820  -7.774  1.00  0.00    -0.452 OA
ENDROOT
BRANCH   1  12
ATOM     12  C   UNL     1      -0.220  12.507  -6.015  1.00  0.00     0.025 A 
ATOM     13  C   UNL     1      -0.375  13.785  -5.452  1.00  0.00     0.016 A 
ATOM     14  C   UNL     1       0.741  14.512  -5.031  1.00  0.00     0.051 A 
ATOM     15  C   UNL     1       2.028  13.980  -5.178  1.00  0.00     0.157 A 
ATOM     16  C   UNL     1       1.075  11.986  -6.179  1.00  0.00     0.062 A 
ATOM     17  C   UNL     1       2.195  12.710  -5.758  1.00  0.00     0.158 A 
BRANCH  15  18
ATOM     18  O   UNL     1       3.140  14.706  -4.755  1.00  0.00    -0.504 OA
ATOM     19  H   UNL     1       3.305  15.655  -5.069  1.00  0.00     0.293 HD
ENDBRANCH  15  18
BRANCH  17  20
ATOM     20  O   UNL     1       3.463  12.155  -5.925  1.00  0.00    -0.504 OA
ATOM     21  H   UNL     1       3.665  11.192  -5.687  1.00  0.00     0.293 HD
ENDBRANCH  17  20
ENDBRANCH   1  12
BRANCH   2  22
ATOM     22  O   UNL     1      -1.723  10.707  -4.312  1.00  0.00    -0.502 OA
ATOM     23  H   UNL     1      -1.626  11.482  -3.666  1.00  0.00     0.293 HD
ENDBRANCH   2  22
BRANCH   6  24
ATOM     24  O   UNL     1      -5.694   9.018  -7.434  1.00  0.00    -0.507 OA
ATOM     25  H   UNL     1      -6.372   8.408  -7.866  1.00  0.00     0.293 HD
ENDBRANCH   6  24
BRANCH   8  26
ATOM     26  O   UNL     1      -4.306  10.814 -11.647  1.00  0.00    -0.508 OA
ATOM     27  H   UNL     1      -4.953  10.205 -12.134  1.00  0.00     0.293 HD
ENDBRANCH   8  26
TORSDOF 6
ENDMDL
MODEL 8
REMARK VINA RESULT:    -6.715      1.819      3.340
REMARK INTER + INTRA:          -7.840
REMARK INTER:                  -8.394
REMARK INTRA:                   0.554
REMARK UNBOUND:                 0.249
REMARK SMILES O=c1c(O)c(-c2ccc(O)c(O)c2)oc2cc(O)cc(O)c12
REMARK SMILES IDX 5 1 3 2 2 3 1 4 22 5 20 6 19 7 17 8 16 9 15 10 14 11 6 12
REMARK SMILES IDX 7 13 8 14 9 15 13 16 11 17 10 18 12 20 4 22 21 24 18 26
REMARK H PARENT 10 19 12 21 4 23 21 25 18 27
REMARK Flexibility Score: inf
ROOT
ATOM      1  C   UNL     1      -1.440  12.197  -7.531  1.00  0.00     0.180 A 
ATOM      2  C   UNL     1      -1.316  11.012  -8.277  1.00  0.00     0.208 A 
ATOM      3  C   UNL     1      -2.433  10.526  -8.975  1.00  0.00     0.238 A 
ATOM      4  O   UNL     1      -2.300   9.495  -9.685  1.00  0.00    -0.285 OA
ATOM      5  C   UNL     1      -3.664  11.222  -8.905  1.00  0.00     0.111 A 
ATOM      6  C   UNL     1      -4.871  10.798  -9.540  1.00  0.00     0.134 A 
ATOM      7  C   UNL     1      -5.995  11.632  -9.511  1.00  0.00     0.093 A 
ATOM      8  C   UNL     1      -5.978  12.842  -8.817  1.00  0.00     0.123 A 
ATOM      9  C   UNL     1      -4.822  13.237  -8.143  1.00  0.00     0.094 A 
ATOM     10  C   UNL     1      -3.672  12.443  -8.184  1.00  0.00     0.146 A 
ATOM     11  O   UNL     1      -2.590  12.861  -7.538  1.00  0.00    -0.452 OA
ENDROOT
BRANCH   1  12
ATOM     12  C   UNL     1      -0.315  12.757  -6.748  1.00  0.00     0.025 A 
ATOM     13  C   UNL     1      -0.453  13.953  -6.022  1.00  0.00     0.016 A 
ATOM     14  C   UNL     1       0.629  14.476  -5.309  1.00  0.00     0.051 A 
ATOM     15  C   UNL     1       1.867  13.821  -5.322  1.00  0.00     0.157 A 
ATOM     16  C   UNL     1       0.935  12.115  -6.774  1.00  0.00     0.062 A 
ATOM     17  C   UNL     1       2.020  12.635  -6.061  1.00  0.00     0.158 A 
BRANCH  15  18
ATOM     18  O   UNL     1       2.944  14.343  -4.608  1.00  0.00    -0.504 OA
ATOM     19  H   UNL     1       3.721  13.760  -4.316  1.00  0.00     0.293 HD
ENDBRANCH  15  18
BRANCH  17  20
ATOM     20  O   UNL     1       3.241  11.963  -6.099  1.00  0.00    -0.504 OA
ATOM     21  H   UNL     1       3.373  11.117  -6.640  1.00  0.00     0.293 HD
ENDBRANCH  17  20
ENDBRANCH   1  12
BRANCH   2  22
ATOM     22  O   UNL     1      -0.085  10.354  -8.350  1.00  0.00    -0.502 OA
ATOM     23  H   UNL     1       0.080   9.577  -8.980  1.00  0.00     0.293 HD
ENDBRANCH   2  22
BRANCH   6  24
ATOM     24  O   UNL     1      -5.024   9.567 -10.183  1.00  0.00    -0.507 OA
ATOM     25  H   UNL     1      -4.760   9.382 -11.139  1.00  0.00     0.293 HD
ENDBRANCH   6  24
BRANCH   8  26
ATOM     26  O   UNL     1      -7.120  13.639  -8.797  1.00  0.00    -0.508 OA
ATOM     27  H   UNL     1      -7.274  14.360  -9.491  1.00  0.00     0.293 HD
ENDBRANCH   8  26
TORSDOF 6
ENDMDL
MODEL 9
REMARK VINA RESULT:    -6.451      2.212      3.083
REMARK INTER + INTRA:          -7.522
REMARK INTER:                  -7.350
REMARK INTRA:                  -0.172
REMARK UNBOUND:                 0.249
REMARK SMILES O=c1c(O)c(-c2ccc(O)c(O)c2)oc2cc(O)cc(O)c12
REMARK SMILES IDX 5 1 3 2 2 3 1 4 22 5 20 6 19 7 17 8 16 9 15 10 14 11 6 12
REMARK SMILES IDX 7 13 8 14 9 15 13 16 11 17 10 18 12 20 4 22 21 24 18 26
REMARK H PARENT 10 19 12 21 4 23 21 25 18 27
REMARK Flexibility Score: inf
ROOT
ATOM      1  C   UNL     1      -2.040  10.714  -7.600  1.00  0.00     0.180 A 
ATOM      2  C   UNL     1      -2.719  10.318  -6.436  1.00  0.00     0.208 A 
ATOM      3  C   UNL     1      -4.122  10.248  -6.455  1.00  0.00     0.238 A 
ATOM      4  O   UNL     1      -4.721   9.839  -5.426  1.00  0.00    -0.285 OA
ATOM      5  C   UNL     1      -4.827  10.590  -7.634  1.00  0.00     0.111 A 
ATOM      6  C   UNL     1      -6.250  10.594  -7.754  1.00  0.00     0.134 A 
ATOM      7  C   UNL     1      -6.836  10.823  -9.004  1.00  0.00     0.093 A 
ATOM      8  C   UNL     1      -6.057  11.113 -10.123  1.00  0.00     0.123 A 
ATOM      9  C   UNL     1      -4.668  11.171 -10.004  1.00  0.00     0.094 A 
ATOM     10  C   UNL     1      -4.051  10.911  -8.777  1.00  0.00     0.146 A 
ATOM     11  O   UNL     1      -2.727  10.966  -8.709  1.00  0.00    -0.452 OA
ENDROOT
BRANCH   1  12
ATOM     12  C   UNL     1      -0.565  10.837  -7.650  1.00  0.00     0.025 A 
ATOM     13  C   UNL     1       0.215   9.971  -8.436  1.00  0.00     0.016 A 
ATOM     14  C   UNL     1       1.607  10.090  -8.449  1.00  0.00     0.051 A 
ATOM     15  C   UNL     1       2.241  11.066  -7.669  1.00  0.00     0.157 A 
ATOM     16  C   UNL     1       0.077  11.800  -6.853  1.00  0.00     0.062 A 
ATOM     17  C   UNL     1       1.470  11.923  -6.865  1.00  0.00     0.158 A 
BRANCH  15  18
ATOM     18  O   UNL     1       3.629  11.184  -7.686  1.00  0.00    -0.504 OA
ATOM     19  H   UNL     1       4.116  11.612  -8.466  1.00  0.00     0.293 HD
ENDBRANCH  15  18
BRANCH  17  20
ATOM     20  O   UNL     1       2.071  12.899  -6.071  1.00  0.00    -0.504 OA
ATOM     21  H   UNL     1       2.243  13.838  -6.410  1.00  0.00     0.293 HD
ENDBRANCH  17  20
ENDBRANCH   1  12
BRANCH   2  22
ATOM     22  O   UNL     1      -2.002   9.963  -5.290  1.00  0.00    -0.502 OA
ATOM     23  H   UNL     1      -1.212  10.502  -4.954  1.00  0.00     0.293 HD
ENDBRANCH   2  22
BRANCH   6  24
ATOM     24  O   UNL     1      -7.125  10.406  -6.680  1.00  0.00    -0.507 OA
ATOM     25  H   UNL     1      -7.139  10.972  -5.845  1.00  0.00     0.293 HD
ENDBRANCH   6  24
BRANCH   8  26
ATOM     26  O   UNL     1      -6.675  11.351 -11.349  1.00  0.00    -0.508 OA
ATOM     27  H   UNL     1      -6.208  11.150 -12.225  1.00  0.00     0.293 HD
ENDBRANCH   8  26
TORSDOF 6
ENDMDL
