MODEL 1
REMARK VINA RESULT:    -6.007      0.000      0.000
REMARK INTER + INTRA:         -17.534
REMARK INTER:                 -15.137
REMARK INTRA:                  -2.398
REMARK UNBOUND:                -2.398
REMARK SMILES CCCCCCCCCCCCCCCCCCCCCCCCCCCC(=O)[O-]
REMARK SMILES IDX 15 1 16 2 17 3 18 4 19 5 20 6 21 7 22 8 23 9 24 10 25 11
REMARK SMILES IDX 26 12 27 13 28 14 29 15 30 16 14 17 13 18 12 19 11 20 10 21
REMARK SMILES IDX 9 22 8 23 7 24 6 25 5 26 4 27 3 28 2 29 1 30
REMARK H PARENT
REMARK Flexibility Score: inf
ROOT
ATOM      1  C   UNL     1       7.744  -5.610 -34.054  1.00  0.00     0.000 C 
ENDROOT
BRANCH   1   2
ATOM      2  C   UNL     1       7.072  -6.570 -33.061  1.00  0.00     0.000 C 
BRANCH   2   3
ATOM      3  C   UNL     1       7.684  -7.981 -33.088  1.00  0.00     0.000 C 
BRANCH   3   4
ATOM      4  C   UNL     1       6.680  -9.123 -32.835  1.00  0.00     0.000 C 
BRANCH   4   5
ATOM      5  C   UNL     1       7.292 -10.334 -32.099  1.00  0.00     0.000 C 
BRANCH   5   6
ATOM      6  C   UNL     1       7.004 -10.302 -30.586  1.00  0.00     0.000 C 
BRANCH   6   7
ATOM      7  C   UNL     1       5.755  -9.463 -30.244  1.00  0.00     0.000 C 
BRANCH   7   8
ATOM      8  C   UNL     1       5.960  -8.479 -29.074  1.00  0.00     0.000 C 
BRANCH   8   9
ATOM      9  C   UNL     1       6.597  -7.131 -29.454  1.00  0.00     0.000 C 
BRANCH   9  10
ATOM     10  C   UNL     1       7.892  -6.842 -28.676  1.00  0.00     0.000 C 
BRANCH  10  11
ATOM     11  C   UNL     1       9.019  -7.835 -29.006  1.00  0.00     0.000 C 
BRANCH  11  12
ATOM     12  C   UNL     1       9.698  -8.450 -27.761  1.00  0.00     0.006 C 
BRANCH  12  13
ATOM     13  C   UNL     1      10.002  -9.948 -27.908  1.00  0.00     0.053 C 
BRANCH  13  14
ATOM     14  C   UNL     1      11.473 -10.218 -28.027  1.00  0.00     0.041 C 
ATOM     15  O   UNL     1      12.188  -9.507 -28.783  1.00  0.00    -0.550 OA
ATOM     16  O   UNL     1      12.057 -11.245 -27.294  1.00  0.00    -0.550 OA
ENDBRANCH  13  14
ENDBRANCH  12  13
ENDBRANCH  11  12
ENDBRANCH  10  11
ENDBRANCH   9  10
ENDBRANCH   8   9
ENDBRANCH   7   8
ENDBRANCH   6   7
ENDBRANCH   5   6
ENDBRANCH   4   5
ENDBRANCH   3   4
ENDBRANCH   2   3
ENDBRANCH   1   2
BRANCH   1  17
ATOM     17  C   UNL     1       6.814  -5.299 -35.232  1.00  0.00     0.000 C 
BRANCH  17  18
ATOM     18  C   UNL     1       7.147  -3.933 -35.851  1.00  0.00     0.000 C 
BRANCH  18  19
ATOM     19  C   UNL     1       5.910  -3.036 -36.035  1.00  0.00     0.000 C 
BRANCH  19  20
ATOM     20  C   UNL     1       5.708  -1.972 -34.940  1.00  0.00     0.000 C 
BRANCH  20  21
ATOM     21  C   UNL     1       6.285  -0.600 -35.322  1.00  0.00     0.000 C 
BRANCH  21  22
ATOM     22  C   UNL     1       6.251   0.363 -34.129  1.00  0.00    -0.000 C 
BRANCH  22  23
ATOM     23  C   UNL     1       7.360   1.420 -34.246  1.00  0.00    -0.000 C 
BRANCH  23  24
ATOM     24  C   UNL     1       8.377   1.098 -35.354  1.00  0.00    -0.000 C 
BRANCH  24  25
ATOM     25  C   UNL     1       9.845   1.416 -35.005  1.00  0.00    -0.000 C 
BRANCH  25  26
ATOM     26  C   UNL     1      10.177   1.421 -33.502  1.00  0.00    -0.000 C 
BRANCH  26  27
ATOM     27  C   UNL     1      11.564   2.011 -33.197  1.00  0.00    -0.000 C 
BRANCH  27  28
ATOM     28  C   UNL     1      12.703   1.216 -33.858  1.00  0.00    -0.000 C 
BRANCH  28  29
ATOM     29  C   UNL     1      13.815   2.122 -34.408  1.00  0.00    -0.003 C 
ATOM     30  C   UNL     1      13.359   2.836 -35.678  1.00  0.00     0.004 C 
ENDBRANCH  28  29
ENDBRANCH  27  28
ENDBRANCH  26  27
ENDBRANCH  25  26
ENDBRANCH  24  25
ENDBRANCH  23  24
ENDBRANCH  22  23
ENDBRANCH  21  22
ENDBRANCH  20  21
ENDBRANCH  19  20
ENDBRANCH  18  19
ENDBRANCH  17  18
ENDBRANCH   1  17
TORSDOF 26
ENDMDL
MODEL 2
REMARK VINA RESULT:    -5.978      5.069      7.582
REMARK INTER + INTRA:         -17.462
REMARK INTER:                 -12.794
REMARK INTRA:                  -4.669
REMARK UNBOUND:                -2.398
REMARK SMILES CCCCCCCCCCCCCCCCCCCCCCCCCCCC(=O)[O-]
REMARK SMILES IDX 15 1 16 2 17 3 18 4 19 5 20 6 21 7 22 8 23 9 24 10 25 11
REMARK SMILES IDX 26 12 27 13 28 14 29 15 30 16 14 17 13 18 12 19 11 20 10 21
REMARK SMILES IDX 9 22 8 23 7 24 6 25 5 26 4 27 3 28 2 29 1 30
REMARK H PARENT
REMARK Flexibility Score: inf
ROOT
ATOM      1  C   UNL     1       6.898 -10.613 -30.093  1.00  0.00     0.000 C 
ENDROOT
BRANCH   1   2
ATOM      2  C   UNL     1       7.777 -10.179 -31.275  1.00  0.00     0.000 C 
BRANCH   2   3
ATOM      3  C   UNL     1       9.225 -10.684 -31.160  1.00  0.00     0.000 C 
BRANCH   3   4
ATOM      4  C   UNL     1       9.799 -10.669 -29.730  1.00  0.00     0.000 C 
BRANCH   4   5
ATOM      5  C   UNL     1      11.003  -9.718 -29.556  1.00  0.00     0.000 C 
BRANCH   5   6
ATOM      6  C   UNL     1      10.727  -8.614 -28.519  1.00  0.00     0.000 C 
BRANCH   6   7
ATOM      7  C   UNL     1       9.255  -8.600 -28.055  1.00  0.00     0.000 C 
BRANCH   7   8
ATOM      8  C   UNL     1       8.538  -7.254 -28.282  1.00  0.00     0.000 C 
BRANCH   8   9
ATOM      9  C   UNL     1       8.609  -6.706 -29.718  1.00  0.00     0.000 C 
BRANCH   9  10
ATOM     10  C   UNL     1       7.714  -5.474 -29.933  1.00  0.00     0.000 C 
BRANCH  10  11
ATOM     11  C   UNL     1       6.965  -5.052 -28.658  1.00  0.00     0.000 C 
BRANCH  11  12
ATOM     12  C   UNL     1       7.509  -3.761 -28.008  1.00  0.00     0.006 C 
BRANCH  12  13
ATOM     13  C   UNL     1       6.488  -3.055 -27.102  1.00  0.00     0.053 C 
BRANCH  13  14
ATOM     14  C   UNL     1       6.045  -1.738 -27.669  1.00  0.00     0.041 C 
ATOM     15  O   UNL     1       5.387  -1.700 -28.743  1.00  0.00    -0.550 OA
ATOM     16  O   UNL     1       6.347  -0.554 -27.005  1.00  0.00    -0.550 OA
ENDBRANCH  13  14
ENDBRANCH  12  13
ENDBRANCH  11  12
ENDBRANCH  10  11
ENDBRANCH   9  10
ENDBRANCH   8   9
ENDBRANCH   7   8
ENDBRANCH   6   7
ENDBRANCH   5   6
ENDBRANCH   4   5
ENDBRANCH   3   4
ENDBRANCH   2   3
ENDBRANCH   1   2
BRANCH   1  17
ATOM     17  C   UNL     1       5.904  -9.510 -29.712  1.00  0.00     0.000 C 
BRANCH  17  18
ATOM     18  C   UNL     1       5.827  -8.436 -30.807  1.00  0.00     0.000 C 
BRANCH  18  19
ATOM     19  C   UNL     1       4.383  -8.055 -31.178  1.00  0.00     0.000 C 
BRANCH  19  20
ATOM     20  C   UNL     1       4.011  -8.270 -32.657  1.00  0.00     0.000 C 
BRANCH  20  21
ATOM     21  C   UNL     1       4.475  -9.629 -33.202  1.00  0.00     0.000 C 
BRANCH  21  22
ATOM     22  C   UNL     1       4.933  -9.510 -34.660  1.00  0.00    -0.000 C 
BRANCH  22  23
ATOM     23  C   UNL     1       5.828  -8.277 -34.856  1.00  0.00    -0.000 C 
BRANCH  23  24
ATOM     24  C   UNL     1       7.264  -8.494 -34.345  1.00  0.00    -0.000 C 
BRANCH  24  25
ATOM     25  C   UNL     1       7.855  -7.317 -33.543  1.00  0.00    -0.000 C 
BRANCH  25  26
ATOM     26  C   UNL     1       7.057  -6.003 -33.618  1.00  0.00    -0.000 C 
BRANCH  26  27
ATOM     27  C   UNL     1       7.518  -5.088 -34.765  1.00  0.00    -0.000 C 
BRANCH  27  28
ATOM     28  C   UNL     1       6.481  -4.007 -35.113  1.00  0.00    -0.000 C 
BRANCH  28  29
ATOM     29  C   UNL     1       5.982  -4.110 -36.561  1.00  0.00    -0.003 C 
ATOM     30  C   UNL     1       5.048  -5.305 -36.734  1.00  0.00     0.004 C 
ENDBRANCH  28  29
ENDBRANCH  27  28
ENDBRANCH  26  27
ENDBRANCH  25  26
ENDBRANCH  24  25
ENDBRANCH  23  24
ENDBRANCH  22  23
ENDBRANCH  21  22
ENDBRANCH  20  21
ENDBRANCH  19  20
ENDBRANCH  18  19
ENDBRANCH  17  18
ENDBRANCH   1  17
TORSDOF 26
ENDMDL
MODEL 3
REMARK VINA RESULT:    -5.976      5.329     10.077
REMARK INTER + INTRA:         -17.456
REMARK INTER:                 -13.347
REMARK INTRA:                  -4.109
REMARK UNBOUND:                -2.398
REMARK SMILES CCCCCCCCCCCCCCCCCCCCCCCCCCCC(=O)[O-]
REMARK SMILES IDX 15 1 16 2 17 3 18 4 19 5 20 6 21 7 22 8 23 9 24 10 25 11
REMARK SMILES IDX 26 12 27 13 28 14 29 15 30 16 14 17 13 18 12 19 11 20 10 21
REMARK SMILES IDX 9 22 8 23 7 24 6 25 5 26 4 27 3 28 2 29 1 30
REMARK H PARENT
REMARK Flexibility Score: inf
ROOT
ATOM      1  C   UNL     1      10.131  -7.521 -27.347  1.00  0.00     0.000 C 
ENDROOT
BRANCH   1   2
ATOM      2  C   UNL     1       8.957  -8.013 -28.207  1.00  0.00     0.000 C 
BRANCH   2   3
ATOM      3  C   UNL     1       8.026  -6.874 -28.655  1.00  0.00     0.000 C 
BRANCH   3   4
ATOM      4  C   UNL     1       7.144  -7.206 -29.875  1.00  0.00     0.000 C 
BRANCH   4   5
ATOM      5  C   UNL     1       5.880  -8.020 -29.521  1.00  0.00     0.000 C 
BRANCH   5   6
ATOM      6  C   UNL     1       5.408  -8.900 -30.693  1.00  0.00     0.000 C 
BRANCH   6   7
ATOM      7  C   UNL     1       4.344  -8.196 -31.564  1.00  0.00     0.000 C 
BRANCH   7   8
ATOM      8  C   UNL     1       4.182  -8.805 -32.971  1.00  0.00     0.000 C 
BRANCH   8   9
ATOM      9  C   UNL     1       5.020  -8.137 -34.076  1.00  0.00     0.000 C 
BRANCH   9  10
ATOM     10  C   UNL     1       6.442  -8.714 -34.180  1.00  0.00     0.000 C 
BRANCH  10  11
ATOM     11  C   UNL     1       7.514  -7.756 -33.633  1.00  0.00     0.000 C 
BRANCH  11  12
ATOM     12  C   UNL     1       7.038  -6.292 -33.499  1.00  0.00     0.006 C 
BRANCH  12  13
ATOM     13  C   UNL     1       7.718  -5.335 -34.490  1.00  0.00     0.053 C 
BRANCH  13  14
ATOM     14  C   UNL     1       6.755  -4.797 -35.507  1.00  0.00     0.041 C 
ATOM     15  O   UNL     1       5.960  -5.574 -36.100  1.00  0.00    -0.550 OA
ATOM     16  O   UNL     1       6.727  -3.436 -35.791  1.00  0.00    -0.550 OA
ENDBRANCH  13  14
ENDBRANCH  12  13
ENDBRANCH  11  12
ENDBRANCH  10  11
ENDBRANCH   9  10
ENDBRANCH   8   9
ENDBRANCH   7   8
ENDBRANCH   6   7
ENDBRANCH   5   6
ENDBRANCH   4   5
ENDBRANCH   3   4
ENDBRANCH   2   3
ENDBRANCH   1   2
BRANCH   1  17
ATOM     17  C   UNL     1      11.241  -8.576 -27.275  1.00  0.00     0.000 C 
BRANCH  17  18
ATOM     18  C   UNL     1      11.529  -8.973 -25.820  1.00  0.00     0.000 C 
BRANCH  18  19
ATOM     19  C   UNL     1      11.063 -10.399 -25.480  1.00  0.00     0.000 C 
BRANCH  19  20
ATOM     20  C   UNL     1      10.779 -11.300 -26.696  1.00  0.00     0.000 C 
BRANCH  20  21
ATOM     21  C   UNL     1       9.296 -11.679 -26.831  1.00  0.00     0.000 C 
BRANCH  21  22
ATOM     22  C   UNL     1       9.066 -12.577 -28.052  1.00  0.00    -0.000 C 
BRANCH  22  23
ATOM     23  C   UNL     1       8.362 -11.804 -29.177  1.00  0.00    -0.000 C 
BRANCH  23  24
ATOM     24  C   UNL     1       9.094 -11.916 -30.527  1.00  0.00    -0.000 C 
BRANCH  24  25
ATOM     25  C   UNL     1      10.627 -11.768 -30.452  1.00  0.00    -0.000 C 
BRANCH  25  26
ATOM     26  C   UNL     1      11.147 -10.320 -30.421  1.00  0.00    -0.000 C 
BRANCH  26  27
ATOM     27  C   UNL     1      10.268  -9.351 -31.229  1.00  0.00    -0.000 C 
BRANCH  27  28
ATOM     28  C   UNL     1      10.708  -9.237 -32.699  1.00  0.00    -0.000 C 
BRANCH  28  29
ATOM     29  C   UNL     1      12.216  -8.990 -32.847  1.00  0.00    -0.003 C 
ATOM     30  C   UNL     1      12.833  -9.963 -33.849  1.00  0.00     0.004 C 
ENDBRANCH  28  29
ENDBRANCH  27  28
ENDBRANCH  26  27
ENDBRANCH  25  26
ENDBRANCH  24  25
ENDBRANCH  23  24
ENDBRANCH  22  23
ENDBRANCH  21  22
ENDBRANCH  20  21
ENDBRANCH  19  20
ENDBRANCH  18  19
ENDBRANCH  17  18
ENDBRANCH   1  17
TORSDOF 26
ENDMDL
MODEL 4
REMARK VINA RESULT:    -5.945      5.284      9.348
REMARK INTER + INTRA:         -17.379
REMARK INTER:                 -12.485
REMARK INTRA:                  -4.895
REMARK UNBOUND:                -2.398
REMARK SMILES CCCCCCCCCCCCCCCCCCCCCCCCCCCC(=O)[O-]
REMARK SMILES IDX 15 1 16 2 17 3 18 4 19 5 20 6 21 7 22 8 23 9 24 10 25 11
REMARK SMILES IDX 26 12 27 13 28 14 29 15 30 16 14 17 13 18 12 19 11 20 10 21
REMARK SMILES IDX 9 22 8 23 7 24 6 25 5 26 4 27 3 28 2 29 1 30
REMARK H PARENT
REMARK Flexibility Score: inf
ROOT
ATOM      1  C   UNL     1       8.439  -9.414 -28.812  1.00  0.00     0.000 C 
ENDROOT
BRANCH   1   2
ATOM      2  C   UNL     1       8.499 -10.946 -28.720  1.00  0.00     0.000 C 
BRANCH   2   3
ATOM      3  C   UNL     1       8.337 -11.633 -30.086  1.00  0.00     0.000 C 
BRANCH   3   4
ATOM      4  C   UNL     1       9.625 -12.269 -30.644  1.00  0.00     0.000 C 
BRANCH   4   5
ATOM      5  C   UNL     1      10.300 -11.430 -31.751  1.00  0.00     0.000 C 
BRANCH   5   6
ATOM      6  C   UNL     1       9.540 -11.512 -33.088  1.00  0.00     0.000 C 
BRANCH   6   7
ATOM      7  C   UNL     1       8.773 -10.211 -33.408  1.00  0.00     0.000 C 
BRANCH   7   8
ATOM      8  C   UNL     1       9.243  -8.989 -32.592  1.00  0.00     0.000 C 
BRANCH   8   9
ATOM      9  C   UNL     1       8.442  -7.696 -32.827  1.00  0.00     0.000 C 
BRANCH   9  10
ATOM     10  C   UNL     1       7.474  -7.801 -34.017  1.00  0.00     0.000 C 
BRANCH  10  11
ATOM     11  C   UNL     1       6.626  -6.531 -34.208  1.00  0.00     0.000 C 
BRANCH  11  12
ATOM     12  C   UNL     1       7.456  -5.232 -34.306  1.00  0.00     0.006 C 
BRANCH  12  13
ATOM     13  C   UNL     1       7.420  -4.589 -35.701  1.00  0.00     0.053 C 
BRANCH  13  14
ATOM     14  C   UNL     1       6.114  -3.901 -35.973  1.00  0.00     0.041 C 
ATOM     15  O   UNL     1       5.869  -2.780 -35.454  1.00  0.00    -0.550 OA
ATOM     16  O   UNL     1       5.174  -4.493 -36.811  1.00  0.00    -0.550 OA
ENDBRANCH  13  14
ENDBRANCH  12  13
ENDBRANCH  11  12
ENDBRANCH  10  11
ENDBRANCH   9  10
ENDBRANCH   8   9
ENDBRANCH   7   8
ENDBRANCH   6   7
ENDBRANCH   5   6
ENDBRANCH   4   5
ENDBRANCH   3   4
ENDBRANCH   2   3
ENDBRANCH   1   2
BRANCH   1  17
ATOM     17  C   UNL     1       9.848  -8.807 -28.819  1.00  0.00     0.000 C 
BRANCH  17  18
ATOM     18  C   UNL     1       9.830  -7.368 -28.282  1.00  0.00     0.000 C 
BRANCH  18  19
ATOM     19  C   UNL     1       8.415  -6.766 -28.220  1.00  0.00     0.000 C 
BRANCH  19  20
ATOM     20  C   UNL     1       8.068  -5.797 -29.366  1.00  0.00     0.000 C 
BRANCH  20  21
ATOM     21  C   UNL     1       6.977  -6.339 -30.302  1.00  0.00     0.000 C 
BRANCH  21  22
ATOM     22  C   UNL     1       5.896  -7.087 -29.513  1.00  0.00    -0.000 C 
BRANCH  22  23
ATOM     23  C   UNL     1       4.950  -7.842 -30.458  1.00  0.00    -0.000 C 
BRANCH  23  24
ATOM     24  C   UNL     1       5.532  -9.183 -30.940  1.00  0.00    -0.000 C 
BRANCH  24  25
ATOM     25  C   UNL     1       5.087  -9.618 -32.351  1.00  0.00    -0.000 C 
BRANCH  25  26
ATOM     26  C   UNL     1       3.987  -8.751 -32.990  1.00  0.00    -0.000 C 
BRANCH  26  27
ATOM     27  C   UNL     1       3.675  -9.153 -34.441  1.00  0.00    -0.000 C 
BRANCH  27  28
ATOM     28  C   UNL     1       4.600 -10.268 -34.958  1.00  0.00    -0.000 C 
BRANCH  28  29
ATOM     29  C   UNL     1       5.264  -9.913 -36.296  1.00  0.00    -0.003 C 
ATOM     30  C   UNL     1       5.003  -8.455 -36.667  1.00  0.00     0.004 C 
ENDBRANCH  28  29
ENDBRANCH  27  28
ENDBRANCH  26  27
ENDBRANCH  25  26
ENDBRANCH  24  25
ENDBRANCH  23  24
ENDBRANCH  22  23
ENDBRANCH  21  22
ENDBRANCH  20  21
ENDBRANCH  19  20
ENDBRANCH  18  19
ENDBRANCH  17  18
ENDBRANCH   1  17
TORSDOF 26
ENDMDL
MODEL 5
REMARK VINA RESULT:    -5.936      5.149      9.593
REMARK INTER + INTRA:         -17.356
REMARK INTER:                 -12.451
REMARK INTRA:                  -4.906
REMARK UNBOUND:                -2.398
REMARK SMILES CCCCCCCCCCCCCCCCCCCCCCCCCCCC(=O)[O-]
REMARK SMILES IDX 15 1 16 2 17 3 18 4 19 5 20 6 21 7 22 8 23 9 24 10 25 11
REMARK SMILES IDX 26 12 27 13 28 14 29 15 30 16 14 17 13 18 12 19 11 20 10 21
REMARK SMILES IDX 9 22 8 23 7 24 6 25 5 26 4 27 3 28 2 29 1 30
REMARK H PARENT
REMARK Flexibility Score: inf
ROOT
ATOM      1  C   UNL     1       6.962  -6.632 -31.659  1.00  0.00     0.000 C 
ENDROOT
BRANCH   1   2
ATOM      2  C   UNL     1       6.671  -7.445 -30.389  1.00  0.00     0.000 C 
BRANCH   2   3
ATOM      3  C   UNL     1       5.384  -8.280 -30.495  1.00  0.00     0.000 C 
BRANCH   3   4
ATOM      4  C   UNL     1       4.513  -7.966 -31.726  1.00  0.00     0.000 C 
BRANCH   4   5
ATOM      5  C   UNL     1       4.326  -9.169 -32.676  1.00  0.00     0.000 C 
BRANCH   5   6
ATOM      6  C   UNL     1       5.515 -10.146 -32.619  1.00  0.00     0.000 C 
BRANCH   6   7
ATOM      7  C   UNL     1       6.021 -10.538 -34.024  1.00  0.00     0.000 C 
BRANCH   7   8
ATOM      8  C   UNL     1       6.555  -9.352 -34.852  1.00  0.00     0.000 C 
BRANCH   8   9
ATOM      9  C   UNL     1       5.870  -9.140 -36.213  1.00  0.00     0.000 C 
BRANCH   9  10
ATOM     10  C   UNL     1       5.121  -7.800 -36.303  1.00  0.00     0.000 C 
BRANCH  10  11
ATOM     11  C   UNL     1       5.462  -6.848 -35.144  1.00  0.00     0.000 C 
BRANCH  11  12
ATOM     12  C   UNL     1       6.456  -5.728 -35.523  1.00  0.00     0.006 C 
BRANCH  12  13
ATOM     13  C   UNL     1       5.853  -4.665 -36.454  1.00  0.00     0.053 C 
BRANCH  13  14
ATOM     14  C   UNL     1       6.288  -3.277 -36.083  1.00  0.00     0.041 C 
ATOM     15  O   UNL     1       5.787  -2.703 -35.080  1.00  0.00    -0.550 OA
ATOM     16  O   UNL     1       7.257  -2.624 -36.837  1.00  0.00    -0.550 OA
ENDBRANCH  13  14
ENDBRANCH  12  13
ENDBRANCH  11  12
ENDBRANCH  10  11
ENDBRANCH   9  10
ENDBRANCH   8   9
ENDBRANCH   7   8
ENDBRANCH   6   7
ENDBRANCH   5   6
ENDBRANCH   4   5
ENDBRANCH   3   4
ENDBRANCH   2   3
ENDBRANCH   1   2
BRANCH   1  17
ATOM     17  C   UNL     1       8.046  -7.306 -32.508  1.00  0.00     0.000 C 
BRANCH  17  18
ATOM     18  C   UNL     1       8.726  -8.443 -31.730  1.00  0.00     0.000 C 
BRANCH  18  19
ATOM     19  C   UNL     1       9.986  -8.982 -32.429  1.00  0.00     0.000 C 
BRANCH  19  20
ATOM     20  C   UNL     1       9.740 -10.137 -33.418  1.00  0.00     0.000 C 
BRANCH  20  21
ATOM     21  C   UNL     1      10.172 -11.504 -32.866  1.00  0.00     0.000 C 
BRANCH  21  22
ATOM     22  C   UNL     1       9.031 -12.170 -32.087  1.00  0.00    -0.000 C 
BRANCH  22  23
ATOM     23  C   UNL     1       9.195 -11.947 -30.576  1.00  0.00    -0.000 C 
BRANCH  23  24
ATOM     24  C   UNL     1       7.918 -11.402 -29.911  1.00  0.00    -0.000 C 
BRANCH  24  25
ATOM     25  C   UNL     1       8.158 -10.419 -28.747  1.00  0.00    -0.000 C 
BRANCH  25  26
ATOM     26  C   UNL     1       9.591 -10.401 -28.187  1.00  0.00    -0.000 C 
BRANCH  26  27
ATOM     27  C   UNL     1       9.966  -9.054 -27.545  1.00  0.00    -0.000 C 
BRANCH  27  28
ATOM     28  C   UNL     1       9.451  -7.851 -28.352  1.00  0.00    -0.000 C 
BRANCH  28  29
ATOM     29  C   UNL     1       9.384  -6.563 -27.518  1.00  0.00    -0.003 C 
ATOM     30  C   UNL     1      10.665  -6.369 -26.710  1.00  0.00     0.004 C 
ENDBRANCH  28  29
ENDBRANCH  27  28
ENDBRANCH  26  27
ENDBRANCH  25  26
ENDBRANCH  24  25
ENDBRANCH  23  24
ENDBRANCH  22  23
ENDBRANCH  21  22
ENDBRANCH  20  21
ENDBRANCH  19  20
ENDBRANCH  18  19
ENDBRANCH  17  18
ENDBRANCH   1  17
TORSDOF 26
ENDMDL
MODEL 6
REMARK VINA RESULT:    -5.906      4.639      9.079
REMARK INTER + INTRA:         -17.280
REMARK INTER:                 -14.091
REMARK INTRA:                  -3.188
REMARK UNBOUND:                -2.398
REMARK SMILES CCCCCCCCCCCCCCCCCCCCCCCCCCCC(=O)[O-]
REMARK SMILES IDX 15 1 16 2 17 3 18 4 19 5 20 6 21 7 22 8 23 9 24 10 25 11
REMARK SMILES IDX 26 12 27 13 28 14 29 15 30 16 14 17 13 18 12 19 11 20 10 21
REMARK SMILES IDX 9 22 8 23 7 24 6 25 5 26 4 27 3 28 2 29 1 30
REMARK H PARENT
REMARK Flexibility Score: inf
ROOT
ATOM      1  C   UNL     1       7.504  -6.389 -29.274  1.00  0.00     0.000 C 
ENDROOT
BRANCH   1   2
ATOM      2  C   UNL     1       8.750  -6.527 -28.385  1.00  0.00     0.000 C 
BRANCH   2   3
ATOM      3  C   UNL     1       9.173  -5.197 -27.739  1.00  0.00     0.000 C 
BRANCH   3   4
ATOM      4  C   UNL     1       9.227  -4.000 -28.707  1.00  0.00     0.000 C 
BRANCH   4   5
ATOM      5  C   UNL     1       8.636  -2.700 -28.118  1.00  0.00     0.000 C 
BRANCH   5   6
ATOM      6  C   UNL     1       7.455  -2.976 -27.170  1.00  0.00     0.000 C 
BRANCH   6   7
ATOM      7  C   UNL     1       6.092  -2.663 -27.824  1.00  0.00     0.000 C 
BRANCH   7   8
ATOM      8  C   UNL     1       6.169  -1.645 -28.980  1.00  0.00     0.000 C 
BRANCH   8   9
ATOM      9  C   UNL     1       5.945  -0.177 -28.577  1.00  0.00     0.000 C 
BRANCH   9  10
ATOM     10  C   UNL     1       7.106   0.742 -28.994  1.00  0.00     0.000 C 
BRANCH  10  11
ATOM     11  C   UNL     1       6.716   1.723 -30.113  1.00  0.00     0.000 C 
BRANCH  11  12
ATOM     12  C   UNL     1       7.132   1.259 -31.527  1.00  0.00     0.006 C 
BRANCH  12  13
ATOM     13  C   UNL     1       5.950   0.795 -32.391  1.00  0.00     0.053 C 
BRANCH  13  14
ATOM     14  C   UNL     1       6.375   0.434 -33.784  1.00  0.00     0.041 C 
ATOM     15  O   UNL     1       5.744  -0.444 -34.431  1.00  0.00    -0.550 OA
ATOM     16  O   UNL     1       7.458   1.078 -34.373  1.00  0.00    -0.550 OA
ENDBRANCH  13  14
ENDBRANCH  12  13
ENDBRANCH  11  12
ENDBRANCH  10  11
ENDBRANCH   9  10
ENDBRANCH   8   9
ENDBRANCH   7   8
ENDBRANCH   6   7
ENDBRANCH   5   6
ENDBRANCH   4   5
ENDBRANCH   3   4
ENDBRANCH   2   3
ENDBRANCH   1   2
BRANCH   1  17
ATOM     17  C   UNL     1       7.029  -7.759 -29.772  1.00  0.00     0.000 C 
BRANCH  17  18
ATOM     18  C   UNL     1       5.496  -7.847 -29.761  1.00  0.00     0.000 C 
BRANCH  18  19
ATOM     19  C   UNL     1       4.940  -8.816 -30.819  1.00  0.00     0.000 C 
BRANCH  19  20
ATOM     20  C   UNL     1       4.004  -8.177 -31.862  1.00  0.00     0.000 C 
BRANCH  20  21
ATOM     21  C   UNL     1       4.021  -8.908 -33.213  1.00  0.00     0.000 C 
BRANCH  21  22
ATOM     22  C   UNL     1       4.942  -8.197 -34.212  1.00  0.00    -0.000 C 
BRANCH  22  23
ATOM     23  C   UNL     1       6.339  -8.835 -34.221  1.00  0.00    -0.000 C 
BRANCH  23  24
ATOM     24  C   UNL     1       7.457  -7.828 -33.897  1.00  0.00    -0.000 C 
BRANCH  24  25
ATOM     25  C   UNL     1       7.003  -6.577 -33.118  1.00  0.00    -0.000 C 
BRANCH  25  26
ATOM     26  C   UNL     1       7.457  -5.232 -33.713  1.00  0.00    -0.000 C 
BRANCH  26  27
ATOM     27  C   UNL     1       7.426  -5.217 -35.251  1.00  0.00    -0.000 C 
BRANCH  27  28
ATOM     28  C   UNL     1       6.685  -3.993 -35.816  1.00  0.00    -0.000 C 
BRANCH  28  29
ATOM     29  C   UNL     1       5.332  -4.358 -36.444  1.00  0.00    -0.003 C 
ATOM     30  C   UNL     1       5.349  -5.784 -36.989  1.00  0.00     0.004 C 
ENDBRANCH  28  29
ENDBRANCH  27  28
ENDBRANCH  26  27
ENDBRANCH  25  26
ENDBRANCH  24  25
ENDBRANCH  23  24
ENDBRANCH  22  23
ENDBRANCH  21  22
ENDBRANCH  20  21
ENDBRANCH  19  20
ENDBRANCH  18  19
ENDBRANCH  17  18
ENDBRANCH   1  17
TORSDOF 26
ENDMDL
MODEL 7
REMARK VINA RESULT:    -5.877      5.090      7.821
REMARK INTER + INTRA:         -17.209
REMARK INTER:                 -11.796
REMARK INTRA:                  -5.413
REMARK UNBOUND:                -2.398
REMARK SMILES CCCCCCCCCCCCCCCCCCCCCCCCCCCC(=O)[O-]
REMARK SMILES IDX 15 1 16 2 17 3 18 4 19 5 20 6 21 7 22 8 23 9 24 10 25 11
REMARK SMILES IDX 26 12 27 13 28 14 29 15 30 16 14 17 13 18 12 19 11 20 10 21
REMARK SMILES IDX 9 22 8 23 7 24 6 25 5 26 4 27 3 28 2 29 1 30
REMARK H PARENT
REMARK Flexibility Score: inf
ROOT
ATOM      1  C   UNL     1       5.944  -9.465 -29.527  1.00  0.00     0.000 C 
ENDROOT
BRANCH   1   2
ATOM      2  C   UNL     1       7.343 -10.080 -29.369  1.00  0.00     0.000 C 
BRANCH   2   3
ATOM      3  C   UNL     1       8.318  -9.159 -28.617  1.00  0.00     0.000 C 
BRANCH   3   4
ATOM      4  C   UNL     1       9.611  -8.826 -29.386  1.00  0.00     0.000 C 
BRANCH   4   5
ATOM      5  C   UNL     1       9.773  -9.623 -30.700  1.00  0.00     0.000 C 
BRANCH   5   6
ATOM      6  C   UNL     1      11.220 -10.101 -30.916  1.00  0.00     0.000 C 
BRANCH   6   7
ATOM      7  C   UNL     1      11.340 -11.640 -30.893  1.00  0.00     0.000 C 
BRANCH   7   8
ATOM      8  C   UNL     1      10.046 -12.363 -30.468  1.00  0.00     0.000 C 
BRANCH   8   9
ATOM      9  C   UNL     1      10.143 -13.167 -29.160  1.00  0.00     0.000 C 
BRANCH   9  10
ATOM     10  C   UNL     1       9.043 -12.799 -28.150  1.00  0.00     0.000 C 
BRANCH  10  11
ATOM     11  C   UNL     1       9.608 -12.286 -26.815  1.00  0.00     0.000 C 
BRANCH  11  12
ATOM     12  C   UNL     1      10.859 -11.392 -26.966  1.00  0.00     0.006 C 
BRANCH  12  13
ATOM     13  C   UNL     1      10.836 -10.151 -26.060  1.00  0.00     0.053 C 
BRANCH  13  14
ATOM     14  C   UNL     1      11.266 -10.466 -24.658  1.00  0.00     0.041 C 
ATOM     15  O   UNL     1      10.415 -10.816 -23.798  1.00  0.00    -0.550 OA
ATOM     16  O   UNL     1      12.609 -10.386 -24.304  1.00  0.00    -0.550 OA
ENDBRANCH  13  14
ENDBRANCH  12  13
ENDBRANCH  11  12
ENDBRANCH  10  11
ENDBRANCH   9  10
ENDBRANCH   8   9
ENDBRANCH   7   8
ENDBRANCH   6   7
ENDBRANCH   5   6
ENDBRANCH   4   5
ENDBRANCH   3   4
ENDBRANCH   2   3
ENDBRANCH   1   2
BRANCH   1  17
ATOM     17  C   UNL     1       5.916  -8.022 -29.011  1.00  0.00     0.000 C 
BRANCH  17  18
ATOM     18  C   UNL     1       5.790  -7.025 -30.173  1.00  0.00     0.000 C 
BRANCH  18  19
ATOM     19  C   UNL     1       7.101  -6.275 -30.468  1.00  0.00     0.000 C 
BRANCH  19  20
ATOM     20  C   UNL     1       7.748  -6.604 -31.827  1.00  0.00     0.000 C 
BRANCH  20  21
ATOM     21  C   UNL     1       7.263  -5.688 -32.961  1.00  0.00     0.000 C 
BRANCH  21  22
ATOM     22  C   UNL     1       7.421  -6.370 -34.325  1.00  0.00    -0.000 C 
BRANCH  22  23
ATOM     23  C   UNL     1       6.066  -6.485 -35.041  1.00  0.00    -0.000 C 
BRANCH  23  24
ATOM     24  C   UNL     1       5.614  -7.943 -35.233  1.00  0.00    -0.000 C 
BRANCH  24  25
ATOM     25  C   UNL     1       4.260  -8.297 -34.586  1.00  0.00    -0.000 C 
BRANCH  25  26
ATOM     26  C   UNL     1       4.348  -8.994 -33.217  1.00  0.00    -0.000 C 
BRANCH  26  27
ATOM     27  C   UNL     1       5.776  -9.445 -32.865  1.00  0.00    -0.000 C 
BRANCH  27  28
ATOM     28  C   UNL     1       5.997 -10.948 -33.104  1.00  0.00    -0.000 C 
BRANCH  28  29
ATOM     29  C   UNL     1       7.484 -11.330 -33.134  1.00  0.00    -0.003 C 
ATOM     30  C   UNL     1       8.278 -10.366 -34.012  1.00  0.00     0.004 C 
ENDBRANCH  28  29
ENDBRANCH  27  28
ENDBRANCH  26  27
ENDBRANCH  25  26
ENDBRANCH  24  25
ENDBRANCH  23  24
ENDBRANCH  22  23
ENDBRANCH  21  22
ENDBRANCH  20  21
ENDBRANCH  19  20
ENDBRANCH  18  19
ENDBRANCH  17  18
ENDBRANCH   1  17
TORSDOF 26
ENDMDL
MODEL 8
REMARK VINA RESULT:    -5.871      6.005     10.133
REMARK INTER + INTRA:         -17.192
REMARK INTER:                 -11.763
REMARK INTRA:                  -5.429
REMARK UNBOUND:                -2.398
REMARK SMILES CCCCCCCCCCCCCCCCCCCCCCCCCCCC(=O)[O-]
REMARK SMILES IDX 15 1 16 2 17 3 18 4 19 5 20 6 21 7 22 8 23 9 24 10 25 11
REMARK SMILES IDX 26 12 27 13 28 14 29 15 30 16 14 17 13 18 12 19 11 20 10 21
REMARK SMILES IDX 9 22 8 23 7 24 6 25 5 26 4 27 3 28 2 29 1 30
REMARK H PARENT
REMARK Flexibility Score: inf
ROOT
ATOM      1  C   UNL     1       8.936  -9.143 -30.169  1.00  0.00     0.000 C 
ENDROOT
BRANCH   1   2
ATOM      2  C   UNL     1       8.040 -10.159 -29.444  1.00  0.00     0.000 C 
BRANCH   2   3
ATOM      3  C   UNL     1       7.077 -10.891 -30.393  1.00  0.00     0.000 C 
BRANCH   3   4
ATOM      4  C   UNL     1       7.193 -10.476 -31.873  1.00  0.00     0.000 C 
BRANCH   4   5
ATOM      5  C   UNL     1       5.868 -10.604 -32.657  1.00  0.00     0.000 C 
BRANCH   5   6
ATOM      6  C   UNL     1       5.237  -9.233 -32.962  1.00  0.00     0.000 C 
BRANCH   6   7
ATOM      7  C   UNL     1       4.537  -8.623 -31.728  1.00  0.00     0.000 C 
BRANCH   7   8
ATOM      8  C   UNL     1       5.320  -7.469 -31.069  1.00  0.00     0.000 C 
BRANCH   8   9
ATOM      9  C   UNL     1       5.515  -7.594 -29.548  1.00  0.00     0.000 C 
BRANCH   9  10
ATOM     10  C   UNL     1       6.469  -6.530 -28.979  1.00  0.00     0.000 C 
BRANCH  10  11
ATOM     11  C   UNL     1       7.412  -5.945 -30.044  1.00  0.00     0.000 C 
BRANCH  11  12
ATOM     12  C   UNL     1       8.461  -4.961 -29.480  1.00  0.00     0.006 C 
BRANCH  12  13
ATOM     13  C   UNL     1       8.298  -4.689 -27.977  1.00  0.00     0.053 C 
BRANCH  13  14
ATOM     14  C   UNL     1       8.511  -3.242 -27.638  1.00  0.00     0.041 C 
ATOM     15  O   UNL     1       9.265  -2.921 -26.681  1.00  0.00    -0.550 OA
ATOM     16  O   UNL     1       7.887  -2.250 -28.386  1.00  0.00    -0.550 OA
ENDBRANCH  13  14
ENDBRANCH  12  13
ENDBRANCH  11  12
ENDBRANCH  10  11
ENDBRANCH   9  10
ENDBRANCH   8   9
ENDBRANCH   7   8
ENDBRANCH   6   7
ENDBRANCH   5   6
ENDBRANCH   4   5
ENDBRANCH   3   4
ENDBRANCH   2   3
ENDBRANCH   1   2
BRANCH   1  17
ATOM     17  C   UNL     1      10.058  -8.645 -29.251  1.00  0.00     0.000 C 
BRANCH  17  18
ATOM     18  C   UNL     1       9.510  -8.276 -27.864  1.00  0.00     0.000 C 
BRANCH  18  19
ATOM     19  C   UNL     1      10.534  -7.528 -26.991  1.00  0.00     0.000 C 
BRANCH  19  20
ATOM     20  C   UNL     1      11.790  -8.338 -26.621  1.00  0.00     0.000 C 
BRANCH  20  21
ATOM     21  C   UNL     1      11.654  -9.079 -25.281  1.00  0.00     0.000 C 
BRANCH  21  22
ATOM     22  C   UNL     1      11.756 -10.596 -25.478  1.00  0.00    -0.000 C 
BRANCH  22  23
ATOM     23  C   UNL     1      10.366 -11.249 -25.436  1.00  0.00    -0.000 C 
BRANCH  23  24
ATOM     24  C   UNL     1       9.963 -11.883 -26.779  1.00  0.00    -0.000 C 
BRANCH  24  25
ATOM     25  C   UNL     1      11.081 -11.929 -27.840  1.00  0.00    -0.000 C 
BRANCH  25  26
ATOM     26  C   UNL     1      10.686 -12.567 -29.184  1.00  0.00    -0.000 C 
BRANCH  26  27
ATOM     27  C   UNL     1      11.478 -11.997 -30.373  1.00  0.00    -0.000 C 
BRANCH  27  28
ATOM     28  C   UNL     1      10.664 -11.992 -31.679  1.00  0.00    -0.000 C 
BRANCH  28  29
ATOM     29  C   UNL     1      10.209 -13.397 -32.098  1.00  0.00    -0.003 C 
ATOM     30  C   UNL     1       9.154 -13.324 -33.199  1.00  0.00     0.004 C 
ENDBRANCH  28  29
ENDBRANCH  27  28
ENDBRANCH  26  27
ENDBRANCH  25  26
ENDBRANCH  24  25
ENDBRANCH  23  24
ENDBRANCH  22  23
ENDBRANCH  21  22
ENDBRANCH  20  21
ENDBRANCH  19  20
ENDBRANCH  18  19
ENDBRANCH  17  18
ENDBRANCH   1  17
TORSDOF 26
ENDMDL
MODEL 9
REMARK VINA RESULT:    -5.852      4.525      7.749
REMARK INTER + INTRA:         -17.145
REMARK INTER:                 -12.138
REMARK INTRA:                  -5.006
REMARK UNBOUND:                -2.398
REMARK SMILES CCCCCCCCCCCCCCCCCCCCCCCCCCCC(=O)[O-]
REMARK SMILES IDX 15 1 16 2 17 3 18 4 19 5 20 6 21 7 22 8 23 9 24 10 25 11
REMARK SMILES IDX 26 12 27 13 28 14 29 15 30 16 14 17 13 18 12 19 11 20 10 21
REMARK SMILES IDX 9 22 8 23 7 24 6 25 5 26 4 27 3 28 2 29 1 30
REMARK H PARENT
REMARK Flexibility Score: inf
ROOT
ATOM      1  C   UNL     1       7.420  -5.931 -30.028  1.00  0.00     0.000 C 
ENDROOT
BRANCH   1   2
ATOM      2  C   UNL     1       7.735  -5.422 -28.613  1.00  0.00     0.000 C 
BRANCH   2   3
ATOM      3  C   UNL     1       9.213  -5.038 -28.432  1.00  0.00     0.000 C 
BRANCH   3   4
ATOM      4  C   UNL     1       9.864  -5.575 -27.142  1.00  0.00     0.000 C 
BRANCH   4   5
ATOM      5  C   UNL     1      10.906  -6.686 -27.392  1.00  0.00     0.000 C 
BRANCH   5   6
ATOM      6  C   UNL     1      10.346  -8.089 -27.091  1.00  0.00     0.000 C 
BRANCH   6   7
ATOM      7  C   UNL     1      10.639  -9.093 -28.226  1.00  0.00     0.000 C 
BRANCH   7   8
ATOM      8  C   UNL     1      11.344 -10.382 -27.758  1.00  0.00     0.000 C 
BRANCH   8   9
ATOM      9  C   UNL     1      10.414 -11.575 -27.477  1.00  0.00     0.000 C 
BRANCH   9  10
ATOM     10  C   UNL     1       8.959 -11.310 -27.898  1.00  0.00     0.000 C 
BRANCH  10  11
ATOM     11  C   UNL     1       8.529 -12.149 -29.114  1.00  0.00     0.000 C 
BRANCH  11  12
ATOM     12  C   UNL     1       8.581 -11.383 -30.454  1.00  0.00     0.006 C 
BRANCH  12  13
ATOM     13  C   UNL     1       9.485 -12.048 -31.504  1.00  0.00     0.053 C 
BRANCH  13  14
ATOM     14  C   UNL     1      10.940 -11.928 -31.154  1.00  0.00     0.041 C 
ATOM     15  O   UNL     1      11.574 -12.932 -30.733  1.00  0.00    -0.550 OA
ATOM     16  O   UNL     1      11.597 -10.712 -31.307  1.00  0.00    -0.550 OA
ENDBRANCH  13  14
ENDBRANCH  12  13
ENDBRANCH  11  12
ENDBRANCH  10  11
ENDBRANCH   9  10
ENDBRANCH   8   9
ENDBRANCH   7   8
ENDBRANCH   6   7
ENDBRANCH   5   6
ENDBRANCH   4   5
ENDBRANCH   3   4
ENDBRANCH   2   3
ENDBRANCH   1   2
BRANCH   1  17
ATOM     17  C   UNL     1       7.787  -7.413 -30.173  1.00  0.00     0.000 C 
BRANCH  17  18
ATOM     18  C   UNL     1       7.241  -8.233 -28.996  1.00  0.00     0.000 C 
BRANCH  18  19
ATOM     19  C   UNL     1       5.844  -8.818 -29.265  1.00  0.00     0.000 C 
BRANCH  19  20
ATOM     20  C   UNL     1       5.529  -9.101 -30.745  1.00  0.00     0.000 C 
BRANCH  20  21
ATOM     21  C   UNL     1       4.391  -8.228 -31.296  1.00  0.00     0.000 C 
BRANCH  21  22
ATOM     22  C   UNL     1       4.118  -8.545 -32.771  1.00  0.00    -0.000 C 
BRANCH  22  23
ATOM     23  C   UNL     1       4.725  -9.900 -33.163  1.00  0.00    -0.000 C 
BRANCH  23  24
ATOM     24  C   UNL     1       5.088  -9.983 -34.656  1.00  0.00    -0.000 C 
BRANCH  24  25
ATOM     25  C   UNL     1       6.597  -9.909 -34.966  1.00  0.00    -0.000 C 
BRANCH  25  26
ATOM     26  C   UNL     1       7.516  -9.798 -33.735  1.00  0.00    -0.000 C 
BRANCH  26  27
ATOM     27  C   UNL     1       8.060  -8.376 -33.520  1.00  0.00    -0.000 C 
BRANCH  27  28
ATOM     28  C   UNL     1       7.242  -7.310 -34.269  1.00  0.00    -0.000 C 
BRANCH  28  29
ATOM     29  C   UNL     1       7.446  -5.899 -33.699  1.00  0.00    -0.003 C 
ATOM     30  C   UNL     1       7.085  -4.834 -34.732  1.00  0.00     0.004 C 
ENDBRANCH  28  29
ENDBRANCH  27  28
ENDBRANCH  26  27
ENDBRANCH  25  26
ENDBRANCH  24  25
ENDBRANCH  23  24
ENDBRANCH  22  23
ENDBRANCH  21  22
ENDBRANCH  20  21
ENDBRANCH  19  20
ENDBRANCH  18  19
ENDBRANCH  17  18
ENDBRANCH   1  17
TORSDOF 26
ENDMDL
