MODEL 1
REMARK VINA RESULT:    -4.687      0.000      0.000
REMARK INTER + INTRA:          -8.644
REMARK INTER:                  -7.974
REMARK INTRA:                  -0.669
REMARK UNBOUND:                -0.669
REMARK SMILES CCCCCCCCCCCCCC(=O)[O-]
REMARK SMILES IDX 8 1 9 2 10 3 11 4 12 5 13 6 14 7 15 8 16 9 7 10 6 11 5 12
REMARK SMILES IDX 4 13 3 14 2 15 1 16
REMARK H PARENT
REMARK Flexibility Score: inf
ROOT
ATOM      1  C   UNL     1      -5.147   0.763  12.891  1.00  0.00     0.000 C 
ENDROOT
BRANCH   1   2
ATOM      2  C   UNL     1      -4.134   0.735  11.737  1.00  0.00     0.000 C 
BRANCH   2   3
ATOM      3  C   UNL     1      -3.928  -0.698  11.224  1.00  0.00     0.000 C 
BRANCH   3   4
ATOM      4  C   UNL     1      -2.463  -1.160  11.304  1.00  0.00     0.000 C 
BRANCH   4   5
ATOM      5  C   UNL     1      -2.262  -2.682  11.446  1.00  0.00     0.006 C 
BRANCH   5   6
ATOM      6  C   UNL     1      -3.574  -3.478  11.581  1.00  0.00     0.053 C 
BRANCH   6   7
ATOM      7  C   UNL     1      -3.870  -4.312  10.371  1.00  0.00     0.041 C 
ATOM      8  O   UNL     1      -3.105  -4.276   9.372  1.00  0.00    -0.550 OA
ATOM      9  O   UNL     1      -5.015  -5.098  10.330  1.00  0.00    -0.550 OA
ENDBRANCH   6   7
ENDBRANCH   5   6
ENDBRANCH   4   5
ENDBRANCH   3   4
ENDBRANCH   2   3
ENDBRANCH   1   2
BRANCH   1  10
ATOM     10  C   UNL     1      -5.166   2.109  13.636  1.00  0.00     0.000 C 
BRANCH  10  11
ATOM     11  C   UNL     1      -4.731   2.045  15.115  1.00  0.00    -0.000 C 
BRANCH  11  12
ATOM     12  C   UNL     1      -5.306   3.154  16.013  1.00  0.00    -0.000 C 
BRANCH  12  13
ATOM     13  C   UNL     1      -6.746   2.869  16.466  1.00  0.00    -0.000 C 
BRANCH  13  14
ATOM     14  C   UNL     1      -7.632   4.107  16.286  1.00  0.00    -0.000 C 
BRANCH  14  15
ATOM     15  C   UNL     1      -7.996   4.314  14.811  1.00  0.00    -0.003 C 
ATOM     16  C   UNL     1      -9.437   3.893  14.534  1.00  0.00     0.004 C 
ENDBRANCH  14  15
ENDBRANCH  13  14
ENDBRANCH  12  13
ENDBRANCH  11  12
ENDBRANCH  10  11
ENDBRANCH   1  10
TORSDOF 12
ENDMDL
MODEL 2
REMARK VINA RESULT:    -4.647      1.467      2.252
REMARK INTER + INTRA:          -8.576
REMARK INTER:                  -7.981
REMARK INTRA:                  -0.595
REMARK UNBOUND:                -0.669
REMARK SMILES CCCCCCCCCCCCCC(=O)[O-]
REMARK SMILES IDX 8 1 9 2 10 3 11 4 12 5 13 6 14 7 15 8 16 9 7 10 6 11 5 12
REMARK SMILES IDX 4 13 3 14 2 15 1 16
REMARK H PARENT
REMARK Flexibility Score: inf
ROOT
ATOM      1  C   UNL     1      -3.984  -0.267  11.190  1.00  0.00     0.000 C 
ENDROOT
BRANCH   1   2
ATOM      2  C   UNL     1      -3.808  -0.015   9.686  1.00  0.00     0.000 C 
BRANCH   2   3
ATOM      3  C   UNL     1      -4.221  -1.250   8.872  1.00  0.00     0.000 C 
BRANCH   3   4
ATOM      4  C   UNL     1      -3.021  -2.070   8.369  1.00  0.00     0.000 C 
BRANCH   4   5
ATOM      5  C   UNL     1      -2.858  -3.460   9.015  1.00  0.00     0.006 C 
BRANCH   5   6
ATOM      6  C   UNL     1      -4.189  -4.195   9.265  1.00  0.00     0.053 C 
BRANCH   6   7
ATOM      7  C   UNL     1      -4.410  -4.509  10.715  1.00  0.00     0.041 C 
ATOM      8  O   UNL     1      -5.326  -5.301  11.061  1.00  0.00    -0.550 OA
ATOM      9  O   UNL     1      -3.630  -3.895  11.687  1.00  0.00    -0.550 OA
ENDBRANCH   6   7
ENDBRANCH   5   6
ENDBRANCH   4   5
ENDBRANCH   3   4
ENDBRANCH   2   3
ENDBRANCH   1   2
BRANCH   1  10
ATOM     10  C   UNL     1      -4.160   1.032  11.996  1.00  0.00     0.000 C 
BRANCH  10  11
ATOM     11  C   UNL     1      -5.304   1.011  13.031  1.00  0.00    -0.000 C 
BRANCH  11  12
ATOM     12  C   UNL     1      -5.020   1.779  14.334  1.00  0.00    -0.000 C 
BRANCH  12  13
ATOM     13  C   UNL     1      -6.065   2.865  14.627  1.00  0.00    -0.000 C 
BRANCH  13  14
ATOM     14  C   UNL     1      -6.067   3.238  16.113  1.00  0.00    -0.000 C 
BRANCH  14  15
ATOM     15  C   UNL     1      -7.363   3.962  16.497  1.00  0.00    -0.003 C 
ATOM     16  C   UNL     1      -8.354   3.972  15.336  1.00  0.00     0.004 C 
ENDBRANCH  14  15
ENDBRANCH  13  14
ENDBRANCH  12  13
ENDBRANCH  11  12
ENDBRANCH  10  11
ENDBRANCH   1  10
TORSDOF 12
ENDMDL
MODEL 3
REMARK VINA RESULT:    -4.630      3.947      7.833
REMARK INTER + INTRA:          -8.548
REMARK INTER:                  -7.515
REMARK INTRA:                  -1.032
REMARK UNBOUND:                -0.669
REMARK SMILES CCCCCCCCCCCCCC(=O)[O-]
REMARK SMILES IDX 8 1 9 2 10 3 11 4 12 5 13 6 14 7 15 8 16 9 7 10 6 11 5 12
REMARK SMILES IDX 4 13 3 14 2 15 1 16
REMARK H PARENT
REMARK Flexibility Score: inf
ROOT
ATOM      1  C   UNL     1      -3.916   1.597  10.288  1.00  0.00     0.000 C 
ENDROOT
BRANCH   1   2
ATOM      2  C   UNL     1      -3.624   1.497  11.792  1.00  0.00     0.000 C 
BRANCH   2   3
ATOM      3  C   UNL     1      -4.758   0.761  12.522  1.00  0.00     0.000 C 
BRANCH   3   4
ATOM      4  C   UNL     1      -5.460   1.631  13.577  1.00  0.00     0.000 C 
BRANCH   4   5
ATOM      5  C   UNL     1      -4.641   1.903  14.854  1.00  0.00     0.006 C 
BRANCH   5   6
ATOM      6  C   UNL     1      -5.043   3.193  15.594  1.00  0.00     0.053 C 
BRANCH   6   7
ATOM      7  C   UNL     1      -6.504   3.235  15.929  1.00  0.00     0.041 C 
ATOM      8  O   UNL     1      -6.984   2.441  16.779  1.00  0.00    -0.550 OA
ATOM      9  O   UNL     1      -7.343   4.125  15.270  1.00  0.00    -0.550 OA
ENDBRANCH   6   7
ENDBRANCH   5   6
ENDBRANCH   4   5
ENDBRANCH   3   4
ENDBRANCH   2   3
ENDBRANCH   1   2
BRANCH   1  10
ATOM     10  C   UNL     1      -2.712   1.193   9.418  1.00  0.00     0.000 C 
BRANCH  10  11
ATOM     11  C   UNL     1      -2.660  -0.297   9.024  1.00  0.00    -0.000 C 
BRANCH  11  12
ATOM     12  C   UNL     1      -4.031  -0.974   8.851  1.00  0.00    -0.000 C 
BRANCH  12  13
ATOM     13  C   UNL     1      -4.111  -2.345   9.538  1.00  0.00    -0.000 C 
BRANCH  13  14
ATOM     14  C   UNL     1      -3.389  -2.324  10.890  1.00  0.00    -0.000 C 
BRANCH  14  15
ATOM     15  C   UNL     1      -3.217  -3.743  11.444  1.00  0.00    -0.003 C 
ATOM     16  C   UNL     1      -4.444  -4.603  11.150  1.00  0.00     0.004 C 
ENDBRANCH  14  15
ENDBRANCH  13  14
ENDBRANCH  12  13
ENDBRANCH  11  12
ENDBRANCH  10  11
ENDBRANCH   1  10
TORSDOF 12
ENDMDL
MODEL 4
REMARK VINA RESULT:    -4.599      4.304      8.446
REMARK INTER + INTRA:          -8.494
REMARK INTER:                  -7.864
REMARK INTRA:                  -0.630
REMARK UNBOUND:                -0.669
REMARK SMILES CCCCCCCCCCCCCC(=O)[O-]
REMARK SMILES IDX 8 1 9 2 10 3 11 4 12 5 13 6 14 7 15 8 16 9 7 10 6 11 5 12
REMARK SMILES IDX 4 13 3 14 2 15 1 16
REMARK H PARENT
REMARK Flexibility Score: inf
ROOT
ATOM      1  C   UNL     1      -4.266   0.469  11.727  1.00  0.00     0.000 C 
ENDROOT
BRANCH   1   2
ATOM      2  C   UNL     1      -4.032   1.555  12.787  1.00  0.00     0.000 C 
BRANCH   2   3
ATOM      3  C   UNL     1      -5.201   1.612  13.780  1.00  0.00     0.000 C 
BRANCH   3   4
ATOM      4  C   UNL     1      -5.369   2.993  14.435  1.00  0.00     0.000 C 
BRANCH   4   5
ATOM      5  C   UNL     1      -5.518   2.980  15.969  1.00  0.00     0.006 C 
BRANCH   5   6
ATOM      6  C   UNL     1      -6.971   2.826  16.456  1.00  0.00     0.053 C 
BRANCH   6   7
ATOM      7  C   UNL     1      -7.808   4.036  16.167  1.00  0.00     0.041 C 
ATOM      8  O   UNL     1      -7.620   5.106  16.804  1.00  0.00    -0.550 OA
ATOM      9  O   UNL     1      -8.824   3.971  15.221  1.00  0.00    -0.550 OA
ENDBRANCH   6   7
ENDBRANCH   5   6
ENDBRANCH   4   5
ENDBRANCH   3   4
ENDBRANCH   2   3
ENDBRANCH   1   2
BRANCH   1  10
ATOM     10  C   UNL     1      -4.065   0.982  10.291  1.00  0.00     0.000 C 
BRANCH  10  11
ATOM     11  C   UNL     1      -3.368  -0.007   9.334  1.00  0.00    -0.000 C 
BRANCH  11  12
ATOM     12  C   UNL     1      -4.213  -1.227   8.927  1.00  0.00    -0.000 C 
BRANCH  12  13
ATOM     13  C   UNL     1      -3.463  -2.556   9.093  1.00  0.00    -0.000 C 
BRANCH  13  14
ATOM     14  C   UNL     1      -4.412  -3.669   9.551  1.00  0.00    -0.000 C 
BRANCH  14  15
ATOM     15  C   UNL     1      -3.910  -4.322  10.844  1.00  0.00    -0.003 C 
ATOM     16  C   UNL     1      -2.884  -3.437  11.547  1.00  0.00     0.004 C 
ENDBRANCH  14  15
ENDBRANCH  13  14
ENDBRANCH  12  13
ENDBRANCH  11  12
ENDBRANCH  10  11
ENDBRANCH   1  10
TORSDOF 12
ENDMDL
MODEL 5
REMARK VINA RESULT:    -4.583      4.226      8.473
REMARK INTER + INTRA:          -8.468
REMARK INTER:                  -7.719
REMARK INTRA:                  -0.748
REMARK UNBOUND:                -0.669
REMARK SMILES CCCCCCCCCCCCCC(=O)[O-]
REMARK SMILES IDX 8 1 9 2 10 3 11 4 12 5 13 6 14 7 15 8 16 9 7 10 6 11 5 12
REMARK SMILES IDX 4 13 3 14 2 15 1 16
REMARK H PARENT
REMARK Flexibility Score: inf
ROOT
ATOM      1  C   UNL     1      -3.979  -0.112  11.193  1.00  0.00     0.000 C 
ENDROOT
BRANCH   1   2
ATOM      2  C   UNL     1      -4.379   1.225  11.833  1.00  0.00     0.000 C 
BRANCH   2   3
ATOM      3  C   UNL     1      -5.334   1.003  13.014  1.00  0.00     0.000 C 
BRANCH   3   4
ATOM      4  C   UNL     1      -4.735   1.435  14.363  1.00  0.00     0.000 C 
BRANCH   4   5
ATOM      5  C   UNL     1      -5.178   2.823  14.864  1.00  0.00     0.006 C 
BRANCH   5   6
ATOM      6  C   UNL     1      -5.935   2.794  16.205  1.00  0.00     0.053 C 
BRANCH   6   7
ATOM      7  C   UNL     1      -7.079   3.762  16.243  1.00  0.00     0.041 C 
ATOM      8  O   UNL     1      -8.136   3.523  15.602  1.00  0.00    -0.550 OA
ATOM      9  O   UNL     1      -6.963   4.950  16.955  1.00  0.00    -0.550 OA
ENDBRANCH   6   7
ENDBRANCH   5   6
ENDBRANCH   4   5
ENDBRANCH   3   4
ENDBRANCH   2   3
ENDBRANCH   1   2
BRANCH   1  10
ATOM     10  C   UNL     1      -3.819  -0.020   9.666  1.00  0.00     0.000 C 
BRANCH  10  11
ATOM     11  C   UNL     1      -4.353  -1.233   8.877  1.00  0.00    -0.000 C 
BRANCH  11  12
ATOM     12  C   UNL     1      -3.316  -2.335   8.595  1.00  0.00    -0.000 C 
BRANCH  12  13
ATOM     13  C   UNL     1      -3.707  -3.691   9.200  1.00  0.00    -0.000 C 
BRANCH  13  14
ATOM     14  C   UNL     1      -3.240  -3.798  10.656  1.00  0.00    -0.000 C 
BRANCH  14  15
ATOM     15  C   UNL     1      -1.852  -3.173  10.835  1.00  0.00    -0.003 C 
ATOM     16  C   UNL     1      -1.316  -3.416  12.244  1.00  0.00     0.004 C 
ENDBRANCH  14  15
ENDBRANCH  13  14
ENDBRANCH  12  13
ENDBRANCH  11  12
ENDBRANCH  10  11
ENDBRANCH   1  10
TORSDOF 12
ENDMDL
MODEL 6
REMARK VINA RESULT:    -4.541      5.500      7.546
REMARK INTER + INTRA:          -8.395
REMARK INTER:                  -7.643
REMARK INTRA:                  -0.752
REMARK UNBOUND:                -0.669
REMARK SMILES CCCCCCCCCCCCCC(=O)[O-]
REMARK SMILES IDX 8 1 9 2 10 3 11 4 12 5 13 6 14 7 15 8 16 9 7 10 6 11 5 12
REMARK SMILES IDX 4 13 3 14 2 15 1 16
REMARK H PARENT
REMARK Flexibility Score: inf
ROOT
ATOM      1  C   UNL     1      -4.334   1.464  10.365  1.00  0.00     0.000 C 
ENDROOT
BRANCH   1   2
ATOM      2  C   UNL     1      -3.789   0.307  11.215  1.00  0.00     0.000 C 
BRANCH   2   3
ATOM      3  C   UNL     1      -4.089   0.533  12.704  1.00  0.00     0.000 C 
BRANCH   3   4
ATOM      4  C   UNL     1      -5.327   1.413  12.942  1.00  0.00     0.000 C 
BRANCH   4   5
ATOM      5  C   UNL     1      -5.073   2.696  13.758  1.00  0.00     0.006 C 
BRANCH   5   6
ATOM      6  C   UNL     1      -5.256   2.520  15.278  1.00  0.00     0.053 C 
BRANCH   6   7
ATOM      7  C   UNL     1      -6.619   2.933  15.747  1.00  0.00     0.041 C 
ATOM      8  O   UNL     1      -7.040   2.568  16.876  1.00  0.00    -0.550 OA
ATOM      9  O   UNL     1      -7.441   3.688  14.919  1.00  0.00    -0.550 OA
ENDBRANCH   6   7
ENDBRANCH   5   6
ENDBRANCH   4   5
ENDBRANCH   3   4
ENDBRANCH   2   3
ENDBRANCH   1   2
BRANCH   1  10
ATOM     10  C   UNL     1      -3.253   2.493   9.993  1.00  0.00     0.000 C 
BRANCH  10  11
ATOM     11  C   UNL     1      -3.737   3.956   9.925  1.00  0.00    -0.000 C 
BRANCH  11  12
ATOM     12  C   UNL     1      -3.063   4.816   8.841  1.00  0.00    -0.000 C 
BRANCH  12  13
ATOM     13  C   UNL     1      -2.990   6.302   9.219  1.00  0.00    -0.000 C 
BRANCH  13  14
ATOM     14  C   UNL     1      -3.324   7.192   8.016  1.00  0.00    -0.000 C 
BRANCH  14  15
ATOM     15  C   UNL     1      -4.394   6.541   7.131  1.00  0.00    -0.003 C 
ATOM     16  C   UNL     1      -4.009   6.616   5.656  1.00  0.00     0.004 C 
ENDBRANCH  14  15
ENDBRANCH  13  14
ENDBRANCH  12  13
ENDBRANCH  11  12
ENDBRANCH  10  11
ENDBRANCH   1  10
TORSDOF 12
ENDMDL
MODEL 7
REMARK VINA RESULT:    -4.534      3.836      7.655
REMARK INTER + INTRA:          -8.384
REMARK INTER:                  -6.800
REMARK INTRA:                  -1.584
REMARK UNBOUND:                -0.669
REMARK SMILES CCCCCCCCCCCCCC(=O)[O-]
REMARK SMILES IDX 8 1 9 2 10 3 11 4 12 5 13 6 14 7 15 8 16 9 7 10 6 11 5 12
REMARK SMILES IDX 4 13 3 14 2 15 1 16
REMARK H PARENT
REMARK Flexibility Score: inf
ROOT
ATOM      1  C   UNL     1      -4.088  -1.322   9.144  1.00  0.00     0.000 C 
ENDROOT
BRANCH   1   2
ATOM      2  C   UNL     1      -3.271  -0.048   9.399  1.00  0.00     0.000 C 
BRANCH   2   3
ATOM      3  C   UNL     1      -3.964   0.850  10.434  1.00  0.00     0.000 C 
BRANCH   3   4
ATOM      4  C   UNL     1      -3.901   0.283  11.861  1.00  0.00     0.000 C 
BRANCH   4   5
ATOM      5  C   UNL     1      -5.077   0.675  12.777  1.00  0.00     0.006 C 
BRANCH   5   6
ATOM      6  C   UNL     1      -4.651   1.389  14.074  1.00  0.00     0.053 C 
BRANCH   6   7
ATOM      7  C   UNL     1      -5.177   2.791  14.161  1.00  0.00     0.041 C 
ATOM      8  O   UNL     1      -4.429   3.767  13.891  1.00  0.00    -0.550 OA
ATOM      9  O   UNL     1      -6.481   3.021  14.579  1.00  0.00    -0.550 OA
ENDBRANCH   6   7
ENDBRANCH   5   6
ENDBRANCH   4   5
ENDBRANCH   3   4
ENDBRANCH   2   3
ENDBRANCH   1   2
BRANCH   1  10
ATOM     10  C   UNL     1      -3.290  -2.405   8.396  1.00  0.00     0.000 C 
BRANCH  10  11
ATOM     11  C   UNL     1      -2.889  -3.627   9.246  1.00  0.00    -0.000 C 
BRANCH  11  12
ATOM     12  C   UNL     1      -3.780  -3.889  10.474  1.00  0.00    -0.000 C 
BRANCH  12  13
ATOM     13  C   UNL     1      -3.061  -3.616  11.803  1.00  0.00    -0.000 C 
BRANCH  13  14
ATOM     14  C   UNL     1      -1.565  -3.369  11.576  1.00  0.00    -0.000 C 
BRANCH  14  15
ATOM     15  C   UNL     1      -1.139  -2.011  12.146  1.00  0.00    -0.003 C 
ATOM     16  C   UNL     1      -0.264  -1.247  11.156  1.00  0.00     0.004 C 
ENDBRANCH  14  15
ENDBRANCH  13  14
ENDBRANCH  12  13
ENDBRANCH  11  12
ENDBRANCH  10  11
ENDBRANCH   1  10
TORSDOF 12
ENDMDL
MODEL 8
REMARK VINA RESULT:    -4.511      5.561      7.869
REMARK INTER + INTRA:          -8.345
REMARK INTER:                  -7.780
REMARK INTRA:                  -0.565
REMARK UNBOUND:                -0.669
REMARK SMILES CCCCCCCCCCCCCC(=O)[O-]
REMARK SMILES IDX 8 1 9 2 10 3 11 4 12 5 13 6 14 7 15 8 16 9 7 10 6 11 5 12
REMARK SMILES IDX 4 13 3 14 2 15 1 16
REMARK H PARENT
REMARK Flexibility Score: inf
ROOT
ATOM      1  C   UNL     1      -2.465   1.585  13.100  1.00  0.00     0.000 C 
ENDROOT
BRANCH   1   2
ATOM      2  C   UNL     1      -3.486   0.648  12.438  1.00  0.00     0.000 C 
BRANCH   2   3
ATOM      3  C   UNL     1      -4.919   1.034  12.832  1.00  0.00     0.000 C 
BRANCH   3   4
ATOM      4  C   UNL     1      -5.013   1.641  14.241  1.00  0.00     0.000 C 
BRANCH   4   5
ATOM      5  C   UNL     1      -5.849   2.932  14.346  1.00  0.00     0.006 C 
BRANCH   5   6
ATOM      6  C   UNL     1      -6.432   3.189  15.749  1.00  0.00     0.053 C 
BRANCH   6   7
ATOM      7  C   UNL     1      -7.684   4.014  15.711  1.00  0.00     0.041 C 
ATOM      8  O   UNL     1      -8.406   4.025  14.679  1.00  0.00    -0.550 OA
ATOM      9  O   UNL     1      -8.031   4.803  16.800  1.00  0.00    -0.550 OA
ENDBRANCH   6   7
ENDBRANCH   5   6
ENDBRANCH   4   5
ENDBRANCH   3   4
ENDBRANCH   2   3
ENDBRANCH   1   2
BRANCH   1  10
ATOM     10  C   UNL     1      -1.458   0.837  13.991  1.00  0.00     0.000 C 
BRANCH  10  11
ATOM     11  C   UNL     1      -1.647   1.044  15.508  1.00  0.00    -0.000 C 
BRANCH  11  12
ATOM     12  C   UNL     1      -0.346   1.228  16.308  1.00  0.00    -0.000 C 
BRANCH  12  13
ATOM     13  C   UNL     1      -0.588   1.378  17.817  1.00  0.00    -0.000 C 
BRANCH  13  14
ATOM     14  C   UNL     1      -0.278   0.070  18.555  1.00  0.00    -0.000 C 
BRANCH  14  15
ATOM     15  C   UNL     1      -0.067   0.320  20.052  1.00  0.00    -0.003 C 
ATOM     16  C   UNL     1       1.419   0.369  20.399  1.00  0.00     0.004 C 
ENDBRANCH  14  15
ENDBRANCH  13  14
ENDBRANCH  12  13
ENDBRANCH  11  12
ENDBRANCH  10  11
ENDBRANCH   1  10
TORSDOF 12
ENDMDL
MODEL 9
REMARK VINA RESULT:    -4.452      4.506      7.354
REMARK INTER + INTRA:          -8.244
REMARK INTER:                  -6.363
REMARK INTRA:                  -1.881
REMARK UNBOUND:                -0.669
REMARK SMILES CCCCCCCCCCCCCC(=O)[O-]
REMARK SMILES IDX 8 1 9 2 10 3 11 4 12 5 13 6 14 7 15 8 16 9 7 10 6 11 5 12
REMARK SMILES IDX 4 13 3 14 2 15 1 16
REMARK H PARENT
REMARK Flexibility Score: inf
ROOT
ATOM      1  C   UNL     1      -4.860   1.338  13.834  1.00  0.00     0.000 C 
ENDROOT
BRANCH   1   2
ATOM      2  C   UNL     1      -3.465   1.697  14.368  1.00  0.00     0.000 C 
BRANCH   2   3
ATOM      3  C   UNL     1      -3.552   2.811  15.421  1.00  0.00     0.000 C 
BRANCH   3   4
ATOM      4  C   UNL     1      -4.996   3.131  15.841  1.00  0.00     0.000 C 
BRANCH   4   5
ATOM      5  C   UNL     1      -5.486   4.548  15.484  1.00  0.00     0.006 C 
BRANCH   5   6
ATOM      6  C   UNL     1      -6.740   4.572  14.589  1.00  0.00     0.053 C 
BRANCH   6   7
ATOM      7  C   UNL     1      -8.009   4.400  15.370  1.00  0.00     0.041 C 
ATOM      8  O   UNL     1      -9.050   3.974  14.804  1.00  0.00    -0.550 OA
ATOM      9  O   UNL     1      -8.053   4.748  16.714  1.00  0.00    -0.550 OA
ENDBRANCH   6   7
ENDBRANCH   5   6
ENDBRANCH   4   5
ENDBRANCH   3   4
ENDBRANCH   2   3
ENDBRANCH   1   2
BRANCH   1  10
ATOM     10  C   UNL     1      -4.814   0.654  12.457  1.00  0.00     0.000 C 
BRANCH  10  11
ATOM     11  C   UNL     1      -3.421   0.605  11.796  1.00  0.00    -0.000 C 
BRANCH  11  12
ATOM     12  C   UNL     1      -3.336   1.256  10.404  1.00  0.00    -0.000 C 
BRANCH  12  13
ATOM     13  C   UNL     1      -4.072   2.602  10.329  1.00  0.00    -0.000 C 
BRANCH  13  14
ATOM     14  C   UNL     1      -3.226   3.725  10.940  1.00  0.00    -0.000 C 
BRANCH  14  15
ATOM     15  C   UNL     1      -4.023   4.504  11.992  1.00  0.00    -0.003 C 
ATOM     16  C   UNL     1      -3.126   5.472  12.759  1.00  0.00     0.004 C 
ENDBRANCH  14  15
ENDBRANCH  13  14
ENDBRANCH  12  13
ENDBRANCH  11  12
ENDBRANCH  10  11
ENDBRANCH   1  10
TORSDOF 12
ENDMDL
