MODEL 1
REMARK VINA RESULT:    -1.860      0.000      0.000
REMARK INTER + INTRA:          -6.552
REMARK INTER:                  -4.904
REMARK INTRA:                  -1.648
REMARK UNBOUND:                -1.648
REMARK SMILES CCCCCCCCCCCCCCCCCCCCCCCCCCCCCC(=O)[O-]
REMARK SMILES IDX 16 1 17 2 18 3 19 4 20 5 21 6 22 7 23 8 24 9 25 10 26 11
REMARK SMILES IDX 27 12 28 13 29 14 30 15 31 16 32 17 15 18 14 19 13 20 12 21
REMARK SMILES IDX 11 22 10 23 9 24 8 25 7 26 6 27 5 28 4 29 3 30 2 31 1 32
REMARK H PARENT
REMARK Flexibility Score: inf
ROOT
ATOM      1  C   UNL     1      -2.763 -34.264  49.125  1.00  0.00     0.000 C 
ENDROOT
BRANCH   1   2
ATOM      2  C   UNL     1      -3.319 -33.212  48.143  1.00  0.00     0.000 C 
BRANCH   2   3
ATOM      3  C   UNL     1      -4.451 -32.336  48.722  1.00  0.00     0.000 C 
BRANCH   3   4
ATOM      4  C   UNL     1      -5.838 -32.534  48.085  1.00  0.00     0.000 C 
BRANCH   4   5
ATOM      5  C   UNL     1      -6.562 -31.204  47.809  1.00  0.00     0.000 C 
BRANCH   5   6
ATOM      6  C   UNL     1      -6.761 -30.358  49.076  1.00  0.00     0.000 C 
BRANCH   6   7
ATOM      7  C   UNL     1      -5.898 -29.086  49.069  1.00  0.00     0.000 C 
BRANCH   7   8
ATOM      8  C   UNL     1      -6.622 -27.897  48.418  1.00  0.00     0.000 C 
BRANCH   8   9
ATOM      9  C   UNL     1      -5.683 -26.732  48.073  1.00  0.00     0.000 C 
BRANCH   9  10
ATOM     10  C   UNL     1      -5.845 -25.594  49.090  1.00  0.00     0.000 C 
BRANCH  10  11
ATOM     11  C   UNL     1      -5.250 -24.282  48.559  1.00  0.00     0.000 C 
BRANCH  11  12
ATOM     12  C   UNL     1      -6.342 -23.288  48.106  1.00  0.00     0.000 C 
BRANCH  12  13
ATOM     13  C   UNL     1      -7.658 -23.969  47.681  1.00  0.00     0.006 C 
BRANCH  13  14
ATOM     14  C   UNL     1      -8.886 -23.526  48.494  1.00  0.00     0.053 C 
BRANCH  14  15
ATOM     15  C   UNL     1      -9.736 -22.548  47.740  1.00  0.00     0.041 C 
ATOM     16  O   UNL     1     -10.969 -22.754  47.603  1.00  0.00    -0.550 OA
ATOM     17  O   UNL     1      -9.162 -21.415  47.179  1.00  0.00    -0.550 OA
ENDBRANCH  14  15
ENDBRANCH  13  14
ENDBRANCH  12  13
ENDBRANCH  11  12
ENDBRANCH  10  11
ENDBRANCH   9  10
ENDBRANCH   8   9
ENDBRANCH   7   8
ENDBRANCH   6   7
ENDBRANCH   5   6
ENDBRANCH   4   5
ENDBRANCH   3   4
ENDBRANCH   2   3
ENDBRANCH   1   2
BRANCH   1  18
ATOM     18  C   UNL     1      -1.861 -35.310  48.444  1.00  0.00     0.000 C 
BRANCH  18  19
ATOM     19  C   UNL     1      -0.376 -35.154  48.816  1.00  0.00     0.000 C 
BRANCH  19  20
ATOM     20  C   UNL     1       0.092 -33.706  49.067  1.00  0.00     0.000 C 
BRANCH  20  21
ATOM     21  C   UNL     1       1.618 -33.502  49.091  1.00  0.00     0.000 C 
BRANCH  21  22
ATOM     22  C   UNL     1       2.200 -33.189  47.703  1.00  0.00     0.000 C 
BRANCH  22  23
ATOM     23  C   UNL     1       2.019 -34.356  46.718  1.00  0.00     0.000 C 
BRANCH  23  24
ATOM     24  C   UNL     1       3.224 -35.312  46.700  1.00  0.00    -0.000 C 
BRANCH  24  25
ATOM     25  C   UNL     1       3.076 -36.453  45.678  1.00  0.00    -0.000 C 
BRANCH  25  26
ATOM     26  C   UNL     1       1.614 -36.841  45.371  1.00  0.00    -0.000 C 
BRANCH  26  27
ATOM     27  C   UNL     1       0.903 -35.865  44.415  1.00  0.00    -0.000 C 
BRANCH  27  28
ATOM     28  C   UNL     1      -0.626 -36.092  44.329  1.00  0.00    -0.000 C 
BRANCH  28  29
ATOM     29  C   UNL     1      -1.183 -36.975  45.463  1.00  0.00    -0.000 C 
BRANCH  29  30
ATOM     30  C   UNL     1      -2.718 -37.122  45.477  1.00  0.00    -0.000 C 
BRANCH  30  31
ATOM     31  C   UNL     1      -3.504 -35.865  45.065  1.00  0.00    -0.003 C 
ATOM     32  C   UNL     1      -4.636 -35.526  46.032  1.00  0.00     0.004 C 
ENDBRANCH  30  31
ENDBRANCH  29  30
ENDBRANCH  28  29
ENDBRANCH  27  28
ENDBRANCH  26  27
ENDBRANCH  25  26
ENDBRANCH  24  25
ENDBRANCH  23  24
ENDBRANCH  22  23
ENDBRANCH  21  22
ENDBRANCH  20  21
ENDBRANCH  19  20
ENDBRANCH  18  19
ENDBRANCH   1  18
TORSDOF 28
ENDMDL
MODEL 2
REMARK VINA RESULT:    -1.132      1.891      4.613
REMARK INTER + INTRA:          -4.634
REMARK INTER:                  -3.622
REMARK INTRA:                  -1.012
REMARK UNBOUND:                -1.648
REMARK SMILES CCCCCCCCCCCCCCCCCCCCCCCCCCCCCC(=O)[O-]
REMARK SMILES IDX 16 1 17 2 18 3 19 4 20 5 21 6 22 7 23 8 24 9 25 10 26 11
REMARK SMILES IDX 27 12 28 13 29 14 30 15 31 16 32 17 15 18 14 19 13 20 12 21
REMARK SMILES IDX 11 22 10 23 9 24 8 25 7 26 6 27 5 28 4 29 3 30 2 31 1 32
REMARK H PARENT
REMARK Flexibility Score: inf
ROOT
ATOM      1  C   UNL     1      -4.064 -33.204  47.079  1.00  0.00     0.000 C 
ENDROOT
BRANCH   1   2
ATOM      2  C   UNL     1      -3.726 -32.538  48.428  1.00  0.00     0.000 C 
BRANCH   2   3
ATOM      3  C   UNL     1      -4.926 -31.858  49.122  1.00  0.00     0.000 C 
BRANCH   3   4
ATOM      4  C   UNL     1      -5.711 -30.853  48.261  1.00  0.00     0.000 C 
BRANCH   4   5
ATOM      5  C   UNL     1      -6.964 -30.313  48.972  1.00  0.00     0.000 C 
BRANCH   5   6
ATOM      6  C   UNL     1      -6.953 -28.784  49.122  1.00  0.00     0.000 C 
BRANCH   6   7
ATOM      7  C   UNL     1      -5.856 -28.122  48.273  1.00  0.00     0.000 C 
BRANCH   7   8
ATOM      8  C   UNL     1      -5.732 -26.617  48.555  1.00  0.00     0.000 C 
BRANCH   8   9
ATOM      9  C   UNL     1      -6.710 -25.765  47.734  1.00  0.00     0.000 C 
BRANCH   9  10
ATOM     10  C   UNL     1      -7.868 -25.278  48.616  1.00  0.00     0.000 C 
BRANCH  10  11
ATOM     11  C   UNL     1      -7.872 -23.748  48.737  1.00  0.00     0.000 C 
BRANCH  11  12
ATOM     12  C   UNL     1      -8.963 -23.097  47.859  1.00  0.00     0.000 C 
BRANCH  12  13
ATOM     13  C   UNL     1      -8.601 -21.680  47.374  1.00  0.00     0.006 C 
BRANCH  13  14
ATOM     14  C   UNL     1      -7.569 -21.649  46.235  1.00  0.00     0.053 C 
BRANCH  14  15
ATOM     15  C   UNL     1      -6.327 -20.904  46.623  1.00  0.00     0.041 C 
ATOM     16  O   UNL     1      -5.285 -21.532  46.941  1.00  0.00    -0.550 OA
ATOM     17  O   UNL     1      -6.326 -19.516  46.644  1.00  0.00    -0.550 OA
ENDBRANCH  14  15
ENDBRANCH  13  14
ENDBRANCH  12  13
ENDBRANCH  11  12
ENDBRANCH  10  11
ENDBRANCH   9  10
ENDBRANCH   8   9
ENDBRANCH   7   8
ENDBRANCH   6   7
ENDBRANCH   5   6
ENDBRANCH   4   5
ENDBRANCH   3   4
ENDBRANCH   2   3
ENDBRANCH   1   2
BRANCH   1  18
ATOM     18  C   UNL     1      -5.577 -33.392  46.859  1.00  0.00     0.000 C 
BRANCH  18  19
ATOM     19  C   UNL     1      -5.920 -34.708  46.140  1.00  0.00     0.000 C 
BRANCH  19  20
ATOM     20  C   UNL     1      -4.989 -35.080  44.968  1.00  0.00     0.000 C 
BRANCH  20  21
ATOM     21  C   UNL     1      -4.650 -36.578  44.847  1.00  0.00     0.000 C 
BRANCH  21  22
ATOM     22  C   UNL     1      -3.703 -37.066  45.955  1.00  0.00     0.000 C 
BRANCH  22  23
ATOM     23  C   UNL     1      -4.157 -36.612  47.352  1.00  0.00     0.000 C 
BRANCH  23  24
ATOM     24  C   UNL     1      -3.027 -36.676  48.395  1.00  0.00    -0.000 C 
BRANCH  24  25
ATOM     25  C   UNL     1      -1.656 -37.014  47.783  1.00  0.00    -0.000 C 
BRANCH  25  26
ATOM     26  C   UNL     1      -0.677 -35.822  47.727  1.00  0.00    -0.000 C 
BRANCH  26  27
ATOM     27  C   UNL     1      -0.171 -35.503  46.308  1.00  0.00    -0.000 C 
BRANCH  27  28
ATOM     28  C   UNL     1       1.152 -34.701  46.294  1.00  0.00    -0.000 C 
BRANCH  28  29
ATOM     29  C   UNL     1       2.036 -34.946  47.532  1.00  0.00    -0.000 C 
BRANCH  29  30
ATOM     30  C   UNL     1       3.390 -34.206  47.521  1.00  0.00    -0.000 C 
BRANCH  30  31
ATOM     31  C   UNL     1       3.342 -32.737  47.973  1.00  0.00    -0.003 C 
ATOM     32  C   UNL     1       2.241 -32.464  48.996  1.00  0.00     0.004 C 
ENDBRANCH  30  31
ENDBRANCH  29  30
ENDBRANCH  28  29
ENDBRANCH  27  28
ENDBRANCH  26  27
ENDBRANCH  25  26
ENDBRANCH  24  25
ENDBRANCH  23  24
ENDBRANCH  22  23
ENDBRANCH  21  22
ENDBRANCH  20  21
ENDBRANCH  19  20
ENDBRANCH  18  19
ENDBRANCH   1  18
TORSDOF 28
ENDMDL
MODEL 3
REMARK VINA RESULT:    -0.992      1.765      4.904
REMARK INTER + INTRA:          -4.262
REMARK INTER:                  -4.966
REMARK INTRA:                   0.704
REMARK UNBOUND:                -1.648
REMARK SMILES CCCCCCCCCCCCCCCCCCCCCCCCCCCCCC(=O)[O-]
REMARK SMILES IDX 16 1 17 2 18 3 19 4 20 5 21 6 22 7 23 8 24 9 25 10 26 11
REMARK SMILES IDX 27 12 28 13 29 14 30 15 31 16 32 17 15 18 14 19 13 20 12 21
REMARK SMILES IDX 11 22 10 23 9 24 8 25 7 26 6 27 5 28 4 29 3 30 2 31 1 32
REMARK H PARENT
REMARK Flexibility Score: inf
ROOT
ATOM      1  C   UNL     1      -5.742 -31.643  47.291  1.00  0.00     0.000 C 
ENDROOT
BRANCH   1   2
ATOM      2  C   UNL     1      -6.773 -30.979  48.225  1.00  0.00     0.000 C 
BRANCH   2   3
ATOM      3  C   UNL     1      -6.195 -29.864  49.123  1.00  0.00     0.000 C 
BRANCH   3   4
ATOM      4  C   UNL     1      -6.930 -28.514  49.065  1.00  0.00     0.000 C 
BRANCH   4   5
ATOM      5  C   UNL     1      -5.970 -27.312  49.097  1.00  0.00     0.000 C 
BRANCH   5   6
ATOM      6  C   UNL     1      -5.627 -26.783  47.696  1.00  0.00     0.000 C 
BRANCH   6   7
ATOM      7  C   UNL     1      -4.983 -25.387  47.741  1.00  0.00     0.000 C 
BRANCH   7   8
ATOM      8  C   UNL     1      -6.029 -24.269  47.872  1.00  0.00     0.000 C 
BRANCH   8   9
ATOM      9  C   UNL     1      -5.796 -23.105  46.897  1.00  0.00     0.000 C 
BRANCH   9  10
ATOM     10  C   UNL     1      -6.024 -21.762  47.602  1.00  0.00     0.000 C 
BRANCH  10  11
ATOM     11  C   UNL     1      -7.508 -21.368  47.586  1.00  0.00     0.000 C 
BRANCH  11  12
ATOM     12  C   UNL     1      -8.428 -22.574  47.295  1.00  0.00     0.000 C 
BRANCH  12  13
ATOM     13  C   UNL     1      -9.756 -22.187  46.615  1.00  0.00     0.006 C 
BRANCH  13  14
ATOM     14  C   UNL     1     -10.977 -22.233  47.548  1.00  0.00     0.053 C 
BRANCH  14  15
ATOM     15  C   UNL     1     -10.929 -23.406  48.480  1.00  0.00     0.041 C 
ATOM     16  O   UNL     1      -9.839 -23.990  48.708  1.00  0.00    -0.550 OA
ATOM     17  O   UNL     1     -12.092 -23.860  49.087  1.00  0.00    -0.550 OA
ENDBRANCH  14  15
ENDBRANCH  13  14
ENDBRANCH  12  13
ENDBRANCH  11  12
ENDBRANCH  10  11
ENDBRANCH   9  10
ENDBRANCH   8   9
ENDBRANCH   7   8
ENDBRANCH   6   7
ENDBRANCH   5   6
ENDBRANCH   4   5
ENDBRANCH   3   4
ENDBRANCH   2   3
ENDBRANCH   1   2
BRANCH   1  18
ATOM     18  C   UNL     1      -5.680 -33.174  47.449  1.00  0.00     0.000 C 
BRANCH  18  19
ATOM     19  C   UNL     1      -6.099 -33.926  46.173  1.00  0.00     0.000 C 
BRANCH  19  20
ATOM     20  C   UNL     1      -7.009 -35.150  46.398  1.00  0.00     0.000 C 
BRANCH  20  21
ATOM     21  C   UNL     1      -6.394 -36.280  47.244  1.00  0.00     0.000 C 
BRANCH  21  22
ATOM     22  C   UNL     1      -5.185 -35.815  48.072  1.00  0.00     0.000 C 
BRANCH  22  23
ATOM     23  C   UNL     1      -4.497 -36.979  48.804  1.00  0.00     0.000 C 
BRANCH  23  24
ATOM     24  C   UNL     1      -2.964 -36.941  48.673  1.00  0.00    -0.000 C 
BRANCH  24  25
ATOM     25  C   UNL     1      -2.378 -35.527  48.834  1.00  0.00    -0.000 C 
BRANCH  25  26
ATOM     26  C   UNL     1      -1.096 -35.277  48.011  1.00  0.00    -0.000 C 
BRANCH  26  27
ATOM     27  C   UNL     1      -0.762 -36.413  47.027  1.00  0.00    -0.000 C 
BRANCH  27  28
ATOM     28  C   UNL     1      -0.548 -35.923  45.574  1.00  0.00    -0.000 C 
BRANCH  28  29
ATOM     29  C   UNL     1       0.118 -34.537  45.481  1.00  0.00    -0.000 C 
BRANCH  29  30
ATOM     30  C   UNL     1       1.086 -34.358  44.294  1.00  0.00    -0.000 C 
BRANCH  30  31
ATOM     31  C   UNL     1       2.558 -34.690  44.589  1.00  0.00    -0.003 C 
ATOM     32  C   UNL     1       2.821 -34.968  46.068  1.00  0.00     0.004 C 
ENDBRANCH  30  31
ENDBRANCH  29  30
ENDBRANCH  28  29
ENDBRANCH  27  28
ENDBRANCH  26  27
ENDBRANCH  25  26
ENDBRANCH  24  25
ENDBRANCH  23  24
ENDBRANCH  22  23
ENDBRANCH  21  22
ENDBRANCH  20  21
ENDBRANCH  19  20
ENDBRANCH  18  19
ENDBRANCH   1  18
TORSDOF 28
ENDMDL
MODEL 4
REMARK VINA RESULT:    -0.738      1.391      2.109
REMARK INTER + INTRA:          -3.593
REMARK INTER:                  -3.060
REMARK INTRA:                  -0.533
REMARK UNBOUND:                -1.648
REMARK SMILES CCCCCCCCCCCCCCCCCCCCCCCCCCCCCC(=O)[O-]
REMARK SMILES IDX 16 1 17 2 18 3 19 4 20 5 21 6 22 7 23 8 24 9 25 10 26 11
REMARK SMILES IDX 27 12 28 13 29 14 30 15 31 16 32 17 15 18 14 19 13 20 12 21
REMARK SMILES IDX 11 22 10 23 9 24 8 25 7 26 6 27 5 28 4 29 3 30 2 31 1 32
REMARK H PARENT
REMARK Flexibility Score: inf
ROOT
ATOM      1  C   UNL     1      -2.859 -35.482  49.125  1.00  0.00     0.000 C 
ENDROOT
BRANCH   1   2
ATOM      2  C   UNL     1      -3.061 -34.187  48.312  1.00  0.00     0.000 C 
BRANCH   2   3
ATOM      3  C   UNL     1      -4.238 -33.311  48.792  1.00  0.00     0.000 C 
BRANCH   3   4
ATOM      4  C   UNL     1      -5.564 -33.503  48.035  1.00  0.00     0.000 C 
BRANCH   4   5
ATOM      5  C   UNL     1      -6.146 -32.180  47.507  1.00  0.00     0.000 C 
BRANCH   5   6
ATOM      6  C   UNL     1      -6.789 -31.328  48.612  1.00  0.00     0.000 C 
BRANCH   6   7
ATOM      7  C   UNL     1      -5.855 -30.210  49.104  1.00  0.00     0.000 C 
BRANCH   7   8
ATOM      8  C   UNL     1      -6.549 -28.840  49.124  1.00  0.00     0.000 C 
BRANCH   8   9
ATOM      9  C   UNL     1      -5.750 -27.745  48.402  1.00  0.00     0.000 C 
BRANCH   9  10
ATOM     10  C   UNL     1      -6.186 -26.356  48.886  1.00  0.00     0.000 C 
BRANCH  10  11
ATOM     11  C   UNL     1      -7.711 -26.272  49.042  1.00  0.00     0.000 C 
BRANCH  11  12
ATOM     12  C   UNL     1      -8.209 -24.812  49.125  1.00  0.00     0.000 C 
BRANCH  12  13
ATOM     13  C   UNL     1      -7.958 -24.000  47.839  1.00  0.00     0.006 C 
BRANCH  13  14
ATOM     14  C   UNL     1      -6.635 -23.218  47.836  1.00  0.00     0.053 C 
BRANCH  14  15
ATOM     15  C   UNL     1      -6.780 -21.871  47.194  1.00  0.00     0.041 C 
ATOM     16  O   UNL     1      -5.764 -21.168  46.959  1.00  0.00    -0.550 OA
ATOM     17  O   UNL     1      -8.040 -21.389  46.865  1.00  0.00    -0.550 OA
ENDBRANCH  14  15
ENDBRANCH  13  14
ENDBRANCH  12  13
ENDBRANCH  11  12
ENDBRANCH  10  11
ENDBRANCH   9  10
ENDBRANCH   8   9
ENDBRANCH   7   8
ENDBRANCH   6   7
ENDBRANCH   5   6
ENDBRANCH   4   5
ENDBRANCH   3   4
ENDBRANCH   2   3
ENDBRANCH   1   2
BRANCH   1  18
ATOM     18  C   UNL     1      -2.547 -36.706  48.244  1.00  0.00     0.000 C 
BRANCH  18  19
ATOM     19  C   UNL     1      -1.054 -37.080  48.243  1.00  0.00     0.000 C 
BRANCH  19  20
ATOM     20  C   UNL     1      -0.114 -36.039  48.887  1.00  0.00     0.000 C 
BRANCH  20  21
ATOM     21  C   UNL     1       1.379 -36.416  48.892  1.00  0.00     0.000 C 
BRANCH  21  22
ATOM     22  C   UNL     1       2.207 -35.586  47.898  1.00  0.00     0.000 C 
BRANCH  22  23
ATOM     23  C   UNL     1       1.600 -35.593  46.485  1.00  0.00     0.000 C 
BRANCH  23  24
ATOM     24  C   UNL     1       2.444 -36.396  45.479  1.00  0.00    -0.000 C 
BRANCH  24  25
ATOM     25  C   UNL     1       1.648 -36.835  44.237  1.00  0.00    -0.000 C 
BRANCH  25  26
ATOM     26  C   UNL     1       0.374 -36.004  43.976  1.00  0.00    -0.000 C 
BRANCH  26  27
ATOM     27  C   UNL     1      -0.567 -35.918  45.192  1.00  0.00    -0.000 C 
BRANCH  27  28
ATOM     28  C   UNL     1      -1.923 -36.632  44.971  1.00  0.00    -0.000 C 
BRANCH  28  29
ATOM     29  C   UNL     1      -2.992 -35.738  44.314  1.00  0.00    -0.000 C 
BRANCH  29  30
ATOM     30  C   UNL     1      -4.251 -35.494  45.171  1.00  0.00    -0.000 C 
BRANCH  30  31
ATOM     31  C   UNL     1      -5.569 -35.374  44.387  1.00  0.00    -0.003 C 
ATOM     32  C   UNL     1      -6.683 -34.707  45.192  1.00  0.00     0.004 C 
ENDBRANCH  30  31
ENDBRANCH  29  30
ENDBRANCH  28  29
ENDBRANCH  27  28
ENDBRANCH  26  27
ENDBRANCH  25  26
ENDBRANCH  24  25
ENDBRANCH  23  24
ENDBRANCH  22  23
ENDBRANCH  21  22
ENDBRANCH  20  21
ENDBRANCH  19  20
ENDBRANCH  18  19
ENDBRANCH   1  18
TORSDOF 28
ENDMDL
MODEL 5
REMARK VINA RESULT:    -0.310      1.565      4.016
REMARK INTER + INTRA:          -2.464
REMARK INTER:                  -2.071
REMARK INTRA:                  -0.393
REMARK UNBOUND:                -1.648
REMARK SMILES CCCCCCCCCCCCCCCCCCCCCCCCCCCCCC(=O)[O-]
REMARK SMILES IDX 16 1 17 2 18 3 19 4 20 5 21 6 22 7 23 8 24 9 25 10 26 11
REMARK SMILES IDX 27 12 28 13 29 14 30 15 31 16 32 17 15 18 14 19 13 20 12 21
REMARK SMILES IDX 11 22 10 23 9 24 8 25 7 26 6 27 5 28 4 29 3 30 2 31 1 32
REMARK H PARENT
REMARK Flexibility Score: inf
ROOT
ATOM      1  C   UNL     1      -4.018 -33.063  46.966  1.00  0.00     0.000 C 
ENDROOT
BRANCH   1   2
ATOM      2  C   UNL     1      -3.814 -32.477  48.378  1.00  0.00     0.000 C 
BRANCH   2   3
ATOM      3  C   UNL     1      -5.114 -32.018  49.072  1.00  0.00     0.000 C 
BRANCH   3   4
ATOM      4  C   UNL     1      -6.071 -31.181  48.205  1.00  0.00     0.000 C 
BRANCH   4   5
ATOM      5  C   UNL     1      -7.235 -30.580  49.014  1.00  0.00     0.000 C 
BRANCH   5   6
ATOM      6  C   UNL     1      -7.163 -29.049  49.115  1.00  0.00     0.000 C 
BRANCH   6   7
ATOM      7  C   UNL     1      -5.742 -28.514  48.876  1.00  0.00     0.000 C 
BRANCH   7   8
ATOM      8  C   UNL     1      -5.659 -26.989  49.044  1.00  0.00     0.000 C 
BRANCH   8   9
ATOM      9  C   UNL     1      -6.335 -26.216  47.902  1.00  0.00     0.000 C 
BRANCH   9  10
ATOM     10  C   UNL     1      -7.294 -25.159  48.465  1.00  0.00     0.000 C 
BRANCH  10  11
ATOM     11  C   UNL     1      -6.764 -23.739  48.222  1.00  0.00     0.000 C 
BRANCH  11  12
ATOM     12  C   UNL     1      -7.885 -22.678  48.291  1.00  0.00     0.000 C 
BRANCH  12  13
ATOM     13  C   UNL     1      -8.667 -22.518  46.973  1.00  0.00     0.006 C 
BRANCH  13  14
ATOM     14  C   UNL     1      -9.809 -21.492  47.039  1.00  0.00     0.053 C 
BRANCH  14  15
ATOM     15  C   UNL     1     -11.011 -22.035  47.754  1.00  0.00     0.041 C 
ATOM     16  O   UNL     1     -12.076 -21.367  47.798  1.00  0.00    -0.550 OA
ATOM     17  O   UNL     1     -10.948 -23.272  48.380  1.00  0.00    -0.550 OA
ENDBRANCH  14  15
ENDBRANCH  13  14
ENDBRANCH  12  13
ENDBRANCH  11  12
ENDBRANCH  10  11
ENDBRANCH   9  10
ENDBRANCH   8   9
ENDBRANCH   7   8
ENDBRANCH   6   7
ENDBRANCH   5   6
ENDBRANCH   4   5
ENDBRANCH   3   4
ENDBRANCH   2   3
ENDBRANCH   1   2
BRANCH   1  18
ATOM     18  C   UNL     1      -5.492 -33.382  46.650  1.00  0.00     0.000 C 
BRANCH  18  19
ATOM     19  C   UNL     1      -5.686 -34.784  46.047  1.00  0.00     0.000 C 
BRANCH  19  20
ATOM     20  C   UNL     1      -4.545 -35.271  45.130  1.00  0.00     0.000 C 
BRANCH  20  21
ATOM     21  C   UNL     1      -4.195 -36.766  45.252  1.00  0.00     0.000 C 
BRANCH  21  22
ATOM     22  C   UNL     1      -3.509 -37.111  46.584  1.00  0.00     0.000 C 
BRANCH  22  23
ATOM     23  C   UNL     1      -4.147 -36.377  47.776  1.00  0.00     0.000 C 
BRANCH  23  24
ATOM     24  C   UNL     1      -3.294 -36.465  49.054  1.00  0.00    -0.000 C 
BRANCH  24  25
ATOM     25  C   UNL     1      -1.904 -37.078  48.813  1.00  0.00    -0.000 C 
BRANCH  25  26
ATOM     26  C   UNL     1      -0.803 -36.043  48.497  1.00  0.00    -0.000 C 
BRANCH  26  27
ATOM     27  C   UNL     1      -1.345 -34.717  47.932  1.00  0.00    -0.000 C 
BRANCH  27  28
ATOM     28  C   UNL     1      -0.930 -34.461  46.462  1.00  0.00    -0.000 C 
BRANCH  28  29
ATOM     29  C   UNL     1       0.298 -35.277  46.016  1.00  0.00    -0.000 C 
BRANCH  29  30
ATOM     30  C   UNL     1       0.002 -36.380  44.978  1.00  0.00    -0.000 C 
BRANCH  30  31
ATOM     31  C   UNL     1       1.169 -36.729  44.038  1.00  0.00    -0.003 C 
ATOM     32  C   UNL     1       2.518 -36.772  44.754  1.00  0.00     0.004 C 
ENDBRANCH  30  31
ENDBRANCH  29  30
ENDBRANCH  28  29
ENDBRANCH  27  28
ENDBRANCH  26  27
ENDBRANCH  25  26
ENDBRANCH  24  25
ENDBRANCH  23  24
ENDBRANCH  22  23
ENDBRANCH  21  22
ENDBRANCH  20  21
ENDBRANCH  19  20
ENDBRANCH  18  19
ENDBRANCH   1  18
TORSDOF 28
ENDMDL
MODEL 6
REMARK VINA RESULT:     0.308      7.440     12.805
REMARK INTER + INTRA:          -0.837
REMARK INTER:                  -0.386
REMARK INTRA:                  -0.451
REMARK UNBOUND:                -1.648
REMARK SMILES CCCCCCCCCCCCCCCCCCCCCCCCCCCCCC(=O)[O-]
REMARK SMILES IDX 16 1 17 2 18 3 19 4 20 5 21 6 22 7 23 8 24 9 25 10 26 11
REMARK SMILES IDX 27 12 28 13 29 14 30 15 31 16 32 17 15 18 14 19 13 20 12 21
REMARK SMILES IDX 11 22 10 23 9 24 8 25 7 26 6 27 5 28 4 29 3 30 2 31 1 32
REMARK H PARENT
REMARK Flexibility Score: inf
ROOT
ATOM      1  C   UNL     1      -5.226 -23.028  46.996  1.00  0.00     0.000 C 
ENDROOT
BRANCH   1   2
ATOM      2  C   UNL     1      -6.169 -22.667  48.162  1.00  0.00     0.000 C 
BRANCH   2   3
ATOM      3  C   UNL     1      -7.667 -22.890  47.863  1.00  0.00     0.000 C 
BRANCH   3   4
ATOM      4  C   UNL     1      -8.277 -24.177  48.446  1.00  0.00     0.000 C 
BRANCH   4   5
ATOM      5  C   UNL     1      -7.222 -25.257  48.739  1.00  0.00     0.000 C 
BRANCH   5   6
ATOM      6  C   UNL     1      -6.566 -25.813  47.466  1.00  0.00     0.000 C 
BRANCH   6   7
ATOM      7  C   UNL     1      -5.857 -27.155  47.713  1.00  0.00     0.000 C 
BRANCH   7   8
ATOM      8  C   UNL     1      -6.129 -27.704  49.122  1.00  0.00     0.000 C 
BRANCH   8   9
ATOM      9  C   UNL     1      -6.927 -29.017  49.116  1.00  0.00     0.000 C 
BRANCH   9  10
ATOM     10  C   UNL     1      -6.007 -30.201  48.788  1.00  0.00     0.000 C 
BRANCH  10  11
ATOM     11  C   UNL     1      -6.817 -31.449  48.409  1.00  0.00     0.000 C 
BRANCH  11  12
ATOM     12  C   UNL     1      -6.011 -32.417  47.515  1.00  0.00     0.000 C 
BRANCH  12  13
ATOM     13  C   UNL     1      -6.580 -33.849  47.487  1.00  0.00     0.006 C 
BRANCH  13  14
ATOM     14  C   UNL     1      -5.544 -34.944  47.787  1.00  0.00     0.053 C 
BRANCH  14  15
ATOM     15  C   UNL     1      -5.035 -35.595  46.535  1.00  0.00     0.041 C 
ATOM     16  O   UNL     1      -5.011 -36.849  46.438  1.00  0.00    -0.550 OA
ATOM     17  O   UNL     1      -4.578 -34.814  45.482  1.00  0.00    -0.550 OA
ENDBRANCH  14  15
ENDBRANCH  13  14
ENDBRANCH  12  13
ENDBRANCH  11  12
ENDBRANCH  10  11
ENDBRANCH   9  10
ENDBRANCH   8   9
ENDBRANCH   7   8
ENDBRANCH   6   7
ENDBRANCH   5   6
ENDBRANCH   4   5
ENDBRANCH   3   4
ENDBRANCH   2   3
ENDBRANCH   1   2
BRANCH   1  18
ATOM     18  C   UNL     1      -3.972 -22.136  46.934  1.00  0.00     0.000 C 
BRANCH  18  19
ATOM     19  C   UNL     1      -2.674 -22.905  47.240  1.00  0.00     0.000 C 
BRANCH  19  20
ATOM     20  C   UNL     1      -1.836 -22.345  48.407  1.00  0.00     0.000 C 
BRANCH  20  21
ATOM     21  C   UNL     1      -0.706 -21.380  48.003  1.00  0.00     0.000 C 
BRANCH  21  22
ATOM     22  C   UNL     1       0.353 -21.207  49.104  1.00  0.00     0.000 C 
BRANCH  22  23
ATOM     23  C   UNL     1       1.769 -21.038  48.529  1.00  0.00     0.000 C 
BRANCH  23  24
ATOM     24  C   UNL     1       1.919 -21.655  47.127  1.00  0.00    -0.000 C 
BRANCH  24  25
ATOM     25  C   UNL     1       3.271 -21.332  46.465  1.00  0.00    -0.000 C 
BRANCH  25  26
ATOM     26  C   UNL     1       4.342 -22.429  46.646  1.00  0.00    -0.000 C 
BRANCH  26  27
ATOM     27  C   UNL     1       5.435 -22.063  47.668  1.00  0.00    -0.000 C 
BRANCH  27  28
ATOM     28  C   UNL     1       5.006 -20.948  48.653  1.00  0.00    -0.000 C 
BRANCH  28  29
ATOM     29  C   UNL     1       5.201 -19.525  48.097  1.00  0.00    -0.000 C 
BRANCH  29  30
ATOM     30  C   UNL     1       6.613 -18.935  48.299  1.00  0.00    -0.000 C 
BRANCH  30  31
ATOM     31  C   UNL     1       7.438 -18.748  47.015  1.00  0.00    -0.003 C 
ATOM     32  C   UNL     1       6.596 -18.287  45.827  1.00  0.00     0.004 C 
ENDBRANCH  30  31
ENDBRANCH  29  30
ENDBRANCH  28  29
ENDBRANCH  27  28
ENDBRANCH  26  27
ENDBRANCH  25  26
ENDBRANCH  24  25
ENDBRANCH  23  24
ENDBRANCH  22  23
ENDBRANCH  21  22
ENDBRANCH  20  21
ENDBRANCH  19  20
ENDBRANCH  18  19
ENDBRANCH   1  18
TORSDOF 28
ENDMDL
