MODEL 1
REMARK VINA RESULT:    -3.657      0.000      0.000
REMARK INTER + INTRA:          -7.368
REMARK INTER:                  -5.794
REMARK INTRA:                  -1.574
REMARK UNBOUND:                -1.574
REMARK SMILES CCCCCCCCCCCC(=O)[O-]
REMARK SMILES IDX 7 1 8 2 9 3 10 4 11 5 12 6 13 7 14 8 6 9 5 10 4 11 3 12 2 13
REMARK SMILES IDX 1 14
REMARK H PARENT
REMARK Flexibility Score: inf
ROOT
ATOM      1  C   UNL     1     -11.823   4.463  17.357  1.00  0.00     0.000 C 
ENDROOT
BRANCH   1   2
ATOM      2  C   UNL     1     -11.375   3.875  16.007  1.00  0.00     0.000 C 
BRANCH   2   3
ATOM      3  C   UNL     1     -10.041   3.118  16.107  1.00  0.00     0.000 C 
BRANCH   3   4
ATOM      4  C   UNL     1     -10.206   1.602  15.904  1.00  0.00     0.006 C 
BRANCH   4   5
ATOM      5  C   UNL     1     -11.588   1.240  15.345  1.00  0.00     0.053 C 
BRANCH   5   6
ATOM      6  C   UNL     1     -11.488   0.270  14.207  1.00  0.00     0.041 C 
ATOM      7  O   UNL     1     -12.519  -0.057  13.561  1.00  0.00    -0.550 OA
ATOM      8  O   UNL     1     -10.253  -0.248  13.840  1.00  0.00    -0.550 OA
ENDBRANCH   5   6
ENDBRANCH   4   5
ENDBRANCH   3   4
ENDBRANCH   2   3
ENDBRANCH   1   2
BRANCH   1   9
ATOM      9  C   UNL     1     -12.686   3.487  18.171  1.00  0.00     0.000 C 
BRANCH   9  10
ATOM     10  C   UNL     1     -12.057   3.135  19.530  1.00  0.00    -0.000 C 
BRANCH  10  11
ATOM     11  C   UNL     1     -11.394   1.748  19.532  1.00  0.00    -0.000 C 
BRANCH  11  12
ATOM     12  C   UNL     1      -9.859   1.827  19.617  1.00  0.00    -0.000 C 
BRANCH  12  13
ATOM     13  C   UNL     1      -9.368   3.183  20.147  1.00  0.00    -0.003 C 
ATOM     14  C   UNL     1      -8.334   3.840  19.232  1.00  0.00     0.004 C 
ENDBRANCH  12  13
ENDBRANCH  11  12
ENDBRANCH  10  11
ENDBRANCH   9  10
ENDBRANCH   1   9
TORSDOF 10
ENDMDL
MODEL 2
REMARK VINA RESULT:    -3.604      1.187      2.027
REMARK INTER + INTRA:          -7.285
REMARK INTER:                  -6.047
REMARK INTRA:                  -1.238
REMARK UNBOUND:                -1.574
REMARK SMILES CCCCCCCCCCCC(=O)[O-]
REMARK SMILES IDX 7 1 8 2 9 3 10 4 11 5 12 6 13 7 14 8 6 9 5 10 4 11 3 12 2 13
REMARK SMILES IDX 1 14
REMARK H PARENT
REMARK Flexibility Score: inf
ROOT
ATOM      1  C   UNL     1     -10.643   4.778  17.450  1.00  0.00     0.000 C 
ENDROOT
BRANCH   1   2
ATOM      2  C   UNL     1      -9.553   3.832  16.918  1.00  0.00     0.000 C 
BRANCH   2   3
ATOM      3  C   UNL     1     -10.029   3.002  15.715  1.00  0.00     0.000 C 
BRANCH   3   4
ATOM      4  C   UNL     1     -10.006   1.489  15.995  1.00  0.00     0.006 C 
BRANCH   4   5
ATOM      5  C   UNL     1     -10.361   0.664  14.752  1.00  0.00     0.053 C 
BRANCH   5   6
ATOM      6  C   UNL     1     -11.841   0.477  14.616  1.00  0.00     0.041 C 
ATOM      7  O   UNL     1     -12.608   0.767  15.573  1.00  0.00    -0.550 OA
ATOM      8  O   UNL     1     -12.377   0.015  13.421  1.00  0.00    -0.550 OA
ENDBRANCH   5   6
ENDBRANCH   4   5
ENDBRANCH   3   4
ENDBRANCH   2   3
ENDBRANCH   1   2
BRANCH   1   9
ATOM      9  C   UNL     1     -12.023   4.499  16.835  1.00  0.00     0.000 C 
BRANCH   9  10
ATOM     10  C   UNL     1     -12.874   3.551  17.699  1.00  0.00    -0.000 C 
BRANCH  10  11
ATOM     11  C   UNL     1     -12.974   4.016  19.161  1.00  0.00    -0.000 C 
BRANCH  11  12
ATOM     12  C   UNL     1     -12.262   3.060  20.135  1.00  0.00    -0.000 C 
BRANCH  12  13
ATOM     13  C   UNL     1     -11.674   1.830  19.427  1.00  0.00    -0.003 C 
ATOM     14  C   UNL     1     -10.227   1.546  19.832  1.00  0.00     0.004 C 
ENDBRANCH  12  13
ENDBRANCH  11  12
ENDBRANCH  10  11
ENDBRANCH   9  10
ENDBRANCH   1   9
TORSDOF 10
ENDMDL
MODEL 3
REMARK VINA RESULT:    -3.593      1.481      2.590
REMARK INTER + INTRA:          -7.267
REMARK INTER:                  -6.121
REMARK INTRA:                  -1.145
REMARK UNBOUND:                -1.574
REMARK SMILES CCCCCCCCCCCC(=O)[O-]
REMARK SMILES IDX 7 1 8 2 9 3 10 4 11 5 12 6 13 7 14 8 6 9 5 10 4 11 3 12 2 13
REMARK SMILES IDX 1 14
REMARK H PARENT
REMARK Flexibility Score: inf
ROOT
ATOM      1  C   UNL     1     -11.009   4.296  18.386  1.00  0.00     0.000 C 
ENDROOT
BRANCH   1   2
ATOM      2  C   UNL     1     -12.317   3.526  18.137  1.00  0.00     0.000 C 
BRANCH   2   3
ATOM      3  C   UNL     1     -12.518   3.170  16.655  1.00  0.00     0.000 C 
BRANCH   3   4
ATOM      4  C   UNL     1     -12.049   1.743  16.321  1.00  0.00     0.006 C 
BRANCH   4   5
ATOM      5  C   UNL     1     -10.656   1.726  15.678  1.00  0.00     0.053 C 
BRANCH   5   6
ATOM      6  C   UNL     1     -10.585   0.759  14.536  1.00  0.00     0.041 C 
ATOM      7  O   UNL     1      -9.476   0.487  14.004  1.00  0.00    -0.550 OA
ATOM      8  O   UNL     1     -11.739   0.133  14.082  1.00  0.00    -0.550 OA
ENDBRANCH   5   6
ENDBRANCH   4   5
ENDBRANCH   3   4
ENDBRANCH   2   3
ENDBRANCH   1   2
BRANCH   1   9
ATOM      9  C   UNL     1     -10.148   3.662  19.490  1.00  0.00     0.000 C 
BRANCH   9  10
ATOM     10  C   UNL     1      -9.046   2.747  18.927  1.00  0.00    -0.000 C 
BRANCH  10  11
ATOM     11  C   UNL     1      -9.336   1.257  19.169  1.00  0.00    -0.000 C 
BRANCH  11  12
ATOM     12  C   UNL     1     -10.435   1.032  20.222  1.00  0.00    -0.000 C 
BRANCH  12  13
ATOM     13  C   UNL     1      -9.943   0.203  21.418  1.00  0.00    -0.003 C 
ATOM     14  C   UNL     1      -9.142  -1.030  20.997  1.00  0.00     0.004 C 
ENDBRANCH  12  13
ENDBRANCH  11  12
ENDBRANCH  10  11
ENDBRANCH   9  10
ENDBRANCH   1   9
TORSDOF 10
ENDMDL
MODEL 4
REMARK VINA RESULT:    -3.541      1.725      3.041
REMARK INTER + INTRA:          -7.185
REMARK INTER:                  -6.273
REMARK INTRA:                  -0.911
REMARK UNBOUND:                -1.574
REMARK SMILES CCCCCCCCCCCC(=O)[O-]
REMARK SMILES IDX 7 1 8 2 9 3 10 4 11 5 12 6 13 7 14 8 6 9 5 10 4 11 3 12 2 13
REMARK SMILES IDX 1 14
REMARK H PARENT
REMARK Flexibility Score: inf
ROOT
ATOM      1  C   UNL     1     -10.894   3.095  18.774  1.00  0.00     0.000 C 
ENDROOT
BRANCH   1   2
ATOM      2  C   UNL     1     -11.674   2.161  17.832  1.00  0.00     0.000 C 
BRANCH   2   3
ATOM      3  C   UNL     1     -11.904   2.782  16.445  1.00  0.00     0.000 C 
BRANCH   3   4
ATOM      4  C   UNL     1     -10.629   2.785  15.581  1.00  0.00     0.006 C 
BRANCH   4   5
ATOM      5  C   UNL     1      -9.904   1.433  15.615  1.00  0.00     0.053 C 
BRANCH   5   6
ATOM      6  C   UNL     1     -10.141   0.646  14.363  1.00  0.00     0.041 C 
ATOM      7  O   UNL     1      -9.169   0.155  13.729  1.00  0.00    -0.550 OA
ATOM      8  O   UNL     1     -11.437   0.426  13.914  1.00  0.00    -0.550 OA
ENDBRANCH   5   6
ENDBRANCH   4   5
ENDBRANCH   3   4
ENDBRANCH   2   3
ENDBRANCH   1   2
BRANCH   1   9
ATOM      9  C   UNL     1      -9.661   2.418  19.392  1.00  0.00     0.000 C 
BRANCH   9  10
ATOM     10  C   UNL     1      -8.355   2.800  18.673  1.00  0.00    -0.000 C 
BRANCH  10  11
ATOM     11  C   UNL     1      -8.227   4.315  18.448  1.00  0.00    -0.000 C 
BRANCH  11  12
ATOM     12  C   UNL     1      -6.940   4.897  19.060  1.00  0.00    -0.000 C 
BRANCH  12  13
ATOM     13  C   UNL     1      -5.702   4.042  18.749  1.00  0.00    -0.003 C 
ATOM     14  C   UNL     1      -4.390   4.746  19.096  1.00  0.00     0.004 C 
ENDBRANCH  12  13
ENDBRANCH  11  12
ENDBRANCH  10  11
ENDBRANCH   9  10
ENDBRANCH   1   9
TORSDOF 10
ENDMDL
MODEL 5
REMARK VINA RESULT:    -3.541      1.177      2.168
REMARK INTER + INTRA:          -7.184
REMARK INTER:                  -5.751
REMARK INTRA:                  -1.433
REMARK UNBOUND:                -1.574
REMARK SMILES CCCCCCCCCCCC(=O)[O-]
REMARK SMILES IDX 7 1 8 2 9 3 10 4 11 5 12 6 13 7 14 8 6 9 5 10 4 11 3 12 2 13
REMARK SMILES IDX 1 14
REMARK H PARENT
REMARK Flexibility Score: inf
ROOT
ATOM      1  C   UNL     1     -12.162   4.852  18.695  1.00  0.00     0.000 C 
ENDROOT
BRANCH   1   2
ATOM      2  C   UNL     1     -12.887   3.630  18.104  1.00  0.00     0.000 C 
BRANCH   2   3
ATOM      3  C   UNL     1     -12.538   3.397  16.625  1.00  0.00     0.000 C 
BRANCH   3   4
ATOM      4  C   UNL     1     -12.162   1.933  16.331  1.00  0.00     0.006 C 
BRANCH   4   5
ATOM      5  C   UNL     1     -10.877   1.821  15.501  1.00  0.00     0.053 C 
BRANCH   5   6
ATOM      6  C   UNL     1     -10.956   0.704  14.506  1.00  0.00     0.041 C 
ATOM      7  O   UNL     1     -12.074   0.319  14.072  1.00  0.00    -0.550 OA
ATOM      8  O   UNL     1      -9.793   0.110  14.033  1.00  0.00    -0.550 OA
ENDBRANCH   5   6
ENDBRANCH   4   5
ENDBRANCH   3   4
ENDBRANCH   2   3
ENDBRANCH   1   2
BRANCH   1   9
ATOM      9  C   UNL     1     -10.673   4.897  18.321  1.00  0.00     0.000 C 
BRANCH   9  10
ATOM     10  C   UNL     1      -9.810   4.001  19.227  1.00  0.00    -0.000 C 
BRANCH  10  11
ATOM     11  C   UNL     1      -8.984   2.978  18.431  1.00  0.00    -0.000 C 
BRANCH  11  12
ATOM     12  C   UNL     1      -9.191   1.536  18.929  1.00  0.00    -0.000 C 
BRANCH  12  13
ATOM     13  C   UNL     1     -10.485   1.375  19.742  1.00  0.00    -0.003 C 
ATOM     14  C   UNL     1     -10.283   0.571  21.027  1.00  0.00     0.004 C 
ENDBRANCH  12  13
ENDBRANCH  11  12
ENDBRANCH  10  11
ENDBRANCH   9  10
ENDBRANCH   1   9
TORSDOF 10
ENDMDL
MODEL 6
REMARK VINA RESULT:    -3.527      0.977      1.526
REMARK INTER + INTRA:          -7.162
REMARK INTER:                  -5.749
REMARK INTRA:                  -1.413
REMARK UNBOUND:                -1.574
REMARK SMILES CCCCCCCCCCCC(=O)[O-]
REMARK SMILES IDX 7 1 8 2 9 3 10 4 11 5 12 6 13 7 14 8 6 9 5 10 4 11 3 12 2 13
REMARK SMILES IDX 1 14
REMARK H PARENT
REMARK Flexibility Score: inf
ROOT
ATOM      1  C   UNL     1     -12.630   3.596  18.115  1.00  0.00     0.000 C 
ENDROOT
BRANCH   1   2
ATOM      2  C   UNL     1     -12.337   2.924  16.762  1.00  0.00     0.000 C 
BRANCH   2   3
ATOM      3  C   UNL     1     -11.281   3.683  15.943  1.00  0.00     0.000 C 
BRANCH   3   4
ATOM      4  C   UNL     1     -10.008   2.852  15.705  1.00  0.00     0.006 C 
BRANCH   4   5
ATOM      5  C   UNL     1     -10.265   1.346  15.846  1.00  0.00     0.053 C 
BRANCH   5   6
ATOM      6  C   UNL     1     -10.362   0.673  14.511  1.00  0.00     0.041 C 
ATOM      7  O   UNL     1     -11.485   0.330  14.054  1.00  0.00    -0.550 OA
ATOM      8  O   UNL     1      -9.216   0.456  13.757  1.00  0.00    -0.550 OA
ENDBRANCH   5   6
ENDBRANCH   4   5
ENDBRANCH   3   4
ENDBRANCH   2   3
ENDBRANCH   1   2
BRANCH   1   9
ATOM      9  C   UNL     1     -11.980   2.860  19.296  1.00  0.00     0.000 C 
BRANCH   9  10
ATOM     10  C   UNL     1     -11.201   3.807  20.225  1.00  0.00    -0.000 C 
BRANCH  10  11
ATOM     11  C   UNL     1      -9.759   3.336  20.474  1.00  0.00    -0.000 C 
BRANCH  11  12
ATOM     12  C   UNL     1      -9.102   2.751  19.211  1.00  0.00    -0.000 C 
BRANCH  12  13
ATOM     13  C   UNL     1      -7.912   3.592  18.724  1.00  0.00    -0.003 C 
ATOM     14  C   UNL     1      -8.329   4.975  18.221  1.00  0.00     0.004 C 
ENDBRANCH  12  13
ENDBRANCH  11  12
ENDBRANCH  10  11
ENDBRANCH   9  10
ENDBRANCH   1   9
TORSDOF 10
ENDMDL
MODEL 7
REMARK VINA RESULT:    -3.503      3.619      5.924
REMARK INTER + INTRA:          -7.124
REMARK INTER:                  -6.023
REMARK INTRA:                  -1.101
REMARK UNBOUND:                -1.574
REMARK SMILES CCCCCCCCCCCC(=O)[O-]
REMARK SMILES IDX 7 1 8 2 9 3 10 4 11 5 12 6 13 7 14 8 6 9 5 10 4 11 3 12 2 13
REMARK SMILES IDX 1 14
REMARK H PARENT
REMARK Flexibility Score: inf
ROOT
ATOM      1  C   UNL     1     -10.853   1.707  19.207  1.00  0.00     0.000 C 
ENDROOT
BRANCH   1   2
ATOM      2  C   UNL     1      -9.360   2.018  19.415  1.00  0.00     0.000 C 
BRANCH   2   3
ATOM      3  C   UNL     1      -9.035   3.506  19.209  1.00  0.00     0.000 C 
BRANCH   3   4
ATOM      4  C   UNL     1      -7.629   3.727  18.624  1.00  0.00     0.006 C 
BRANCH   4   5
ATOM      5  C   UNL     1      -6.748   4.586  19.540  1.00  0.00     0.053 C 
BRANCH   5   6
ATOM      6  C   UNL     1      -5.302   4.500  19.158  1.00  0.00     0.041 C 
ATOM      7  O   UNL     1      -4.461   5.280  19.680  1.00  0.00    -0.550 OA
ATOM      8  O   UNL     1      -4.878   3.538  18.251  1.00  0.00    -0.550 OA
ENDBRANCH   5   6
ENDBRANCH   4   5
ENDBRANCH   3   4
ENDBRANCH   2   3
ENDBRANCH   1   2
BRANCH   1   9
ATOM      9  C   UNL     1     -11.598   2.835  18.478  1.00  0.00     0.000 C 
BRANCH   9  10
ATOM     10  C   UNL     1     -12.005   2.445  17.046  1.00  0.00    -0.000 C 
BRANCH  10  11
ATOM     11  C   UNL     1     -11.251   3.253  15.977  1.00  0.00    -0.000 C 
BRANCH  11  12
ATOM     12  C   UNL     1      -9.840   2.700  15.705  1.00  0.00    -0.000 C 
BRANCH  12  13
ATOM     13  C   UNL     1      -9.833   1.175  15.513  1.00  0.00    -0.003 C 
ATOM     14  C   UNL     1     -10.149   0.756  14.077  1.00  0.00     0.004 C 
ENDBRANCH  12  13
ENDBRANCH  11  12
ENDBRANCH  10  11
ENDBRANCH   9  10
ENDBRANCH   1   9
TORSDOF 10
ENDMDL
MODEL 8
REMARK VINA RESULT:    -3.452      2.621      3.622
REMARK INTER + INTRA:          -7.043
REMARK INTER:                  -6.344
REMARK INTRA:                  -0.699
REMARK UNBOUND:                -1.574
REMARK SMILES CCCCCCCCCCCC(=O)[O-]
REMARK SMILES IDX 7 1 8 2 9 3 10 4 11 5 12 6 13 7 14 8 6 9 5 10 4 11 3 12 2 13
REMARK SMILES IDX 1 14
REMARK H PARENT
REMARK Flexibility Score: inf
ROOT
ATOM      1  C   UNL     1      -9.340   1.237  19.288  1.00  0.00     0.000 C 
ENDROOT
BRANCH   1   2
ATOM      2  C   UNL     1      -9.698   1.829  17.914  1.00  0.00     0.000 C 
BRANCH   2   3
ATOM      3  C   UNL     1     -11.212   2.020  17.732  1.00  0.00     0.000 C 
BRANCH   3   4
ATOM      4  C   UNL     1     -11.700   1.578  16.341  1.00  0.00     0.006 C 
BRANCH   4   5
ATOM      5  C   UNL     1     -10.596   1.678  15.281  1.00  0.00     0.053 C 
BRANCH   5   6
ATOM      6  C   UNL     1     -10.578   0.479  14.384  1.00  0.00     0.041 C 
ATOM      7  O   UNL     1      -9.492  -0.106  14.128  1.00  0.00    -0.550 OA
ATOM      8  O   UNL     1     -11.766  -0.014  13.857  1.00  0.00    -0.550 OA
ENDBRANCH   5   6
ENDBRANCH   4   5
ENDBRANCH   3   4
ENDBRANCH   2   3
ENDBRANCH   1   2
BRANCH   1   9
ATOM      9  C   UNL     1     -10.509   1.298  20.283  1.00  0.00     0.000 C 
BRANCH   9  10
ATOM     10  C   UNL     1     -10.556   0.073  21.214  1.00  0.00    -0.000 C 
BRANCH  10  11
ATOM     11  C   UNL     1      -9.325  -0.835  21.058  1.00  0.00    -0.000 C 
BRANCH  11  12
ATOM     12  C   UNL     1      -8.470  -0.896  22.336  1.00  0.00    -0.000 C 
BRANCH  12  13
ATOM     13  C   UNL     1      -8.992   0.040  23.437  1.00  0.00    -0.003 C 
ATOM     14  C   UNL     1      -9.205  -0.674  24.772  1.00  0.00     0.004 C 
ENDBRANCH  12  13
ENDBRANCH  11  12
ENDBRANCH  10  11
ENDBRANCH   9  10
ENDBRANCH   1   9
TORSDOF 10
ENDMDL
MODEL 9
REMARK VINA RESULT:    -3.435      3.165      5.040
REMARK INTER + INTRA:          -7.016
REMARK INTER:                  -5.700
REMARK INTRA:                  -1.316
REMARK UNBOUND:                -1.574
REMARK SMILES CCCCCCCCCCCC(=O)[O-]
REMARK SMILES IDX 7 1 8 2 9 3 10 4 11 5 12 6 13 7 14 8 6 9 5 10 4 11 3 12 2 13
REMARK SMILES IDX 1 14
REMARK H PARENT
REMARK Flexibility Score: inf
ROOT
ATOM      1  C   UNL     1     -11.826   4.512  18.542  1.00  0.00     0.000 C 
ENDROOT
BRANCH   1   2
ATOM      2  C   UNL     1     -11.139   3.833  19.739  1.00  0.00     0.000 C 
BRANCH   2   3
ATOM      3  C   UNL     1      -9.673   3.472  19.449  1.00  0.00     0.000 C 
BRANCH   3   4
ATOM      4  C   UNL     1      -9.475   1.967  19.194  1.00  0.00     0.006 C 
BRANCH   4   5
ATOM      5  C   UNL     1     -10.484   1.110  19.969  1.00  0.00     0.053 C 
BRANCH   5   6
ATOM      6  C   UNL     1      -9.822   0.333  21.066  1.00  0.00     0.041 C 
ATOM      7  O   UNL     1      -9.244  -0.757  20.812  1.00  0.00    -0.550 OA
ATOM      8  O   UNL     1      -9.815   0.829  22.364  1.00  0.00    -0.550 OA
ENDBRANCH   5   6
ENDBRANCH   4   5
ENDBRANCH   3   4
ENDBRANCH   2   3
ENDBRANCH   1   2
BRANCH   1   9
ATOM      9  C   UNL     1     -12.876   3.612  17.872  1.00  0.00     0.000 C 
BRANCH   9  10
ATOM     10  C   UNL     1     -12.318   2.865  16.647  1.00  0.00    -0.000 C 
BRANCH  10  11
ATOM     11  C   UNL     1     -11.154   3.614  15.979  1.00  0.00    -0.000 C 
BRANCH  11  12
ATOM     12  C   UNL     1      -9.978   2.685  15.628  1.00  0.00    -0.000 C 
BRANCH  12  13
ATOM     13  C   UNL     1     -10.435   1.254  15.309  1.00  0.00    -0.003 C 
ATOM     14  C   UNL     1      -9.600   0.594  14.211  1.00  0.00     0.004 C 
ENDBRANCH  12  13
ENDBRANCH  11  12
ENDBRANCH  10  11
ENDBRANCH   9  10
ENDBRANCH   1   9
TORSDOF 10
ENDMDL
