MODEL 1
REMARK VINA RESULT:    -5.391      0.000      0.000
REMARK INTER + INTRA:          -5.707
REMARK INTER:                  -5.707
REMARK INTRA:                   0.000
REMARK UNBOUND:                 0.000
REMARK SMILES O=c1ccc2cc(O)c(O)cc2o1
REMARK SMILES IDX 4 1 3 2 2 3 1 4 13 5 12 6 11 7 9 8 7 9 6 10 5 11 8 12 10 14
REMARK H PARENT 8 13 10 15
REMARK Flexibility Score: inf
ROOT
ATOM      1  C   UNL     1      -5.653  -9.868  30.545  1.00  0.00     0.019 A 
ATOM      2  C   UNL     1      -4.869 -10.932  30.100  1.00  0.00     0.094 A 
ATOM      3  C   UNL     1      -5.354 -11.751  29.076  1.00  0.00     0.336 A 
ATOM      4  O   UNL     1      -4.661 -12.716  28.660  1.00  0.00    -0.246 OA
ATOM      5  O   UNL     1      -6.547 -11.516  28.535  1.00  0.00    -0.423 OA
ATOM      6  C   UNL     1      -7.327 -10.513  28.929  1.00  0.00     0.142 A 
ATOM      7  C   UNL     1      -8.572 -10.314  28.323  1.00  0.00     0.098 A 
ATOM      8  C   UNL     1      -9.399  -9.259  28.734  1.00  0.00     0.161 A 
ATOM      9  C   UNL     1      -8.975  -8.395  29.760  1.00  0.00     0.158 A 
ATOM     10  C   UNL     1      -7.729  -8.590  30.369  1.00  0.00     0.062 A 
ATOM     11  C   UNL     1      -6.903  -9.646  29.959  1.00  0.00     0.022 A 
ENDROOT
BRANCH   9  12
ATOM     12  O   UNL     1      -9.777  -7.338  30.188  1.00  0.00    -0.504 OA
ATOM     13  H   UNL     1      -9.870  -7.094  31.167  1.00  0.00     0.293 HD
ENDBRANCH   9  12
BRANCH   8  14
ATOM     14  O   UNL     1     -10.639  -9.065  28.127  1.00  0.00    -0.504 OA
ATOM     15  H   UNL     1     -11.037  -9.754  27.501  1.00  0.00     0.293 HD
ENDBRANCH   8  14
TORSDOF 2
ENDMDL
MODEL 2
REMARK VINA RESULT:    -5.371      2.305      3.265
REMARK INTER + INTRA:          -5.685
REMARK INTER:                  -5.685
REMARK INTRA:                   0.000
REMARK UNBOUND:                 0.000
REMARK SMILES O=c1ccc2cc(O)c(O)cc2o1
REMARK SMILES IDX 4 1 3 2 2 3 1 4 13 5 12 6 11 7 9 8 7 9 6 10 5 11 8 12 10 14
REMARK H PARENT 8 13 10 15
REMARK Flexibility Score: inf
ROOT
ATOM      1  C   UNL     1      -8.262  -7.777  32.090  1.00  0.00     0.019 A 
ATOM      2  C   UNL     1      -7.013  -7.694  32.704  1.00  0.00     0.094 A 
ATOM      3  C   UNL     1      -5.907  -8.272  32.071  1.00  0.00     0.336 A 
ATOM      4  O   UNL     1      -4.770  -8.206  32.609  1.00  0.00    -0.246 OA
ATOM      5  O   UNL     1      -6.048  -8.892  30.902  1.00  0.00    -0.423 OA
ATOM      6  C   UNL     1      -7.222  -8.994  30.283  1.00  0.00     0.142 A 
ATOM      7  C   UNL     1      -7.309  -9.657  29.055  1.00  0.00     0.098 A 
ATOM      8  C   UNL     1      -8.543  -9.769  28.398  1.00  0.00     0.161 A 
ATOM      9  C   UNL     1      -9.699  -9.211  28.976  1.00  0.00     0.158 A 
ATOM     10  C   UNL     1      -9.614  -8.546  30.206  1.00  0.00     0.062 A 
ATOM     11  C   UNL     1      -8.381  -8.435  30.863  1.00  0.00     0.022 A 
ENDROOT
BRANCH   9  12
ATOM     12  O   UNL     1     -10.938  -9.307  28.344  1.00  0.00    -0.504 OA
ATOM     13  H   UNL     1     -11.174 -10.084  27.739  1.00  0.00     0.293 HD
ENDBRANCH   9  12
BRANCH   8  14
ATOM     14  O   UNL     1      -8.626 -10.431  27.174  1.00  0.00    -0.504 OA
ATOM     15  H   UNL     1      -9.511 -10.764  26.810  1.00  0.00     0.293 HD
ENDBRANCH   8  14
TORSDOF 2
ENDMDL
MODEL 3
REMARK VINA RESULT:    -5.181      1.103      2.225
REMARK INTER + INTRA:          -5.484
REMARK INTER:                  -5.484
REMARK INTRA:                   0.000
REMARK UNBOUND:                 0.000
REMARK SMILES O=c1ccc2cc(O)c(O)cc2o1
REMARK SMILES IDX 4 1 3 2 2 3 1 4 13 5 12 6 11 7 9 8 7 9 6 10 5 11 8 12 10 14
REMARK H PARENT 8 13 10 15
REMARK Flexibility Score: inf
ROOT
ATOM      1  C   UNL     1      -6.536 -11.498  28.200  1.00  0.00     0.019 A 
ATOM      2  C   UNL     1      -5.370 -11.843  28.883  1.00  0.00     0.094 A 
ATOM      3  C   UNL     1      -5.105 -11.241  30.118  1.00  0.00     0.336 A 
ATOM      4  O   UNL     1      -4.058 -11.539  30.750  1.00  0.00    -0.246 OA
ATOM      5  O   UNL     1      -5.954 -10.354  30.630  1.00  0.00    -0.423 OA
ATOM      6  C   UNL     1      -7.077  -9.998  30.011  1.00  0.00     0.142 A 
ATOM      7  C   UNL     1      -7.932  -9.060  30.599  1.00  0.00     0.098 A 
ATOM      8  C   UNL     1      -9.117  -8.680  29.952  1.00  0.00     0.161 A 
ATOM      9  C   UNL     1      -9.448  -9.244  28.706  1.00  0.00     0.158 A 
ATOM     10  C   UNL     1      -8.594 -10.184  28.115  1.00  0.00     0.062 A 
ATOM     11  C   UNL     1      -7.409 -10.563  28.762  1.00  0.00     0.022 A 
ENDROOT
BRANCH   9  12
ATOM     12  O   UNL     1     -10.619  -8.885  28.042  1.00  0.00    -0.504 OA
ATOM     13  H   UNL     1     -11.107  -8.019  28.240  1.00  0.00     0.293 HD
ENDBRANCH   9  12
BRANCH   8  14
ATOM     14  O   UNL     1      -9.967  -7.745  30.541  1.00  0.00    -0.504 OA
ATOM     15  H   UNL     1     -10.387  -6.997  30.003  1.00  0.00     0.293 HD
ENDBRANCH   8  14
TORSDOF 2
ENDMDL
MODEL 4
REMARK VINA RESULT:    -4.953     14.050     15.975
REMARK INTER + INTRA:          -5.242
REMARK INTER:                  -5.242
REMARK INTRA:                   0.000
REMARK UNBOUND:                 0.000
REMARK SMILES O=c1ccc2cc(O)c(O)cc2o1
REMARK SMILES IDX 4 1 3 2 2 3 1 4 13 5 12 6 11 7 9 8 7 9 6 10 5 11 8 12 10 14
REMARK H PARENT 8 13 10 15
REMARK Flexibility Score: inf
ROOT
ATOM      1  C   UNL     1     -17.505 -19.395  18.795  1.00  0.00     0.019 A 
ATOM      2  C   UNL     1     -17.726 -18.351  17.898  1.00  0.00     0.094 A 
ATOM      3  C   UNL     1     -16.928 -17.204  17.982  1.00  0.00     0.336 A 
ATOM      4  O   UNL     1     -17.112 -16.251  17.180  1.00  0.00    -0.246 OA
ATOM      5  O   UNL     1     -15.975 -17.114  18.906  1.00  0.00    -0.423 OA
ATOM      6  C   UNL     1     -15.731 -18.087  19.781  1.00  0.00     0.142 A 
ATOM      7  C   UNL     1     -14.715 -17.936  20.729  1.00  0.00     0.098 A 
ATOM      8  C   UNL     1     -14.453 -18.957  21.654  1.00  0.00     0.161 A 
ATOM      9  C   UNL     1     -15.217 -20.139  21.629  1.00  0.00     0.158 A 
ATOM     10  C   UNL     1     -16.236 -20.293  20.680  1.00  0.00     0.062 A 
ATOM     11  C   UNL     1     -16.497 -19.273  19.756  1.00  0.00     0.022 A 
ENDROOT
BRANCH   9  12
ATOM     12  O   UNL     1     -14.978 -21.170  22.536  1.00  0.00    -0.504 OA
ATOM     13  H   UNL     1     -15.698 -21.831  22.802  1.00  0.00     0.293 HD
ENDBRANCH   9  12
BRANCH   8  14
ATOM     14  O   UNL     1     -13.439 -18.803  22.599  1.00  0.00    -0.504 OA
ATOM     15  H   UNL     1     -13.019 -17.900  22.783  1.00  0.00     0.293 HD
ENDBRANCH   8  14
TORSDOF 2
ENDMDL
MODEL 5
REMARK VINA RESULT:    -4.881      8.864     10.179
REMARK INTER + INTRA:          -5.166
REMARK INTER:                  -5.166
REMARK INTRA:                   0.000
REMARK UNBOUND:                 0.000
REMARK SMILES O=c1ccc2cc(O)c(O)cc2o1
REMARK SMILES IDX 4 1 3 2 2 3 1 4 13 5 12 6 11 7 9 8 7 9 6 10 5 11 8 12 10 14
REMARK H PARENT 8 13 10 15
REMARK Flexibility Score: inf
ROOT
ATOM      1  C   UNL     1      -9.475 -12.675  18.794  1.00  0.00     0.019 A 
ATOM      2  C   UNL     1      -8.693 -13.294  17.819  1.00  0.00     0.094 A 
ATOM      3  C   UNL     1      -7.933 -14.414  18.171  1.00  0.00     0.336 A 
ATOM      4  O   UNL     1      -7.220 -14.987  17.305  1.00  0.00    -0.246 OA
ATOM      5  O   UNL     1      -7.958 -14.881  19.417  1.00  0.00    -0.423 OA
ATOM      6  C   UNL     1      -8.691 -14.321  20.376  1.00  0.00     0.142 A 
ATOM      7  C   UNL     1      -8.678 -14.856  21.668  1.00  0.00     0.098 A 
ATOM      8  C   UNL     1      -9.448 -14.270  22.684  1.00  0.00     0.161 A 
ATOM      9  C   UNL     1     -10.237 -13.139  22.403  1.00  0.00     0.158 A 
ATOM     10  C   UNL     1     -10.252 -12.601  21.109  1.00  0.00     0.062 A 
ATOM     11  C   UNL     1      -9.482 -13.186  20.095  1.00  0.00     0.022 A 
ENDROOT
BRANCH   9  12
ATOM     12  O   UNL     1     -11.011 -12.538  23.393  1.00  0.00    -0.504 OA
ATOM     13  H   UNL     1     -12.020 -12.626  23.416  1.00  0.00     0.293 HD
ENDBRANCH   9  12
BRANCH   8  14
ATOM     14  O   UNL     1      -9.432 -14.807  23.971  1.00  0.00    -0.504 OA
ATOM     15  H   UNL     1     -10.193 -15.380  24.315  1.00  0.00     0.293 HD
ENDBRANCH   8  14
TORSDOF 2
ENDMDL
MODEL 6
REMARK VINA RESULT:    -4.804     14.146     15.962
REMARK INTER + INTRA:          -5.085
REMARK INTER:                  -5.085
REMARK INTRA:                   0.000
REMARK UNBOUND:                 0.000
REMARK SMILES O=c1ccc2cc(O)c(O)cc2o1
REMARK SMILES IDX 4 1 3 2 2 3 1 4 13 5 12 6 11 7 9 8 7 9 6 10 5 11 8 12 10 14
REMARK H PARENT 8 13 10 15
REMARK Flexibility Score: inf
ROOT
ATOM      1  C   UNL     1     -15.830 -16.966  18.853  1.00  0.00     0.019 A 
ATOM      2  C   UNL     1     -16.858 -17.097  17.920  1.00  0.00     0.094 A 
ATOM      3  C   UNL     1     -17.634 -18.261  17.925  1.00  0.00     0.336 A 
ATOM      4  O   UNL     1     -18.567 -18.399  17.091  1.00  0.00    -0.246 OA
ATOM      5  O   UNL     1     -17.393 -19.226  18.809  1.00  0.00    -0.423 OA
ATOM      6  C   UNL     1     -16.423 -19.141  19.716  1.00  0.00     0.142 A 
ATOM      7  C   UNL     1     -16.217 -20.187  20.621  1.00  0.00     0.098 A 
ATOM      8  C   UNL     1     -15.196 -20.104  21.579  1.00  0.00     0.161 A 
ATOM      9  C   UNL     1     -14.376 -18.962  21.631  1.00  0.00     0.158 A 
ATOM     10  C   UNL     1     -14.580 -17.911  20.727  1.00  0.00     0.062 A 
ATOM     11  C   UNL     1     -15.599 -17.996  19.769  1.00  0.00     0.022 A 
ENDROOT
BRANCH   9  12
ATOM     12  O   UNL     1     -13.354 -18.852  22.574  1.00  0.00    -0.504 OA
ATOM     13  H   UNL     1     -13.087 -19.626  23.170  1.00  0.00     0.293 HD
ENDBRANCH   9  12
BRANCH   8  14
ATOM     14  O   UNL     1     -14.994 -21.149  22.479  1.00  0.00    -0.504 OA
ATOM     15  H   UNL     1     -15.035 -22.117  22.184  1.00  0.00     0.293 HD
ENDBRANCH   8  14
TORSDOF 2
ENDMDL
MODEL 7
REMARK VINA RESULT:    -4.796     14.824     16.486
REMARK INTER + INTRA:          -5.077
REMARK INTER:                  -5.077
REMARK INTRA:                   0.000
REMARK UNBOUND:                 0.000
REMARK SMILES O=c1ccc2cc(O)c(O)cc2o1
REMARK SMILES IDX 4 1 3 2 2 3 1 4 13 5 12 6 11 7 9 8 7 9 6 10 5 11 8 12 10 14
REMARK H PARENT 8 13 10 15
REMARK Flexibility Score: inf
ROOT
ATOM      1  C   UNL     1     -16.979 -19.739  20.003  1.00  0.00     0.019 A 
ATOM      2  C   UNL     1     -16.061 -19.555  21.036  1.00  0.00     0.094 A 
ATOM      3  C   UNL     1     -15.224 -18.434  21.007  1.00  0.00     0.336 A 
ATOM      4  O   UNL     1     -14.388 -18.250  21.930  1.00  0.00    -0.246 OA
ATOM      5  O   UNL     1     -15.305 -17.559  20.008  1.00  0.00    -0.423 OA
ATOM      6  C   UNL     1     -16.167 -17.697  19.003  1.00  0.00     0.142 A 
ATOM      7  C   UNL     1     -16.208 -16.744  17.980  1.00  0.00     0.098 A 
ATOM      8  C   UNL     1     -17.113 -16.884  16.919  1.00  0.00     0.161 A 
ATOM      9  C   UNL     1     -17.986 -17.988  16.882  1.00  0.00     0.158 A 
ATOM     10  C   UNL     1     -17.948 -18.944  17.906  1.00  0.00     0.062 A 
ATOM     11  C   UNL     1     -17.042 -18.804  18.965  1.00  0.00     0.022 A 
ENDROOT
BRANCH   9  12
ATOM     12  O   UNL     1     -18.896 -18.151  15.839  1.00  0.00    -0.504 OA
ATOM     13  H   UNL     1     -19.897 -18.097  15.984  1.00  0.00     0.293 HD
ENDBRANCH   9  12
BRANCH   8  14
ATOM     14  O   UNL     1     -17.151 -15.932  15.901  1.00  0.00    -0.504 OA
ATOM     15  H   UNL     1     -17.418 -14.972  16.083  1.00  0.00     0.293 HD
ENDBRANCH   8  14
TORSDOF 2
ENDMDL
MODEL 8
REMARK VINA RESULT:    -4.747      9.554     10.724
REMARK INTER + INTRA:          -5.025
REMARK INTER:                  -5.025
REMARK INTRA:                   0.000
REMARK UNBOUND:                 0.000
REMARK SMILES O=c1ccc2cc(O)c(O)cc2o1
REMARK SMILES IDX 4 1 3 2 2 3 1 4 13 5 12 6 11 7 9 8 7 9 6 10 5 11 8 12 10 14
REMARK H PARENT 8 13 10 15
REMARK Flexibility Score: inf
ROOT
ATOM      1  C   UNL     1      -8.151 -13.745  17.460  1.00  0.00     0.019 A 
ATOM      2  C   UNL     1      -7.191 -14.752  17.549  1.00  0.00     0.094 A 
ATOM      3  C   UNL     1      -6.867 -15.272  18.807  1.00  0.00     0.336 A 
ATOM      4  O   UNL     1      -6.003 -16.181  18.908  1.00  0.00    -0.246 OA
ATOM      5  O   UNL     1      -7.468 -14.810  19.901  1.00  0.00    -0.423 OA
ATOM      6  C   UNL     1      -8.390 -13.850  19.860  1.00  0.00     0.142 A 
ATOM      7  C   UNL     1      -8.989 -13.405  21.043  1.00  0.00     0.098 A 
ATOM      8  C   UNL     1      -9.960 -12.394  21.007  1.00  0.00     0.161 A 
ATOM      9  C   UNL     1     -10.335 -11.825  19.775  1.00  0.00     0.158 A 
ATOM     10  C   UNL     1      -9.738 -12.269  18.589  1.00  0.00     0.062 A 
ATOM     11  C   UNL     1      -8.766 -13.279  18.625  1.00  0.00     0.022 A 
ENDROOT
BRANCH   9  12
ATOM     12  O   UNL     1     -11.298 -10.819  19.711  1.00  0.00    -0.504 OA
ATOM     13  H   UNL     1     -11.249 -10.070  19.031  1.00  0.00     0.293 HD
ENDBRANCH   9  12
BRANCH   8  14
ATOM     14  O   UNL     1     -10.555 -11.953  22.188  1.00  0.00    -0.504 OA
ATOM     15  H   UNL     1     -10.297 -12.340  23.088  1.00  0.00     0.293 HD
ENDBRANCH   8  14
TORSDOF 2
ENDMDL
MODEL 9
REMARK VINA RESULT:    -4.686      9.165     10.584
REMARK INTER + INTRA:          -4.960
REMARK INTER:                  -4.960
REMARK INTRA:                   0.000
REMARK UNBOUND:                 0.000
REMARK SMILES O=c1ccc2cc(O)c(O)cc2o1
REMARK SMILES IDX 4 1 3 2 2 3 1 4 13 5 12 6 11 7 9 8 7 9 6 10 5 11 8 12 10 14
REMARK H PARENT 8 13 10 15
REMARK Flexibility Score: inf
ROOT
ATOM      1  C   UNL     1      -8.248 -13.950  18.751  1.00  0.00     0.019 A 
ATOM      2  C   UNL     1      -8.976 -14.304  17.617  1.00  0.00     0.094 A 
ATOM      3  C   UNL     1     -10.374 -14.293  17.677  1.00  0.00     0.336 A 
ATOM      4  O   UNL     1     -11.050 -14.609  16.663  1.00  0.00    -0.246 OA
ATOM      5  O   UNL     1     -10.996 -13.948  18.802  1.00  0.00    -0.423 OA
ATOM      6  C   UNL     1     -10.339 -13.603  19.907  1.00  0.00     0.142 A 
ATOM      7  C   UNL     1     -11.047 -13.250  21.060  1.00  0.00     0.098 A 
ATOM      8  C   UNL     1     -10.360 -12.886  22.227  1.00  0.00     0.161 A 
ATOM      9  C   UNL     1      -8.953 -12.875  22.239  1.00  0.00     0.158 A 
ATOM     10  C   UNL     1      -8.241 -13.229  21.086  1.00  0.00     0.062 A 
ATOM     11  C   UNL     1      -8.928 -13.593  19.920  1.00  0.00     0.022 A 
ENDROOT
BRANCH   9  12
ATOM     12  O   UNL     1      -8.246 -12.518  23.386  1.00  0.00    -0.504 OA
ATOM     13  H   UNL     1      -7.255 -12.307  23.364  1.00  0.00     0.293 HD
ENDBRANCH   9  12
BRANCH   8  14
ATOM     14  O   UNL     1     -11.070 -12.534  23.375  1.00  0.00    -0.504 OA
ATOM     15  H   UNL     1     -11.230 -11.565  23.623  1.00  0.00     0.293 HD
ENDBRANCH   8  14
TORSDOF 2
ENDMDL
