MODEL 1
REMARK VINA RESULT:    -4.039      0.000      0.000
REMARK INTER + INTRA:          -8.435
REMARK INTER:                  -6.872
REMARK INTRA:                  -1.563
REMARK UNBOUND:                -1.563
REMARK SMILES CCCCCCCCCCCCCC(=O)[O-]
REMARK SMILES IDX 8 1 9 2 10 3 11 4 12 5 13 6 14 7 15 8 16 9 7 10 6 11 5 12
REMARK SMILES IDX 4 13 3 14 2 15 1 16
REMARK H PARENT
REMARK Flexibility Score: inf
ROOT
ATOM      1  C   UNL     1      40.435  22.938   3.620  1.00  0.00     0.000 C 
ENDROOT
BRANCH   1   2
ATOM      2  C   UNL     1      40.731  21.462   3.922  1.00  0.00     0.000 C 
BRANCH   2   3
ATOM      3  C   UNL     1      39.814  20.883   5.011  1.00  0.00     0.000 C 
BRANCH   3   4
ATOM      4  C   UNL     1      39.551  21.876   6.153  1.00  0.00     0.000 C 
BRANCH   4   5
ATOM      5  C   UNL     1      38.149  21.671   6.746  1.00  0.00     0.006 C 
BRANCH   5   6
ATOM      6  C   UNL     1      37.565  20.297   6.395  1.00  0.00     0.053 C 
BRANCH   6   7
ATOM      7  C   UNL     1      37.612  19.359   7.563  1.00  0.00     0.041 C 
ATOM      8  O   UNL     1      36.665  19.332   8.392  1.00  0.00    -0.550 OA
ATOM      9  O   UNL     1      38.686  18.492   7.716  1.00  0.00    -0.550 OA
ENDBRANCH   6   7
ENDBRANCH   5   6
ENDBRANCH   4   5
ENDBRANCH   3   4
ENDBRANCH   2   3
ENDBRANCH   1   2
BRANCH   1  10
ATOM     10  C   UNL     1      40.182  23.152   2.123  1.00  0.00     0.000 C 
BRANCH  10  11
ATOM     11  C   UNL     1      38.899  23.959   1.891  1.00  0.00    -0.000 C 
BRANCH  11  12
ATOM     12  C   UNL     1      37.743  23.408   2.734  1.00  0.00    -0.000 C 
BRANCH  12  13
ATOM     13  C   UNL     1      37.001  22.292   1.989  1.00  0.00    -0.000 C 
BRANCH  13  14
ATOM     14  C   UNL     1      36.835  21.053   2.877  1.00  0.00    -0.000 C 
BRANCH  14  15
ATOM     15  C   UNL     1      35.388  20.549   2.852  1.00  0.00    -0.003 C 
ATOM     16  C   UNL     1      34.507  21.443   1.983  1.00  0.00     0.004 C 
ENDBRANCH  14  15
ENDBRANCH  13  14
ENDBRANCH  12  13
ENDBRANCH  11  12
ENDBRANCH  10  11
ENDBRANCH   1  10
TORSDOF 12
ENDMDL
MODEL 2
REMARK VINA RESULT:    -3.963      1.569      3.665
REMARK INTER + INTRA:          -8.306
REMARK INTER:                  -6.678
REMARK INTRA:                  -1.628
REMARK UNBOUND:                -1.563
REMARK SMILES CCCCCCCCCCCCCC(=O)[O-]
REMARK SMILES IDX 8 1 9 2 10 3 11 4 12 5 13 6 14 7 15 8 16 9 7 10 6 11 5 12
REMARK SMILES IDX 4 13 3 14 2 15 1 16
REMARK H PARENT
REMARK Flexibility Score: inf
ROOT
ATOM      1  C   UNL     1      35.630  21.610   2.030  1.00  0.00     0.000 C 
ENDROOT
BRANCH   1   2
ATOM      2  C   UNL     1      35.790  20.375   2.928  1.00  0.00     0.000 C 
BRANCH   2   3
ATOM      3  C   UNL     1      36.940  20.521   3.937  1.00  0.00     0.000 C 
BRANCH   3   4
ATOM      4  C   UNL     1      36.653  19.810   5.268  1.00  0.00     0.000 C 
BRANCH   4   5
ATOM      5  C   UNL     1      37.952  19.561   6.049  1.00  0.00     0.006 C 
BRANCH   5   6
ATOM      6  C   UNL     1      37.930  20.212   7.438  1.00  0.00     0.053 C 
BRANCH   6   7
ATOM      7  C   UNL     1      38.552  21.575   7.422  1.00  0.00     0.041 C 
ATOM      8  O   UNL     1      37.838  22.600   7.577  1.00  0.00    -0.550 OA
ATOM      9  O   UNL     1      39.926  21.710   7.268  1.00  0.00    -0.550 OA
ENDBRANCH   6   7
ENDBRANCH   5   6
ENDBRANCH   4   5
ENDBRANCH   3   4
ENDBRANCH   2   3
ENDBRANCH   1   2
BRANCH   1  10
ATOM     10  C   UNL     1      36.942  21.938   1.307  1.00  0.00     0.000 C 
BRANCH  10  11
ATOM     11  C   UNL     1      37.252  23.437   1.379  1.00  0.00    -0.000 C 
BRANCH  11  12
ATOM     12  C   UNL     1      38.146  23.756   2.584  1.00  0.00    -0.000 C 
BRANCH  12  13
ATOM     13  C   UNL     1      39.475  22.996   2.500  1.00  0.00    -0.000 C 
BRANCH  13  14
ATOM     14  C   UNL     1      39.920  22.511   3.885  1.00  0.00    -0.000 C 
BRANCH  14  15
ATOM     15  C   UNL     1      40.739  21.220   3.778  1.00  0.00    -0.003 C 
ATOM     16  C   UNL     1      40.349  20.419   2.539  1.00  0.00     0.004 C 
ENDBRANCH  14  15
ENDBRANCH  13  14
ENDBRANCH  12  13
ENDBRANCH  11  12
ENDBRANCH  10  11
ENDBRANCH   1  10
TORSDOF 12
ENDMDL
MODEL 3
REMARK VINA RESULT:    -3.936      1.207      3.402
REMARK INTER + INTRA:          -8.260
REMARK INTER:                  -6.683
REMARK INTRA:                  -1.577
REMARK UNBOUND:                -1.563
REMARK SMILES CCCCCCCCCCCCCC(=O)[O-]
REMARK SMILES IDX 8 1 9 2 10 3 11 4 12 5 13 6 14 7 15 8 16 9 7 10 6 11 5 12
REMARK SMILES IDX 4 13 3 14 2 15 1 16
REMARK H PARENT
REMARK Flexibility Score: inf
ROOT
ATOM      1  C   UNL     1      36.222  20.219   4.248  1.00  0.00     0.000 C 
ENDROOT
BRANCH   1   2
ATOM      2  C   UNL     1      37.499  21.048   4.448  1.00  0.00     0.000 C 
BRANCH   2   3
ATOM      3  C   UNL     1      38.722  20.430   3.752  1.00  0.00     0.000 C 
BRANCH   3   4
ATOM      4  C   UNL     1      39.960  20.387   4.659  1.00  0.00     0.000 C 
BRANCH   4   5
ATOM      5  C   UNL     1      39.656  21.004   6.032  1.00  0.00     0.006 C 
BRANCH   5   6
ATOM      6  C   UNL     1      39.885  20.011   7.179  1.00  0.00     0.053 C 
BRANCH   6   7
ATOM      7  C   UNL     1      38.625  19.287   7.546  1.00  0.00     0.041 C 
ATOM      8  O   UNL     1      38.630  18.035   7.681  1.00  0.00    -0.550 OA
ATOM      9  O   UNL     1      37.454  20.000   7.771  1.00  0.00    -0.550 OA
ENDBRANCH   6   7
ENDBRANCH   5   6
ENDBRANCH   4   5
ENDBRANCH   3   4
ENDBRANCH   2   3
ENDBRANCH   1   2
BRANCH   1  10
ATOM     10  C   UNL     1      35.829  20.163   2.766  1.00  0.00     0.000 C 
BRANCH  10  11
ATOM     11  C   UNL     1      34.694  21.147   2.460  1.00  0.00    -0.000 C 
BRANCH  11  12
ATOM     12  C   UNL     1      35.050  22.045   1.269  1.00  0.00    -0.000 C 
BRANCH  12  13
ATOM     13  C   UNL     1      36.568  22.104   1.058  1.00  0.00    -0.000 C 
BRANCH  13  14
ATOM     14  C   UNL     1      37.067  23.553   1.055  1.00  0.00    -0.000 C 
BRANCH  14  15
ATOM     15  C   UNL     1      37.703  23.919   2.401  1.00  0.00    -0.003 C 
ATOM     16  C   UNL     1      39.222  23.782   2.350  1.00  0.00     0.004 C 
ENDBRANCH  14  15
ENDBRANCH  13  14
ENDBRANCH  12  13
ENDBRANCH  11  12
ENDBRANCH  10  11
ENDBRANCH   1  10
TORSDOF 12
ENDMDL
MODEL 4
REMARK VINA RESULT:    -3.894      1.286      3.574
REMARK INTER + INTRA:          -8.188
REMARK INTER:                  -6.726
REMARK INTRA:                  -1.462
REMARK UNBOUND:                -1.563
REMARK SMILES CCCCCCCCCCCCCC(=O)[O-]
REMARK SMILES IDX 8 1 9 2 10 3 11 4 12 5 13 6 14 7 15 8 16 9 7 10 6 11 5 12
REMARK SMILES IDX 4 13 3 14 2 15 1 16
REMARK H PARENT
REMARK Flexibility Score: inf
ROOT
ATOM      1  C   UNL     1      35.682  20.682   2.719  1.00  0.00     0.000 C 
ENDROOT
BRANCH   1   2
ATOM      2  C   UNL     1      36.416  20.210   3.983  1.00  0.00     0.000 C 
BRANCH   2   3
ATOM      3  C   UNL     1      37.747  20.945   4.205  1.00  0.00     0.000 C 
BRANCH   3   4
ATOM      4  C   UNL     1      38.901  19.991   4.548  1.00  0.00     0.000 C 
BRANCH   4   5
ATOM      5  C   UNL     1      39.290  20.110   6.029  1.00  0.00     0.006 C 
BRANCH   5   6
ATOM      6  C   UNL     1      38.492  19.149   6.919  1.00  0.00     0.053 C 
BRANCH   6   7
ATOM      7  C   UNL     1      37.461  19.872   7.733  1.00  0.00     0.041 C 
ATOM      8  O   UNL     1      36.668  19.227   8.468  1.00  0.00    -0.550 OA
ATOM      9  O   UNL     1      37.399  21.259   7.702  1.00  0.00    -0.550 OA
ENDBRANCH   6   7
ENDBRANCH   5   6
ENDBRANCH   4   5
ENDBRANCH   3   4
ENDBRANCH   2   3
ENDBRANCH   1   2
BRANCH   1  10
ATOM     10  C   UNL     1      36.657  21.330   1.728  1.00  0.00     0.000 C 
BRANCH  10  11
ATOM     11  C   UNL     1      36.119  22.675   1.226  1.00  0.00    -0.000 C 
BRANCH  11  12
ATOM     12  C   UNL     1      37.248  23.703   1.091  1.00  0.00    -0.000 C 
BRANCH  12  13
ATOM     13  C   UNL     1      37.781  24.119   2.467  1.00  0.00    -0.000 C 
BRANCH  13  14
ATOM     14  C   UNL     1      39.264  24.502   2.390  1.00  0.00    -0.000 C 
BRANCH  14  15
ATOM     15  C   UNL     1      40.156  23.257   2.437  1.00  0.00    -0.003 C 
ATOM     16  C   UNL     1      40.873  23.142   3.779  1.00  0.00     0.004 C 
ENDBRANCH  14  15
ENDBRANCH  13  14
ENDBRANCH  12  13
ENDBRANCH  11  12
ENDBRANCH  10  11
ENDBRANCH   1  10
TORSDOF 12
ENDMDL
MODEL 5
REMARK VINA RESULT:    -3.848      1.325      1.879
REMARK INTER + INTRA:          -8.111
REMARK INTER:                  -6.931
REMARK INTRA:                  -1.180
REMARK UNBOUND:                -1.563
REMARK SMILES CCCCCCCCCCCCCC(=O)[O-]
REMARK SMILES IDX 8 1 9 2 10 3 11 4 12 5 13 6 14 7 15 8 16 9 7 10 6 11 5 12
REMARK SMILES IDX 4 13 3 14 2 15 1 16
REMARK H PARENT
REMARK Flexibility Score: inf
ROOT
ATOM      1  C   UNL     1      38.717  22.067   4.479  1.00  0.00     0.000 C 
ENDROOT
BRANCH   1   2
ATOM      2  C   UNL     1      40.071  21.713   5.110  1.00  0.00     0.000 C 
BRANCH   2   3
ATOM      3  C   UNL     1      40.167  22.132   6.585  1.00  0.00     0.000 C 
BRANCH   3   4
ATOM      4  C   UNL     1      40.449  20.947   7.520  1.00  0.00     0.000 C 
BRANCH   4   5
ATOM      5  C   UNL     1      40.016  19.623   6.873  1.00  0.00     0.006 C 
BRANCH   5   6
ATOM      6  C   UNL     1      38.846  18.967   7.619  1.00  0.00     0.053 C 
BRANCH   6   7
ATOM      7  C   UNL     1      37.549  19.662   7.336  1.00  0.00     0.041 C 
ATOM      8  O   UNL     1      37.028  19.589   6.192  1.00  0.00    -0.550 OA
ATOM      9  O   UNL     1      36.900  20.362   8.345  1.00  0.00    -0.550 OA
ENDBRANCH   6   7
ENDBRANCH   5   6
ENDBRANCH   4   5
ENDBRANCH   3   4
ENDBRANCH   2   3
ENDBRANCH   1   2
BRANCH   1  10
ATOM     10  C   UNL     1      38.838  22.205   2.956  1.00  0.00     0.000 C 
BRANCH  10  11
ATOM     11  C   UNL     1      38.468  23.621   2.500  1.00  0.00    -0.000 C 
BRANCH  11  12
ATOM     12  C   UNL     1      37.166  23.615   1.690  1.00  0.00    -0.000 C 
BRANCH  12  13
ATOM     13  C   UNL     1      36.732  22.182   1.356  1.00  0.00    -0.000 C 
BRANCH  13  14
ATOM     14  C   UNL     1      35.214  22.099   1.155  1.00  0.00    -0.000 C 
BRANCH  14  15
ATOM     15  C   UNL     1      34.595  21.044   2.079  1.00  0.00    -0.003 C 
ATOM     16  C   UNL     1      35.656  20.389   2.958  1.00  0.00     0.004 C 
ENDBRANCH  14  15
ENDBRANCH  13  14
ENDBRANCH  12  13
ENDBRANCH  11  12
ENDBRANCH  10  11
ENDBRANCH   1  10
TORSDOF 12
ENDMDL
MODEL 6
REMARK VINA RESULT:    -3.800      1.964      3.729
REMARK INTER + INTRA:          -8.030
REMARK INTER:                  -7.185
REMARK INTRA:                  -0.845
REMARK UNBOUND:                -1.563
REMARK SMILES CCCCCCCCCCCCCC(=O)[O-]
REMARK SMILES IDX 8 1 9 2 10 3 11 4 12 5 13 6 14 7 15 8 16 9 7 10 6 11 5 12
REMARK SMILES IDX 4 13 3 14 2 15 1 16
REMARK H PARENT
REMARK Flexibility Score: inf
ROOT
ATOM      1  C   UNL     1      35.955  20.834   3.013  1.00  0.00     0.000 C 
ENDROOT
BRANCH   1   2
ATOM      2  C   UNL     1      36.842  20.229   4.110  1.00  0.00     0.000 C 
BRANCH   2   3
ATOM      3  C   UNL     1      38.203  20.933   4.228  1.00  0.00     0.000 C 
BRANCH   3   4
ATOM      4  C   UNL     1      39.307  20.002   4.752  1.00  0.00     0.000 C 
BRANCH   4   5
ATOM      5  C   UNL     1      39.538  20.218   6.255  1.00  0.00     0.006 C 
BRANCH   5   6
ATOM      6  C   UNL     1      38.727  19.239   7.114  1.00  0.00     0.053 C 
BRANCH   6   7
ATOM      7  C   UNL     1      37.536  19.904   7.737  1.00  0.00     0.041 C 
ATOM      8  O   UNL     1      36.669  19.216   8.337  1.00  0.00    -0.550 OA
ATOM      9  O   UNL     1      37.403  21.285   7.682  1.00  0.00    -0.550 OA
ENDBRANCH   6   7
ENDBRANCH   5   6
ENDBRANCH   4   5
ENDBRANCH   3   4
ENDBRANCH   2   3
ENDBRANCH   1   2
BRANCH   1  10
ATOM     10  C   UNL     1      36.789  21.225   1.786  1.00  0.00     0.000 C 
BRANCH  10  11
ATOM     11  C   UNL     1      36.603  22.707   1.443  1.00  0.00    -0.000 C 
BRANCH  11  12
ATOM     12  C   UNL     1      37.952  23.435   1.400  1.00  0.00    -0.000 C 
BRANCH  12  13
ATOM     13  C   UNL     1      37.939  24.674   2.303  1.00  0.00    -0.000 C 
BRANCH  13  14
ATOM     14  C   UNL     1      37.526  25.924   1.517  1.00  0.00    -0.000 C 
BRANCH  14  15
ATOM     15  C   UNL     1      37.696  27.188   2.367  1.00  0.00    -0.003 C 
ATOM     16  C   UNL     1      36.492  28.115   2.225  1.00  0.00     0.004 C 
ENDBRANCH  14  15
ENDBRANCH  13  14
ENDBRANCH  12  13
ENDBRANCH  11  12
ENDBRANCH  10  11
ENDBRANCH   1  10
TORSDOF 12
ENDMDL
MODEL 7
REMARK VINA RESULT:    -3.753      3.555      6.137
REMARK INTER + INTRA:          -7.949
REMARK INTER:                  -6.507
REMARK INTRA:                  -1.442
REMARK UNBOUND:                -1.563
REMARK SMILES CCCCCCCCCCCCCC(=O)[O-]
REMARK SMILES IDX 8 1 9 2 10 3 11 4 12 5 13 6 14 7 15 8 16 9 7 10 6 11 5 12
REMARK SMILES IDX 4 13 3 14 2 15 1 16
REMARK H PARENT
REMARK Flexibility Score: inf
ROOT
ATOM      1  C   UNL     1      36.266  20.295   4.157  1.00  0.00     0.000 C 
ENDROOT
BRANCH   1   2
ATOM      2  C   UNL     1      35.785  20.419   2.704  1.00  0.00     0.000 C 
BRANCH   2   3
ATOM      3  C   UNL     1      35.989  21.830   2.130  1.00  0.00     0.000 C 
BRANCH   3   4
ATOM      4  C   UNL     1      37.029  21.865   1.001  1.00  0.00     0.000 C 
BRANCH   4   5
ATOM      5  C   UNL     1      38.142  22.877   1.312  1.00  0.00     0.006 C 
BRANCH   5   6
ATOM      6  C   UNL     1      37.745  23.854   2.426  1.00  0.00     0.053 C 
BRANCH   6   7
ATOM      7  C   UNL     1      37.919  25.281   2.002  1.00  0.00     0.041 C 
ATOM      8  O   UNL     1      37.020  25.857   1.334  1.00  0.00    -0.550 OA
ATOM      9  O   UNL     1      39.059  25.982   2.372  1.00  0.00    -0.550 OA
ENDBRANCH   6   7
ENDBRANCH   5   6
ENDBRANCH   4   5
ENDBRANCH   3   4
ENDBRANCH   2   3
ENDBRANCH   1   2
BRANCH   1  10
ATOM     10  C   UNL     1      37.789  20.454   4.247  1.00  0.00     0.000 C 
BRANCH  10  11
ATOM     11  C   UNL     1      38.166  21.660   5.116  1.00  0.00    -0.000 C 
BRANCH  11  12
ATOM     12  C   UNL     1      39.570  21.492   5.709  1.00  0.00    -0.000 C 
BRANCH  12  13
ATOM     13  C   UNL     1      39.897  20.012   5.940  1.00  0.00    -0.000 C 
BRANCH  13  14
ATOM     14  C   UNL     1      39.686  19.624   7.409  1.00  0.00    -0.000 C 
BRANCH  14  15
ATOM     15  C   UNL     1      38.490  18.677   7.560  1.00  0.00    -0.003 C 
ATOM     16  C   UNL     1      37.220  19.445   7.916  1.00  0.00     0.004 C 
ENDBRANCH  14  15
ENDBRANCH  13  14
ENDBRANCH  12  13
ENDBRANCH  11  12
ENDBRANCH  10  11
ENDBRANCH   1  10
TORSDOF 12
ENDMDL
MODEL 8
REMARK VINA RESULT:    -3.593      2.366      4.832
REMARK INTER + INTRA:          -7.678
REMARK INTER:                  -6.265
REMARK INTRA:                  -1.413
REMARK UNBOUND:                -1.563
REMARK SMILES CCCCCCCCCCCCCC(=O)[O-]
REMARK SMILES IDX 8 1 9 2 10 3 11 4 12 5 13 6 14 7 15 8 16 9 7 10 6 11 5 12
REMARK SMILES IDX 4 13 3 14 2 15 1 16
REMARK H PARENT
REMARK Flexibility Score: inf
ROOT
ATOM      1  C   UNL     1      40.055  20.611   3.865  1.00  0.00     0.000 C 
ENDROOT
BRANCH   1   2
ATOM      2  C   UNL     1      40.363  20.871   2.383  1.00  0.00     0.000 C 
BRANCH   2   3
ATOM      3  C   UNL     1      39.095  21.083   1.542  1.00  0.00     0.000 C 
BRANCH   3   4
ATOM      4  C   UNL     1      38.522  22.501   1.682  1.00  0.00     0.000 C 
BRANCH   4   5
ATOM      5  C   UNL     1      37.286  22.506   2.595  1.00  0.00     0.006 C 
BRANCH   5   6
ATOM      6  C   UNL     1      36.085  21.800   1.952  1.00  0.00     0.053 C 
BRANCH   6   7
ATOM      7  C   UNL     1      35.746  20.524   2.661  1.00  0.00     0.041 C 
ATOM      8  O   UNL     1      36.130  20.337   3.846  1.00  0.00    -0.550 OA
ATOM      9  O   UNL     1      34.979  19.557   2.024  1.00  0.00    -0.550 OA
ENDBRANCH   6   7
ENDBRANCH   5   6
ENDBRANCH   4   5
ENDBRANCH   3   4
ENDBRANCH   2   3
ENDBRANCH   1   2
BRANCH   1  10
ATOM     10  C   UNL     1      40.950  21.467   4.771  1.00  0.00     0.000 C 
BRANCH  10  11
ATOM     11  C   UNL     1      40.113  22.262   5.779  1.00  0.00    -0.000 C 
BRANCH  11  12
ATOM     12  C   UNL     1      38.650  21.803   5.763  1.00  0.00    -0.000 C 
BRANCH  12  13
ATOM     13  C   UNL     1      38.192  21.369   7.160  1.00  0.00    -0.000 C 
BRANCH  13  14
ATOM     14  C   UNL     1      37.594  19.958   7.131  1.00  0.00    -0.000 C 
BRANCH  14  15
ATOM     15  C   UNL     1      38.692  18.898   6.985  1.00  0.00    -0.003 C 
ATOM     16  C   UNL     1      39.930  19.270   7.797  1.00  0.00     0.004 C 
ENDBRANCH  14  15
ENDBRANCH  13  14
ENDBRANCH  12  13
ENDBRANCH  11  12
ENDBRANCH  10  11
ENDBRANCH   1  10
TORSDOF 12
ENDMDL
MODEL 9
REMARK VINA RESULT:    -3.556      1.563      3.066
REMARK INTER + INTRA:          -7.614
REMARK INTER:                  -6.298
REMARK INTRA:                  -1.316
REMARK UNBOUND:                -1.563
REMARK SMILES CCCCCCCCCCCCCC(=O)[O-]
REMARK SMILES IDX 8 1 9 2 10 3 11 4 12 5 13 6 14 7 15 8 16 9 7 10 6 11 5 12
REMARK SMILES IDX 4 13 3 14 2 15 1 16
REMARK H PARENT
REMARK Flexibility Score: inf
ROOT
ATOM      1  C   UNL     1      39.388  20.519   4.080  1.00  0.00     0.000 C 
ENDROOT
BRANCH   1   2
ATOM      2  C   UNL     1      39.758  21.903   4.632  1.00  0.00     0.000 C 
BRANCH   2   3
ATOM      3  C   UNL     1      40.441  21.830   6.007  1.00  0.00     0.000 C 
BRANCH   3   4
ATOM      4  C   UNL     1      40.832  20.397   6.398  1.00  0.00     0.000 C 
BRANCH   4   5
ATOM      5  C   UNL     1      40.081  19.949   7.661  1.00  0.00     0.006 C 
BRANCH   5   6
ATOM      6  C   UNL     1      38.827  19.130   7.331  1.00  0.00     0.053 C 
BRANCH   6   7
ATOM      7  C   UNL     1      37.573  19.852   7.722  1.00  0.00     0.041 C 
ATOM      8  O   UNL     1      36.682  19.260   8.386  1.00  0.00    -0.550 OA
ATOM      9  O   UNL     1      37.406  21.188   7.382  1.00  0.00    -0.550 OA
ENDBRANCH   6   7
ENDBRANCH   5   6
ENDBRANCH   4   5
ENDBRANCH   3   4
ENDBRANCH   2   3
ENDBRANCH   1   2
BRANCH   1  10
ATOM     10  C   UNL     1      37.868  20.374   3.933  1.00  0.00     0.000 C 
BRANCH  10  11
ATOM     11  C   UNL     1      37.233  21.686   3.459  1.00  0.00    -0.000 C 
BRANCH  11  12
ATOM     12  C   UNL     1      36.986  21.662   1.946  1.00  0.00    -0.000 C 
BRANCH  12  13
ATOM     13  C   UNL     1      37.249  23.039   1.323  1.00  0.00    -0.000 C 
BRANCH  13  14
ATOM     14  C   UNL     1      37.740  24.036   2.379  1.00  0.00    -0.000 C 
BRANCH  14  15
ATOM     15  C   UNL     1      37.706  25.470   1.838  1.00  0.00    -0.003 C 
ATOM     16  C   UNL     1      38.704  26.361   2.573  1.00  0.00     0.004 C 
ENDBRANCH  14  15
ENDBRANCH  13  14
ENDBRANCH  12  13
ENDBRANCH  11  12
ENDBRANCH  10  11
ENDBRANCH   1  10
TORSDOF 12
ENDMDL
