MODEL 1
REMARK VINA RESULT:    -6.317      0.000      0.000
REMARK INTER + INTRA:          -7.969
REMARK INTER:                  -7.610
REMARK INTRA:                  -0.359
REMARK UNBOUND:                -0.359
REMARK SMILES O=c1c(O)c(-c2ccc(O)cc2O)oc2cc(O)cc(O)c12
REMARK SMILES IDX 5 1 3 2 2 3 1 4 22 5 20 6 19 7 17 8 16 9 15 10 14 11 6 12
REMARK SMILES IDX 8 13 7 14 9 15 11 16 12 17 10 18 13 20 4 22 21 24 18 26
REMARK H PARENT 10 19 13 21 4 23 21 25 18 27
REMARK Flexibility Score: inf
ROOT
ATOM      1  C   UNL     1      15.429  -7.392 -32.283  1.00  0.00     0.184 A 
ATOM      2  C   UNL     1      14.845  -7.238 -33.550  1.00  0.00     0.208 A 
ATOM      3  C   UNL     1      15.679  -7.109 -34.672  1.00  0.00     0.238 A 
ATOM      4  O   UNL     1      15.150  -6.909 -35.797  1.00  0.00    -0.285 OA
ATOM      5  C   UNL     1      17.085  -7.165 -34.515  1.00  0.00     0.111 A 
ATOM      6  C   UNL     1      18.024  -7.086 -35.586  1.00  0.00     0.134 A 
ATOM      7  C   UNL     1      19.395  -7.030 -35.300  1.00  0.00     0.093 A 
ATOM      8  C   UNL     1      19.861  -7.115 -33.990  1.00  0.00     0.123 A 
ATOM      9  C   UNL     1      18.954  -7.252 -32.937  1.00  0.00     0.094 A 
ATOM     10  C   UNL     1      17.580  -7.273 -33.188  1.00  0.00     0.146 A 
ATOM     11  O   UNL     1      16.749  -7.390 -32.158  1.00  0.00    -0.451 OA
ENDROOT
BRANCH   1  12
ATOM     12  C   UNL     1      14.601  -7.555 -31.069  1.00  0.00     0.063 A 
ATOM     13  C   UNL     1      13.023  -6.600 -29.479  1.00  0.00     0.047 A 
ATOM     14  C   UNL     1      13.857  -6.461 -30.591  1.00  0.00     0.020 A 
ATOM     15  C   UNL     1      12.915  -7.833 -28.833  1.00  0.00     0.119 A 
ATOM     16  C   UNL     1      13.650  -8.931 -29.301  1.00  0.00     0.093 A 
ATOM     17  C   UNL     1      14.497  -8.801 -30.408  1.00  0.00     0.130 A 
BRANCH  15  18
ATOM     18  O   UNL     1      12.077  -7.959 -27.729  1.00  0.00    -0.508 OA
ATOM     19  H   UNL     1      12.398  -7.747 -26.791  1.00  0.00     0.293 HD
ENDBRANCH  15  18
BRANCH  17  20
ATOM     20  O   UNL     1      15.234  -9.918 -30.809  1.00  0.00    -0.507 OA
ATOM     21  H   UNL     1      15.379 -10.164 -31.780  1.00  0.00     0.293 HD
ENDBRANCH  17  20
ENDBRANCH   1  12
BRANCH   2  22
ATOM     22  O   UNL     1      13.454  -7.189 -33.676  1.00  0.00    -0.502 OA
ATOM     23  H   UNL     1      12.837  -7.179 -32.873  1.00  0.00     0.293 HD
ENDBRANCH   2  22
BRANCH   6  24
ATOM     24  O   UNL     1      17.670  -7.086 -36.938  1.00  0.00    -0.507 OA
ATOM     25  H   UNL     1      16.837  -7.511 -37.315  1.00  0.00     0.293 HD
ENDBRANCH   6  24
BRANCH   8  26
ATOM     26  O   UNL     1      21.232  -7.072 -33.743  1.00  0.00    -0.508 OA
ATOM     27  H   UNL     1      21.836  -7.854 -33.968  1.00  0.00     0.293 HD
ENDBRANCH   8  26
TORSDOF 6
ENDMDL
MODEL 2
REMARK VINA RESULT:    -6.270      1.904      6.765
REMARK INTER + INTRA:          -7.911
REMARK INTER:                  -7.509
REMARK INTRA:                  -0.402
REMARK UNBOUND:                -0.359
REMARK SMILES O=c1c(O)c(-c2ccc(O)cc2O)oc2cc(O)cc(O)c12
REMARK SMILES IDX 5 1 3 2 2 3 1 4 22 5 20 6 19 7 17 8 16 9 15 10 14 11 6 12
REMARK SMILES IDX 8 13 7 14 9 15 11 16 12 17 10 18 13 20 4 22 21 24 18 26
REMARK H PARENT 10 19 13 21 4 23 21 25 18 27
REMARK Flexibility Score: inf
ROOT
ATOM      1  C   UNL     1      16.829  -6.774 -32.338  1.00  0.00     0.184 A 
ATOM      2  C   UNL     1      16.275  -5.538 -31.971  1.00  0.00     0.208 A 
ATOM      3  C   UNL     1      15.198  -5.515 -31.072  1.00  0.00     0.238 A 
ATOM      4  O   UNL     1      14.666  -4.408 -30.795  1.00  0.00    -0.285 OA
ATOM      5  C   UNL     1      14.707  -6.728 -30.529  1.00  0.00     0.111 A 
ATOM      6  C   UNL     1      13.646  -6.820 -29.579  1.00  0.00     0.134 A 
ATOM      7  C   UNL     1      13.163  -8.081 -29.204  1.00  0.00     0.093 A 
ATOM      8  C   UNL     1      13.744  -9.249 -29.693  1.00  0.00     0.123 A 
ATOM      9  C   UNL     1      14.820  -9.171 -30.578  1.00  0.00     0.094 A 
ATOM     10  C   UNL     1      15.300  -7.929 -31.000  1.00  0.00     0.146 A 
ATOM     11  O   UNL     1      16.317  -7.899 -31.854  1.00  0.00    -0.451 OA
ENDROOT
BRANCH   1  12
ATOM     12  C   UNL     1      17.979  -6.859 -33.263  1.00  0.00     0.063 A 
ATOM     13  C   UNL     1      18.809  -7.000 -35.548  1.00  0.00     0.047 A 
ATOM     14  C   UNL     1      17.743  -6.974 -34.646  1.00  0.00     0.020 A 
ATOM     15  C   UNL     1      20.123  -6.905 -35.085  1.00  0.00     0.119 A 
ATOM     16  C   UNL     1      20.370  -6.788 -33.711  1.00  0.00     0.093 A 
ATOM     17  C   UNL     1      19.311  -6.771 -32.796  1.00  0.00     0.130 A 
BRANCH  15  18
ATOM     18  O   UNL     1      21.175  -6.927 -35.997  1.00  0.00    -0.508 OA
ATOM     19  H   UNL     1      21.330  -6.165 -36.647  1.00  0.00     0.293 HD
ENDBRANCH  15  18
BRANCH  17  20
ATOM     20  O   UNL     1      19.616  -6.691 -31.435  1.00  0.00    -0.507 OA
ATOM     21  H   UNL     1      20.532  -6.905 -31.061  1.00  0.00     0.293 HD
ENDBRANCH  17  20
ENDBRANCH   1  12
BRANCH   2  22
ATOM     22  O   UNL     1      16.781  -4.357 -32.521  1.00  0.00    -0.502 OA
ATOM     23  H   UNL     1      16.182  -3.593 -32.812  1.00  0.00     0.293 HD
ENDBRANCH   2  22
BRANCH   6  24
ATOM     24  O   UNL     1      13.055  -5.716 -28.959  1.00  0.00    -0.507 OA
ATOM     25  H   UNL     1      12.827  -5.660 -27.978  1.00  0.00     0.293 HD
ENDBRANCH   6  24
BRANCH   8  26
ATOM     26  O   UNL     1      13.248 -10.486 -29.286  1.00  0.00    -0.508 OA
ATOM     27  H   UNL     1      13.354 -11.314 -29.860  1.00  0.00     0.293 HD
ENDBRANCH   8  26
TORSDOF 6
ENDMDL
MODEL 3
REMARK VINA RESULT:    -6.101      1.074      1.611
REMARK INTER + INTRA:          -7.708
REMARK INTER:                  -7.410
REMARK INTRA:                  -0.298
REMARK UNBOUND:                -0.359
REMARK SMILES O=c1c(O)c(-c2ccc(O)cc2O)oc2cc(O)cc(O)c12
REMARK SMILES IDX 5 1 3 2 2 3 1 4 22 5 20 6 19 7 17 8 16 9 15 10 14 11 6 12
REMARK SMILES IDX 8 13 7 14 9 15 11 16 12 17 10 18 13 20 4 22 21 24 18 26
REMARK H PARENT 10 19 13 21 4 23 21 25 18 27
REMARK Flexibility Score: inf
ROOT
ATOM      1  C   UNL     1      15.654  -7.343 -32.425  1.00  0.00     0.184 A 
ATOM      2  C   UNL     1      15.042  -6.724 -33.525  1.00  0.00     0.208 A 
ATOM      3  C   UNL     1      15.840  -6.299 -34.598  1.00  0.00     0.238 A 
ATOM      4  O   UNL     1      15.292  -5.690 -35.553  1.00  0.00    -0.285 OA
ATOM      5  C   UNL     1      17.238  -6.524 -34.569  1.00  0.00     0.111 A 
ATOM      6  C   UNL     1      18.138  -6.171 -35.618  1.00  0.00     0.134 A 
ATOM      7  C   UNL     1      19.517  -6.331 -35.428  1.00  0.00     0.093 A 
ATOM      8  C   UNL     1      20.022  -6.890 -34.256  1.00  0.00     0.123 A 
ATOM      9  C   UNL     1      19.147  -7.293 -33.245  1.00  0.00     0.094 A 
ATOM     10  C   UNL     1      17.770  -7.112 -33.390  1.00  0.00     0.146 A 
ATOM     11  O   UNL     1      16.972  -7.495 -32.400  1.00  0.00    -0.451 OA
ENDROOT
BRANCH   1  12
ATOM     12  C   UNL     1      14.862  -7.832 -31.276  1.00  0.00     0.063 A 
ATOM     13  C   UNL     1      14.137  -9.696 -29.887  1.00  0.00     0.047 A 
ATOM     14  C   UNL     1      14.831  -9.211 -30.998  1.00  0.00     0.020 A 
ATOM     15  C   UNL     1      13.471  -8.812 -29.035  1.00  0.00     0.119 A 
ATOM     16  C   UNL     1      13.497  -7.437 -29.300  1.00  0.00     0.093 A 
ATOM     17  C   UNL     1      14.181  -6.940 -30.416  1.00  0.00     0.130 A 
BRANCH  15  18
ATOM     18  O   UNL     1      12.788  -9.309 -27.928  1.00  0.00    -0.508 OA
ATOM     19  H   UNL     1      13.220  -9.351 -27.012  1.00  0.00     0.293 HD
ENDBRANCH  15  18
BRANCH  17  20
ATOM     20  O   UNL     1      14.143  -5.563 -30.653  1.00  0.00    -0.507 OA
ATOM     21  H   UNL     1      14.492  -5.140 -31.503  1.00  0.00     0.293 HD
ENDBRANCH  17  20
ENDBRANCH   1  12
BRANCH   2  22
ATOM     22  O   UNL     1      13.659  -6.518 -33.528  1.00  0.00    -0.502 OA
ATOM     23  H   UNL     1      13.044  -6.955 -32.852  1.00  0.00     0.293 HD
ENDBRANCH   2  22
BRANCH   6  24
ATOM     24  O   UNL     1      17.733  -5.688 -36.866  1.00  0.00    -0.507 OA
ATOM     25  H   UNL     1      16.909  -5.129 -37.027  1.00  0.00     0.293 HD
ENDBRANCH   6  24
BRANCH   8  26
ATOM     26  O   UNL     1      21.399  -7.048 -34.107  1.00  0.00    -0.508 OA
ATOM     27  H   UNL     1      21.825  -7.967 -34.066  1.00  0.00     0.293 HD
ENDBRANCH   8  26
TORSDOF 6
ENDMDL
MODEL 4
REMARK VINA RESULT:    -5.984      2.433      7.191
REMARK INTER + INTRA:          -7.568
REMARK INTER:                  -7.163
REMARK INTRA:                  -0.404
REMARK UNBOUND:                -0.359
REMARK SMILES O=c1c(O)c(-c2ccc(O)cc2O)oc2cc(O)cc(O)c12
REMARK SMILES IDX 5 1 3 2 2 3 1 4 22 5 20 6 19 7 17 8 16 9 15 10 14 11 6 12
REMARK SMILES IDX 8 13 7 14 9 15 11 16 12 17 10 18 13 20 4 22 21 24 18 26
REMARK H PARENT 10 19 13 21 4 23 21 25 18 27
REMARK Flexibility Score: inf
ROOT
ATOM      1  C   UNL     1      17.148  -5.779 -31.967  1.00  0.00     0.184 A 
ATOM      2  C   UNL     1      17.182  -4.940 -30.843  1.00  0.00     0.208 A 
ATOM      3  C   UNL     1      16.023  -4.799 -30.063  1.00  0.00     0.238 A 
ATOM      4  O   UNL     1      16.043  -3.999 -29.092  1.00  0.00    -0.285 OA
ATOM      5  C   UNL     1      14.853  -5.522 -30.403  1.00  0.00     0.111 A 
ATOM      6  C   UNL     1      13.635  -5.487 -29.662  1.00  0.00     0.134 A 
ATOM      7  C   UNL     1      12.504  -6.147 -30.160  1.00  0.00     0.093 A 
ATOM      8  C   UNL     1      12.566  -6.893 -31.336  1.00  0.00     0.123 A 
ATOM      9  C   UNL     1      13.768  -6.982 -32.039  1.00  0.00     0.094 A 
ATOM     10  C   UNL     1      14.903  -6.305 -31.587  1.00  0.00     0.146 A 
ATOM     11  O   UNL     1      16.024  -6.404 -32.293  1.00  0.00    -0.451 OA
ENDROOT
BRANCH   1  12
ATOM     12  C   UNL     1      18.343  -5.983 -32.812  1.00  0.00     0.063 A 
ATOM     13  C   UNL     1      20.256  -7.363 -33.418  1.00  0.00     0.047 A 
ATOM     14  C   UNL     1      19.152  -7.115 -32.599  1.00  0.00     0.020 A 
ATOM     15  C   UNL     1      20.564  -6.491 -34.464  1.00  0.00     0.119 A 
ATOM     16  C   UNL     1      19.765  -5.362 -34.688  1.00  0.00     0.093 A 
ATOM     17  C   UNL     1      18.662  -5.097 -33.867  1.00  0.00     0.130 A 
BRANCH  15  18
ATOM     18  O   UNL     1      21.664  -6.754 -35.276  1.00  0.00    -0.508 OA
ATOM     19  H   UNL     1      21.850  -7.685 -35.634  1.00  0.00     0.293 HD
ENDBRANCH  15  18
BRANCH  17  20
ATOM     20  O   UNL     1      17.922  -3.937 -34.112  1.00  0.00    -0.507 OA
ATOM     21  H   UNL     1      17.058  -3.934 -34.638  1.00  0.00     0.293 HD
ENDBRANCH  17  20
ENDBRANCH   1  12
BRANCH   2  22
ATOM     22  O   UNL     1      18.351  -4.242 -30.529  1.00  0.00    -0.502 OA
ATOM     23  H   UNL     1      19.052  -4.016 -31.225  1.00  0.00     0.293 HD
ENDBRANCH   2  22
BRANCH   6  24
ATOM     24  O   UNL     1      13.489  -4.846 -28.428  1.00  0.00    -0.507 OA
ATOM     25  H   UNL     1      12.715  -4.250 -28.176  1.00  0.00     0.293 HD
ENDBRANCH   6  24
BRANCH   8  26
ATOM     26  O   UNL     1      11.425  -7.550 -31.794  1.00  0.00    -0.508 OA
ATOM     27  H   UNL     1      11.421  -8.549 -31.963  1.00  0.00     0.293 HD
ENDBRANCH   8  26
TORSDOF 6
ENDMDL
MODEL 5
REMARK VINA RESULT:    -5.757      2.291      6.531
REMARK INTER + INTRA:          -7.294
REMARK INTER:                  -7.021
REMARK INTRA:                  -0.272
REMARK UNBOUND:                -0.359
REMARK SMILES O=c1c(O)c(-c2ccc(O)cc2O)oc2cc(O)cc(O)c12
REMARK SMILES IDX 5 1 3 2 2 3 1 4 22 5 20 6 19 7 17 8 16 9 15 10 14 11 6 12
REMARK SMILES IDX 8 13 7 14 9 15 11 16 12 17 10 18 13 20 4 22 21 24 18 26
REMARK H PARENT 10 19 13 21 4 23 21 25 18 27
REMARK Flexibility Score: inf
ROOT
ATOM      1  C   UNL     1      16.125  -7.069 -33.199  1.00  0.00     0.184 A 
ATOM      2  C   UNL     1      15.560  -6.039 -32.432  1.00  0.00     0.208 A 
ATOM      3  C   UNL     1      14.194  -6.099 -32.113  1.00  0.00     0.238 A 
ATOM      4  O   UNL     1      13.681  -5.142 -31.477  1.00  0.00    -0.285 OA
ATOM      5  C   UNL     1      13.418  -7.203 -32.543  1.00  0.00     0.111 A 
ATOM      6  C   UNL     1      12.035  -7.387 -32.245  1.00  0.00     0.134 A 
ATOM      7  C   UNL     1      11.339  -8.456 -32.826  1.00  0.00     0.093 A 
ATOM      8  C   UNL     1      11.990  -9.381 -33.640  1.00  0.00     0.123 A 
ATOM      9  C   UNL     1      13.356  -9.244 -33.892  1.00  0.00     0.094 A 
ATOM     10  C   UNL     1      14.069  -8.168 -33.357  1.00  0.00     0.146 A 
ATOM     11  O   UNL     1      15.364  -8.065 -33.633  1.00  0.00    -0.451 OA
ENDROOT
BRANCH   1  12
ATOM     12  C   UNL     1      17.562  -7.071 -33.546  1.00  0.00     0.063 A 
ATOM     13  C   UNL     1      19.296  -6.858 -35.242  1.00  0.00     0.047 A 
ATOM     14  C   UNL     1      17.946  -6.915 -34.891  1.00  0.00     0.020 A 
ATOM     15  C   UNL     1      20.282  -6.947 -34.257  1.00  0.00     0.119 A 
ATOM     16  C   UNL     1      19.912  -7.099 -32.914  1.00  0.00     0.093 A 
ATOM     17  C   UNL     1      18.562  -7.169 -32.551  1.00  0.00     0.130 A 
BRANCH  15  18
ATOM     18  O   UNL     1      21.625  -6.882 -34.621  1.00  0.00    -0.508 OA
ATOM     19  H   UNL     1      22.058  -6.009 -34.899  1.00  0.00     0.293 HD
ENDBRANCH  15  18
BRANCH  17  20
ATOM     20  O   UNL     1      18.251  -7.359 -31.203  1.00  0.00    -0.507 OA
ATOM     21  H   UNL     1      18.916  -7.712 -30.527  1.00  0.00     0.293 HD
ENDBRANCH  17  20
ENDBRANCH   1  12
BRANCH   2  22
ATOM     22  O   UNL     1      16.350  -4.963 -32.018  1.00  0.00    -0.502 OA
ATOM     23  H   UNL     1      16.775  -4.924 -31.099  1.00  0.00     0.293 HD
ENDBRANCH   2  22
BRANCH   6  24
ATOM     24  O   UNL     1      11.309  -6.573 -31.371  1.00  0.00    -0.507 OA
ATOM     25  H   UNL     1      11.647  -5.711 -30.971  1.00  0.00     0.293 HD
ENDBRANCH   6  24
BRANCH   8  26
ATOM     26  O   UNL     1      11.270 -10.440 -34.188  1.00  0.00    -0.508 OA
ATOM     27  H   UNL     1      11.733 -11.207 -34.662  1.00  0.00     0.293 HD
ENDBRANCH   8  26
TORSDOF 6
ENDMDL
MODEL 6
REMARK VINA RESULT:    -5.631      1.563      3.258
REMARK INTER + INTRA:          -7.142
REMARK INTER:                  -6.772
REMARK INTRA:                  -0.370
REMARK UNBOUND:                -0.359
REMARK SMILES O=c1c(O)c(-c2ccc(O)cc2O)oc2cc(O)cc(O)c12
REMARK SMILES IDX 5 1 3 2 2 3 1 4 22 5 20 6 19 7 17 8 16 9 15 10 14 11 6 12
REMARK SMILES IDX 8 13 7 14 9 15 11 16 12 17 10 18 13 20 4 22 21 24 18 26
REMARK H PARENT 10 19 13 21 4 23 21 25 18 27
REMARK Flexibility Score: inf
ROOT
ATOM      1  C   UNL     1      16.146  -7.609 -32.343  1.00  0.00     0.184 A 
ATOM      2  C   UNL     1      17.494  -7.321 -32.081  1.00  0.00     0.208 A 
ATOM      3  C   UNL     1      18.321  -6.913 -33.139  1.00  0.00     0.238 A 
ATOM      4  O   UNL     1      19.543  -6.715 -32.909  1.00  0.00    -0.285 OA
ATOM      5  C   UNL     1      17.781  -6.772 -34.441  1.00  0.00     0.111 A 
ATOM      6  C   UNL     1      18.517  -6.328 -35.580  1.00  0.00     0.134 A 
ATOM      7  C   UNL     1      17.911  -6.343 -36.843  1.00  0.00     0.093 A 
ATOM      8  C   UNL     1      16.579  -6.724 -36.998  1.00  0.00     0.123 A 
ATOM      9  C   UNL     1      15.832  -7.106 -35.882  1.00  0.00     0.094 A 
ATOM     10  C   UNL     1      16.420  -7.136 -34.615  1.00  0.00     0.146 A 
ATOM     11  O   UNL     1      15.679  -7.518 -33.581  1.00  0.00    -0.451 OA
ENDROOT
BRANCH   1  12
ATOM     12  C   UNL     1      15.223  -8.021 -31.265  1.00  0.00     0.063 A 
ATOM     13  C   UNL     1      14.489  -9.725 -29.687  1.00  0.00     0.047 A 
ATOM     14  C   UNL     1      15.311  -9.325 -30.744  1.00  0.00     0.020 A 
ATOM     15  C   UNL     1      13.574  -8.828 -29.131  1.00  0.00     0.119 A 
ATOM     16  C   UNL     1      13.479  -7.526 -29.640  1.00  0.00     0.093 A 
ATOM     17  C   UNL     1      14.290  -7.117 -30.705  1.00  0.00     0.130 A 
BRANCH  15  18
ATOM     18  O   UNL     1      12.766  -9.238 -28.075  1.00  0.00    -0.508 OA
ATOM     19  H   UNL     1      12.342 -10.159 -28.057  1.00  0.00     0.293 HD
ENDBRANCH  15  18
BRANCH  17  20
ATOM     20  O   UNL     1      14.128  -5.820 -31.198  1.00  0.00    -0.507 OA
ATOM     21  H   UNL     1      13.225  -5.428 -31.434  1.00  0.00     0.293 HD
ENDBRANCH  17  20
ENDBRANCH   1  12
BRANCH   2  22
ATOM     22  O   UNL     1      17.999  -7.466 -30.786  1.00  0.00    -0.502 OA
ATOM     23  H   UNL     1      17.832  -8.295 -30.228  1.00  0.00     0.293 HD
ENDBRANCH   2  22
BRANCH   6  24
ATOM     24  O   UNL     1      19.826  -5.840 -35.523  1.00  0.00    -0.507 OA
ATOM     25  H   UNL     1      20.355  -5.708 -34.675  1.00  0.00     0.293 HD
ENDBRANCH   6  24
BRANCH   8  26
ATOM     26  O   UNL     1      16.004  -6.713 -38.267  1.00  0.00    -0.508 OA
ATOM     27  H   UNL     1      15.073  -7.077 -38.430  1.00  0.00     0.293 HD
ENDBRANCH   8  26
TORSDOF 6
ENDMDL
MODEL 7
REMARK VINA RESULT:    -5.623      2.854      7.034
REMARK INTER + INTRA:          -7.132
REMARK INTER:                  -6.778
REMARK INTRA:                  -0.354
REMARK UNBOUND:                -0.359
REMARK SMILES O=c1c(O)c(-c2ccc(O)cc2O)oc2cc(O)cc(O)c12
REMARK SMILES IDX 5 1 3 2 2 3 1 4 22 5 20 6 19 7 17 8 16 9 15 10 14 11 6 12
REMARK SMILES IDX 8 13 7 14 9 15 11 16 12 17 10 18 13 20 4 22 21 24 18 26
REMARK H PARENT 10 19 13 21 4 23 21 25 18 27
REMARK Flexibility Score: inf
ROOT
ATOM      1  C   UNL     1      17.196  -5.773 -31.675  1.00  0.00     0.184 A 
ATOM      2  C   UNL     1      16.099  -6.648 -31.666  1.00  0.00     0.208 A 
ATOM      3  C   UNL     1      15.030  -6.392 -30.793  1.00  0.00     0.238 A 
ATOM      4  O   UNL     1      14.079  -7.214 -30.746  1.00  0.00    -0.285 OA
ATOM      5  C   UNL     1      15.061  -5.246 -29.961  1.00  0.00     0.111 A 
ATOM      6  C   UNL     1      14.016  -4.866 -29.067  1.00  0.00     0.134 A 
ATOM      7  C   UNL     1      14.207  -3.779 -28.203  1.00  0.00     0.093 A 
ATOM      8  C   UNL     1      15.376  -3.022 -28.247  1.00  0.00     0.123 A 
ATOM      9  C   UNL     1      16.382  -3.349 -29.158  1.00  0.00     0.094 A 
ATOM     10  C   UNL     1      16.236  -4.449 -30.006  1.00  0.00     0.146 A 
ATOM     11  O   UNL     1      17.222  -4.736 -30.849  1.00  0.00    -0.451 OA
ENDROOT
BRANCH   1  12
ATOM     12  C   UNL     1      18.339  -5.981 -32.589  1.00  0.00     0.063 A 
ATOM     13  C   UNL     1      20.248  -7.333 -33.264  1.00  0.00     0.047 A 
ATOM     14  C   UNL     1      19.193  -7.081 -32.385  1.00  0.00     0.020 A 
ATOM     15  C   UNL     1      20.462  -6.498 -34.363  1.00  0.00     0.119 A 
ATOM     16  C   UNL     1      19.617  -5.401 -34.578  1.00  0.00     0.093 A 
ATOM     17  C   UNL     1      18.563  -5.131 -33.697  1.00  0.00     0.130 A 
BRANCH  15  18
ATOM     18  O   UNL     1      21.514  -6.765 -35.234  1.00  0.00    -0.508 OA
ATOM     19  H   UNL     1      22.474  -6.549 -34.990  1.00  0.00     0.293 HD
ENDBRANCH  15  18
BRANCH  17  20
ATOM     20  O   UNL     1      17.775  -4.003 -33.938  1.00  0.00    -0.507 OA
ATOM     21  H   UNL     1      16.766  -4.005 -33.853  1.00  0.00     0.293 HD
ENDBRANCH  17  20
ENDBRANCH   1  12
BRANCH   2  22
ATOM     22  O   UNL     1      16.095  -7.770 -32.500  1.00  0.00    -0.502 OA
ATOM     23  H   UNL     1      16.347  -7.718 -33.480  1.00  0.00     0.293 HD
ENDBRANCH   2  22
BRANCH   6  24
ATOM     24  O   UNL     1      12.771  -5.499 -29.005  1.00  0.00    -0.507 OA
ATOM     25  H   UNL     1      12.619  -6.486 -29.142  1.00  0.00     0.293 HD
ENDBRANCH   6  24
BRANCH   8  26
ATOM     26  O   UNL     1      15.526  -1.938 -27.383  1.00  0.00    -0.508 OA
ATOM     27  H   UNL     1      14.751  -1.323 -27.166  1.00  0.00     0.293 HD
ENDBRANCH   8  26
TORSDOF 6
ENDMDL
MODEL 8
REMARK VINA RESULT:    -5.604      2.182      6.805
REMARK INTER + INTRA:          -7.110
REMARK INTER:                  -6.773
REMARK INTRA:                  -0.337
REMARK UNBOUND:                -0.359
REMARK SMILES O=c1c(O)c(-c2ccc(O)cc2O)oc2cc(O)cc(O)c12
REMARK SMILES IDX 5 1 3 2 2 3 1 4 22 5 20 6 19 7 17 8 16 9 15 10 14 11 6 12
REMARK SMILES IDX 8 13 7 14 9 15 11 16 12 17 10 18 13 20 4 22 21 24 18 26
REMARK H PARENT 10 19 13 21 4 23 21 25 18 27
REMARK Flexibility Score: inf
ROOT
ATOM      1  C   UNL     1      16.155  -6.435 -31.541  1.00  0.00     0.184 A 
ATOM      2  C   UNL     1      15.388  -7.519 -31.088  1.00  0.00     0.208 A 
ATOM      3  C   UNL     1      14.205  -7.266 -30.376  1.00  0.00     0.238 A 
ATOM      4  O   UNL     1      13.554  -8.242 -29.921  1.00  0.00    -0.285 OA
ATOM      5  C   UNL     1      13.790  -5.930 -30.152  1.00  0.00     0.111 A 
ATOM      6  C   UNL     1      12.589  -5.557 -29.477  1.00  0.00     0.134 A 
ATOM      7  C   UNL     1      12.342  -4.205 -29.205  1.00  0.00     0.093 A 
ATOM      8  C   UNL     1      13.218  -3.211 -29.639  1.00  0.00     0.123 A 
ATOM      9  C   UNL     1      14.367  -3.561 -30.350  1.00  0.00     0.094 A 
ATOM     10  C   UNL     1      14.660  -4.902 -30.604  1.00  0.00     0.146 A 
ATOM     11  O   UNL     1      15.770  -5.194 -31.272  1.00  0.00    -0.451 OA
ENDROOT
BRANCH   1  12
ATOM     12  C   UNL     1      17.398  -6.640 -32.315  1.00  0.00     0.063 A 
ATOM     13  C   UNL     1      19.829  -6.758 -32.359  1.00  0.00     0.047 A 
ATOM     14  C   UNL     1      18.641  -6.516 -31.667  1.00  0.00     0.020 A 
ATOM     15  C   UNL     1      19.795  -7.136 -33.703  1.00  0.00     0.119 A 
ATOM     16  C   UNL     1      18.563  -7.266 -34.358  1.00  0.00     0.093 A 
ATOM     17  C   UNL     1      17.365  -7.015 -33.678  1.00  0.00     0.130 A 
BRANCH  15  18
ATOM     18  O   UNL     1      20.987  -7.380 -34.379  1.00  0.00    -0.508 OA
ATOM     19  H   UNL     1      21.859  -7.528 -33.882  1.00  0.00     0.293 HD
ENDBRANCH  15  18
BRANCH  17  20
ATOM     20  O   UNL     1      16.168  -7.123 -34.390  1.00  0.00    -0.507 OA
ATOM     21  H   UNL     1      15.413  -6.454 -34.306  1.00  0.00     0.293 HD
ENDBRANCH  17  20
ENDBRANCH   1  12
BRANCH   2  22
ATOM     22  O   UNL     1      15.819  -8.827 -31.328  1.00  0.00    -0.502 OA
ATOM     23  H   UNL     1      15.173  -9.594 -31.473  1.00  0.00     0.293 HD
ENDBRANCH   2  22
BRANCH   6  24
ATOM     24  O   UNL     1      11.602  -6.463 -29.081  1.00  0.00    -0.507 OA
ATOM     25  H   UNL     1      10.671  -6.506 -29.465  1.00  0.00     0.293 HD
ENDBRANCH   6  24
BRANCH   8  26
ATOM     26  O   UNL     1      12.932  -1.875 -29.364  1.00  0.00    -0.508 OA
ATOM     27  H   UNL     1      11.979  -1.538 -29.309  1.00  0.00     0.293 HD
ENDBRANCH   8  26
TORSDOF 6
ENDMDL
MODEL 9
REMARK VINA RESULT:    -5.474      1.952      6.648
REMARK INTER + INTRA:          -6.953
REMARK INTER:                  -6.612
REMARK INTRA:                  -0.341
REMARK UNBOUND:                -0.359
REMARK SMILES O=c1c(O)c(-c2ccc(O)cc2O)oc2cc(O)cc(O)c12
REMARK SMILES IDX 5 1 3 2 2 3 1 4 22 5 20 6 19 7 17 8 16 9 15 10 14 11 6 12
REMARK SMILES IDX 8 13 7 14 9 15 11 16 12 17 10 18 13 20 4 22 21 24 18 26
REMARK H PARENT 10 19 13 21 4 23 21 25 18 27
REMARK Flexibility Score: inf
ROOT
ATOM      1  C   UNL     1      15.806  -6.028 -32.037  1.00  0.00     0.184 A 
ATOM      2  C   UNL     1      15.020  -5.030 -32.632  1.00  0.00     0.208 A 
ATOM      3  C   UNL     1      13.744  -4.765 -32.108  1.00  0.00     0.238 A 
ATOM      4  O   UNL     1      13.020  -3.912 -32.684  1.00  0.00    -0.285 OA
ATOM      5  C   UNL     1      13.285  -5.484 -30.978  1.00  0.00     0.111 A 
ATOM      6  C   UNL     1      12.026  -5.272 -30.339  1.00  0.00     0.134 A 
ATOM      7  C   UNL     1      11.626  -6.125 -29.302  1.00  0.00     0.093 A 
ATOM      8  C   UNL     1      12.462  -7.139 -28.840  1.00  0.00     0.123 A 
ATOM      9  C   UNL     1      13.720  -7.319 -29.419  1.00  0.00     0.094 A 
ATOM     10  C   UNL     1      14.133  -6.508 -30.479  1.00  0.00     0.146 A 
ATOM     11  O   UNL     1      15.331  -6.721 -31.011  1.00  0.00    -0.451 OA
ENDROOT
BRANCH   1  12
ATOM     12  C   UNL     1      17.165  -6.334 -32.532  1.00  0.00     0.063 A 
ATOM     13  C   UNL     1      19.569  -6.345 -32.147  1.00  0.00     0.047 A 
ATOM     14  C   UNL     1      18.277  -6.017 -31.730  1.00  0.00     0.020 A 
ATOM     15  C   UNL     1      19.770  -7.000 -33.364  1.00  0.00     0.119 A 
ATOM     16  C   UNL     1      18.670  -7.324 -34.169  1.00  0.00     0.093 A 
ATOM     17  C   UNL     1      17.371  -6.991 -33.767  1.00  0.00     0.130 A 
BRANCH  15  18
ATOM     18  O   UNL     1      21.063  -7.327 -33.764  1.00  0.00    -0.508 OA
ATOM     19  H   UNL     1      21.244  -8.098 -34.397  1.00  0.00     0.293 HD
ENDBRANCH  15  18
BRANCH  17  20
ATOM     20  O   UNL     1      16.314  -7.304 -34.626  1.00  0.00    -0.507 OA
ATOM     21  H   UNL     1      16.351  -7.149 -35.626  1.00  0.00     0.293 HD
ENDBRANCH  17  20
ENDBRANCH   1  12
BRANCH   2  22
ATOM     22  O   UNL     1      15.500  -4.334 -33.745  1.00  0.00    -0.502 OA
ATOM     23  H   UNL     1      14.910  -4.100 -34.535  1.00  0.00     0.293 HD
ENDBRANCH   2  22
BRANCH   6  24
ATOM     24  O   UNL     1      11.152  -4.231 -30.662  1.00  0.00    -0.507 OA
ATOM     25  H   UNL     1      10.395  -3.911 -30.077  1.00  0.00     0.293 HD
ENDBRANCH   6  24
BRANCH   8  26
ATOM     26  O   UNL     1      12.037  -7.959 -27.797  1.00  0.00    -0.508 OA
ATOM     27  H   UNL     1      12.485  -8.848 -27.605  1.00  0.00     0.293 HD
ENDBRANCH   8  26
TORSDOF 6
ENDMDL
