MODEL 1
REMARK VINA RESULT:    19.322      0.000      0.000
REMARK INTER + INTRA:          50.821
REMARK INTER:                  50.951
REMARK INTRA:                  -0.129
REMARK UNBOUND:                -0.129
REMARK SMILES CCCCCCCCCCCCCCCCCCCCCCCCCCCCCC(=O)[O-]
REMARK SMILES IDX 16 1 17 2 18 3 19 4 20 5 21 6 22 7 23 8 24 9 25 10 26 11
REMARK SMILES IDX 27 12 28 13 29 14 30 15 31 16 32 17 15 18 14 19 13 20 12 21
REMARK SMILES IDX 11 22 10 23 9 24 8 25 7 26 6 27 5 28 4 29 3 30 2 31 1 32
REMARK H PARENT
REMARK Flexibility Score: inf
ROOT
ATOM      1  C   UNL     1      -3.026  -9.091  12.165  1.00  0.00     0.000 C 
ENDROOT
BRANCH   1   2
ATOM      2  C   UNL     1      -3.746  -8.421  13.352  1.00  0.00     0.000 C 
BRANCH   2   3
ATOM      3  C   UNL     1      -3.019  -8.572  14.708  1.00  0.00     0.000 C 
BRANCH   3   4
ATOM      4  C   UNL     1      -1.665  -7.838  14.725  1.00  0.00     0.000 C 
BRANCH   4   5
ATOM      5  C   UNL     1      -1.524  -6.876  15.912  1.00  0.00     0.000 C 
BRANCH   5   6
ATOM      6  C   UNL     1      -2.733  -6.931  16.868  1.00  0.00     0.000 C 
BRANCH   6   7
ATOM      7  C   UNL     1      -2.663  -5.860  17.976  1.00  0.00     0.000 C 
BRANCH   7   8
ATOM      8  C   UNL     1      -2.818  -6.413  19.402  1.00  0.00     0.000 C 
BRANCH   8   9
ATOM      9  C   UNL     1      -2.417  -7.891  19.525  1.00  0.00     0.000 C 
BRANCH   9  10
ATOM     10  C   UNL     1      -1.218  -8.091  20.465  1.00  0.00     0.000 C 
BRANCH  10  11
ATOM     11  C   UNL     1      -1.464  -7.479  21.857  1.00  0.00     0.000 C 
BRANCH  11  12
ATOM     12  C   UNL     1      -1.101  -5.985  21.928  1.00  0.00     0.000 C 
BRANCH  12  13
ATOM     13  C   UNL     1      -1.393  -5.309  23.279  1.00  0.00     0.006 C 
BRANCH  13  14
ATOM     14  C   UNL     1      -2.323  -6.133  24.177  1.00  0.00     0.053 C 
BRANCH  14  15
ATOM     15  C   UNL     1      -3.425  -5.277  24.719  1.00  0.00     0.041 C 
ATOM     16  O   UNL     1      -4.617  -5.483  24.367  1.00  0.00    -0.550 OA
ATOM     17  O   UNL     1      -3.132  -4.219  25.568  1.00  0.00    -0.550 OA
ENDBRANCH  14  15
ENDBRANCH  13  14
ENDBRANCH  12  13
ENDBRANCH  11  12
ENDBRANCH  10  11
ENDBRANCH   9  10
ENDBRANCH   8   9
ENDBRANCH   7   8
ENDBRANCH   6   7
ENDBRANCH   5   6
ENDBRANCH   4   5
ENDBRANCH   3   4
ENDBRANCH   2   3
ENDBRANCH   1   2
BRANCH   1  18
ATOM     18  C   UNL     1      -3.833  -9.156  10.857  1.00  0.00     0.000 C 
BRANCH  18  19
ATOM     19  C   UNL     1      -2.982  -9.568   9.641  1.00  0.00     0.000 C 
BRANCH  19  20
ATOM     20  C   UNL     1      -3.353 -10.966   9.120  1.00  0.00     0.000 C 
BRANCH  20  21
ATOM     21  C   UNL     1      -4.264 -10.951   7.876  1.00  0.00     0.000 C 
BRANCH  21  22
ATOM     22  C   UNL     1      -4.745 -12.357   7.460  1.00  0.00     0.000 C 
BRANCH  22  23
ATOM     23  C   UNL     1      -6.046 -12.318   6.637  1.00  0.00     0.000 C 
BRANCH  23  24
ATOM     24  C   UNL     1      -6.774 -13.670   6.677  1.00  0.00    -0.000 C 
BRANCH  24  25
ATOM     25  C   UNL     1      -5.927 -14.770   7.347  1.00  0.00    -0.000 C 
BRANCH  25  26
ATOM     26  C   UNL     1      -4.759 -15.231   6.460  1.00  0.00    -0.000 C 
BRANCH  26  27
ATOM     27  C   UNL     1      -3.405 -14.748   7.006  1.00  0.00    -0.000 C 
BRANCH  27  28
ATOM     28  C   UNL     1      -2.521 -14.194   5.878  1.00  0.00    -0.000 C 
BRANCH  28  29
ATOM     29  C   UNL     1      -1.106 -13.833   6.360  1.00  0.00    -0.000 C 
BRANCH  29  30
ATOM     30  C   UNL     1      -0.662 -14.661   7.577  1.00  0.00    -0.000 C 
BRANCH  30  31
ATOM     31  C   UNL     1       0.231 -13.834   8.509  1.00  0.00    -0.003 C 
ATOM     32  C   UNL     1       1.270 -14.712   9.203  1.00  0.00     0.004 C 
ENDBRANCH  30  31
ENDBRANCH  29  30
ENDBRANCH  28  29
ENDBRANCH  27  28
ENDBRANCH  26  27
ENDBRANCH  25  26
ENDBRANCH  24  25
ENDBRANCH  23  24
ENDBRANCH  22  23
ENDBRANCH  21  22
ENDBRANCH  20  21
ENDBRANCH  19  20
ENDBRANCH  18  19
ENDBRANCH   1  18
TORSDOF 28
ENDMDL
MODEL 2
REMARK VINA RESULT:    19.373      1.312      2.028
REMARK INTER + INTRA:          50.956
REMARK INTER:                  52.105
REMARK INTRA:                  -1.150
REMARK UNBOUND:                -0.129
REMARK SMILES CCCCCCCCCCCCCCCCCCCCCCCCCCCCCC(=O)[O-]
REMARK SMILES IDX 16 1 17 2 18 3 19 4 20 5 21 6 22 7 23 8 24 9 25 10 26 11
REMARK SMILES IDX 27 12 28 13 29 14 30 15 31 16 32 17 15 18 14 19 13 20 12 21
REMARK SMILES IDX 11 22 10 23 9 24 8 25 7 26 6 27 5 28 4 29 3 30 2 31 1 32
REMARK H PARENT
REMARK Flexibility Score: inf
ROOT
ATOM      1  C   UNL     1      -2.555  -9.475  10.928  1.00  0.00     0.000 C 
ENDROOT
BRANCH   1   2
ATOM      2  C   UNL     1      -1.125  -9.778  11.419  1.00  0.00     0.000 C 
BRANCH   2   3
ATOM      3  C   UNL     1      -0.873  -9.431  12.904  1.00  0.00     0.000 C 
BRANCH   3   4
ATOM      4  C   UNL     1       0.469  -8.705  13.111  1.00  0.00     0.000 C 
BRANCH   4   5
ATOM      5  C   UNL     1       0.415  -7.659  14.234  1.00  0.00     0.000 C 
BRANCH   5   6
ATOM      6  C   UNL     1      -1.005  -7.475  14.805  1.00  0.00     0.000 C 
BRANCH   6   7
ATOM      7  C   UNL     1      -1.009  -6.749  16.165  1.00  0.00     0.000 C 
BRANCH   7   8
ATOM      8  C   UNL     1      -2.411  -6.420  16.704  1.00  0.00     0.000 C 
BRANCH   8   9
ATOM      9  C   UNL     1      -2.482  -6.401  18.238  1.00  0.00     0.000 C 
BRANCH   9  10
ATOM     10  C   UNL     1      -2.386  -7.811  18.842  1.00  0.00     0.000 C 
BRANCH  10  11
ATOM     11  C   UNL     1      -1.173  -7.959  19.780  1.00  0.00     0.000 C 
BRANCH  11  12
ATOM     12  C   UNL     1      -1.567  -8.008  21.267  1.00  0.00     0.000 C 
BRANCH  12  13
ATOM     13  C   UNL     1      -1.877  -6.643  21.904  1.00  0.00     0.006 C 
BRANCH  13  14
ATOM     14  C   UNL     1      -1.520  -6.578  23.394  1.00  0.00     0.053 C 
BRANCH  14  15
ATOM     15  C   UNL     1      -1.904  -5.251  23.968  1.00  0.00     0.041 C 
ATOM     16  O   UNL     1      -2.910  -5.154  24.720  1.00  0.00    -0.550 OA
ATOM     17  O   UNL     1      -1.187  -4.111  23.632  1.00  0.00    -0.550 OA
ENDBRANCH  14  15
ENDBRANCH  13  14
ENDBRANCH  12  13
ENDBRANCH  11  12
ENDBRANCH  10  11
ENDBRANCH   9  10
ENDBRANCH   8   9
ENDBRANCH   7   8
ENDBRANCH   6   7
ENDBRANCH   5   6
ENDBRANCH   4   5
ENDBRANCH   3   4
ENDBRANCH   2   3
ENDBRANCH   1   2
BRANCH   1  18
ATOM     18  C   UNL     1      -2.788  -9.665   9.420  1.00  0.00     0.000 C 
BRANCH  18  19
ATOM     19  C   UNL     1      -3.745 -10.826   9.097  1.00  0.00     0.000 C 
BRANCH  19  20
ATOM     20  C   UNL     1      -3.520 -11.388   7.682  1.00  0.00     0.000 C 
BRANCH  20  21
ATOM     21  C   UNL     1      -4.144 -12.779   7.453  1.00  0.00     0.000 C 
BRANCH  21  22
ATOM     22  C   UNL     1      -4.957 -12.870   6.145  1.00  0.00     0.000 C 
BRANCH  22  23
ATOM     23  C   UNL     1      -6.216 -13.743   6.289  1.00  0.00     0.000 C 
BRANCH  23  24
ATOM     24  C   UNL     1      -5.964 -14.937   7.223  1.00  0.00    -0.000 C 
BRANCH  24  25
ATOM     25  C   UNL     1      -5.381 -16.153   6.473  1.00  0.00    -0.000 C 
BRANCH  25  26
ATOM     26  C   UNL     1      -4.098 -16.685   7.131  1.00  0.00    -0.000 C 
BRANCH  26  27
ATOM     27  C   UNL     1      -2.849 -15.952   6.615  1.00  0.00    -0.000 C 
BRANCH  27  28
ATOM     28  C   UNL     1      -2.099 -15.262   7.765  1.00  0.00    -0.000 C 
BRANCH  28  29
ATOM     29  C   UNL     1      -1.467 -13.925   7.339  1.00  0.00    -0.000 C 
BRANCH  29  30
ATOM     30  C   UNL     1      -0.208 -13.577   8.150  1.00  0.00    -0.000 C 
BRANCH  30  31
ATOM     31  C   UNL     1       0.693 -14.806   8.321  1.00  0.00    -0.003 C 
ATOM     32  C   UNL     1       1.350 -14.822   9.699  1.00  0.00     0.004 C 
ENDBRANCH  30  31
ENDBRANCH  29  30
ENDBRANCH  28  29
ENDBRANCH  27  28
ENDBRANCH  26  27
ENDBRANCH  25  26
ENDBRANCH  24  25
ENDBRANCH  23  24
ENDBRANCH  22  23
ENDBRANCH  21  22
ENDBRANCH  20  21
ENDBRANCH  19  20
ENDBRANCH  18  19
ENDBRANCH   1  18
TORSDOF 28
ENDMDL
MODEL 3
REMARK VINA RESULT:    19.910      4.962     14.373
REMARK INTER + INTRA:          52.371
REMARK INTER:                  53.983
REMARK INTRA:                  -1.612
REMARK UNBOUND:                -0.129
REMARK SMILES CCCCCCCCCCCCCCCCCCCCCCCCCCCCCC(=O)[O-]
REMARK SMILES IDX 16 1 17 2 18 3 19 4 20 5 21 6 22 7 23 8 24 9 25 10 26 11
REMARK SMILES IDX 27 12 28 13 29 14 30 15 31 16 32 17 15 18 14 19 13 20 12 21
REMARK SMILES IDX 11 22 10 23 9 24 8 25 7 26 6 27 5 28 4 29 3 30 2 31 1 32
REMARK H PARENT
REMARK Flexibility Score: inf
ROOT
ATOM      1  C   UNL     1      -3.088  -9.857  10.093  1.00  0.00     0.000 C 
ENDROOT
BRANCH   1   2
ATOM      2  C   UNL     1      -3.734 -10.423   8.812  1.00  0.00     0.000 C 
BRANCH   2   3
ATOM      3  C   UNL     1      -3.225 -11.825   8.406  1.00  0.00     0.000 C 
BRANCH   3   4
ATOM      4  C   UNL     1      -4.351 -12.710   7.841  1.00  0.00     0.000 C 
BRANCH   4   5
ATOM      5  C   UNL     1      -4.899 -12.196   6.503  1.00  0.00     0.000 C 
BRANCH   5   6
ATOM      6  C   UNL     1      -6.112 -13.009   6.008  1.00  0.00     0.000 C 
BRANCH   6   7
ATOM      7  C   UNL     1      -6.648 -13.987   7.074  1.00  0.00     0.000 C 
BRANCH   7   8
ATOM      8  C   UNL     1      -6.706 -15.454   6.616  1.00  0.00     0.000 C 
BRANCH   8   9
ATOM      9  C   UNL     1      -5.844 -16.391   7.476  1.00  0.00     0.000 C 
BRANCH   9  10
ATOM     10  C   UNL     1      -4.635 -16.941   6.703  1.00  0.00     0.000 C 
BRANCH  10  11
ATOM     11  C   UNL     1      -3.632 -15.834   6.330  1.00  0.00     0.000 C 
BRANCH  11  12
ATOM     12  C   UNL     1      -2.551 -15.615   7.403  1.00  0.00     0.000 C 
BRANCH  12  13
ATOM     13  C   UNL     1      -1.358 -14.752   6.958  1.00  0.00     0.006 C 
BRANCH  13  14
ATOM     14  C   UNL     1      -0.921 -13.735   8.019  1.00  0.00     0.053 C 
BRANCH  14  15
ATOM     15  C   UNL     1       0.510 -13.953   8.397  1.00  0.00     0.041 C 
ATOM     16  O   UNL     1       1.379 -13.086   8.112  1.00  0.00    -0.550 OA
ATOM     17  O   UNL     1       0.897 -15.135   9.015  1.00  0.00    -0.550 OA
ENDBRANCH  14  15
ENDBRANCH  13  14
ENDBRANCH  12  13
ENDBRANCH  11  12
ENDBRANCH  10  11
ENDBRANCH   9  10
ENDBRANCH   8   9
ENDBRANCH   7   8
ENDBRANCH   6   7
ENDBRANCH   5   6
ENDBRANCH   4   5
ENDBRANCH   3   4
ENDBRANCH   2   3
ENDBRANCH   1   2
BRANCH   1  18
ATOM     18  C   UNL     1      -3.731  -8.573  10.644  1.00  0.00     0.000 C 
BRANCH  18  19
ATOM     19  C   UNL     1      -4.109  -8.676  12.132  1.00  0.00     0.000 C 
BRANCH  19  20
ATOM     20  C   UNL     1      -2.872  -8.779  13.040  1.00  0.00     0.000 C 
BRANCH  20  21
ATOM     21  C   UNL     1      -3.145  -8.427  14.516  1.00  0.00     0.000 C 
BRANCH  21  22
ATOM     22  C   UNL     1      -2.419  -7.146  14.977  1.00  0.00     0.000 C 
BRANCH  22  23
ATOM     23  C   UNL     1      -1.911  -7.243  16.427  1.00  0.00     0.000 C 
BRANCH  23  24
ATOM     24  C   UNL     1      -3.076  -7.387  17.419  1.00  0.00    -0.000 C 
BRANCH  24  25
ATOM     25  C   UNL     1      -2.658  -7.042  18.863  1.00  0.00    -0.000 C 
BRANCH  25  26
ATOM     26  C   UNL     1      -2.066  -8.251  19.605  1.00  0.00    -0.000 C 
BRANCH  26  27
ATOM     27  C   UNL     1      -0.910  -7.837  20.532  1.00  0.00    -0.000 C 
BRANCH  27  28
ATOM     28  C   UNL     1      -1.358  -7.828  22.002  1.00  0.00    -0.000 C 
BRANCH  28  29
ATOM     29  C   UNL     1      -2.035  -6.507  22.405  1.00  0.00    -0.000 C 
BRANCH  29  30
ATOM     30  C   UNL     1      -1.242  -5.733  23.470  1.00  0.00    -0.000 C 
BRANCH  30  31
ATOM     31  C   UNL     1      -2.176  -5.150  24.537  1.00  0.00    -0.003 C 
ATOM     32  C   UNL     1      -3.620  -5.589  24.307  1.00  0.00     0.004 C 
ENDBRANCH  30  31
ENDBRANCH  29  30
ENDBRANCH  28  29
ENDBRANCH  27  28
ENDBRANCH  26  27
ENDBRANCH  25  26
ENDBRANCH  24  25
ENDBRANCH  23  24
ENDBRANCH  22  23
ENDBRANCH  21  22
ENDBRANCH  20  21
ENDBRANCH  19  20
ENDBRANCH  18  19
ENDBRANCH   1  18
TORSDOF 28
ENDMDL
MODEL 4
REMARK VINA RESULT:    20.100      2.152      3.989
REMARK INTER + INTRA:          52.871
REMARK INTER:                  54.513
REMARK INTRA:                  -1.642
REMARK UNBOUND:                -0.129
REMARK SMILES CCCCCCCCCCCCCCCCCCCCCCCCCCCCCC(=O)[O-]
REMARK SMILES IDX 16 1 17 2 18 3 19 4 20 5 21 6 22 7 23 8 24 9 25 10 26 11
REMARK SMILES IDX 27 12 28 13 29 14 30 15 31 16 32 17 15 18 14 19 13 20 12 21
REMARK SMILES IDX 11 22 10 23 9 24 8 25 7 26 6 27 5 28 4 29 3 30 2 31 1 32
REMARK H PARENT
REMARK Flexibility Score: inf
ROOT
ATOM      1  C   UNL     1      -3.183 -10.883   8.829  1.00  0.00     0.000 C 
ENDROOT
BRANCH   1   2
ATOM      2  C   UNL     1      -4.180 -10.038   9.647  1.00  0.00     0.000 C 
BRANCH   2   3
ATOM      3  C   UNL     1      -3.523  -8.954  10.531  1.00  0.00     0.000 C 
BRANCH   3   4
ATOM      4  C   UNL     1      -4.407  -8.569  11.732  1.00  0.00     0.000 C 
BRANCH   4   5
ATOM      5  C   UNL     1      -4.907  -7.120  11.665  1.00  0.00     0.000 C 
BRANCH   5   6
ATOM      6  C   UNL     1      -4.888  -6.421  13.040  1.00  0.00     0.000 C 
BRANCH   6   7
ATOM      7  C   UNL     1      -3.607  -5.593  13.266  1.00  0.00     0.000 C 
BRANCH   7   8
ATOM      8  C   UNL     1      -3.107  -5.586  14.721  1.00  0.00     0.000 C 
BRANCH   8   9
ATOM      9  C   UNL     1      -1.970  -6.587  14.975  1.00  0.00     0.000 C 
BRANCH   9  10
ATOM     10  C   UNL     1      -1.656  -6.744  16.471  1.00  0.00     0.000 C 
BRANCH  10  11
ATOM     11  C   UNL     1      -2.581  -5.880  17.350  1.00  0.00     0.000 C 
BRANCH  11  12
ATOM     12  C   UNL     1      -2.696  -6.402  18.794  1.00  0.00     0.000 C 
BRANCH  12  13
ATOM     13  C   UNL     1      -3.392  -7.766  18.939  1.00  0.00     0.006 C 
BRANCH  13  14
ATOM     14  C   UNL     1      -2.532  -8.807  19.665  1.00  0.00     0.053 C 
BRANCH  14  15
ATOM     15  C   UNL     1      -1.501  -8.134  20.516  1.00  0.00     0.041 C 
ATOM     16  O   UNL     1      -1.824  -7.164  21.253  1.00  0.00    -0.550 OA
ATOM     17  O   UNL     1      -0.175  -8.541  20.459  1.00  0.00    -0.550 OA
ENDBRANCH  14  15
ENDBRANCH  13  14
ENDBRANCH  12  13
ENDBRANCH  11  12
ENDBRANCH  10  11
ENDBRANCH   9  10
ENDBRANCH   8   9
ENDBRANCH   7   8
ENDBRANCH   6   7
ENDBRANCH   5   6
ENDBRANCH   4   5
ENDBRANCH   3   4
ENDBRANCH   2   3
ENDBRANCH   1   2
BRANCH   1  18
ATOM     18  C   UNL     1      -3.659 -11.289   7.424  1.00  0.00     0.000 C 
BRANCH  18  19
ATOM     19  C   UNL     1      -4.639 -12.476   7.437  1.00  0.00     0.000 C 
BRANCH  19  20
ATOM     20  C   UNL     1      -5.154 -12.818   6.028  1.00  0.00     0.000 C 
BRANCH  20  21
ATOM     21  C   UNL     1      -6.450 -13.654   6.020  1.00  0.00     0.000 C 
BRANCH  21  22
ATOM     22  C   UNL     1      -6.756 -14.311   7.382  1.00  0.00     0.000 C 
BRANCH  22  23
ATOM     23  C   UNL     1      -6.811 -15.847   7.300  1.00  0.00     0.000 C 
BRANCH  23  24
ATOM     24  C   UNL     1      -5.574 -16.413   6.585  1.00  0.00    -0.000 C 
BRANCH  24  25
ATOM     25  C   UNL     1      -4.275 -16.162   7.378  1.00  0.00    -0.000 C 
BRANCH  25  26
ATOM     26  C   UNL     1      -3.095 -16.989   6.844  1.00  0.00    -0.000 C 
BRANCH  26  27
ATOM     27  C   UNL     1      -1.945 -16.090   6.358  1.00  0.00    -0.000 C 
BRANCH  27  28
ATOM     28  C   UNL     1      -2.403 -14.629   6.231  1.00  0.00    -0.000 C 
BRANCH  28  29
ATOM     29  C   UNL     1      -1.333 -13.631   6.708  1.00  0.00    -0.000 C 
BRANCH  29  30
ATOM     30  C   UNL     1      -0.934 -13.843   8.177  1.00  0.00    -0.000 C 
BRANCH  30  31
ATOM     31  C   UNL     1       0.577 -13.667   8.367  1.00  0.00    -0.003 C 
ATOM     32  C   UNL     1       1.229 -14.961   8.846  1.00  0.00     0.004 C 
ENDBRANCH  30  31
ENDBRANCH  29  30
ENDBRANCH  28  29
ENDBRANCH  27  28
ENDBRANCH  26  27
ENDBRANCH  25  26
ENDBRANCH  24  25
ENDBRANCH  23  24
ENDBRANCH  22  23
ENDBRANCH  21  22
ENDBRANCH  20  21
ENDBRANCH  19  20
ENDBRANCH  18  19
ENDBRANCH   1  18
TORSDOF 28
ENDMDL
MODEL 5
REMARK VINA RESULT:    20.327      1.179      2.069
REMARK INTER + INTRA:          53.470
REMARK INTER:                  52.955
REMARK INTRA:                   0.515
REMARK UNBOUND:                -0.129
REMARK SMILES CCCCCCCCCCCCCCCCCCCCCCCCCCCCCC(=O)[O-]
REMARK SMILES IDX 16 1 17 2 18 3 19 4 20 5 21 6 22 7 23 8 24 9 25 10 26 11
REMARK SMILES IDX 27 12 28 13 29 14 30 15 31 16 32 17 15 18 14 19 13 20 12 21
REMARK SMILES IDX 11 22 10 23 9 24 8 25 7 26 6 27 5 28 4 29 3 30 2 31 1 32
REMARK H PARENT
REMARK Flexibility Score: inf
ROOT
ATOM      1  C   UNL     1      -2.103  -8.624  13.724  1.00  0.00     0.000 C 
ENDROOT
BRANCH   1   2
ATOM      2  C   UNL     1      -0.745  -8.082  14.215  1.00  0.00     0.000 C 
BRANCH   2   3
ATOM      3  C   UNL     1      -0.849  -7.016  15.329  1.00  0.00     0.000 C 
BRANCH   3   4
ATOM      4  C   UNL     1      -2.288  -6.864  15.856  1.00  0.00     0.000 C 
BRANCH   4   5
ATOM      5  C   UNL     1      -2.346  -6.281  17.274  1.00  0.00     0.000 C 
BRANCH   5   6
ATOM      6  C   UNL     1      -3.001  -7.243  18.285  1.00  0.00     0.000 C 
BRANCH   6   7
ATOM      7  C   UNL     1      -2.336  -7.187  19.676  1.00  0.00     0.000 C 
BRANCH   7   8
ATOM      8  C   UNL     1      -1.341  -8.328  19.948  1.00  0.00     0.000 C 
BRANCH   8   9
ATOM      9  C   UNL     1      -0.600  -8.179  21.285  1.00  0.00     0.000 C 
BRANCH   9  10
ATOM     10  C   UNL     1      -1.515  -7.650  22.401  1.00  0.00     0.000 C 
BRANCH  10  11
ATOM     11  C   UNL     1      -0.953  -6.373  23.054  1.00  0.00     0.000 C 
BRANCH  11  12
ATOM     12  C   UNL     1      -1.995  -5.247  23.168  1.00  0.00     0.000 C 
BRANCH  12  13
ATOM     13  C   UNL     1      -1.829  -4.327  24.389  1.00  0.00     0.006 C 
BRANCH  13  14
ATOM     14  C   UNL     1      -3.063  -4.304  25.298  1.00  0.00     0.053 C 
BRANCH  14  15
ATOM     15  C   UNL     1      -4.125  -5.214  24.764  1.00  0.00     0.041 C 
ATOM     16  O   UNL     1      -5.317  -4.814  24.680  1.00  0.00    -0.550 OA
ATOM     17  O   UNL     1      -3.812  -6.519  24.409  1.00  0.00    -0.550 OA
ENDBRANCH  14  15
ENDBRANCH  13  14
ENDBRANCH  12  13
ENDBRANCH  11  12
ENDBRANCH  10  11
ENDBRANCH   9  10
ENDBRANCH   8   9
ENDBRANCH   7   8
ENDBRANCH   6   7
ENDBRANCH   5   6
ENDBRANCH   4   5
ENDBRANCH   3   4
ENDBRANCH   2   3
ENDBRANCH   1   2
BRANCH   1  18
ATOM     18  C   UNL     1      -2.060  -9.410  12.403  1.00  0.00     0.000 C 
BRANCH  18  19
ATOM     19  C   UNL     1      -3.284  -9.152  11.505  1.00  0.00     0.000 C 
BRANCH  19  20
ATOM     20  C   UNL     1      -2.955  -9.325  10.013  1.00  0.00     0.000 C 
BRANCH  20  21
ATOM     21  C   UNL     1      -3.229 -10.742   9.469  1.00  0.00     0.000 C 
BRANCH  21  22
ATOM     22  C   UNL     1      -4.034 -10.740   8.153  1.00  0.00     0.000 C 
BRANCH  22  23
ATOM     23  C   UNL     1      -3.933 -12.077   7.396  1.00  0.00     0.000 C 
BRANCH  23  24
ATOM     24  C   UNL     1      -5.231 -12.390   6.636  1.00  0.00    -0.000 C 
BRANCH  24  25
ATOM     25  C   UNL     1      -5.984 -13.594   7.238  1.00  0.00    -0.000 C 
BRANCH  25  26
ATOM     26  C   UNL     1      -5.965 -14.819   6.311  1.00  0.00    -0.000 C 
BRANCH  26  27
ATOM     27  C   UNL     1      -5.325 -16.039   6.994  1.00  0.00    -0.000 C 
BRANCH  27  28
ATOM     28  C   UNL     1      -3.829 -16.138   6.659  1.00  0.00    -0.000 C 
BRANCH  28  29
ATOM     29  C   UNL     1      -3.248 -14.808   6.149  1.00  0.00    -0.000 C 
BRANCH  29  30
ATOM     30  C   UNL     1      -1.716 -14.747   6.257  1.00  0.00    -0.000 C 
BRANCH  30  31
ATOM     31  C   UNL     1      -1.282 -13.893   7.454  1.00  0.00    -0.003 C 
ATOM     32  C   UNL     1      -1.757 -14.503   8.770  1.00  0.00     0.004 C 
ENDBRANCH  30  31
ENDBRANCH  29  30
ENDBRANCH  28  29
ENDBRANCH  27  28
ENDBRANCH  26  27
ENDBRANCH  25  26
ENDBRANCH  24  25
ENDBRANCH  23  24
ENDBRANCH  22  23
ENDBRANCH  21  22
ENDBRANCH  20  21
ENDBRANCH  19  20
ENDBRANCH  18  19
ENDBRANCH   1  18
TORSDOF 28
ENDMDL
MODEL 6
REMARK VINA RESULT:    20.471      5.164     13.656
REMARK INTER + INTRA:          53.851
REMARK INTER:                  53.420
REMARK INTRA:                   0.431
REMARK UNBOUND:                -0.129
REMARK SMILES CCCCCCCCCCCCCCCCCCCCCCCCCCCCCC(=O)[O-]
REMARK SMILES IDX 16 1 17 2 18 3 19 4 20 5 21 6 22 7 23 8 24 9 25 10 26 11
REMARK SMILES IDX 27 12 28 13 29 14 30 15 31 16 32 17 15 18 14 19 13 20 12 21
REMARK SMILES IDX 11 22 10 23 9 24 8 25 7 26 6 27 5 28 4 29 3 30 2 31 1 32
REMARK H PARENT
REMARK Flexibility Score: inf
ROOT
ATOM      1  C   UNL     1      -1.711  -9.579  11.644  1.00  0.00     0.000 C 
ENDROOT
BRANCH   1   2
ATOM      2  C   UNL     1      -1.901  -9.850  10.138  1.00  0.00     0.000 C 
BRANCH   2   3
ATOM      3  C   UNL     1      -3.373 -10.039   9.705  1.00  0.00     0.000 C 
BRANCH   3   4
ATOM      4  C   UNL     1      -3.490 -10.709   8.323  1.00  0.00     0.000 C 
BRANCH   4   5
ATOM      5  C   UNL     1      -4.078 -12.125   8.394  1.00  0.00     0.000 C 
BRANCH   5   6
ATOM      6  C   UNL     1      -4.419 -12.695   7.003  1.00  0.00     0.000 C 
BRANCH   6   7
ATOM      7  C   UNL     1      -5.879 -12.416   6.589  1.00  0.00     0.000 C 
BRANCH   7   8
ATOM      8  C   UNL     1      -6.759 -13.673   6.486  1.00  0.00     0.000 C 
BRANCH   8   9
ATOM      9  C   UNL     1      -6.149 -14.898   7.184  1.00  0.00     0.000 C 
BRANCH   9  10
ATOM     10  C   UNL     1      -5.235 -15.705   6.250  1.00  0.00     0.000 C 
BRANCH  10  11
ATOM     11  C   UNL     1      -4.130 -16.451   7.021  1.00  0.00     0.000 C 
BRANCH  11  12
ATOM     12  C   UNL     1      -2.718 -15.930   6.703  1.00  0.00     0.000 C 
BRANCH  12  13
ATOM     13  C   UNL     1      -2.673 -14.593   5.944  1.00  0.00     0.006 C 
BRANCH  13  14
ATOM     14  C   UNL     1      -1.463 -13.729   6.316  1.00  0.00     0.053 C 
BRANCH  14  15
ATOM     15  C   UNL     1      -1.040 -13.998   7.727  1.00  0.00     0.041 C 
ATOM     16  O   UNL     1      -1.872 -14.443   8.562  1.00  0.00    -0.550 OA
ATOM     17  O   UNL     1       0.254 -13.707   8.135  1.00  0.00    -0.550 OA
ENDBRANCH  14  15
ENDBRANCH  13  14
ENDBRANCH  12  13
ENDBRANCH  11  12
ENDBRANCH  10  11
ENDBRANCH   9  10
ENDBRANCH   8   9
ENDBRANCH   7   8
ENDBRANCH   6   7
ENDBRANCH   5   6
ENDBRANCH   4   5
ENDBRANCH   3   4
ENDBRANCH   2   3
ENDBRANCH   1   2
BRANCH   1  18
ATOM     18  C   UNL     1      -0.403 -10.114  12.251  1.00  0.00     0.000 C 
BRANCH  18  19
ATOM     19  C   UNL     1       0.403  -9.037  12.999  1.00  0.00     0.000 C 
BRANCH  19  20
ATOM     20  C   UNL     1      -0.437  -8.327  14.075  1.00  0.00     0.000 C 
BRANCH  20  21
ATOM     21  C   UNL     1       0.291  -7.158  14.768  1.00  0.00     0.000 C 
BRANCH  21  22
ATOM     22  C   UNL     1      -0.665  -6.217  15.532  1.00  0.00     0.000 C 
BRANCH  22  23
ATOM     23  C   UNL     1      -1.894  -6.953  16.095  1.00  0.00     0.000 C 
BRANCH  23  24
ATOM     24  C   UNL     1      -2.264  -6.435  17.494  1.00  0.00    -0.000 C 
BRANCH  24  25
ATOM     25  C   UNL     1      -3.020  -7.491  18.326  1.00  0.00    -0.000 C 
BRANCH  25  26
ATOM     26  C   UNL     1      -2.695  -7.395  19.826  1.00  0.00    -0.000 C 
BRANCH  26  27
ATOM     27  C   UNL     1      -1.567  -8.359  20.225  1.00  0.00    -0.000 C 
BRANCH  27  28
ATOM     28  C   UNL     1      -1.944  -9.814  19.907  1.00  0.00    -0.000 C 
BRANCH  28  29
ATOM     29  C   UNL     1      -3.409 -10.134  20.253  1.00  0.00    -0.000 C 
BRANCH  29  30
ATOM     30  C   UNL     1      -3.942 -11.367  19.507  1.00  0.00    -0.000 C 
BRANCH  30  31
ATOM     31  C   UNL     1      -4.490 -12.409  20.488  1.00  0.00    -0.003 C 
ATOM     32  C   UNL     1      -5.308 -11.750  21.596  1.00  0.00     0.004 C 
ENDBRANCH  30  31
ENDBRANCH  29  30
ENDBRANCH  28  29
ENDBRANCH  27  28
ENDBRANCH  26  27
ENDBRANCH  25  26
ENDBRANCH  24  25
ENDBRANCH  23  24
ENDBRANCH  22  23
ENDBRANCH  21  22
ENDBRANCH  20  21
ENDBRANCH  19  20
ENDBRANCH  18  19
ENDBRANCH   1  18
TORSDOF 28
ENDMDL
MODEL 7
REMARK VINA RESULT:    20.555      4.773     13.447
REMARK INTER + INTRA:          54.072
REMARK INTER:                  55.347
REMARK INTRA:                  -1.276
REMARK UNBOUND:                -0.129
REMARK SMILES CCCCCCCCCCCCCCCCCCCCCCCCCCCCCC(=O)[O-]
REMARK SMILES IDX 16 1 17 2 18 3 19 4 20 5 21 6 22 7 23 8 24 9 25 10 26 11
REMARK SMILES IDX 27 12 28 13 29 14 30 15 31 16 32 17 15 18 14 19 13 20 12 21
REMARK SMILES IDX 11 22 10 23 9 24 8 25 7 26 6 27 5 28 4 29 3 30 2 31 1 32
REMARK H PARENT
REMARK Flexibility Score: inf
ROOT
ATOM      1  C   UNL     1      -3.126 -10.833   9.100  1.00  0.00     0.000 C 
ENDROOT
BRANCH   1   2
ATOM      2  C   UNL     1      -3.807 -11.105   7.743  1.00  0.00     0.000 C 
BRANCH   2   3
ATOM      3  C   UNL     1      -4.426 -12.515   7.611  1.00  0.00     0.000 C 
BRANCH   3   4
ATOM      4  C   UNL     1      -5.003 -12.766   6.206  1.00  0.00     0.000 C 
BRANCH   4   5
ATOM      5  C   UNL     1      -6.420 -13.355   6.238  1.00  0.00     0.000 C 
BRANCH   5   6
ATOM      6  C   UNL     1      -6.606 -14.390   7.367  1.00  0.00     0.000 C 
BRANCH   6   7
ATOM      7  C   UNL     1      -6.692 -15.836   6.839  1.00  0.00     0.000 C 
BRANCH   7   8
ATOM      8  C   UNL     1      -5.328 -16.515   6.630  1.00  0.00     0.000 C 
BRANCH   8   9
ATOM      9  C   UNL     1      -4.152 -15.696   7.183  1.00  0.00     0.000 C 
BRANCH   9  10
ATOM     10  C   UNL     1      -2.802 -16.397   6.969  1.00  0.00     0.000 C 
BRANCH  10  11
ATOM     11  C   UNL     1      -1.795 -15.501   6.223  1.00  0.00     0.000 C 
BRANCH  11  12
ATOM     12  C   UNL     1      -1.911 -14.016   6.609  1.00  0.00     0.000 C 
BRANCH  12  13
ATOM     13  C   UNL     1      -1.006 -13.573   7.772  1.00  0.00     0.006 C 
BRANCH  13  14
ATOM     14  C   UNL     1      -0.571 -14.736   8.672  1.00  0.00     0.053 C 
BRANCH  14  15
ATOM     15  C   UNL     1       0.869 -14.592   9.054  1.00  0.00     0.041 C 
ATOM     16  O   UNL     1       1.733 -14.325   8.178  1.00  0.00    -0.550 OA
ATOM     17  O   UNL     1       1.267 -14.805  10.368  1.00  0.00    -0.550 OA
ENDBRANCH  14  15
ENDBRANCH  13  14
ENDBRANCH  12  13
ENDBRANCH  11  12
ENDBRANCH  10  11
ENDBRANCH   9  10
ENDBRANCH   8   9
ENDBRANCH   7   8
ENDBRANCH   6   7
ENDBRANCH   5   6
ENDBRANCH   4   5
ENDBRANCH   3   4
ENDBRANCH   2   3
ENDBRANCH   1   2
BRANCH   1  18
ATOM     18  C   UNL     1      -3.229  -9.386   9.611  1.00  0.00     0.000 C 
BRANCH  18  19
ATOM     19  C   UNL     1      -3.963  -9.271  10.959  1.00  0.00     0.000 C 
BRANCH  19  20
ATOM     20  C   UNL     1      -4.550  -7.867  11.182  1.00  0.00     0.000 C 
BRANCH  20  21
ATOM     21  C   UNL     1      -4.978  -7.589  12.638  1.00  0.00     0.000 C 
BRANCH  21  22
ATOM     22  C   UNL     1      -3.856  -6.958  13.488  1.00  0.00     0.000 C 
BRANCH  22  23
ATOM     23  C   UNL     1      -3.021  -8.010  14.241  1.00  0.00     0.000 C 
BRANCH  23  24
ATOM     24  C   UNL     1      -1.667  -7.437  14.686  1.00  0.00    -0.000 C 
BRANCH  24  25
ATOM     25  C   UNL     1      -1.824  -6.303  15.719  1.00  0.00    -0.000 C 
BRANCH  25  26
ATOM     26  C   UNL     1      -1.918  -6.832  17.159  1.00  0.00    -0.000 C 
BRANCH  26  27
ATOM     27  C   UNL     1      -3.106  -6.214  17.914  1.00  0.00    -0.000 C 
BRANCH  27  28
ATOM     28  C   UNL     1      -3.641  -7.178  18.985  1.00  0.00    -0.000 C 
BRANCH  28  29
ATOM     29  C   UNL     1      -2.734  -8.405  19.181  1.00  0.00    -0.000 C 
BRANCH  29  30
ATOM     30  C   UNL     1      -2.398  -8.667  20.658  1.00  0.00    -0.000 C 
BRANCH  30  31
ATOM     31  C   UNL     1      -1.014  -8.114  21.015  1.00  0.00    -0.003 C 
ATOM     32  C   UNL     1      -1.113  -7.015  22.070  1.00  0.00     0.004 C 
ENDBRANCH  30  31
ENDBRANCH  29  30
ENDBRANCH  28  29
ENDBRANCH  27  28
ENDBRANCH  26  27
ENDBRANCH  25  26
ENDBRANCH  24  25
ENDBRANCH  23  24
ENDBRANCH  22  23
ENDBRANCH  21  22
ENDBRANCH  20  21
ENDBRANCH  19  20
ENDBRANCH  18  19
ENDBRANCH   1  18
TORSDOF 28
ENDMDL
MODEL 8
REMARK VINA RESULT:    20.863      2.804      3.659
REMARK INTER + INTRA:          54.883
REMARK INTER:                  54.911
REMARK INTRA:                  -0.028
REMARK UNBOUND:                -0.129
REMARK SMILES CCCCCCCCCCCCCCCCCCCCCCCCCCCCCC(=O)[O-]
REMARK SMILES IDX 16 1 17 2 18 3 19 4 20 5 21 6 22 7 23 8 24 9 25 10 26 11
REMARK SMILES IDX 27 12 28 13 29 14 30 15 31 16 32 17 15 18 14 19 13 20 12 21
REMARK SMILES IDX 11 22 10 23 9 24 8 25 7 26 6 27 5 28 4 29 3 30 2 31 1 32
REMARK H PARENT
REMARK Flexibility Score: inf
ROOT
ATOM      1  C   UNL     1      -2.761  -9.600  10.706  1.00  0.00     0.000 C 
ENDROOT
BRANCH   1   2
ATOM      2  C   UNL     1      -1.323  -9.857  11.199  1.00  0.00     0.000 C 
BRANCH   2   3
ATOM      3  C   UNL     1      -1.106  -9.582  12.705  1.00  0.00     0.000 C 
BRANCH   3   4
ATOM      4  C   UNL     1       0.348  -9.186  13.019  1.00  0.00     0.000 C 
BRANCH   4   5
ATOM      5  C   UNL     1       0.449  -7.949  13.922  1.00  0.00     0.000 C 
BRANCH   5   6
ATOM      6  C   UNL     1      -0.850  -7.681  14.708  1.00  0.00     0.000 C 
BRANCH   6   7
ATOM      7  C   UNL     1      -0.722  -6.490  15.679  1.00  0.00     0.000 C 
BRANCH   7   8
ATOM      8  C   UNL     1      -1.986  -6.211  16.509  1.00  0.00     0.000 C 
BRANCH   8   9
ATOM      9  C   UNL     1      -2.133  -7.144  17.721  1.00  0.00     0.000 C 
BRANCH   9  10
ATOM     10  C   UNL     1      -3.383  -6.823  18.553  1.00  0.00     0.000 C 
BRANCH  10  11
ATOM     11  C   UNL     1      -3.392  -7.574  19.899  1.00  0.00     0.000 C 
BRANCH  11  12
ATOM     12  C   UNL     1      -2.569  -8.874  19.867  1.00  0.00     0.000 C 
BRANCH  12  13
ATOM     13  C   UNL     1      -3.390 -10.158  19.655  1.00  0.00     0.006 C 
BRANCH  13  14
ATOM     14  C   UNL     1      -3.631 -10.940  20.951  1.00  0.00     0.053 C 
BRANCH  14  15
ATOM     15  C   UNL     1      -4.826 -11.830  20.813  1.00  0.00     0.041 C 
ATOM     16  O   UNL     1      -4.905 -12.639  19.851  1.00  0.00    -0.550 OA
ATOM     17  O   UNL     1      -5.878 -11.729  21.714  1.00  0.00    -0.550 OA
ENDBRANCH  14  15
ENDBRANCH  13  14
ENDBRANCH  12  13
ENDBRANCH  11  12
ENDBRANCH  10  11
ENDBRANCH   9  10
ENDBRANCH   8   9
ENDBRANCH   7   8
ENDBRANCH   6   7
ENDBRANCH   5   6
ENDBRANCH   4   5
ENDBRANCH   3   4
ENDBRANCH   2   3
ENDBRANCH   1   2
BRANCH   1  18
ATOM     18  C   UNL     1      -2.984  -9.794   9.196  1.00  0.00     0.000 C 
BRANCH  18  19
ATOM     19  C   UNL     1      -3.665 -11.131   8.851  1.00  0.00     0.000 C 
BRANCH  19  20
ATOM     20  C   UNL     1      -4.226 -11.143   7.419  1.00  0.00     0.000 C 
BRANCH  20  21
ATOM     21  C   UNL     1      -4.581 -12.550   6.897  1.00  0.00     0.000 C 
BRANCH  21  22
ATOM     22  C   UNL     1      -5.944 -12.603   6.176  1.00  0.00     0.000 C 
BRANCH  22  23
ATOM     23  C   UNL     1      -6.630 -13.975   6.306  1.00  0.00     0.000 C 
BRANCH  23  24
ATOM     24  C   UNL     1      -5.992 -14.816   7.423  1.00  0.00    -0.000 C 
BRANCH  24  25
ATOM     25  C   UNL     1      -5.457 -16.166   6.905  1.00  0.00    -0.000 C 
BRANCH  25  26
ATOM     26  C   UNL     1      -3.971 -16.097   6.519  1.00  0.00    -0.000 C 
BRANCH  26  27
ATOM     27  C   UNL     1      -3.412 -14.671   6.663  1.00  0.00    -0.000 C 
BRANCH  27  28
ATOM     28  C   UNL     1      -1.884 -14.689   6.814  1.00  0.00    -0.000 C 
BRANCH  28  29
ATOM     29  C   UNL     1      -1.427 -14.333   8.240  1.00  0.00    -0.000 C 
BRANCH  29  30
ATOM     30  C   UNL     1      -0.009 -13.741   8.280  1.00  0.00    -0.000 C 
BRANCH  30  31
ATOM     31  C   UNL     1       1.025 -14.815   8.636  1.00  0.00    -0.003 C 
ATOM     32  C   UNL     1       1.498 -14.672  10.080  1.00  0.00     0.004 C 
ENDBRANCH  30  31
ENDBRANCH  29  30
ENDBRANCH  28  29
ENDBRANCH  27  28
ENDBRANCH  26  27
ENDBRANCH  25  26
ENDBRANCH  24  25
ENDBRANCH  23  24
ENDBRANCH  22  23
ENDBRANCH  21  22
ENDBRANCH  20  21
ENDBRANCH  19  20
ENDBRANCH  18  19
ENDBRANCH   1  18
TORSDOF 28
ENDMDL
MODEL 9
REMARK VINA RESULT:    20.894      5.008     13.378
REMARK INTER + INTRA:          54.967
REMARK INTER:                  56.704
REMARK INTRA:                  -1.738
REMARK UNBOUND:                -0.129
REMARK SMILES CCCCCCCCCCCCCCCCCCCCCCCCCCCCCC(=O)[O-]
REMARK SMILES IDX 16 1 17 2 18 3 19 4 20 5 21 6 22 7 23 8 24 9 25 10 26 11
REMARK SMILES IDX 27 12 28 13 29 14 30 15 31 16 32 17 15 18 14 19 13 20 12 21
REMARK SMILES IDX 11 22 10 23 9 24 8 25 7 26 6 27 5 28 4 29 3 30 2 31 1 32
REMARK H PARENT
REMARK Flexibility Score: inf
ROOT
ATOM      1  C   UNL     1      -3.090 -10.286   9.501  1.00  0.00     0.000 C 
ENDROOT
BRANCH   1   2
ATOM      2  C   UNL     1      -3.334 -10.822   8.076  1.00  0.00     0.000 C 
BRANCH   2   3
ATOM      3  C   UNL     1      -4.336 -11.995   7.997  1.00  0.00     0.000 C 
BRANCH   3   4
ATOM      4  C   UNL     1      -4.630 -12.412   6.544  1.00  0.00     0.000 C 
BRANCH   4   5
ATOM      5  C   UNL     1      -5.986 -13.113   6.387  1.00  0.00     0.000 C 
BRANCH   5   6
ATOM      6  C   UNL     1      -6.251 -14.148   7.498  1.00  0.00     0.000 C 
BRANCH   6   7
ATOM      7  C   UNL     1      -6.338 -15.591   6.958  1.00  0.00     0.000 C 
BRANCH   7   8
ATOM      8  C   UNL     1      -5.071 -16.071   6.231  1.00  0.00     0.000 C 
BRANCH   8   9
ATOM      9  C   UNL     1      -4.116 -16.862   7.137  1.00  0.00     0.000 C 
BRANCH   9  10
ATOM     10  C   UNL     1      -2.697 -16.273   7.140  1.00  0.00     0.000 C 
BRANCH  10  11
ATOM     11  C   UNL     1      -2.594 -15.003   6.274  1.00  0.00     0.000 C 
BRANCH  11  12
ATOM     12  C   UNL     1      -1.857 -13.852   6.981  1.00  0.00     0.000 C 
BRANCH  12  13
ATOM     13  C   UNL     1      -1.083 -14.255   8.248  1.00  0.00     0.006 C 
BRANCH  13  14
ATOM     14  C   UNL     1       0.348 -13.705   8.280  1.00  0.00     0.053 C 
BRANCH  14  15
ATOM     15  C   UNL     1       1.252 -14.639   9.021  1.00  0.00     0.041 C 
ATOM     16  O   UNL     1       1.933 -15.493   8.391  1.00  0.00    -0.550 OA
ATOM     17  O   UNL     1       1.305 -14.606  10.408  1.00  0.00    -0.550 OA
ENDBRANCH  14  15
ENDBRANCH  13  14
ENDBRANCH  12  13
ENDBRANCH  11  12
ENDBRANCH  10  11
ENDBRANCH   9  10
ENDBRANCH   8   9
ENDBRANCH   7   8
ENDBRANCH   6   7
ENDBRANCH   5   6
ENDBRANCH   4   5
ENDBRANCH   3   4
ENDBRANCH   2   3
ENDBRANCH   1   2
BRANCH   1  18
ATOM     18  C   UNL     1      -4.081  -9.212   9.981  1.00  0.00     0.000 C 
BRANCH  18  19
ATOM     19  C   UNL     1      -4.108  -9.054  11.512  1.00  0.00     0.000 C 
BRANCH  19  20
ATOM     20  C   UNL     1      -4.497  -7.629  11.941  1.00  0.00     0.000 C 
BRANCH  20  21
ATOM     21  C   UNL     1      -4.092  -7.277  13.387  1.00  0.00     0.000 C 
BRANCH  21  22
ATOM     22  C   UNL     1      -3.412  -8.447  14.127  1.00  0.00     0.000 C 
BRANCH  22  23
ATOM     23  C   UNL     1      -3.192  -8.153  15.622  1.00  0.00     0.000 C 
BRANCH  23  24
ATOM     24  C   UNL     1      -2.150  -7.042  15.826  1.00  0.00    -0.000 C 
BRANCH  24  25
ATOM     25  C   UNL     1      -2.422  -6.213  17.098  1.00  0.00    -0.000 C 
BRANCH  25  26
ATOM     26  C   UNL     1      -2.950  -7.075  18.256  1.00  0.00    -0.000 C 
BRANCH  26  27
ATOM     27  C   UNL     1      -1.825  -7.886  18.920  1.00  0.00    -0.000 C 
BRANCH  27  28
ATOM     28  C   UNL     1      -2.292  -8.492  20.252  1.00  0.00    -0.000 C 
BRANCH  28  29
ATOM     29  C   UNL     1      -3.582  -9.318  20.105  1.00  0.00    -0.000 C 
BRANCH  29  30
ATOM     30  C   UNL     1      -3.332 -10.832  20.183  1.00  0.00    -0.000 C 
BRANCH  30  31
ATOM     31  C   UNL     1      -4.653 -11.605  20.263  1.00  0.00    -0.003 C 
ATOM     32  C   UNL     1      -4.446 -13.087  19.964  1.00  0.00     0.004 C 
ENDBRANCH  30  31
ENDBRANCH  29  30
ENDBRANCH  28  29
ENDBRANCH  27  28
ENDBRANCH  26  27
ENDBRANCH  25  26
ENDBRANCH  24  25
ENDBRANCH  23  24
ENDBRANCH  22  23
ENDBRANCH  21  22
ENDBRANCH  20  21
ENDBRANCH  19  20
ENDBRANCH  18  19
ENDBRANCH   1  18
TORSDOF 28
ENDMDL
