MODEL 1
REMARK VINA RESULT:    -3.794      0.000      0.000
REMARK INTER + INTRA:          -8.022
REMARK INTER:                  -6.456
REMARK INTRA:                  -1.565
REMARK UNBOUND:                -1.565
REMARK SMILES CCCCCCCCCCCCCC(=O)[O-]
REMARK SMILES IDX 8 1 9 2 10 3 11 4 12 5 13 6 14 7 15 8 16 9 7 10 6 11 5 12
REMARK SMILES IDX 4 13 3 14 2 15 1 16
REMARK H PARENT
REMARK Flexibility Score: inf
ROOT
ATOM      1  C   UNL     1       1.010   7.765  -2.697  1.00  0.00     0.000 C 
ENDROOT
BRANCH   1   2
ATOM      2  C   UNL     1       0.665   8.079  -1.232  1.00  0.00     0.000 C 
BRANCH   2   3
ATOM      3  C   UNL     1       1.101   6.963  -0.267  1.00  0.00     0.000 C 
BRANCH   3   4
ATOM      4  C   UNL     1       0.665   7.235   1.182  1.00  0.00     0.000 C 
BRANCH   4   5
ATOM      5  C   UNL     1       1.106   6.124   2.150  1.00  0.00     0.006 C 
BRANCH   5   6
ATOM      6  C   UNL     1      -0.050   5.629   3.029  1.00  0.00     0.053 C 
BRANCH   6   7
ATOM      7  C   UNL     1      -0.000   4.144   3.224  1.00  0.00     0.041 C 
ATOM      8  O   UNL     1       0.692   3.649   4.153  1.00  0.00    -0.550 OA
ATOM      9  O   UNL     1      -0.692   3.306   2.359  1.00  0.00    -0.550 OA
ENDBRANCH   6   7
ENDBRANCH   5   6
ENDBRANCH   4   5
ENDBRANCH   3   4
ENDBRANCH   2   3
ENDBRANCH   1   2
BRANCH   1  10
ATOM     10  C   UNL     1       1.624   6.365  -2.870  1.00  0.00     0.000 C 
BRANCH  10  11
ATOM     11  C   UNL     1       2.675   6.317  -3.991  1.00  0.00    -0.000 C 
BRANCH  11  12
ATOM     12  C   UNL     1       4.112   6.491  -3.466  1.00  0.00    -0.000 C 
BRANCH  12  13
ATOM     13  C   UNL     1       4.314   5.866  -2.077  1.00  0.00    -0.000 C 
BRANCH  13  14
ATOM     14  C   UNL     1       4.786   6.888  -1.032  1.00  0.00    -0.000 C 
BRANCH  14  15
ATOM     15  C   UNL     1       4.803   8.304  -1.617  1.00  0.00    -0.003 C 
ATOM     16  C   UNL     1       4.067   9.285  -0.708  1.00  0.00     0.004 C 
ENDBRANCH  14  15
ENDBRANCH  13  14
ENDBRANCH  12  13
ENDBRANCH  11  12
ENDBRANCH  10  11
ENDBRANCH   1  10
TORSDOF 12
ENDMDL
MODEL 2
REMARK VINA RESULT:    -3.789      1.245      2.188
REMARK INTER + INTRA:          -8.012
REMARK INTER:                  -6.754
REMARK INTRA:                  -1.259
REMARK UNBOUND:                -1.565
REMARK SMILES CCCCCCCCCCCCCC(=O)[O-]
REMARK SMILES IDX 8 1 9 2 10 3 11 4 12 5 13 6 14 7 15 8 16 9 7 10 6 11 5 12
REMARK SMILES IDX 4 13 3 14 2 15 1 16
REMARK H PARENT
REMARK Flexibility Score: inf
ROOT
ATOM      1  C   UNL     1      -0.434   8.324  -1.655  1.00  0.00     0.000 C 
ENDROOT
BRANCH   1   2
ATOM      2  C   UNL     1      -0.388   8.766  -0.183  1.00  0.00     0.000 C 
BRANCH   2   3
ATOM      3  C   UNL     1       0.881   8.285   0.542  1.00  0.00     0.000 C 
BRANCH   3   4
ATOM      4  C   UNL     1       0.987   6.752   0.588  1.00  0.00     0.000 C 
BRANCH   4   5
ATOM      5  C   UNL     1       1.248   6.220   2.008  1.00  0.00     0.006 C 
BRANCH   5   6
ATOM      6  C   UNL     1      -0.023   5.660   2.659  1.00  0.00     0.053 C 
BRANCH   6   7
ATOM      7  C   UNL     1       0.125   4.210   3.004  1.00  0.00     0.041 C 
ATOM      8  O   UNL     1      -0.602   3.347   2.444  1.00  0.00    -0.550 OA
ATOM      9  O   UNL     1       1.042   3.815   3.971  1.00  0.00    -0.550 OA
ENDBRANCH   6   7
ENDBRANCH   5   6
ENDBRANCH   4   5
ENDBRANCH   3   4
ENDBRANCH   2   3
ENDBRANCH   1   2
BRANCH   1  10
ATOM     10  C   UNL     1       0.342   9.278  -2.580  1.00  0.00     0.000 C 
BRANCH  10  11
ATOM     11  C   UNL     1       1.717   8.720  -2.982  1.00  0.00    -0.000 C 
BRANCH  11  12
ATOM     12  C   UNL     1       1.621   7.352  -3.683  1.00  0.00    -0.000 C 
BRANCH  12  13
ATOM     13  C   UNL     1       2.243   6.219  -2.853  1.00  0.00    -0.000 C 
BRANCH  13  14
ATOM     14  C   UNL     1       3.436   6.691  -2.008  1.00  0.00    -0.000 C 
BRANCH  14  15
ATOM     15  C   UNL     1       4.727   5.988  -2.440  1.00  0.00    -0.003 C 
ATOM     16  C   UNL     1       5.290   6.607  -3.717  1.00  0.00     0.004 C 
ENDBRANCH  14  15
ENDBRANCH  13  14
ENDBRANCH  12  13
ENDBRANCH  11  12
ENDBRANCH  10  11
ENDBRANCH   1  10
TORSDOF 12
ENDMDL
MODEL 3
REMARK VINA RESULT:    -3.764      1.845      3.869
REMARK INTER + INTRA:          -7.969
REMARK INTER:                  -6.231
REMARK INTRA:                  -1.738
REMARK UNBOUND:                -1.565
REMARK SMILES CCCCCCCCCCCCCC(=O)[O-]
REMARK SMILES IDX 8 1 9 2 10 3 11 4 12 5 13 6 14 7 15 8 16 9 7 10 6 11 5 12
REMARK SMILES IDX 4 13 3 14 2 15 1 16
REMARK H PARENT
REMARK Flexibility Score: inf
ROOT
ATOM      1  C   UNL     1       4.262   7.127  -2.722  1.00  0.00     0.000 C 
ENDROOT
BRANCH   1   2
ATOM      2  C   UNL     1       4.997   6.191  -1.748  1.00  0.00     0.000 C 
BRANCH   2   3
ATOM      3  C   UNL     1       4.709   6.525  -0.274  1.00  0.00     0.000 C 
BRANCH   3   4
ATOM      4  C   UNL     1       4.111   7.930  -0.094  1.00  0.00     0.000 C 
BRANCH   4   5
ATOM      5  C   UNL     1       2.828   7.922   0.755  1.00  0.00     0.006 C 
BRANCH   5   6
ATOM      6  C   UNL     1       2.511   6.528   1.312  1.00  0.00     0.053 C 
BRANCH   6   7
ATOM      7  C   UNL     1       1.068   6.400   1.694  1.00  0.00     0.041 C 
ATOM      8  O   UNL     1       0.546   5.261   1.826  1.00  0.00    -0.550 OA
ATOM      9  O   UNL     1       0.291   7.538   1.870  1.00  0.00    -0.550 OA
ENDBRANCH   6   7
ENDBRANCH   5   6
ENDBRANCH   4   5
ENDBRANCH   3   4
ENDBRANCH   2   3
ENDBRANCH   1   2
BRANCH   1  10
ATOM     10  C   UNL     1       3.381   6.360  -3.723  1.00  0.00     0.000 C 
BRANCH  10  11
ATOM     11  C   UNL     1       1.902   6.772  -3.642  1.00  0.00    -0.000 C 
BRANCH  11  12
ATOM     12  C   UNL     1       1.255   6.400  -2.296  1.00  0.00    -0.000 C 
BRANCH  12  13
ATOM     13  C   UNL     1       0.223   7.438  -1.830  1.00  0.00    -0.000 C 
BRANCH  13  14
ATOM     14  C   UNL     1       0.555   8.859  -2.310  1.00  0.00    -0.000 C 
BRANCH  14  15
ATOM     15  C   UNL     1      -0.604   9.820  -2.021  1.00  0.00    -0.003 C 
ATOM     16  C   UNL     1      -1.853   9.060  -1.582  1.00  0.00     0.004 C 
ENDBRANCH  14  15
ENDBRANCH  13  14
ENDBRANCH  12  13
ENDBRANCH  11  12
ENDBRANCH  10  11
ENDBRANCH   1  10
TORSDOF 12
ENDMDL
MODEL 4
REMARK VINA RESULT:    -3.688      1.620      2.991
REMARK INTER + INTRA:          -7.840
REMARK INTER:                  -6.701
REMARK INTRA:                  -1.139
REMARK UNBOUND:                -1.565
REMARK SMILES CCCCCCCCCCCCCC(=O)[O-]
REMARK SMILES IDX 8 1 9 2 10 3 11 4 12 5 13 6 14 7 15 8 16 9 7 10 6 11 5 12
REMARK SMILES IDX 4 13 3 14 2 15 1 16
REMARK H PARENT
REMARK Flexibility Score: inf
ROOT
ATOM      1  C   UNL     1       1.419   7.005  -0.052  1.00  0.00     0.000 C 
ENDROOT
BRANCH   1   2
ATOM      2  C   UNL     1       1.274   6.442   1.371  1.00  0.00     0.000 C 
BRANCH   2   3
ATOM      3  C   UNL     1       0.196   7.172   2.192  1.00  0.00     0.000 C 
BRANCH   3   4
ATOM      4  C   UNL     1      -0.270   6.357   3.409  1.00  0.00     0.000 C 
BRANCH   4   5
ATOM      5  C   UNL     1      -0.352   4.849   3.114  1.00  0.00     0.006 C 
BRANCH   5   6
ATOM      6  C   UNL     1       0.174   4.002   4.280  1.00  0.00     0.053 C 
BRANCH   6   7
ATOM      7  C   UNL     1       1.589   4.353   4.625  1.00  0.00     0.041 C 
ATOM      8  O   UNL     1       1.862   4.863   5.744  1.00  0.00    -0.550 OA
ATOM      9  O   UNL     1       2.602   4.149   3.697  1.00  0.00    -0.550 OA
ENDBRANCH   6   7
ENDBRANCH   5   6
ENDBRANCH   4   5
ENDBRANCH   3   4
ENDBRANCH   2   3
ENDBRANCH   1   2
BRANCH   1  10
ATOM     10  C   UNL     1       0.317   8.021  -0.398  1.00  0.00     0.000 C 
BRANCH  10  11
ATOM     11  C   UNL     1       0.130   8.193  -1.914  1.00  0.00    -0.000 C 
BRANCH  11  12
ATOM     12  C   UNL     1       1.462   8.401  -2.657  1.00  0.00    -0.000 C 
BRANCH  12  13
ATOM     13  C   UNL     1       1.584   7.520  -3.909  1.00  0.00    -0.000 C 
BRANCH  13  14
ATOM     14  C   UNL     1       2.689   6.461  -3.782  1.00  0.00    -0.000 C 
BRANCH  14  15
ATOM     15  C   UNL     1       3.905   7.023  -3.038  1.00  0.00    -0.003 C 
ATOM     16  C   UNL     1       4.571   5.951  -2.179  1.00  0.00     0.004 C 
ENDBRANCH  14  15
ENDBRANCH  13  14
ENDBRANCH  12  13
ENDBRANCH  11  12
ENDBRANCH  10  11
ENDBRANCH   1  10
TORSDOF 12
ENDMDL
MODEL 5
REMARK VINA RESULT:    -3.685      3.207      6.126
REMARK INTER + INTRA:          -7.836
REMARK INTER:                  -6.601
REMARK INTRA:                  -1.234
REMARK UNBOUND:                -1.565
REMARK SMILES CCCCCCCCCCCCCC(=O)[O-]
REMARK SMILES IDX 8 1 9 2 10 3 11 4 12 5 13 6 14 7 15 8 16 9 7 10 6 11 5 12
REMARK SMILES IDX 4 13 3 14 2 15 1 16
REMARK H PARENT
REMARK Flexibility Score: inf
ROOT
ATOM      1  C   UNL     1      -1.229   8.745  -0.937  1.00  0.00     0.000 C 
ENDROOT
BRANCH   1   2
ATOM      2  C   UNL     1      -0.245   8.044  -1.888  1.00  0.00     0.000 C 
BRANCH   2   3
ATOM      3  C   UNL     1       0.714   9.029  -2.581  1.00  0.00     0.000 C 
BRANCH   3   4
ATOM      4  C   UNL     1       2.191   8.678  -2.340  1.00  0.00     0.000 C 
BRANCH   4   5
ATOM      5  C   UNL     1       2.397   7.196  -1.986  1.00  0.00     0.006 C 
BRANCH   5   6
ATOM      6  C   UNL     1       3.068   6.416  -3.125  1.00  0.00     0.053 C 
BRANCH   6   7
ATOM      7  C   UNL     1       4.537   6.246  -2.889  1.00  0.00     0.041 C 
ATOM      8  O   UNL     1       5.371   6.766  -3.678  1.00  0.00    -0.550 OA
ATOM      9  O   UNL     1       4.987   5.486  -1.817  1.00  0.00    -0.550 OA
ENDBRANCH   6   7
ENDBRANCH   5   6
ENDBRANCH   4   5
ENDBRANCH   3   4
ENDBRANCH   2   3
ENDBRANCH   1   2
BRANCH   1  10
ATOM     10  C   UNL     1      -0.519   9.431   0.244  1.00  0.00     0.000 C 
BRANCH  10  11
ATOM     11  C   UNL     1      -0.417   8.519   1.478  1.00  0.00    -0.000 C 
BRANCH  11  12
ATOM     12  C   UNL     1       0.951   7.821   1.588  1.00  0.00    -0.000 C 
BRANCH  12  13
ATOM     13  C   UNL     1       0.876   6.321   1.263  1.00  0.00    -0.000 C 
BRANCH  13  14
ATOM     14  C   UNL     1       0.945   5.440   2.519  1.00  0.00    -0.000 C 
BRANCH  14  15
ATOM     15  C   UNL     1      -0.454   4.980   2.944  1.00  0.00    -0.003 C 
ATOM     16  C   UNL     1      -0.589   3.463   2.847  1.00  0.00     0.004 C 
ENDBRANCH  14  15
ENDBRANCH  13  14
ENDBRANCH  12  13
ENDBRANCH  11  12
ENDBRANCH  10  11
ENDBRANCH   1  10
TORSDOF 12
ENDMDL
MODEL 6
REMARK VINA RESULT:    -3.649      1.317      2.758
REMARK INTER + INTRA:          -7.774
REMARK INTER:                  -6.743
REMARK INTRA:                  -1.031
REMARK UNBOUND:                -1.565
REMARK SMILES CCCCCCCCCCCCCC(=O)[O-]
REMARK SMILES IDX 8 1 9 2 10 3 11 4 12 5 13 6 14 7 15 8 16 9 7 10 6 11 5 12
REMARK SMILES IDX 4 13 3 14 2 15 1 16
REMARK H PARENT
REMARK Flexibility Score: inf
ROOT
ATOM      1  C   UNL     1       1.228   8.030   0.894  1.00  0.00     0.000 C 
ENDROOT
BRANCH   1   2
ATOM      2  C   UNL     1      -0.097   8.652   1.365  1.00  0.00     0.000 C 
BRANCH   2   3
ATOM      3  C   UNL     1      -0.404   8.346   2.842  1.00  0.00     0.000 C 
BRANCH   3   4
ATOM      4  C   UNL     1      -0.696   6.857   3.087  1.00  0.00     0.000 C 
BRANCH   4   5
ATOM      5  C   UNL     1       0.111   6.282   4.264  1.00  0.00     0.006 C 
BRANCH   5   6
ATOM      6  C   UNL     1      -0.072   4.766   4.405  1.00  0.00     0.053 C 
BRANCH   6   7
ATOM      7  C   UNL     1       0.320   4.042   3.153  1.00  0.00     0.041 C 
ATOM      8  O   UNL     1       1.503   4.106   2.726  1.00  0.00    -0.550 OA
ATOM      9  O   UNL     1      -0.631   3.324   2.438  1.00  0.00    -0.550 OA
ENDBRANCH   6   7
ENDBRANCH   5   6
ENDBRANCH   4   5
ENDBRANCH   3   4
ENDBRANCH   2   3
ENDBRANCH   1   2
BRANCH   1  10
ATOM     10  C   UNL     1       1.031   7.026  -0.255  1.00  0.00     0.000 C 
BRANCH  10  11
ATOM     11  C   UNL     1       0.226   7.618  -1.423  1.00  0.00    -0.000 C 
BRANCH  11  12
ATOM     12  C   UNL     1       1.024   7.651  -2.739  1.00  0.00    -0.000 C 
BRANCH  12  13
ATOM     13  C   UNL     1       1.542   6.264  -3.150  1.00  0.00    -0.000 C 
BRANCH  13  14
ATOM     14  C   UNL     1       2.921   6.324  -3.824  1.00  0.00    -0.000 C 
BRANCH  14  15
ATOM     15  C   UNL     1       3.940   7.032  -2.924  1.00  0.00    -0.003 C 
ATOM     16  C   UNL     1       4.617   6.046  -1.976  1.00  0.00     0.004 C 
ENDBRANCH  14  15
ENDBRANCH  13  14
ENDBRANCH  12  13
ENDBRANCH  11  12
ENDBRANCH  10  11
ENDBRANCH   1  10
TORSDOF 12
ENDMDL
MODEL 7
REMARK VINA RESULT:    -3.559      1.319      2.081
REMARK INTER + INTRA:          -7.621
REMARK INTER:                  -6.003
REMARK INTRA:                  -1.618
REMARK UNBOUND:                -1.565
REMARK SMILES CCCCCCCCCCCCCC(=O)[O-]
REMARK SMILES IDX 8 1 9 2 10 3 11 4 12 5 13 6 14 7 15 8 16 9 7 10 6 11 5 12
REMARK SMILES IDX 4 13 3 14 2 15 1 16
REMARK H PARENT
REMARK Flexibility Score: inf
ROOT
ATOM      1  C   UNL     1       1.024   6.873  -2.561  1.00  0.00     0.000 C 
ENDROOT
BRANCH   1   2
ATOM      2  C   UNL     1       0.025   7.819  -1.876  1.00  0.00     0.000 C 
BRANCH   2   3
ATOM      3  C   UNL     1       0.300   7.982  -0.370  1.00  0.00     0.000 C 
BRANCH   3   4
ATOM      4  C   UNL     1       1.413   7.047   0.130  1.00  0.00     0.000 C 
BRANCH   4   5
ATOM      5  C   UNL     1       1.558   7.066   1.661  1.00  0.00     0.006 C 
BRANCH   5   6
ATOM      6  C   UNL     1       1.569   5.653   2.259  1.00  0.00     0.053 C 
BRANCH   6   7
ATOM      7  C   UNL     1       0.190   5.199   2.630  1.00  0.00     0.041 C 
ATOM      8  O   UNL     1      -0.612   5.994   3.188  1.00  0.00    -0.550 OA
ATOM      9  O   UNL     1      -0.197   3.886   2.389  1.00  0.00    -0.550 OA
ENDBRANCH   6   7
ENDBRANCH   5   6
ENDBRANCH   4   5
ENDBRANCH   3   4
ENDBRANCH   2   3
ENDBRANCH   1   2
BRANCH   1  10
ATOM     10  C   UNL     1       1.841   7.575  -3.660  1.00  0.00     0.000 C 
BRANCH  10  11
ATOM     11  C   UNL     1       1.693   9.104  -3.617  1.00  0.00    -0.000 C 
BRANCH  11  12
ATOM     12  C   UNL     1       2.859   9.794  -2.886  1.00  0.00    -0.000 C 
BRANCH  12  13
ATOM     13  C   UNL     1       4.088   8.884  -2.744  1.00  0.00    -0.000 C 
BRANCH  13  14
ATOM     14  C   UNL     1       4.399   8.534  -1.281  1.00  0.00    -0.000 C 
BRANCH  14  15
ATOM     15  C   UNL     1       5.381   7.361  -1.195  1.00  0.00    -0.003 C 
ATOM     16  C   UNL     1       4.709   6.049  -1.593  1.00  0.00     0.004 C 
ENDBRANCH  14  15
ENDBRANCH  13  14
ENDBRANCH  12  13
ENDBRANCH  11  12
ENDBRANCH  10  11
ENDBRANCH   1  10
TORSDOF 12
ENDMDL
MODEL 8
REMARK VINA RESULT:    -3.552      1.226      2.881
REMARK INTER + INTRA:          -7.609
REMARK INTER:                  -5.963
REMARK INTRA:                  -1.647
REMARK UNBOUND:                -1.565
REMARK SMILES CCCCCCCCCCCCCC(=O)[O-]
REMARK SMILES IDX 8 1 9 2 10 3 11 4 12 5 13 6 14 7 15 8 16 9 7 10 6 11 5 12
REMARK SMILES IDX 4 13 3 14 2 15 1 16
REMARK H PARENT
REMARK Flexibility Score: inf
ROOT
ATOM      1  C   UNL     1       5.262   6.422  -1.674  1.00  0.00     0.000 C 
ENDROOT
BRANCH   1   2
ATOM      2  C   UNL     1       4.777   6.102  -0.250  1.00  0.00     0.000 C 
BRANCH   2   3
ATOM      3  C   UNL     1       3.768   7.136   0.280  1.00  0.00     0.000 C 
BRANCH   3   4
ATOM      4  C   UNL     1       2.926   6.593   1.446  1.00  0.00     0.000 C 
BRANCH   4   5
ATOM      5  C   UNL     1       1.414   6.711   1.188  1.00  0.00     0.006 C 
BRANCH   5   6
ATOM      6  C   UNL     1       0.611   6.808   2.492  1.00  0.00     0.053 C 
BRANCH   6   7
ATOM      7  C   UNL     1       0.245   5.455   3.019  1.00  0.00     0.041 C 
ATOM      8  O   UNL     1       0.089   5.277   4.257  1.00  0.00    -0.550 OA
ATOM      9  O   UNL     1       0.110   4.382   2.147  1.00  0.00    -0.550 OA
ENDBRANCH   6   7
ENDBRANCH   5   6
ENDBRANCH   4   5
ENDBRANCH   3   4
ENDBRANCH   2   3
ENDBRANCH   1   2
BRANCH   1  10
ATOM     10  C   UNL     1       4.231   7.233  -2.478  1.00  0.00     0.000 C 
BRANCH  10  11
ATOM     11  C   UNL     1       3.638   6.434  -3.650  1.00  0.00    -0.000 C 
BRANCH  11  12
ATOM     12  C   UNL     1       2.108   6.567  -3.746  1.00  0.00    -0.000 C 
BRANCH  12  13
ATOM     13  C   UNL     1       1.414   6.403  -2.385  1.00  0.00    -0.000 C 
BRANCH  13  14
ATOM     14  C   UNL     1       0.328   7.463  -2.144  1.00  0.00    -0.000 C 
BRANCH  14  15
ATOM     15  C   UNL     1       0.838   8.862  -2.504  1.00  0.00    -0.003 C 
ATOM     16  C   UNL     1       1.508   9.530  -1.306  1.00  0.00     0.004 C 
ENDBRANCH  14  15
ENDBRANCH  13  14
ENDBRANCH  12  13
ENDBRANCH  11  12
ENDBRANCH  10  11
ENDBRANCH   1  10
TORSDOF 12
ENDMDL
MODEL 9
REMARK VINA RESULT:    -3.550      1.370      2.118
REMARK INTER + INTRA:          -7.605
REMARK INTER:                  -6.064
REMARK INTRA:                  -1.541
REMARK UNBOUND:                -1.565
REMARK SMILES CCCCCCCCCCCCCC(=O)[O-]
REMARK SMILES IDX 8 1 9 2 10 3 11 4 12 5 13 6 14 7 15 8 16 9 7 10 6 11 5 12
REMARK SMILES IDX 4 13 3 14 2 15 1 16
REMARK H PARENT
REMARK Flexibility Score: inf
ROOT
ATOM      1  C   UNL     1       1.375   6.302  -2.573  1.00  0.00     0.000 C 
ENDROOT
BRANCH   1   2
ATOM      2  C   UNL     1       0.557   7.566  -2.264  1.00  0.00     0.000 C 
BRANCH   2   3
ATOM      3  C   UNL     1       0.519   7.896  -0.762  1.00  0.00     0.000 C 
BRANCH   3   4
ATOM      4  C   UNL     1       1.336   6.903   0.080  1.00  0.00     0.000 C 
BRANCH   4   5
ATOM      5  C   UNL     1       1.001   6.983   1.579  1.00  0.00     0.006 C 
BRANCH   5   6
ATOM      6  C   UNL     1       0.739   5.600   2.189  1.00  0.00     0.053 C 
BRANCH   6   7
ATOM      7  C   UNL     1       1.835   5.191   3.125  1.00  0.00     0.041 C 
ATOM      8  O   UNL     1       2.398   4.071   2.993  1.00  0.00    -0.550 OA
ATOM      9  O   UNL     1       2.213   6.032   4.164  1.00  0.00    -0.550 OA
ENDBRANCH   6   7
ENDBRANCH   5   6
ENDBRANCH   4   5
ENDBRANCH   3   4
ENDBRANCH   2   3
ENDBRANCH   1   2
BRANCH   1  10
ATOM     10  C   UNL     1       2.260   6.463  -3.821  1.00  0.00     0.000 C 
BRANCH  10  11
ATOM     11  C   UNL     1       3.760   6.460  -3.484  1.00  0.00    -0.000 C 
BRANCH  11  12
ATOM     12  C   UNL     1       4.188   7.691  -2.665  1.00  0.00    -0.000 C 
BRANCH  12  13
ATOM     13  C   UNL     1       4.852   7.313  -1.333  1.00  0.00    -0.000 C 
BRANCH  13  14
ATOM     14  C   UNL     1       5.152   5.810  -1.227  1.00  0.00    -0.000 C 
BRANCH  14  15
ATOM     15  C   UNL     1       5.546   5.430   0.204  1.00  0.00    -0.003 C 
ATOM     16  C   UNL     1       4.822   6.302   1.226  1.00  0.00     0.004 C 
ENDBRANCH  14  15
ENDBRANCH  13  14
ENDBRANCH  12  13
ENDBRANCH  11  12
ENDBRANCH  10  11
ENDBRANCH   1  10
TORSDOF 12
ENDMDL
