MODEL 1
REMARK VINA RESULT:     3.542      0.000      0.000
REMARK INTER + INTRA:           9.071
REMARK INTER:                   8.925
REMARK INTRA:                   0.146
REMARK UNBOUND:                 0.146
REMARK SMILES CCCCCCCCCCCCCCCCCCCCCCCCCCCC(=O)[O-]
REMARK SMILES IDX 15 1 16 2 17 3 18 4 19 5 20 6 21 7 22 8 23 9 24 10 25 11
REMARK SMILES IDX 26 12 27 13 28 14 29 15 30 16 14 17 13 18 12 19 11 20 10 21
REMARK SMILES IDX 9 22 8 23 7 24 6 25 5 26 4 27 3 28 2 29 1 30
REMARK H PARENT
REMARK Flexibility Score: inf
ROOT
ATOM      1  C   UNL     1       5.832 -36.031  24.693  1.00  0.00     0.000 C 
ENDROOT
BRANCH   1   2
ATOM      2  C   UNL     1       5.957 -36.710  26.066  1.00  0.00     0.000 C 
BRANCH   2   3
ATOM      3  C   UNL     1       4.613 -37.262  26.571  1.00  0.00     0.000 C 
BRANCH   3   4
ATOM      4  C   UNL     1       4.089 -38.433  25.720  1.00  0.00     0.000 C 
BRANCH   4   5
ATOM      5  C   UNL     1       5.173 -39.375  25.156  1.00  0.00     0.000 C 
BRANCH   5   6
ATOM      6  C   UNL     1       5.538 -39.145  23.678  1.00  0.00     0.000 C 
BRANCH   6   7
ATOM      7  C   UNL     1       5.178 -40.338  22.779  1.00  0.00     0.000 C 
BRANCH   7   8
ATOM      8  C   UNL     1       4.987 -39.892  21.325  1.00  0.00     0.000 C 
BRANCH   8   9
ATOM      9  C   UNL     1       5.422 -38.434  21.135  1.00  0.00     0.000 C 
BRANCH   9  10
ATOM     10  C   UNL     1       5.533 -38.081  19.647  1.00  0.00     0.000 C 
BRANCH  10  11
ATOM     11  C   UNL     1       4.176 -38.231  18.943  1.00  0.00     0.000 C 
BRANCH  11  12
ATOM     12  C   UNL     1       3.128 -37.230  19.453  1.00  0.00     0.006 C 
BRANCH  12  13
ATOM     13  C   UNL     1       1.795 -37.900  19.813  1.00  0.00     0.053 C 
BRANCH  13  14
ATOM     14  C   UNL     1       0.927 -38.035  18.601  1.00  0.00     0.041 C 
ATOM     15  O   UNL     1       1.436 -38.327  17.486  1.00  0.00    -0.550 OA
ATOM     16  O   UNL     1      -0.448 -37.862  18.706  1.00  0.00    -0.550 OA
ENDBRANCH  13  14
ENDBRANCH  12  13
ENDBRANCH  11  12
ENDBRANCH  10  11
ENDBRANCH   9  10
ENDBRANCH   8   9
ENDBRANCH   7   8
ENDBRANCH   6   7
ENDBRANCH   5   6
ENDBRANCH   4   5
ENDBRANCH   3   4
ENDBRANCH   2   3
ENDBRANCH   1   2
BRANCH   1  17
ATOM     17  C   UNL     1       5.829 -34.498  24.786  1.00  0.00     0.000 C 
BRANCH  17  18
ATOM     18  C   UNL     1       5.916 -33.867  23.389  1.00  0.00     0.000 C 
BRANCH  18  19
ATOM     19  C   UNL     1       6.124 -34.910  22.276  1.00  0.00     0.000 C 
BRANCH  19  20
ATOM     20  C   UNL     1       5.005 -34.967  21.216  1.00  0.00     0.000 C 
BRANCH  20  21
ATOM     21  C   UNL     1       5.468 -35.359  19.801  1.00  0.00     0.000 C 
BRANCH  21  22
ATOM     22  C   UNL     1       5.964 -34.155  18.982  1.00  0.00    -0.000 C 
BRANCH  22  23
ATOM     23  C   UNL     1       5.210 -33.991  17.654  1.00  0.00    -0.000 C 
BRANCH  23  24
ATOM     24  C   UNL     1       3.947 -34.868  17.578  1.00  0.00    -0.000 C 
BRANCH  24  25
ATOM     25  C   UNL     1       3.934 -35.779  16.333  1.00  0.00    -0.000 C 
BRANCH  25  26
ATOM     26  C   UNL     1       2.522 -36.209  15.886  1.00  0.00    -0.000 C 
BRANCH  26  27
ATOM     27  C   UNL     1       2.377 -36.412  14.361  1.00  0.00    -0.000 C 
BRANCH  27  28
ATOM     28  C   UNL     1       2.866 -37.793  13.875  1.00  0.00    -0.000 C 
BRANCH  28  29
ATOM     29  C   UNL     1       4.357 -38.050  14.161  1.00  0.00    -0.003 C 
ATOM     30  C   UNL     1       4.682 -39.538  14.286  1.00  0.00     0.004 C 
ENDBRANCH  28  29
ENDBRANCH  27  28
ENDBRANCH  26  27
ENDBRANCH  25  26
ENDBRANCH  24  25
ENDBRANCH  23  24
ENDBRANCH  22  23
ENDBRANCH  21  22
ENDBRANCH  20  21
ENDBRANCH  19  20
ENDBRANCH  18  19
ENDBRANCH  17  18
ENDBRANCH   1  17
TORSDOF 26
ENDMDL
MODEL 2
REMARK VINA RESULT:     4.736      3.576      6.249
REMARK INTER + INTRA:          12.081
REMARK INTER:                  11.473
REMARK INTRA:                   0.608
REMARK UNBOUND:                 0.146
REMARK SMILES CCCCCCCCCCCCCCCCCCCCCCCCCCCC(=O)[O-]
REMARK SMILES IDX 15 1 16 2 17 3 18 4 19 5 20 6 21 7 22 8 23 9 24 10 25 11
REMARK SMILES IDX 26 12 27 13 28 14 29 15 30 16 14 17 13 18 12 19 11 20 10 21
REMARK SMILES IDX 9 22 8 23 7 24 6 25 5 26 4 27 3 28 2 29 1 30
REMARK H PARENT
REMARK Flexibility Score: inf
ROOT
ATOM      1  C   UNL     1       5.238 -36.919  21.344  1.00  0.00     0.000 C 
ENDROOT
BRANCH   1   2
ATOM      2  C   UNL     1       6.125 -35.663  21.336  1.00  0.00     0.000 C 
BRANCH   2   3
ATOM      3  C   UNL     1       5.347 -34.395  21.731  1.00  0.00     0.000 C 
BRANCH   3   4
ATOM      4  C   UNL     1       4.797 -34.453  23.168  1.00  0.00     0.000 C 
BRANCH   4   5
ATOM      5  C   UNL     1       5.847 -34.721  24.265  1.00  0.00     0.000 C 
BRANCH   5   6
ATOM      6  C   UNL     1       5.484 -35.836  25.262  1.00  0.00     0.000 C 
BRANCH   6   7
ATOM      7  C   UNL     1       5.824 -37.241  24.740  1.00  0.00     0.000 C 
BRANCH   7   8
ATOM      8  C   UNL     1       4.743 -38.252  25.141  1.00  0.00     0.000 C 
BRANCH   8   9
ATOM      9  C   UNL     1       4.441 -38.169  26.642  1.00  0.00     0.000 C 
BRANCH   9  10
ATOM     10  C   UNL     1       2.930 -38.161  26.900  1.00  0.00     0.000 C 
BRANCH  10  11
ATOM     11  C   UNL     1       2.387 -36.725  26.946  1.00  0.00     0.000 C 
BRANCH  11  12
ATOM     12  C   UNL     1       1.983 -36.287  28.362  1.00  0.00     0.006 C 
BRANCH  12  13
ATOM     13  C   UNL     1       2.357 -34.828  28.659  1.00  0.00     0.053 C 
BRANCH  13  14
ATOM     14  C   UNL     1       1.419 -34.235  29.662  1.00  0.00     0.041 C 
ATOM     15  O   UNL     1       0.200 -34.088  29.381  1.00  0.00    -0.550 OA
ATOM     16  O   UNL     1       1.886 -33.864  30.918  1.00  0.00    -0.550 OA
ENDBRANCH  13  14
ENDBRANCH  12  13
ENDBRANCH  11  12
ENDBRANCH  10  11
ENDBRANCH   9  10
ENDBRANCH   8   9
ENDBRANCH   7   8
ENDBRANCH   6   7
ENDBRANCH   5   6
ENDBRANCH   4   5
ENDBRANCH   3   4
ENDBRANCH   2   3
ENDBRANCH   1   2
BRANCH   1  17
ATOM     17  C   UNL     1       6.045 -38.217  21.187  1.00  0.00     0.000 C 
BRANCH  17  18
ATOM     18  C   UNL     1       5.554 -39.019  19.974  1.00  0.00     0.000 C 
BRANCH  18  19
ATOM     19  C   UNL     1       4.523 -38.250  19.128  1.00  0.00     0.000 C 
BRANCH  19  20
ATOM     20  C   UNL     1       3.701 -37.197  19.900  1.00  0.00     0.000 C 
BRANCH  20  21
ATOM     21  C   UNL     1       2.259 -37.616  20.238  1.00  0.00     0.000 C 
BRANCH  21  22
ATOM     22  C   UNL     1       1.616 -38.476  19.137  1.00  0.00    -0.000 C 
BRANCH  22  23
ATOM     23  C   UNL     1       0.403 -37.795  18.485  1.00  0.00    -0.000 C 
BRANCH  23  24
ATOM     24  C   UNL     1       0.647 -37.441  17.007  1.00  0.00    -0.000 C 
BRANCH  24  25
ATOM     25  C   UNL     1       2.146 -37.417  16.646  1.00  0.00    -0.000 C 
BRANCH  25  26
ATOM     26  C   UNL     1       2.562 -36.212  15.777  1.00  0.00    -0.000 C 
BRANCH  26  27
ATOM     27  C   UNL     1       2.650 -36.522  14.266  1.00  0.00    -0.000 C 
BRANCH  27  28
ATOM     28  C   UNL     1       3.895 -37.345  13.878  1.00  0.00    -0.000 C 
BRANCH  28  29
ATOM     29  C   UNL     1       4.054 -38.640  14.698  1.00  0.00    -0.003 C 
ATOM     30  C   UNL     1       5.040 -39.619  14.062  1.00  0.00     0.004 C 
ENDBRANCH  28  29
ENDBRANCH  27  28
ENDBRANCH  26  27
ENDBRANCH  25  26
ENDBRANCH  24  25
ENDBRANCH  23  24
ENDBRANCH  22  23
ENDBRANCH  21  22
ENDBRANCH  20  21
ENDBRANCH  19  20
ENDBRANCH  18  19
ENDBRANCH  17  18
ENDBRANCH   1  17
TORSDOF 26
ENDMDL
MODEL 3
REMARK VINA RESULT:     5.231      3.654      5.926
REMARK INTER + INTRA:          13.327
REMARK INTER:                  15.080
REMARK INTRA:                  -1.753
REMARK UNBOUND:                 0.146
REMARK SMILES CCCCCCCCCCCCCCCCCCCCCCCCCCCC(=O)[O-]
REMARK SMILES IDX 15 1 16 2 17 3 18 4 19 5 20 6 21 7 22 8 23 9 24 10 25 11
REMARK SMILES IDX 26 12 27 13 28 14 29 15 30 16 14 17 13 18 12 19 11 20 10 21
REMARK SMILES IDX 9 22 8 23 7 24 6 25 5 26 4 27 3 28 2 29 1 30
REMARK H PARENT
REMARK Flexibility Score: inf
ROOT
ATOM      1  C   UNL     1       4.937 -36.943  21.847  1.00  0.00     0.000 C 
ENDROOT
BRANCH   1   2
ATOM      2  C   UNL     1       6.121 -37.823  21.413  1.00  0.00     0.000 C 
BRANCH   2   3
ATOM      3  C   UNL     1       5.688 -39.259  21.072  1.00  0.00     0.000 C 
BRANCH   3   4
ATOM      4  C   UNL     1       5.736 -40.203  22.288  1.00  0.00     0.000 C 
BRANCH   4   5
ATOM      5  C   UNL     1       4.723 -39.889  23.407  1.00  0.00     0.000 C 
BRANCH   5   6
ATOM      6  C   UNL     1       5.340 -39.458  24.750  1.00  0.00     0.000 C 
BRANCH   6   7
ATOM      7  C   UNL     1       5.735 -37.973  24.778  1.00  0.00     0.000 C 
BRANCH   7   8
ATOM      8  C   UNL     1       4.716 -37.148  25.572  1.00  0.00     0.000 C 
BRANCH   8   9
ATOM      9  C   UNL     1       4.105 -37.976  26.710  1.00  0.00     0.000 C 
BRANCH   9  10
ATOM     10  C   UNL     1       2.574 -37.975  26.631  1.00  0.00     0.000 C 
BRANCH  10  11
ATOM     11  C   UNL     1       1.958 -37.344  27.888  1.00  0.00     0.000 C 
BRANCH  11  12
ATOM     12  C   UNL     1       2.354 -35.870  28.068  1.00  0.00     0.006 C 
BRANCH  12  13
ATOM     13  C   UNL     1       1.152 -34.970  28.387  1.00  0.00     0.053 C 
BRANCH  13  14
ATOM     14  C   UNL     1       1.399 -34.180  29.634  1.00  0.00     0.041 C 
ATOM     15  O   UNL     1       2.221 -34.593  30.493  1.00  0.00    -0.550 OA
ATOM     16  O   UNL     1       0.737 -32.974  29.836  1.00  0.00    -0.550 OA
ENDBRANCH  13  14
ENDBRANCH  12  13
ENDBRANCH  11  12
ENDBRANCH  10  11
ENDBRANCH   9  10
ENDBRANCH   8   9
ENDBRANCH   7   8
ENDBRANCH   6   7
ENDBRANCH   5   6
ENDBRANCH   4   5
ENDBRANCH   3   4
ENDBRANCH   2   3
ENDBRANCH   1   2
BRANCH   1  17
ATOM     17  C   UNL     1       5.340 -35.480  22.087  1.00  0.00     0.000 C 
BRANCH  17  18
ATOM     18  C   UNL     1       4.996 -34.613  20.868  1.00  0.00     0.000 C 
BRANCH  18  19
ATOM     19  C   UNL     1       6.030 -34.741  19.734  1.00  0.00     0.000 C 
BRANCH  19  20
ATOM     20  C   UNL     1       5.434 -34.922  18.323  1.00  0.00     0.000 C 
BRANCH  20  21
ATOM     21  C   UNL     1       4.195 -35.833  18.253  1.00  0.00     0.000 C 
BRANCH  21  22
ATOM     22  C   UNL     1       4.527 -37.312  18.516  1.00  0.00    -0.000 C 
BRANCH  22  23
ATOM     23  C   UNL     1       3.367 -38.072  19.175  1.00  0.00    -0.000 C 
BRANCH  23  24
ATOM     24  C   UNL     1       2.115 -37.196  19.361  1.00  0.00    -0.000 C 
BRANCH  24  25
ATOM     25  C   UNL     1       0.865 -37.802  18.690  1.00  0.00    -0.000 C 
BRANCH  25  26
ATOM     26  C   UNL     1       0.920 -37.804  17.149  1.00  0.00    -0.000 C 
BRANCH  26  27
ATOM     27  C   UNL     1       1.698 -36.615  16.542  1.00  0.00    -0.000 C 
BRANCH  27  28
ATOM     28  C   UNL     1       1.820 -36.680  15.006  1.00  0.00    -0.000 C 
BRANCH  28  29
ATOM     29  C   UNL     1       3.277 -36.749  14.510  1.00  0.00    -0.003 C 
ATOM     30  C   UNL     1       3.869 -38.153  14.620  1.00  0.00     0.004 C 
ENDBRANCH  28  29
ENDBRANCH  27  28
ENDBRANCH  26  27
ENDBRANCH  25  26
ENDBRANCH  24  25
ENDBRANCH  23  24
ENDBRANCH  22  23
ENDBRANCH  21  22
ENDBRANCH  20  21
ENDBRANCH  19  20
ENDBRANCH  18  19
ENDBRANCH  17  18
ENDBRANCH   1  17
TORSDOF 26
ENDMDL
MODEL 4
REMARK VINA RESULT:     5.811      2.670      8.552
REMARK INTER + INTRA:          14.789
REMARK INTER:                  14.700
REMARK INTRA:                   0.088
REMARK UNBOUND:                 0.146
REMARK SMILES CCCCCCCCCCCCCCCCCCCCCCCCCCCC(=O)[O-]
REMARK SMILES IDX 15 1 16 2 17 3 18 4 19 5 20 6 21 7 22 8 23 9 24 10 25 11
REMARK SMILES IDX 26 12 27 13 28 14 29 15 30 16 14 17 13 18 12 19 11 20 10 21
REMARK SMILES IDX 9 22 8 23 7 24 6 25 5 26 4 27 3 28 2 29 1 30
REMARK H PARENT
REMARK Flexibility Score: inf
ROOT
ATOM      1  C   UNL     1       4.101 -38.544  20.631  1.00  0.00     0.000 C 
ENDROOT
BRANCH   1   2
ATOM      2  C   UNL     1       3.291 -37.745  19.596  1.00  0.00     0.000 C 
BRANCH   2   3
ATOM      3  C   UNL     1       1.826 -37.549  20.023  1.00  0.00     0.000 C 
BRANCH   3   4
ATOM      4  C   UNL     1       0.837 -38.342  19.148  1.00  0.00     0.000 C 
BRANCH   4   5
ATOM      5  C   UNL     1       0.744 -37.884  17.678  1.00  0.00     0.000 C 
BRANCH   5   6
ATOM      6  C   UNL     1       2.087 -37.802  16.930  1.00  0.00     0.000 C 
BRANCH   6   7
ATOM      7  C   UNL     1       2.124 -36.675  15.887  1.00  0.00     0.000 C 
BRANCH   7   8
ATOM      8  C   UNL     1       2.897 -35.461  16.417  1.00  0.00     0.000 C 
BRANCH   8   9
ATOM      9  C   UNL     1       4.204 -35.893  17.093  1.00  0.00     0.000 C 
BRANCH   9  10
ATOM     10  C   UNL     1       4.979 -34.679  17.619  1.00  0.00     0.000 C 
BRANCH  10  11
ATOM     11  C   UNL     1       5.971 -35.093  18.716  1.00  0.00     0.000 C 
BRANCH  11  12
ATOM     12  C   UNL     1       5.676 -34.426  20.068  1.00  0.00     0.006 C 
BRANCH  12  13
ATOM     13  C   UNL     1       4.876 -35.332  21.013  1.00  0.00     0.053 C 
BRANCH  13  14
ATOM     14  C   UNL     1       4.705 -34.683  22.350  1.00  0.00     0.041 C 
ATOM     15  O   UNL     1       3.570 -34.283  22.721  1.00  0.00    -0.550 OA
ATOM     16  O   UNL     1       5.797 -34.538  23.199  1.00  0.00    -0.550 OA
ENDBRANCH  13  14
ENDBRANCH  12  13
ENDBRANCH  11  12
ENDBRANCH  10  11
ENDBRANCH   9  10
ENDBRANCH   8   9
ENDBRANCH   7   8
ENDBRANCH   6   7
ENDBRANCH   5   6
ENDBRANCH   4   5
ENDBRANCH   3   4
ENDBRANCH   2   3
ENDBRANCH   1   2
BRANCH   1  17
ATOM     17  C   UNL     1       5.552 -38.790  20.191  1.00  0.00     0.000 C 
BRANCH  17  18
ATOM     18  C   UNL     1       6.049 -40.153  20.691  1.00  0.00     0.000 C 
BRANCH  18  19
ATOM     19  C   UNL     1       6.119 -40.235  22.227  1.00  0.00     0.000 C 
BRANCH  19  20
ATOM     20  C   UNL     1       4.753 -40.253  22.943  1.00  0.00     0.000 C 
BRANCH  20  21
ATOM     21  C   UNL     1       4.631 -39.290  24.137  1.00  0.00     0.000 C 
BRANCH  21  22
ATOM     22  C   UNL     1       5.916 -38.482  24.384  1.00  0.00    -0.000 C 
BRANCH  22  23
ATOM     23  C   UNL     1       5.644 -36.984  24.588  1.00  0.00    -0.000 C 
BRANCH  23  24
ATOM     24  C   UNL     1       5.011 -36.679  25.957  1.00  0.00    -0.000 C 
BRANCH  24  25
ATOM     25  C   UNL     1       4.156 -37.849  26.486  1.00  0.00    -0.000 C 
BRANCH  25  26
ATOM     26  C   UNL     1       2.659 -37.513  26.639  1.00  0.00    -0.000 C 
BRANCH  26  27
ATOM     27  C   UNL     1       2.265 -37.008  28.045  1.00  0.00    -0.000 C 
BRANCH  27  28
ATOM     28  C   UNL     1       1.928 -35.503  28.086  1.00  0.00    -0.000 C 
BRANCH  28  29
ATOM     29  C   UNL     1       1.405 -35.029  29.455  1.00  0.00    -0.003 C 
ATOM     30  C   UNL     1       1.509 -33.514  29.630  1.00  0.00     0.004 C 
ENDBRANCH  28  29
ENDBRANCH  27  28
ENDBRANCH  26  27
ENDBRANCH  25  26
ENDBRANCH  24  25
ENDBRANCH  23  24
ENDBRANCH  22  23
ENDBRANCH  21  22
ENDBRANCH  20  21
ENDBRANCH  19  20
ENDBRANCH  18  19
ENDBRANCH  17  18
ENDBRANCH   1  17
TORSDOF 26
ENDMDL
MODEL 5
REMARK VINA RESULT:     5.874      1.078      2.498
REMARK INTER + INTRA:          14.948
REMARK INTER:                  14.014
REMARK INTRA:                   0.934
REMARK UNBOUND:                 0.146
REMARK SMILES CCCCCCCCCCCCCCCCCCCCCCCCCCCC(=O)[O-]
REMARK SMILES IDX 15 1 16 2 17 3 18 4 19 5 20 6 21 7 22 8 23 9 24 10 25 11
REMARK SMILES IDX 26 12 27 13 28 14 29 15 30 16 14 17 13 18 12 19 11 20 10 21
REMARK SMILES IDX 9 22 8 23 7 24 6 25 5 26 4 27 3 28 2 29 1 30
REMARK H PARENT
REMARK Flexibility Score: inf
ROOT
ATOM      1  C   UNL     1       6.124 -34.553  22.333  1.00  0.00     0.000 C 
ENDROOT
BRANCH   1   2
ATOM      2  C   UNL     1       5.876 -34.458  23.847  1.00  0.00     0.000 C 
BRANCH   2   3
ATOM      3  C   UNL     1       4.910 -35.544  24.351  1.00  0.00     0.000 C 
BRANCH   3   4
ATOM      4  C   UNL     1       5.435 -36.281  25.597  1.00  0.00     0.000 C 
BRANCH   4   5
ATOM      5  C   UNL     1       4.864 -37.697  25.815  1.00  0.00     0.000 C 
BRANCH   5   6
ATOM      6  C   UNL     1       5.035 -38.663  24.628  1.00  0.00     0.000 C 
BRANCH   6   7
ATOM      7  C   UNL     1       6.121 -38.212  23.639  1.00  0.00     0.000 C 
BRANCH   7   8
ATOM      8  C   UNL     1       5.893 -38.828  22.254  1.00  0.00     0.000 C 
BRANCH   8   9
ATOM      9  C   UNL     1       4.916 -40.008  22.330  1.00  0.00     0.000 C 
BRANCH   9  10
ATOM     10  C   UNL     1       3.745 -39.817  21.360  1.00  0.00     0.000 C 
BRANCH  10  11
ATOM     11  C   UNL     1       3.960 -38.581  20.474  1.00  0.00     0.000 C 
BRANCH  11  12
ATOM     12  C   UNL     1       2.642 -37.903  20.069  1.00  0.00     0.006 C 
BRANCH  12  13
ATOM     13  C   UNL     1       1.935 -38.628  18.915  1.00  0.00     0.053 C 
BRANCH  13  14
ATOM     14  C   UNL     1       0.705 -37.885  18.499  1.00  0.00     0.041 C 
ATOM     15  O   UNL     1       0.476 -37.669  17.279  1.00  0.00    -0.550 OA
ATOM     16  O   UNL     1      -0.203 -37.448  19.457  1.00  0.00    -0.550 OA
ENDBRANCH  13  14
ENDBRANCH  12  13
ENDBRANCH  11  12
ENDBRANCH  10  11
ENDBRANCH   9  10
ENDBRANCH   8   9
ENDBRANCH   7   8
ENDBRANCH   6   7
ENDBRANCH   5   6
ENDBRANCH   4   5
ENDBRANCH   3   4
ENDBRANCH   2   3
ENDBRANCH   1   2
BRANCH   1  17
ATOM     17  C   UNL     1       5.615 -35.870  21.728  1.00  0.00     0.000 C 
BRANCH  17  18
ATOM     18  C   UNL     1       5.947 -35.946  20.231  1.00  0.00     0.000 C 
BRANCH  18  19
ATOM     19  C   UNL     1       4.690 -35.996  19.344  1.00  0.00     0.000 C 
BRANCH  19  20
ATOM     20  C   UNL     1       4.179 -34.623  18.860  1.00  0.00     0.000 C 
BRANCH  20  21
ATOM     21  C   UNL     1       4.828 -34.108  17.562  1.00  0.00     0.000 C 
BRANCH  21  22
ATOM     22  C   UNL     1       4.446 -34.947  16.332  1.00  0.00    -0.000 C 
BRANCH  22  23
ATOM     23  C   UNL     1       3.515 -36.118  16.679  1.00  0.00    -0.000 C 
BRANCH  23  24
ATOM     24  C   UNL     1       2.206 -36.094  15.870  1.00  0.00    -0.000 C 
BRANCH  24  25
ATOM     25  C   UNL     1       2.381 -36.660  14.446  1.00  0.00    -0.000 C 
BRANCH  25  26
ATOM     26  C   UNL     1       3.741 -37.349  14.208  1.00  0.00    -0.000 C 
BRANCH  26  27
ATOM     27  C   UNL     1       3.718 -38.880  14.410  1.00  0.00    -0.000 C 
BRANCH  27  28
ATOM     28  C   UNL     1       4.979 -39.590  13.876  1.00  0.00    -0.000 C 
BRANCH  28  29
ATOM     29  C   UNL     1       5.494 -40.706  14.804  1.00  0.00    -0.003 C 
ATOM     30  C   UNL     1       5.998 -41.925  14.033  1.00  0.00     0.004 C 
ENDBRANCH  28  29
ENDBRANCH  27  28
ENDBRANCH  26  27
ENDBRANCH  25  26
ENDBRANCH  24  25
ENDBRANCH  23  24
ENDBRANCH  22  23
ENDBRANCH  21  22
ENDBRANCH  20  21
ENDBRANCH  19  20
ENDBRANCH  18  19
ENDBRANCH  17  18
ENDBRANCH   1  17
TORSDOF 26
ENDMDL
MODEL 6
REMARK VINA RESULT:     5.941      3.561      7.144
REMARK INTER + INTRA:          15.116
REMARK INTER:                  14.071
REMARK INTRA:                   1.045
REMARK UNBOUND:                 0.146
REMARK SMILES CCCCCCCCCCCCCCCCCCCCCCCCCCCC(=O)[O-]
REMARK SMILES IDX 15 1 16 2 17 3 18 4 19 5 20 6 21 7 22 8 23 9 24 10 25 11
REMARK SMILES IDX 26 12 27 13 28 14 29 15 30 16 14 17 13 18 12 19 11 20 10 21
REMARK SMILES IDX 9 22 8 23 7 24 6 25 5 26 4 27 3 28 2 29 1 30
REMARK H PARENT
REMARK Flexibility Score: inf
ROOT
ATOM      1  C   UNL     1       6.124 -35.644  19.560  1.00  0.00     0.000 C 
ENDROOT
BRANCH   1   2
ATOM      2  C   UNL     1       6.125 -35.358  21.070  1.00  0.00     0.000 C 
BRANCH   2   3
ATOM      3  C   UNL     1       4.704 -35.304  21.657  1.00  0.00     0.000 C 
BRANCH   3   4
ATOM      4  C   UNL     1       4.571 -34.295  22.812  1.00  0.00     0.000 C 
BRANCH   4   5
ATOM      5  C   UNL     1       5.655 -34.396  23.904  1.00  0.00     0.000 C 
BRANCH   5   6
ATOM      6  C   UNL     1       5.419 -35.487  24.964  1.00  0.00     0.000 C 
BRANCH   6   7
ATOM      7  C   UNL     1       6.125 -36.810  24.630  1.00  0.00     0.000 C 
BRANCH   7   8
ATOM      8  C   UNL     1       5.311 -38.009  25.131  1.00  0.00     0.000 C 
BRANCH   8   9
ATOM      9  C   UNL     1       4.696 -37.721  26.506  1.00  0.00     0.000 C 
BRANCH   9  10
ATOM     10  C   UNL     1       3.265 -37.188  26.369  1.00  0.00     0.000 C 
BRANCH  10  11
ATOM     11  C   UNL     1       2.471 -37.405  27.665  1.00  0.00     0.000 C 
BRANCH  11  12
ATOM     12  C   UNL     1       1.572 -36.210  28.019  1.00  0.00     0.006 C 
BRANCH  12  13
ATOM     13  C   UNL     1       2.372 -34.985  28.482  1.00  0.00     0.053 C 
BRANCH  13  14
ATOM     14  C   UNL     1       1.672 -34.292  29.609  1.00  0.00     0.041 C 
ATOM     15  O   UNL     1       1.898 -34.633  30.800  1.00  0.00    -0.550 OA
ATOM     16  O   UNL     1       0.786 -33.253  29.346  1.00  0.00    -0.550 OA
ENDBRANCH  13  14
ENDBRANCH  12  13
ENDBRANCH  11  12
ENDBRANCH  10  11
ENDBRANCH   9  10
ENDBRANCH   8   9
ENDBRANCH   7   8
ENDBRANCH   6   7
ENDBRANCH   5   6
ENDBRANCH   4   5
ENDBRANCH   3   4
ENDBRANCH   2   3
ENDBRANCH   1   2
BRANCH   1  17
ATOM     17  C   UNL     1       5.931 -34.376  18.714  1.00  0.00     0.000 C 
BRANCH  17  18
ATOM     18  C   UNL     1       4.563 -34.388  18.019  1.00  0.00     0.000 C 
BRANCH  18  19
ATOM     19  C   UNL     1       4.277 -35.713  17.288  1.00  0.00     0.000 C 
BRANCH  19  20
ATOM     20  C   UNL     1       3.060 -35.688  16.342  1.00  0.00     0.000 C 
BRANCH  20  21
ATOM     21  C   UNL     1       2.483 -37.070  15.986  1.00  0.00     0.000 C 
BRANCH  21  22
ATOM     22  C   UNL     1       1.471 -37.578  17.027  1.00  0.00    -0.000 C 
BRANCH  22  23
ATOM     23  C   UNL     1       1.728 -37.010  18.431  1.00  0.00    -0.000 C 
BRANCH  23  24
ATOM     24  C   UNL     1       2.531 -37.976  19.321  1.00  0.00    -0.000 C 
BRANCH  24  25
ATOM     25  C   UNL     1       3.890 -38.360  18.699  1.00  0.00    -0.000 C 
BRANCH  25  26
ATOM     26  C   UNL     1       5.103 -38.034  19.594  1.00  0.00    -0.000 C 
BRANCH  26  27
ATOM     27  C   UNL     1       5.636 -39.240  20.400  1.00  0.00    -0.000 C 
BRANCH  27  28
ATOM     28  C   UNL     1       5.028 -39.352  21.814  1.00  0.00    -0.000 C 
BRANCH  28  29
ATOM     29  C   UNL     1       5.697 -40.432  22.685  1.00  0.00    -0.003 C 
ATOM     30  C   UNL     1       5.281 -40.342  24.153  1.00  0.00     0.004 C 
ENDBRANCH  28  29
ENDBRANCH  27  28
ENDBRANCH  26  27
ENDBRANCH  25  26
ENDBRANCH  24  25
ENDBRANCH  23  24
ENDBRANCH  22  23
ENDBRANCH  21  22
ENDBRANCH  20  21
ENDBRANCH  19  20
ENDBRANCH  18  19
ENDBRANCH  17  18
ENDBRANCH   1  17
TORSDOF 26
ENDMDL
MODEL 7
REMARK VINA RESULT:     6.016      2.582      8.147
REMARK INTER + INTRA:          15.305
REMARK INTER:                  14.072
REMARK INTRA:                   1.233
REMARK UNBOUND:                 0.146
REMARK SMILES CCCCCCCCCCCCCCCCCCCCCCCCCCCC(=O)[O-]
REMARK SMILES IDX 15 1 16 2 17 3 18 4 19 5 20 6 21 7 22 8 23 9 24 10 25 11
REMARK SMILES IDX 26 12 27 13 28 14 29 15 30 16 14 17 13 18 12 19 11 20 10 21
REMARK SMILES IDX 9 22 8 23 7 24 6 25 5 26 4 27 3 28 2 29 1 30
REMARK H PARENT
REMARK Flexibility Score: inf
ROOT
ATOM      1  C   UNL     1       5.039 -38.715  22.937  1.00  0.00     0.000 C 
ENDROOT
BRANCH   1   2
ATOM      2  C   UNL     1       5.238 -39.806  21.872  1.00  0.00     0.000 C 
BRANCH   2   3
ATOM      3  C   UNL     1       6.036 -39.300  20.658  1.00  0.00     0.000 C 
BRANCH   3   4
ATOM      4  C   UNL     1       5.144 -38.996  19.440  1.00  0.00     0.000 C 
BRANCH   4   5
ATOM      5  C   UNL     1       4.920 -37.499  19.143  1.00  0.00     0.000 C 
BRANCH   5   6
ATOM      6  C   UNL     1       3.599 -36.915  19.674  1.00  0.00     0.000 C 
BRANCH   6   7
ATOM      7  C   UNL     1       2.556 -37.995  20.003  1.00  0.00     0.000 C 
BRANCH   7   8
ATOM      8  C   UNL     1       1.135 -37.490  19.725  1.00  0.00     0.000 C 
BRANCH   8   9
ATOM      9  C   UNL     1       0.535 -38.183  18.496  1.00  0.00     0.000 C 
BRANCH   9  10
ATOM     10  C   UNL     1       1.484 -38.094  17.295  1.00  0.00     0.000 C 
BRANCH  10  11
ATOM     11  C   UNL     1       1.630 -36.642  16.816  1.00  0.00     0.000 C 
BRANCH  11  12
ATOM     12  C   UNL     1       3.017 -36.347  16.225  1.00  0.00     0.006 C 
BRANCH  12  13
ATOM     13  C   UNL     1       3.058 -36.512  14.700  1.00  0.00     0.053 C 
BRANCH  13  14
ATOM     14  C   UNL     1       4.120 -37.488  14.302  1.00  0.00     0.041 C 
ATOM     15  O   UNL     1       5.232 -37.077  13.877  1.00  0.00    -0.550 OA
ATOM     16  O   UNL     1       3.891 -38.855  14.422  1.00  0.00    -0.550 OA
ENDBRANCH  13  14
ENDBRANCH  12  13
ENDBRANCH  11  12
ENDBRANCH  10  11
ENDBRANCH   9  10
ENDBRANCH   8   9
ENDBRANCH   7   8
ENDBRANCH   6   7
ENDBRANCH   5   6
ENDBRANCH   4   5
ENDBRANCH   3   4
ENDBRANCH   2   3
ENDBRANCH   1   2
BRANCH   1  17
ATOM     17  C   UNL     1       6.099 -37.606  22.859  1.00  0.00     0.000 C 
BRANCH  17  18
ATOM     18  C   UNL     1       5.742 -36.587  21.768  1.00  0.00     0.000 C 
BRANCH  18  19
ATOM     19  C   UNL     1       5.532 -35.167  22.325  1.00  0.00     0.000 C 
BRANCH  19  20
ATOM     20  C   UNL     1       6.124 -34.923  23.728  1.00  0.00     0.000 C 
BRANCH  20  21
ATOM     21  C   UNL     1       5.297 -35.499  24.892  1.00  0.00     0.000 C 
BRANCH  21  22
ATOM     22  C   UNL     1       5.903 -36.790  25.470  1.00  0.00    -0.000 C 
BRANCH  22  23
ATOM     23  C   UNL     1       4.840 -37.851  25.791  1.00  0.00    -0.000 C 
BRANCH  23  24
ATOM     24  C   UNL     1       4.009 -37.497  27.038  1.00  0.00    -0.000 C 
BRANCH  24  25
ATOM     25  C   UNL     1       2.491 -37.606  26.784  1.00  0.00    -0.000 C 
BRANCH  25  26
ATOM     26  C   UNL     1       1.629 -36.832  27.803  1.00  0.00    -0.000 C 
BRANCH  26  27
ATOM     27  C   UNL     1       2.409 -35.778  28.619  1.00  0.00    -0.000 C 
BRANCH  27  28
ATOM     28  C   UNL     1       1.658 -34.439  28.772  1.00  0.00    -0.000 C 
BRANCH  28  29
ATOM     29  C   UNL     1       0.751 -34.383  30.015  1.00  0.00    -0.003 C 
ATOM     30  C   UNL     1      -0.560 -33.643  29.753  1.00  0.00     0.004 C 
ENDBRANCH  28  29
ENDBRANCH  27  28
ENDBRANCH  26  27
ENDBRANCH  25  26
ENDBRANCH  24  25
ENDBRANCH  23  24
ENDBRANCH  22  23
ENDBRANCH  21  22
ENDBRANCH  20  21
ENDBRANCH  19  20
ENDBRANCH  18  19
ENDBRANCH  17  18
ENDBRANCH   1  17
TORSDOF 26
ENDMDL
MODEL 8
REMARK VINA RESULT:     6.143      3.563      6.253
REMARK INTER + INTRA:          15.626
REMARK INTER:                  16.998
REMARK INTRA:                  -1.373
REMARK UNBOUND:                 0.146
REMARK SMILES CCCCCCCCCCCCCCCCCCCCCCCCCCCC(=O)[O-]
REMARK SMILES IDX 15 1 16 2 17 3 18 4 19 5 20 6 21 7 22 8 23 9 24 10 25 11
REMARK SMILES IDX 26 12 27 13 28 14 29 15 30 16 14 17 13 18 12 19 11 20 10 21
REMARK SMILES IDX 9 22 8 23 7 24 6 25 5 26 4 27 3 28 2 29 1 30
REMARK H PARENT
REMARK Flexibility Score: inf
ROOT
ATOM      1  C   UNL     1       1.653 -36.393  20.769  1.00  0.00     0.000 C 
ENDROOT
BRANCH   1   2
ATOM      2  C   UNL     1       3.084 -35.869  20.971  1.00  0.00     0.000 C 
BRANCH   2   3
ATOM      3  C   UNL     1       3.145 -34.707  21.977  1.00  0.00     0.000 C 
BRANCH   3   4
ATOM      4  C   UNL     1       4.584 -34.239  22.264  1.00  0.00     0.000 C 
BRANCH   4   5
ATOM      5  C   UNL     1       5.029 -34.345  23.737  1.00  0.00     0.000 C 
BRANCH   5   6
ATOM      6  C   UNL     1       6.123 -35.391  24.018  1.00  0.00     0.000 C 
BRANCH   6   7
ATOM      7  C   UNL     1       5.975 -36.058  25.395  1.00  0.00     0.000 C 
BRANCH   7   8
ATOM      8  C   UNL     1       5.162 -37.355  25.292  1.00  0.00     0.000 C 
BRANCH   8   9
ATOM      9  C   UNL     1       4.414 -37.640  26.600  1.00  0.00     0.000 C 
BRANCH   9  10
ATOM     10  C   UNL     1       2.923 -37.883  26.340  1.00  0.00     0.000 C 
BRANCH  10  11
ATOM     11  C   UNL     1       2.082 -37.516  27.572  1.00  0.00     0.000 C 
BRANCH  11  12
ATOM     12  C   UNL     1       1.738 -36.020  27.633  1.00  0.00     0.006 C 
BRANCH  12  13
ATOM     13  C   UNL     1       2.542 -35.271  28.704  1.00  0.00     0.053 C 
BRANCH  13  14
ATOM     14  C   UNL     1       1.635 -34.463  29.578  1.00  0.00     0.041 C 
ATOM     15  O   UNL     1       0.522 -34.068  29.143  1.00  0.00    -0.550 OA
ATOM     16  O   UNL     1       2.010 -34.164  30.883  1.00  0.00    -0.550 OA
ENDBRANCH  13  14
ENDBRANCH  12  13
ENDBRANCH  11  12
ENDBRANCH  10  11
ENDBRANCH   9  10
ENDBRANCH   8   9
ENDBRANCH   7   8
ENDBRANCH   6   7
ENDBRANCH   5   6
ENDBRANCH   4   5
ENDBRANCH   3   4
ENDBRANCH   2   3
ENDBRANCH   1   2
BRANCH   1  17
ATOM     17  C   UNL     1       1.593 -37.615  19.839  1.00  0.00     0.000 C 
BRANCH  17  18
ATOM     18  C   UNL     1       2.967 -37.891  19.213  1.00  0.00     0.000 C 
BRANCH  18  19
ATOM     19  C   UNL     1       3.867 -38.760  20.110  1.00  0.00     0.000 C 
BRANCH  19  20
ATOM     20  C   UNL     1       5.377 -38.466  19.999  1.00  0.00     0.000 C 
BRANCH  20  21
ATOM     21  C   UNL     1       5.948 -37.566  21.110  1.00  0.00     0.000 C 
BRANCH  21  22
ATOM     22  C   UNL     1       6.097 -36.100  20.671  1.00  0.00    -0.000 C 
BRANCH  22  23
ATOM     23  C   UNL     1       5.823 -35.900  19.172  1.00  0.00    -0.000 C 
BRANCH  23  24
ATOM     24  C   UNL     1       5.374 -34.466  18.839  1.00  0.00    -0.000 C 
BRANCH  24  25
ATOM     25  C   UNL     1       4.594 -34.385  17.511  1.00  0.00    -0.000 C 
BRANCH  25  26
ATOM     26  C   UNL     1       4.056 -35.744  17.017  1.00  0.00    -0.000 C 
BRANCH  26  27
ATOM     27  C   UNL     1       2.589 -35.704  16.533  1.00  0.00    -0.000 C 
BRANCH  27  28
ATOM     28  C   UNL     1       2.220 -36.871  15.594  1.00  0.00    -0.000 C 
BRANCH  28  29
ATOM     29  C   UNL     1       3.338 -37.921  15.452  1.00  0.00    -0.003 C 
ATOM     30  C   UNL     1       3.977 -37.914  14.064  1.00  0.00     0.004 C 
ENDBRANCH  28  29
ENDBRANCH  27  28
ENDBRANCH  26  27
ENDBRANCH  25  26
ENDBRANCH  24  25
ENDBRANCH  23  24
ENDBRANCH  22  23
ENDBRANCH  21  22
ENDBRANCH  20  21
ENDBRANCH  19  20
ENDBRANCH  18  19
ENDBRANCH  17  18
ENDBRANCH   1  17
TORSDOF 26
ENDMDL
