MODEL 1
REMARK VINA RESULT:    -5.363      0.000      0.000
REMARK INTER + INTRA:         -10.303
REMARK INTER:                  -9.126
REMARK INTRA:                  -1.178
REMARK UNBOUND:                -1.178
REMARK SMILES CCCCCCCCCCCCCC(=O)[O-]
REMARK SMILES IDX 8 1 9 2 10 3 11 4 12 5 13 6 14 7 15 8 16 9 7 10 6 11 5 12
REMARK SMILES IDX 4 13 3 14 2 15 1 16
REMARK H PARENT
REMARK Flexibility Score: inf
ROOT
ATOM      1  C   UNL     1      15.307  17.254  62.772  1.00  0.00     0.000 C 
ENDROOT
BRANCH   1   2
ATOM      2  C   UNL     1      14.046  17.354  63.651  1.00  0.00     0.000 C 
BRANCH   2   3
ATOM      3  C   UNL     1      13.073  16.167  63.531  1.00  0.00     0.000 C 
BRANCH   3   4
ATOM      4  C   UNL     1      13.017  15.306  64.802  1.00  0.00     0.000 C 
BRANCH   4   5
ATOM      5  C   UNL     1      14.136  14.253  64.800  1.00  0.00     0.006 C 
BRANCH   5   6
ATOM      6  C   UNL     1      14.150  13.423  63.509  1.00  0.00     0.053 C 
BRANCH   6   7
ATOM      7  C   UNL     1      14.389  11.971  63.785  1.00  0.00     0.041 C 
ATOM      8  O   UNL     1      13.528  11.293  64.406  1.00  0.00    -0.550 OA
ATOM      9  O   UNL     1      15.549  11.358  63.330  1.00  0.00    -0.550 OA
ENDBRANCH   6   7
ENDBRANCH   5   6
ENDBRANCH   4   5
ENDBRANCH   3   4
ENDBRANCH   2   3
ENDBRANCH   1   2
BRANCH   1  10
ATOM     10  C   UNL     1      15.028  16.633  61.395  1.00  0.00     0.000 C 
BRANCH  10  11
ATOM     11  C   UNL     1      16.295  15.991  60.817  1.00  0.00    -0.000 C 
BRANCH  11  12
ATOM     12  C   UNL     1      16.663  16.622  59.465  1.00  0.00    -0.000 C 
BRANCH  12  13
ATOM     13  C   UNL     1      18.143  17.026  59.384  1.00  0.00    -0.000 C 
BRANCH  13  14
ATOM     14  C   UNL     1      19.018  16.278  60.407  1.00  0.00    -0.000 C 
BRANCH  14  15
ATOM     15  C   UNL     1      20.007  17.208  61.126  1.00  0.00    -0.003 C 
ATOM     16  C   UNL     1      19.507  17.651  62.500  1.00  0.00     0.004 C 
ENDBRANCH  14  15
ENDBRANCH  13  14
ENDBRANCH  12  13
ENDBRANCH  11  12
ENDBRANCH  10  11
ENDBRANCH   1  10
TORSDOF 12
ENDMDL
MODEL 2
REMARK VINA RESULT:    -4.894      0.859      1.356
REMARK INTER + INTRA:          -9.506
REMARK INTER:                  -8.604
REMARK INTRA:                  -0.902
REMARK UNBOUND:                -1.178
REMARK SMILES CCCCCCCCCCCCCC(=O)[O-]
REMARK SMILES IDX 8 1 9 2 10 3 11 4 12 5 13 6 14 7 15 8 16 9 7 10 6 11 5 12
REMARK SMILES IDX 4 13 3 14 2 15 1 16
REMARK H PARENT
REMARK Flexibility Score: inf
ROOT
ATOM      1  C   UNL     1      14.077  17.435  63.500  1.00  0.00     0.000 C 
ENDROOT
BRANCH   1   2
ATOM      2  C   UNL     1      13.506  16.020  63.706  1.00  0.00     0.000 C 
BRANCH   2   3
ATOM      3  C   UNL     1      14.075  15.259  64.918  1.00  0.00     0.000 C 
BRANCH   3   4
ATOM      4  C   UNL     1      13.727  13.763  64.903  1.00  0.00     0.000 C 
BRANCH   4   5
ATOM      5  C   UNL     1      13.285  13.317  63.501  1.00  0.00     0.006 C 
BRANCH   5   6
ATOM      6  C   UNL     1      14.452  12.757  62.675  1.00  0.00     0.053 C 
BRANCH   6   7
ATOM      7  C   UNL     1      14.909  11.427  63.192  1.00  0.00     0.041 C 
ATOM      8  O   UNL     1      14.159  10.744  63.938  1.00  0.00    -0.550 OA
ATOM      9  O   UNL     1      16.151  10.928  62.823  1.00  0.00    -0.550 OA
ENDBRANCH   6   7
ENDBRANCH   5   6
ENDBRANCH   4   5
ENDBRANCH   3   4
ENDBRANCH   2   3
ENDBRANCH   1   2
BRANCH   1  10
ATOM     10  C   UNL     1      15.443  17.433  62.798  1.00  0.00     0.000 C 
BRANCH  10  11
ATOM     11  C   UNL     1      15.544  16.276  61.797  1.00  0.00    -0.000 C 
BRANCH  11  12
ATOM     12  C   UNL     1      15.476  16.792  60.351  1.00  0.00    -0.000 C 
BRANCH  12  13
ATOM     13  C   UNL     1      16.808  16.632  59.603  1.00  0.00    -0.000 C 
BRANCH  13  14
ATOM     14  C   UNL     1      17.956  16.186  60.527  1.00  0.00    -0.000 C 
BRANCH  14  15
ATOM     15  C   UNL     1      19.045  17.261  60.671  1.00  0.00    -0.003 C 
ATOM     16  C   UNL     1      19.804  17.157  61.993  1.00  0.00     0.004 C 
ENDBRANCH  14  15
ENDBRANCH  13  14
ENDBRANCH  12  13
ENDBRANCH  11  12
ENDBRANCH  10  11
ENDBRANCH   1  10
TORSDOF 12
ENDMDL
MODEL 3
REMARK VINA RESULT:    -4.893      1.287      2.176
REMARK INTER + INTRA:          -9.503
REMARK INTER:                  -8.300
REMARK INTRA:                  -1.203
REMARK UNBOUND:                -1.178
REMARK SMILES CCCCCCCCCCCCCC(=O)[O-]
REMARK SMILES IDX 8 1 9 2 10 3 11 4 12 5 13 6 14 7 15 8 16 9 7 10 6 11 5 12
REMARK SMILES IDX 4 13 3 14 2 15 1 16
REMARK H PARENT
REMARK Flexibility Score: inf
ROOT
ATOM      1  C   UNL     1      15.459  15.170  60.828  1.00  0.00     0.000 C 
ENDROOT
BRANCH   1   2
ATOM      2  C   UNL     1      14.985  16.549  61.323  1.00  0.00     0.000 C 
BRANCH   2   3
ATOM      3  C   UNL     1      15.453  16.927  62.740  1.00  0.00     0.000 C 
BRANCH   3   4
ATOM      4  C   UNL     1      14.289  17.255  63.688  1.00  0.00     0.000 C 
BRANCH   4   5
ATOM      5  C   UNL     1      13.087  16.337  63.418  1.00  0.00     0.006 C 
BRANCH   5   6
ATOM      6  C   UNL     1      12.972  15.212  64.457  1.00  0.00     0.053 C 
BRANCH   6   7
ATOM      7  C   UNL     1      13.732  13.991  64.038  1.00  0.00     0.041 C 
ATOM      8  O   UNL     1      13.293  13.256  63.116  1.00  0.00    -0.550 OA
ATOM      9  O   UNL     1      14.942  13.684  64.646  1.00  0.00    -0.550 OA
ENDBRANCH   6   7
ENDBRANCH   5   6
ENDBRANCH   4   5
ENDBRANCH   3   4
ENDBRANCH   2   3
ENDBRANCH   1   2
BRANCH   1  10
ATOM     10  C   UNL     1      15.587  15.094  59.299  1.00  0.00     0.000 C 
BRANCH  10  11
ATOM     11  C   UNL     1      16.983  14.612  58.888  1.00  0.00    -0.000 C 
BRANCH  11  12
ATOM     12  C   UNL     1      17.824  15.772  58.333  1.00  0.00    -0.000 C 
BRANCH  12  13
ATOM     13  C   UNL     1      18.181  16.811  59.407  1.00  0.00    -0.000 C 
BRANCH  13  14
ATOM     14  C   UNL     1      18.951  16.197  60.591  1.00  0.00    -0.000 C 
BRANCH  14  15
ATOM     15  C   UNL     1      19.983  17.168  61.187  1.00  0.00    -0.003 C 
ATOM     16  C   UNL     1      19.572  17.696  62.560  1.00  0.00     0.004 C 
ENDBRANCH  14  15
ENDBRANCH  13  14
ENDBRANCH  12  13
ENDBRANCH  11  12
ENDBRANCH  10  11
ENDBRANCH   1  10
TORSDOF 12
ENDMDL
MODEL 4
REMARK VINA RESULT:    -4.873     11.030     12.428
REMARK INTER + INTRA:          -9.469
REMARK INTER:                  -8.630
REMARK INTRA:                  -0.839
REMARK UNBOUND:                -1.178
REMARK SMILES CCCCCCCCCCCCCC(=O)[O-]
REMARK SMILES IDX 8 1 9 2 10 3 11 4 12 5 13 6 14 7 15 8 16 9 7 10 6 11 5 12
REMARK SMILES IDX 4 13 3 14 2 15 1 16
REMARK H PARENT
REMARK Flexibility Score: inf
ROOT
ATOM      1  C   UNL     1      17.876  25.108  70.900  1.00  0.00     0.000 C 
ENDROOT
BRANCH   1   2
ATOM      2  C   UNL     1      16.954  24.238  71.774  1.00  0.00     0.000 C 
BRANCH   2   3
ATOM      3  C   UNL     1      17.359  22.756  71.872  1.00  0.00     0.000 C 
BRANCH   3   4
ATOM      4  C   UNL     1      18.399  22.347  70.818  1.00  0.00     0.000 C 
BRANCH   4   5
ATOM      5  C   UNL     1      18.171  20.900  70.355  1.00  0.00     0.006 C 
BRANCH   5   6
ATOM      6  C   UNL     1      16.854  20.320  70.891  1.00  0.00     0.053 C 
BRANCH   6   7
ATOM      7  C   UNL     1      16.575  18.963  70.323  1.00  0.00     0.041 C 
ATOM      8  O   UNL     1      16.019  18.847  69.199  1.00  0.00    -0.550 OA
ATOM      9  O   UNL     1      16.958  17.825  71.022  1.00  0.00    -0.550 OA
ENDBRANCH   6   7
ENDBRANCH   5   6
ENDBRANCH   4   5
ENDBRANCH   3   4
ENDBRANCH   2   3
ENDBRANCH   1   2
BRANCH   1  10
ATOM     10  C   UNL     1      18.104  26.511  71.481  1.00  0.00     0.000 C 
BRANCH  10  11
ATOM     11  C   UNL     1      19.417  27.112  70.966  1.00  0.00    -0.000 C 
BRANCH  11  12
ATOM     12  C   UNL     1      19.278  28.624  70.738  1.00  0.00    -0.000 C 
BRANCH  12  13
ATOM     13  C   UNL     1      18.388  28.961  69.532  1.00  0.00    -0.000 C 
BRANCH  13  14
ATOM     14  C   UNL     1      19.202  29.245  68.257  1.00  0.00    -0.000 C 
BRANCH  14  15
ATOM     15  C   UNL     1      18.674  28.470  67.038  1.00  0.00    -0.003 C 
ATOM     16  C   UNL     1      17.757  27.312  67.429  1.00  0.00     0.004 C 
ENDBRANCH  14  15
ENDBRANCH  13  14
ENDBRANCH  12  13
ENDBRANCH  11  12
ENDBRANCH  10  11
ENDBRANCH   1  10
TORSDOF 12
ENDMDL
MODEL 5
REMARK VINA RESULT:    -4.836      3.156      6.397
REMARK INTER + INTRA:          -9.406
REMARK INTER:                  -7.961
REMARK INTRA:                  -1.444
REMARK UNBOUND:                -1.178
REMARK SMILES CCCCCCCCCCCCCC(=O)[O-]
REMARK SMILES IDX 8 1 9 2 10 3 11 4 12 5 13 6 14 7 15 8 16 9 7 10 6 11 5 12
REMARK SMILES IDX 4 13 3 14 2 15 1 16
REMARK H PARENT
REMARK Flexibility Score: inf
ROOT
ATOM      1  C   UNL     1      16.097  14.166  59.781  1.00  0.00     0.000 C 
ENDROOT
BRANCH   1   2
ATOM      2  C   UNL     1      15.886  15.337  58.803  1.00  0.00     0.000 C 
BRANCH   2   3
ATOM      3  C   UNL     1      17.178  16.008  58.303  1.00  0.00     0.000 C 
BRANCH   3   4
ATOM      4  C   UNL     1      17.796  16.961  59.338  1.00  0.00     0.000 C 
BRANCH   4   5
ATOM      5  C   UNL     1      18.995  16.304  60.040  1.00  0.00     0.006 C 
BRANCH   5   6
ATOM      6  C   UNL     1      18.861  16.336  61.569  1.00  0.00     0.053 C 
BRANCH   6   7
ATOM      7  C   UNL     1      19.698  17.419  62.176  1.00  0.00     0.041 C 
ATOM      8  O   UNL     1      19.157  18.350  62.827  1.00  0.00    -0.550 OA
ATOM      9  O   UNL     1      21.081  17.382  62.050  1.00  0.00    -0.550 OA
ENDBRANCH   6   7
ENDBRANCH   5   6
ENDBRANCH   4   5
ENDBRANCH   3   4
ENDBRANCH   2   3
ENDBRANCH   1   2
BRANCH   1  10
ATOM     10  C   UNL     1      15.346  14.353  61.108  1.00  0.00     0.000 C 
BRANCH  10  11
ATOM     11  C   UNL     1      15.012  15.831  61.346  1.00  0.00    -0.000 C 
BRANCH  11  12
ATOM     12  C   UNL     1      15.427  16.268  62.759  1.00  0.00    -0.000 C 
BRANCH  12  13
ATOM     13  C   UNL     1      14.292  16.974  63.516  1.00  0.00    -0.000 C 
BRANCH  13  14
ATOM     14  C   UNL     1      13.389  15.990  64.282  1.00  0.00    -0.000 C 
BRANCH  14  15
ATOM     15  C   UNL     1      14.188  14.862  64.956  1.00  0.00    -0.003 C 
ATOM     16  C   UNL     1      13.751  13.473  64.492  1.00  0.00     0.004 C 
ENDBRANCH  14  15
ENDBRANCH  13  14
ENDBRANCH  12  13
ENDBRANCH  11  12
ENDBRANCH  10  11
ENDBRANCH   1  10
TORSDOF 12
ENDMDL
MODEL 6
REMARK VINA RESULT:    -4.782      3.263      6.471
REMARK INTER + INTRA:          -9.314
REMARK INTER:                  -7.888
REMARK INTRA:                  -1.426
REMARK UNBOUND:                -1.178
REMARK SMILES CCCCCCCCCCCCCC(=O)[O-]
REMARK SMILES IDX 8 1 9 2 10 3 11 4 12 5 13 6 14 7 15 8 16 9 7 10 6 11 5 12
REMARK SMILES IDX 4 13 3 14 2 15 1 16
REMARK H PARENT
REMARK Flexibility Score: inf
ROOT
ATOM      1  C   UNL     1      14.975  16.283  61.355  1.00  0.00     0.000 C 
ENDROOT
BRANCH   1   2
ATOM      2  C   UNL     1      15.613  14.946  60.933  1.00  0.00     0.000 C 
BRANCH   2   3
ATOM      3  C   UNL     1      15.466  14.598  59.440  1.00  0.00     0.000 C 
BRANCH   3   4
ATOM      4  C   UNL     1      16.756  14.033  58.827  1.00  0.00     0.000 C 
BRANCH   4   5
ATOM      5  C   UNL     1      17.568  15.142  58.140  1.00  0.00     0.006 C 
BRANCH   5   6
ATOM      6  C   UNL     1      18.613  15.762  59.078  1.00  0.00     0.053 C 
BRANCH   6   7
ATOM      7  C   UNL     1      18.192  17.117  59.559  1.00  0.00     0.041 C 
ATOM      8  O   UNL     1      17.204  17.697  59.037  1.00  0.00    -0.550 OA
ATOM      9  O   UNL     1      18.873  17.725  60.606  1.00  0.00    -0.550 OA
ENDBRANCH   6   7
ENDBRANCH   5   6
ENDBRANCH   4   5
ENDBRANCH   3   4
ENDBRANCH   2   3
ENDBRANCH   1   2
BRANCH   1  10
ATOM     10  C   UNL     1      15.646  16.901  62.591  1.00  0.00     0.000 C 
BRANCH  10  11
ATOM     11  C   UNL     1      14.619  17.165  63.698  1.00  0.00    -0.000 C 
BRANCH  11  12
ATOM     12  C   UNL     1      13.241  16.604  63.315  1.00  0.00    -0.000 C 
BRANCH  12  13
ATOM     13  C   UNL     1      12.717  15.577  64.330  1.00  0.00    -0.000 C 
BRANCH  13  14
ATOM     14  C   UNL     1      13.843  14.720  64.939  1.00  0.00    -0.000 C 
BRANCH  14  15
ATOM     15  C   UNL     1      13.765  13.249  64.497  1.00  0.00    -0.003 C 
ATOM     16  C   UNL     1      13.330  13.093  63.041  1.00  0.00     0.004 C 
ENDBRANCH  14  15
ENDBRANCH  13  14
ENDBRANCH  12  13
ENDBRANCH  11  12
ENDBRANCH  10  11
ENDBRANCH   1  10
TORSDOF 12
ENDMDL
MODEL 7
REMARK VINA RESULT:    -4.781      1.673      2.622
REMARK INTER + INTRA:          -9.312
REMARK INTER:                  -8.036
REMARK INTRA:                  -1.277
REMARK UNBOUND:                -1.178
REMARK SMILES CCCCCCCCCCCCCC(=O)[O-]
REMARK SMILES IDX 8 1 9 2 10 3 11 4 12 5 13 6 14 7 15 8 16 9 7 10 6 11 5 12
REMARK SMILES IDX 4 13 3 14 2 15 1 16
REMARK H PARENT
REMARK Flexibility Score: inf
ROOT
ATOM      1  C   UNL     1      14.712  17.506  62.388  1.00  0.00     0.000 C 
ENDROOT
BRANCH   1   2
ATOM      2  C   UNL     1      13.613  17.279  63.442  1.00  0.00     0.000 C 
BRANCH   2   3
ATOM      3  C   UNL     1      12.983  15.874  63.432  1.00  0.00     0.000 C 
BRANCH   3   4
ATOM      4  C   UNL     1      12.892  15.249  64.832  1.00  0.00     0.000 C 
BRANCH   4   5
ATOM      5  C   UNL     1      13.813  14.024  64.946  1.00  0.00     0.006 C 
BRANCH   5   6
ATOM      6  C   UNL     1      13.969  13.288  63.608  1.00  0.00     0.053 C 
BRANCH   6   7
ATOM      7  C   UNL     1      14.399  11.867  63.804  1.00  0.00     0.041 C 
ATOM      8  O   UNL     1      13.663  11.062  64.434  1.00  0.00    -0.550 OA
ATOM      9  O   UNL     1      15.598  11.423  63.263  1.00  0.00    -0.550 OA
ENDBRANCH   6   7
ENDBRANCH   5   6
ENDBRANCH   4   5
ENDBRANCH   3   4
ENDBRANCH   2   3
ENDBRANCH   1   2
BRANCH   1  10
ATOM     10  C   UNL     1      16.001  16.728  62.690  1.00  0.00     0.000 C 
BRANCH  10  11
ATOM     11  C   UNL     1      16.460  15.929  61.464  1.00  0.00    -0.000 C 
BRANCH  11  12
ATOM     12  C   UNL     1      16.065  16.644  60.163  1.00  0.00    -0.000 C 
BRANCH  12  13
ATOM     13  C   UNL     1      15.282  15.735  59.203  1.00  0.00    -0.000 C 
BRANCH  13  14
ATOM     14  C   UNL     1      15.190  14.283  59.706  1.00  0.00    -0.000 C 
BRANCH  14  15
ATOM     15  C   UNL     1      16.276  13.381  59.098  1.00  0.00    -0.003 C 
ATOM     16  C   UNL     1      16.699  12.252  60.038  1.00  0.00     0.004 C 
ENDBRANCH  14  15
ENDBRANCH  13  14
ENDBRANCH  12  13
ENDBRANCH  11  12
ENDBRANCH  10  11
ENDBRANCH   1  10
TORSDOF 12
ENDMDL
MODEL 8
REMARK VINA RESULT:    -4.719      1.783      4.433
REMARK INTER + INTRA:          -9.207
REMARK INTER:                  -7.741
REMARK INTRA:                  -1.466
REMARK UNBOUND:                -1.178
REMARK SMILES CCCCCCCCCCCCCC(=O)[O-]
REMARK SMILES IDX 8 1 9 2 10 3 11 4 12 5 13 6 14 7 15 8 16 9 7 10 6 11 5 12
REMARK SMILES IDX 4 13 3 14 2 15 1 16
REMARK H PARENT
REMARK Flexibility Score: inf
ROOT
ATOM      1  C   UNL     1      16.975  14.762  58.347  1.00  0.00     0.000 C 
ENDROOT
BRANCH   1   2
ATOM      2  C   UNL     1      16.961  13.651  59.413  1.00  0.00     0.000 C 
BRANCH   2   3
ATOM      3  C   UNL     1      15.881  12.572  59.213  1.00  0.00     0.000 C 
BRANCH   3   4
ATOM      4  C   UNL     1      14.646  12.789  60.101  1.00  0.00     0.000 C 
BRANCH   4   5
ATOM      5  C   UNL     1      15.058  13.206  61.521  1.00  0.00     0.006 C 
BRANCH   5   6
ATOM      6  C   UNL     1      14.023  12.783  62.573  1.00  0.00     0.053 C 
BRANCH   6   7
ATOM      7  C   UNL     1      14.534  11.671  63.437  1.00  0.00     0.041 C 
ATOM      8  O   UNL     1      13.802  11.176  64.334  1.00  0.00    -0.550 OA
ATOM      9  O   UNL     1      15.808  11.159  63.229  1.00  0.00    -0.550 OA
ENDBRANCH   6   7
ENDBRANCH   5   6
ENDBRANCH   4   5
ENDBRANCH   3   4
ENDBRANCH   2   3
ENDBRANCH   1   2
BRANCH   1  10
ATOM     10  C   UNL     1      16.029  15.925  58.683  1.00  0.00     0.000 C 
BRANCH  10  11
ATOM     11  C   UNL     1      16.459  16.626  59.977  1.00  0.00    -0.000 C 
BRANCH  11  12
ATOM     12  C   UNL     1      15.267  16.803  60.930  1.00  0.00    -0.000 C 
BRANCH  12  13
ATOM     13  C   UNL     1      15.666  16.675  62.408  1.00  0.00    -0.000 C 
BRANCH  13  14
ATOM     14  C   UNL     1      14.600  17.246  63.360  1.00  0.00    -0.000 C 
BRANCH  14  15
ATOM     15  C   UNL     1      13.941  16.158  64.224  1.00  0.00    -0.003 C 
ATOM     16  C   UNL     1      12.456  15.979  63.912  1.00  0.00     0.004 C 
ENDBRANCH  14  15
ENDBRANCH  13  14
ENDBRANCH  12  13
ENDBRANCH  11  12
ENDBRANCH  10  11
ENDBRANCH   1  10
TORSDOF 12
ENDMDL
MODEL 9
REMARK VINA RESULT:    -4.552      2.019      5.019
REMARK INTER + INTRA:          -8.923
REMARK INTER:                  -7.478
REMARK INTRA:                  -1.445
REMARK UNBOUND:                -1.178
REMARK SMILES CCCCCCCCCCCCCC(=O)[O-]
REMARK SMILES IDX 8 1 9 2 10 3 11 4 12 5 13 6 14 7 15 8 16 9 7 10 6 11 5 12
REMARK SMILES IDX 4 13 3 14 2 15 1 16
REMARK H PARENT
REMARK Flexibility Score: inf
ROOT
ATOM      1  C   UNL     1      15.328  16.729  60.029  1.00  0.00     0.000 C 
ENDROOT
BRANCH   1   2
ATOM      2  C   UNL     1      15.311  15.615  58.966  1.00  0.00     0.000 C 
BRANCH   2   3
ATOM      3  C   UNL     1      16.609  14.793  58.864  1.00  0.00     0.000 C 
BRANCH   3   4
ATOM      4  C   UNL     1      16.370  13.280  58.975  1.00  0.00     0.000 C 
BRANCH   4   5
ATOM      5  C   UNL     1      15.346  12.966  60.076  1.00  0.00     0.006 C 
BRANCH   5   6
ATOM      6  C   UNL     1      15.383  11.490  60.499  1.00  0.00     0.053 C 
BRANCH   6   7
ATOM      7  C   UNL     1      16.344  11.259  61.624  1.00  0.00     0.041 C 
ATOM      8  O   UNL     1      17.585  11.278  61.413  1.00  0.00    -0.550 OA
ATOM      9  O   UNL     1      15.868  11.054  62.913  1.00  0.00    -0.550 OA
ENDBRANCH   6   7
ENDBRANCH   5   6
ENDBRANCH   4   5
ENDBRANCH   3   4
ENDBRANCH   2   3
ENDBRANCH   1   2
BRANCH   1  10
ATOM     10  C   UNL     1      16.478  16.578  61.035  1.00  0.00     0.000 C 
BRANCH  10  11
ATOM     11  C   UNL     1      15.944  16.251  62.434  1.00  0.00    -0.000 C 
BRANCH  11  12
ATOM     12  C   UNL     1      14.585  16.926  62.676  1.00  0.00    -0.000 C 
BRANCH  12  13
ATOM     13  C   UNL     1      13.570  15.988  63.347  1.00  0.00    -0.000 C 
BRANCH  13  14
ATOM     14  C   UNL     1      13.884  14.501  63.100  1.00  0.00    -0.000 C 
BRANCH  14  15
ATOM     15  C   UNL     1      13.938  13.687  64.403  1.00  0.00    -0.003 C 
ATOM     16  C   UNL     1      13.607  14.527  65.635  1.00  0.00     0.004 C 
ENDBRANCH  14  15
ENDBRANCH  13  14
ENDBRANCH  12  13
ENDBRANCH  11  12
ENDBRANCH  10  11
ENDBRANCH   1  10
TORSDOF 12
ENDMDL
