MODEL 1
REMARK VINA RESULT:    -3.116      0.000      0.000
REMARK INTER + INTRA:          -7.649
REMARK INTER:                  -5.665
REMARK INTRA:                  -1.984
REMARK UNBOUND:                -1.984
REMARK SMILES CCCCCCCCCCCCCCCC(=O)[O-]
REMARK SMILES IDX 9 1 10 2 11 3 12 4 13 5 14 6 15 7 16 8 17 9 18 10 8 11 7 12
REMARK SMILES IDX 6 13 5 14 4 15 3 16 2 17 1 18
REMARK H PARENT
REMARK Flexibility Score: inf
ROOT
ATOM      1  C   UNL     1      17.348  18.528  46.050  1.00  0.00     0.000 C 
ENDROOT
BRANCH   1   2
ATOM      2  C   UNL     1      17.243  19.984  45.570  1.00  0.00     0.000 C 
BRANCH   2   3
ATOM      3  C   UNL     1      18.302  20.897  46.207  1.00  0.00     0.000 C 
BRANCH   3   4
ATOM      4  C   UNL     1      19.550  20.122  46.664  1.00  0.00     0.000 C 
BRANCH   4   5
ATOM      5  C   UNL     1      20.866  20.816  46.268  1.00  0.00     0.000 C 
BRANCH   5   6
ATOM      6  C   UNL     1      21.576  20.219  45.039  1.00  0.00     0.006 C 
BRANCH   6   7
ATOM      7  C   UNL     1      21.176  18.763  44.766  1.00  0.00     0.053 C 
BRANCH   7   8
ATOM      8  C   UNL     1      22.374  17.957  44.373  1.00  0.00     0.041 C 
ATOM      9  O   UNL     1      22.252  16.983  43.586  1.00  0.00    -0.550 OA
ATOM     10  O   UNL     1      23.617  18.253  44.917  1.00  0.00    -0.550 OA
ENDBRANCH   7   8
ENDBRANCH   6   7
ENDBRANCH   5   6
ENDBRANCH   4   5
ENDBRANCH   3   4
ENDBRANCH   2   3
ENDBRANCH   1   2
BRANCH   1  11
ATOM     11  C   UNL     1      15.969  17.974  46.432  1.00  0.00     0.000 C 
BRANCH  11  12
ATOM     12  C   UNL     1      15.132  19.037  47.158  1.00  0.00    -0.000 C 
BRANCH  12  13
ATOM     13  C   UNL     1      15.381  19.065  48.677  1.00  0.00    -0.000 C 
BRANCH  13  14
ATOM     14  C   UNL     1      16.142  20.300  49.190  1.00  0.00    -0.000 C 
BRANCH  14  15
ATOM     15  C   UNL     1      17.482  19.945  49.852  1.00  0.00    -0.000 C 
BRANCH  15  16
ATOM     16  C   UNL     1      17.693  18.426  49.883  1.00  0.00    -0.000 C 
BRANCH  16  17
ATOM     17  C   UNL     1      18.264  17.977  51.233  1.00  0.00    -0.003 C 
ATOM     18  C   UNL     1      17.150  17.675  52.230  1.00  0.00     0.004 C 
ENDBRANCH  16  17
ENDBRANCH  15  16
ENDBRANCH  14  15
ENDBRANCH  13  14
ENDBRANCH  12  13
ENDBRANCH  11  12
ENDBRANCH   1  11
TORSDOF 14
ENDMDL
MODEL 2
REMARK VINA RESULT:    -3.082     11.602     13.862
REMARK INTER + INTRA:          -7.587
REMARK INTER:                  -5.152
REMARK INTRA:                  -2.436
REMARK UNBOUND:                -1.984
REMARK SMILES CCCCCCCCCCCCCCCC(=O)[O-]
REMARK SMILES IDX 9 1 10 2 11 3 12 4 13 5 14 6 15 7 16 8 17 9 18 10 8 11 7 12
REMARK SMILES IDX 6 13 5 14 4 15 3 16 2 17 1 18
REMARK H PARENT
REMARK Flexibility Score: inf
ROOT
ATOM      1  C   UNL     1      18.724  26.317  54.149  1.00  0.00     0.000 C 
ENDROOT
BRANCH   1   2
ATOM      2  C   UNL     1      17.928  25.790  55.353  1.00  0.00     0.000 C 
BRANCH   2   3
ATOM      3  C   UNL     1      18.016  26.718  56.574  1.00  0.00     0.000 C 
BRANCH   3   4
ATOM      4  C   UNL     1      18.614  26.017  57.806  1.00  0.00     0.000 C 
BRANCH   4   5
ATOM      5  C   UNL     1      19.447  26.963  58.690  1.00  0.00     0.000 C 
BRANCH   5   6
ATOM      6  C   UNL     1      19.392  28.449  58.291  1.00  0.00     0.006 C 
BRANCH   6   7
ATOM      7  C   UNL     1      20.721  28.965  57.721  1.00  0.00     0.053 C 
BRANCH   7   8
ATOM      8  C   UNL     1      21.263  30.066  58.577  1.00  0.00     0.041 C 
ATOM      9  O   UNL     1      22.267  30.725  58.201  1.00  0.00    -0.550 OA
ATOM     10  O   UNL     1      20.690  30.330  59.814  1.00  0.00    -0.550 OA
ENDBRANCH   7   8
ENDBRANCH   6   7
ENDBRANCH   5   6
ENDBRANCH   4   5
ENDBRANCH   3   4
ENDBRANCH   2   3
ENDBRANCH   1   2
BRANCH   1  11
ATOM     11  C   UNL     1      19.664  27.455  54.568  1.00  0.00     0.000 C 
BRANCH  11  12
ATOM     12  C   UNL     1      19.364  28.737  53.776  1.00  0.00    -0.000 C 
BRANCH  12  13
ATOM     13  C   UNL     1      18.587  29.782  54.597  1.00  0.00    -0.000 C 
BRANCH  13  14
ATOM     14  C   UNL     1      17.112  29.961  54.192  1.00  0.00    -0.000 C 
BRANCH  14  15
ATOM     15  C   UNL     1      16.133  29.431  55.251  1.00  0.00    -0.000 C 
BRANCH  15  16
ATOM     16  C   UNL     1      15.136  28.444  54.630  1.00  0.00    -0.000 C 
BRANCH  16  17
ATOM     17  C   UNL     1      15.455  28.198  53.150  1.00  0.00    -0.003 C 
ATOM     18  C   UNL     1      15.365  26.715  52.806  1.00  0.00     0.004 C 
ENDBRANCH  16  17
ENDBRANCH  15  16
ENDBRANCH  14  15
ENDBRANCH  13  14
ENDBRANCH  12  13
ENDBRANCH  11  12
ENDBRANCH   1  11
TORSDOF 14
ENDMDL
MODEL 3
REMARK VINA RESULT:    -3.081     12.237     14.166
REMARK INTER + INTRA:          -7.587
REMARK INTER:                  -5.807
REMARK INTRA:                  -1.780
REMARK UNBOUND:                -1.984
REMARK SMILES CCCCCCCCCCCCCCCC(=O)[O-]
REMARK SMILES IDX 9 1 10 2 11 3 12 4 13 5 14 6 15 7 16 8 17 9 18 10 8 11 7 12
REMARK SMILES IDX 6 13 5 14 4 15 3 16 2 17 1 18
REMARK H PARENT
REMARK Flexibility Score: inf
ROOT
ATOM      1  C   UNL     1      19.793  27.010  57.559  1.00  0.00     0.000 C 
ENDROOT
BRANCH   1   2
ATOM      2  C   UNL     1      19.680  28.275  58.424  1.00  0.00     0.000 C 
BRANCH   2   3
ATOM      3  C   UNL     1      21.049  28.837  58.836  1.00  0.00     0.000 C 
BRANCH   3   4
ATOM      4  C   UNL     1      21.291  30.256  58.295  1.00  0.00     0.000 C 
BRANCH   4   5
ATOM      5  C   UNL     1      21.405  30.303  56.759  1.00  0.00     0.000 C 
BRANCH   5   6
ATOM      6  C   UNL     1      22.561  29.478  56.164  1.00  0.00     0.006 C 
BRANCH   6   7
ATOM      7  C   UNL     1      23.919  30.184  56.278  1.00  0.00     0.053 C 
BRANCH   7   8
ATOM      8  C   UNL     1      24.834  29.412  57.175  1.00  0.00     0.041 C 
ATOM      9  O   UNL     1      25.975  29.865  57.458  1.00  0.00    -0.550 OA
ATOM     10  O   UNL     1      24.447  28.170  57.659  1.00  0.00    -0.550 OA
ENDBRANCH   7   8
ENDBRANCH   6   7
ENDBRANCH   5   6
ENDBRANCH   4   5
ENDBRANCH   3   4
ENDBRANCH   2   3
ENDBRANCH   1   2
BRANCH   1  11
ATOM     11  C   UNL     1      19.167  27.232  56.177  1.00  0.00     0.000 C 
BRANCH  11  12
ATOM     12  C   UNL     1      18.277  28.484  56.170  1.00  0.00    -0.000 C 
BRANCH  12  13
ATOM     13  C   UNL     1      18.399  29.301  54.871  1.00  0.00    -0.000 C 
BRANCH  13  14
ATOM     14  C   UNL     1      17.074  29.872  54.335  1.00  0.00    -0.000 C 
BRANCH  14  15
ATOM     15  C   UNL     1      15.845  29.349  55.095  1.00  0.00    -0.000 C 
BRANCH  15  16
ATOM     16  C   UNL     1      14.981  28.460  54.193  1.00  0.00    -0.000 C 
BRANCH  16  17
ATOM     17  C   UNL     1      15.456  27.003  54.239  1.00  0.00    -0.003 C 
ATOM     18  C   UNL     1      14.750  26.227  55.346  1.00  0.00     0.004 C 
ENDBRANCH  16  17
ENDBRANCH  15  16
ENDBRANCH  14  15
ENDBRANCH  13  14
ENDBRANCH  12  13
ENDBRANCH  11  12
ENDBRANCH   1  11
TORSDOF 14
ENDMDL
MODEL 4
REMARK VINA RESULT:    -3.073      4.666      7.388
REMARK INTER + INTRA:          -7.573
REMARK INTER:                  -5.694
REMARK INTRA:                  -1.878
REMARK UNBOUND:                -1.984
REMARK SMILES CCCCCCCCCCCCCCCC(=O)[O-]
REMARK SMILES IDX 9 1 10 2 11 3 12 4 13 5 14 6 15 7 16 8 17 9 18 10 8 11 7 12
REMARK SMILES IDX 6 13 5 14 4 15 3 16 2 17 1 18
REMARK H PARENT
REMARK Flexibility Score: inf
ROOT
ATOM      1  C   UNL     1      15.681  20.328  50.004  1.00  0.00     0.000 C 
ENDROOT
BRANCH   1   2
ATOM      2  C   UNL     1      15.986  18.855  50.318  1.00  0.00     0.000 C 
BRANCH   2   3
ATOM      3  C   UNL     1      17.493  18.571  50.422  1.00  0.00     0.000 C 
BRANCH   3   4
ATOM      4  C   UNL     1      17.860  17.797  51.700  1.00  0.00     0.000 C 
BRANCH   4   5
ATOM      5  C   UNL     1      16.637  17.474  52.579  1.00  0.00     0.000 C 
BRANCH   5   6
ATOM      6  C   UNL     1      16.670  18.078  53.995  1.00  0.00     0.006 C 
BRANCH   6   7
ATOM      7  C   UNL     1      17.680  19.225  54.132  1.00  0.00     0.053 C 
BRANCH   7   8
ATOM      8  C   UNL     1      18.173  19.320  55.541  1.00  0.00     0.041 C 
ATOM      9  O   UNL     1      17.811  18.472  56.398  1.00  0.00    -0.550 OA
ATOM     10  O   UNL     1      18.992  20.376  55.921  1.00  0.00    -0.550 OA
ENDBRANCH   7   8
ENDBRANCH   6   7
ENDBRANCH   5   6
ENDBRANCH   4   5
ENDBRANCH   3   4
ENDBRANCH   2   3
ENDBRANCH   1   2
BRANCH   1  11
ATOM     11  C   UNL     1      14.596  20.446  48.926  1.00  0.00     0.000 C 
BRANCH  11  12
ATOM     12  C   UNL     1      14.132  19.059  48.458  1.00  0.00    -0.000 C 
BRANCH  12  13
ATOM     13  C   UNL     1      14.320  18.841  46.945  1.00  0.00    -0.000 C 
BRANCH  13  14
ATOM     14  C   UNL     1      15.387  17.800  46.565  1.00  0.00    -0.000 C 
BRANCH  14  15
ATOM     15  C   UNL     1      16.557  18.403  45.772  1.00  0.00    -0.000 C 
BRANCH  15  16
ATOM     16  C   UNL     1      17.743  18.712  46.695  1.00  0.00    -0.000 C 
BRANCH  16  17
ATOM     17  C   UNL     1      17.794  20.204  47.044  1.00  0.00    -0.003 C 
ATOM     18  C   UNL     1      19.192  20.616  47.495  1.00  0.00     0.004 C 
ENDBRANCH  16  17
ENDBRANCH  15  16
ENDBRANCH  14  15
ENDBRANCH  13  14
ENDBRANCH  12  13
ENDBRANCH  11  12
ENDBRANCH   1  11
TORSDOF 14
ENDMDL
MODEL 5
REMARK VINA RESULT:    -3.062     15.156     17.381
REMARK INTER + INTRA:          -7.552
REMARK INTER:                  -5.626
REMARK INTRA:                  -1.925
REMARK UNBOUND:                -1.984
REMARK SMILES CCCCCCCCCCCCCCCC(=O)[O-]
REMARK SMILES IDX 9 1 10 2 11 3 12 4 13 5 14 6 15 7 16 8 17 9 18 10 8 11 7 12
REMARK SMILES IDX 6 13 5 14 4 15 3 16 2 17 1 18
REMARK H PARENT
REMARK Flexibility Score: inf
ROOT
ATOM      1  C   UNL     1      26.409  30.100  53.629  1.00  0.00     0.000 C 
ENDROOT
BRANCH   1   2
ATOM      2  C   UNL     1      26.935  30.279  55.061  1.00  0.00     0.000 C 
BRANCH   2   3
ATOM      3  C   UNL     1      26.440  29.181  56.016  1.00  0.00     0.000 C 
BRANCH   3   4
ATOM      4  C   UNL     1      25.522  29.731  57.121  1.00  0.00     0.000 C 
BRANCH   4   5
ATOM      5  C   UNL     1      24.057  29.286  56.962  1.00  0.00     0.000 C 
BRANCH   5   6
ATOM      6  C   UNL     1      23.050  30.425  56.719  1.00  0.00     0.006 C 
BRANCH   6   7
ATOM      7  C   UNL     1      21.598  30.007  56.986  1.00  0.00     0.053 C 
BRANCH   7   8
ATOM      8  C   UNL     1      21.328  29.972  58.458  1.00  0.00     0.041 C 
ATOM      9  O   UNL     1      21.320  31.038  59.127  1.00  0.00    -0.550 OA
ATOM     10  O   UNL     1      21.134  28.755  59.099  1.00  0.00    -0.550 OA
ENDBRANCH   7   8
ENDBRANCH   6   7
ENDBRANCH   5   6
ENDBRANCH   4   5
ENDBRANCH   3   4
ENDBRANCH   2   3
ENDBRANCH   1   2
BRANCH   1  11
ATOM     11  C   UNL     1      25.008  30.709  53.479  1.00  0.00     0.000 C 
BRANCH  11  12
ATOM     12  C   UNL     1      24.962  32.131  54.056  1.00  0.00    -0.000 C 
BRANCH  12  13
ATOM     13  C   UNL     1      25.568  33.184  53.111  1.00  0.00    -0.000 C 
BRANCH  13  14
ATOM     14  C   UNL     1      26.370  34.299  53.807  1.00  0.00    -0.000 C 
BRANCH  14  15
ATOM     15  C   UNL     1      27.885  34.040  53.800  1.00  0.00    -0.000 C 
BRANCH  15  16
ATOM     16  C   UNL     1      28.298  33.237  52.561  1.00  0.00    -0.000 C 
BRANCH  16  17
ATOM     17  C   UNL     1      29.372  32.201  52.910  1.00  0.00    -0.003 C 
ATOM     18  C   UNL     1      29.733  31.350  51.697  1.00  0.00     0.004 C 
ENDBRANCH  16  17
ENDBRANCH  15  16
ENDBRANCH  14  15
ENDBRANCH  13  14
ENDBRANCH  12  13
ENDBRANCH  11  12
ENDBRANCH   1  11
TORSDOF 14
ENDMDL
MODEL 6
REMARK VINA RESULT:    -3.043      2.806      5.290
REMARK INTER + INTRA:          -7.518
REMARK INTER:                  -5.027
REMARK INTRA:                  -2.491
REMARK UNBOUND:                -1.984
REMARK SMILES CCCCCCCCCCCCCCCC(=O)[O-]
REMARK SMILES IDX 9 1 10 2 11 3 12 4 13 5 14 6 15 7 16 8 17 9 18 10 8 11 7 12
REMARK SMILES IDX 6 13 5 14 4 15 3 16 2 17 1 18
REMARK H PARENT
REMARK Flexibility Score: inf
ROOT
ATOM      1  C   UNL     1      15.409  21.143  52.321  1.00  0.00     0.000 C 
ENDROOT
BRANCH   1   2
ATOM      2  C   UNL     1      15.138  21.070  50.810  1.00  0.00     0.000 C 
BRANCH   2   3
ATOM      3  C   UNL     1      14.316  19.833  50.414  1.00  0.00     0.000 C 
BRANCH   3   4
ATOM      4  C   UNL     1      14.969  19.031  49.276  1.00  0.00     0.000 C 
BRANCH   4   5
ATOM      5  C   UNL     1      16.354  19.574  48.876  1.00  0.00     0.000 C 
BRANCH   5   6
ATOM      6  C   UNL     1      17.285  18.553  48.196  1.00  0.00     0.006 C 
BRANCH   6   7
ATOM      7  C   UNL     1      16.811  18.152  46.793  1.00  0.00     0.053 C 
BRANCH   7   8
ATOM      8  C   UNL     1      17.526  18.954  45.751  1.00  0.00     0.041 C 
ATOM      9  O   UNL     1      18.753  18.768  45.540  1.00  0.00    -0.550 OA
ATOM     10  O   UNL     1      16.848  19.942  45.049  1.00  0.00    -0.550 OA
ENDBRANCH   7   8
ENDBRANCH   6   7
ENDBRANCH   5   6
ENDBRANCH   4   5
ENDBRANCH   3   4
ENDBRANCH   2   3
ENDBRANCH   1   2
BRANCH   1  11
ATOM     11  C   UNL     1      15.005  19.836  53.015  1.00  0.00     0.000 C 
BRANCH  11  12
ATOM     12  C   UNL     1      16.045  19.429  54.070  1.00  0.00    -0.000 C 
BRANCH  12  13
ATOM     13  C   UNL     1      16.750  18.102  53.738  1.00  0.00    -0.000 C 
BRANCH  13  14
ATOM     14  C   UNL     1      16.788  17.741  52.242  1.00  0.00    -0.000 C 
BRANCH  14  15
ATOM     15  C   UNL     1      18.218  17.596  51.697  1.00  0.00    -0.000 C 
BRANCH  15  16
ATOM     16  C   UNL     1      19.120  18.721  52.219  1.00  0.00    -0.000 C 
BRANCH  16  17
ATOM     17  C   UNL     1      18.908  20.012  51.418  1.00  0.00    -0.003 C 
ATOM     18  C   UNL     1      19.094  21.244  52.298  1.00  0.00     0.004 C 
ENDBRANCH  16  17
ENDBRANCH  15  16
ENDBRANCH  14  15
ENDBRANCH  13  14
ENDBRANCH  12  13
ENDBRANCH  11  12
ENDBRANCH   1  11
TORSDOF 14
ENDMDL
MODEL 7
REMARK VINA RESULT:    -3.016     11.978     14.075
REMARK INTER + INTRA:          -7.467
REMARK INTER:                  -5.277
REMARK INTRA:                  -2.191
REMARK UNBOUND:                -1.984
REMARK SMILES CCCCCCCCCCCCCCCC(=O)[O-]
REMARK SMILES IDX 9 1 10 2 11 3 12 4 13 5 14 6 15 7 16 8 17 9 18 10 8 11 7 12
REMARK SMILES IDX 6 13 5 14 4 15 3 16 2 17 1 18
REMARK H PARENT
REMARK Flexibility Score: inf
ROOT
ATOM      1  C   UNL     1      21.644  29.139  54.957  1.00  0.00     0.000 C 
ENDROOT
BRANCH   1   2
ATOM      2  C   UNL     1      20.708  27.925  54.851  1.00  0.00     0.000 C 
BRANCH   2   3
ATOM      3  C   UNL     1      19.245  28.275  55.166  1.00  0.00     0.000 C 
BRANCH   3   4
ATOM      4  C   UNL     1      18.899  29.732  54.812  1.00  0.00     0.000 C 
BRANCH   4   5
ATOM      5  C   UNL     1      17.500  29.881  54.184  1.00  0.00     0.000 C 
BRANCH   5   6
ATOM      6  C   UNL     1      16.323  29.592  55.132  1.00  0.00     0.006 C 
BRANCH   6   7
ATOM      7  C   UNL     1      15.260  28.679  54.506  1.00  0.00     0.053 C 
BRANCH   7   8
ATOM      8  C   UNL     1      15.772  27.276  54.404  1.00  0.00     0.041 C 
ATOM      9  O   UNL     1      15.911  26.576  55.441  1.00  0.00    -0.550 OA
ATOM     10  O   UNL     1      16.144  26.761  53.169  1.00  0.00    -0.550 OA
ENDBRANCH   7   8
ENDBRANCH   6   7
ENDBRANCH   5   6
ENDBRANCH   4   5
ENDBRANCH   3   4
ENDBRANCH   2   3
ENDBRANCH   1   2
BRANCH   1  11
ATOM     11  C   UNL     1      22.632  28.971  56.119  1.00  0.00     0.000 C 
BRANCH  11  12
ATOM     12  C   UNL     1      22.529  30.145  57.103  1.00  0.00    -0.000 C 
BRANCH  12  13
ATOM     13  C   UNL     1      21.135  30.273  57.742  1.00  0.00    -0.000 C 
BRANCH  13  14
ATOM     14  C   UNL     1      21.078  29.960  59.249  1.00  0.00    -0.000 C 
BRANCH  14  15
ATOM     15  C   UNL     1      20.826  28.473  59.541  1.00  0.00    -0.000 C 
BRANCH  15  16
ATOM     16  C   UNL     1      19.613  27.958  58.756  1.00  0.00    -0.000 C 
BRANCH  16  17
ATOM     17  C   UNL     1      19.836  26.517  58.282  1.00  0.00    -0.003 C 
ATOM     18  C   UNL     1      21.324  26.192  58.187  1.00  0.00     0.004 C 
ENDBRANCH  16  17
ENDBRANCH  15  16
ENDBRANCH  14  15
ENDBRANCH  13  14
ENDBRANCH  12  13
ENDBRANCH  11  12
ENDBRANCH   1  11
TORSDOF 14
ENDMDL
MODEL 8
REMARK VINA RESULT:    -2.994     11.718     13.798
REMARK INTER + INTRA:          -7.427
REMARK INTER:                  -5.236
REMARK INTRA:                  -2.191
REMARK UNBOUND:                -1.984
REMARK SMILES CCCCCCCCCCCCCCCC(=O)[O-]
REMARK SMILES IDX 9 1 10 2 11 3 12 4 13 5 14 6 15 7 16 8 17 9 18 10 8 11 7 12
REMARK SMILES IDX 6 13 5 14 4 15 3 16 2 17 1 18
REMARK H PARENT
REMARK Flexibility Score: inf
ROOT
ATOM      1  C   UNL     1      18.514  26.890  57.506  1.00  0.00     0.000 C 
ENDROOT
BRANCH   1   2
ATOM      2  C   UNL     1      19.646  26.665  58.521  1.00  0.00     0.000 C 
BRANCH   2   3
ATOM      3  C   UNL     1      19.895  27.891  59.413  1.00  0.00     0.000 C 
BRANCH   3   4
ATOM      4  C   UNL     1      21.296  28.494  59.210  1.00  0.00     0.000 C 
BRANCH   4   5
ATOM      5  C   UNL     1      21.261  29.882  58.544  1.00  0.00     0.000 C 
BRANCH   5   6
ATOM      6  C   UNL     1      22.431  30.178  57.588  1.00  0.00     0.006 C 
BRANCH   6   7
ATOM      7  C   UNL     1      21.998  30.253  56.118  1.00  0.00     0.053 C 
BRANCH   7   8
ATOM      8  C   UNL     1      22.380  28.999  55.397  1.00  0.00     0.041 C 
ATOM      9  O   UNL     1      22.126  28.870  54.171  1.00  0.00    -0.550 OA
ATOM     10  O   UNL     1      22.972  27.952  56.092  1.00  0.00    -0.550 OA
ENDBRANCH   7   8
ENDBRANCH   6   7
ENDBRANCH   5   6
ENDBRANCH   4   5
ENDBRANCH   3   4
ENDBRANCH   2   3
ENDBRANCH   1   2
BRANCH   1  11
ATOM     11  C   UNL     1      19.063  27.451  56.188  1.00  0.00     0.000 C 
BRANCH  11  12
ATOM     12  C   UNL     1      18.664  28.923  56.008  1.00  0.00    -0.000 C 
BRANCH  12  13
ATOM     13  C   UNL     1      18.497  29.325  54.532  1.00  0.00    -0.000 C 
BRANCH  13  14
ATOM     14  C   UNL     1      17.146  29.977  54.183  1.00  0.00    -0.000 C 
BRANCH  14  15
ATOM     15  C   UNL     1      16.006  29.521  55.106  1.00  0.00    -0.000 C 
BRANCH  15  16
ATOM     16  C   UNL     1      15.170  28.420  54.442  1.00  0.00    -0.000 C 
BRANCH  16  17
ATOM     17  C   UNL     1      15.452  27.054  55.080  1.00  0.00    -0.003 C 
ATOM     18  C   UNL     1      16.200  26.139  54.116  1.00  0.00     0.004 C 
ENDBRANCH  16  17
ENDBRANCH  15  16
ENDBRANCH  14  15
ENDBRANCH  13  14
ENDBRANCH  12  13
ENDBRANCH  11  12
ENDBRANCH   1  11
TORSDOF 14
ENDMDL
MODEL 9
REMARK VINA RESULT:    -2.986      2.608      4.639
REMARK INTER + INTRA:          -7.413
REMARK INTER:                  -5.448
REMARK INTRA:                  -1.965
REMARK UNBOUND:                -1.984
REMARK SMILES CCCCCCCCCCCCCCCC(=O)[O-]
REMARK SMILES IDX 9 1 10 2 11 3 12 4 13 5 14 6 15 7 16 8 17 9 18 10 8 11 7 12
REMARK SMILES IDX 6 13 5 14 4 15 3 16 2 17 1 18
REMARK H PARENT
REMARK Flexibility Score: inf
ROOT
ATOM      1  C   UNL     1      15.553  20.183  49.951  1.00  0.00     0.000 C 
ENDROOT
BRANCH   1   2
ATOM      2  C   UNL     1      14.950  18.900  49.356  1.00  0.00     0.000 C 
BRANCH   2   3
ATOM      3  C   UNL     1      14.069  19.173  48.128  1.00  0.00     0.000 C 
BRANCH   3   4
ATOM      4  C   UNL     1      14.342  18.191  46.976  1.00  0.00     0.000 C 
BRANCH   4   5
ATOM      5  C   UNL     1      15.843  18.010  46.683  1.00  0.00     0.000 C 
BRANCH   5   6
ATOM      6  C   UNL     1      16.581  19.288  46.243  1.00  0.00     0.006 C 
BRANCH   6   7
ATOM      7  C   UNL     1      17.951  19.000  45.613  1.00  0.00     0.053 C 
BRANCH   7   8
ATOM      8  C   UNL     1      18.171  19.877  44.421  1.00  0.00     0.041 C 
ATOM      9  O   UNL     1      19.070  20.758  44.440  1.00  0.00    -0.550 OA
ATOM     10  O   UNL     1      17.349  19.755  43.308  1.00  0.00    -0.550 OA
ENDBRANCH   7   8
ENDBRANCH   6   7
ENDBRANCH   5   6
ENDBRANCH   4   5
ENDBRANCH   3   4
ENDBRANCH   2   3
ENDBRANCH   1   2
BRANCH   1  11
ATOM     11  C   UNL     1      17.073  20.049  50.116  1.00  0.00     0.000 C 
BRANCH  11  12
ATOM     12  C   UNL     1      17.510  18.580  50.022  1.00  0.00    -0.000 C 
BRANCH  12  13
ATOM     13  C   UNL     1      17.970  18.002  51.372  1.00  0.00    -0.000 C 
BRANCH  13  14
ATOM     14  C   UNL     1      16.840  17.472  52.273  1.00  0.00    -0.000 C 
BRANCH  14  15
ATOM     15  C   UNL     1      16.640  18.317  53.541  1.00  0.00    -0.000 C 
BRANCH  15  16
ATOM     16  C   UNL     1      17.825  19.265  53.760  1.00  0.00    -0.000 C 
BRANCH  16  17
ATOM     17  C   UNL     1      17.368  20.729  53.752  1.00  0.00    -0.003 C 
ATOM     18  C   UNL     1      15.847  20.831  53.703  1.00  0.00     0.004 C 
ENDBRANCH  16  17
ENDBRANCH  15  16
ENDBRANCH  14  15
ENDBRANCH  13  14
ENDBRANCH  12  13
ENDBRANCH  11  12
ENDBRANCH   1  11
TORSDOF 14
ENDMDL
