MODEL 1
REMARK VINA RESULT:    -4.452      0.000      0.000
REMARK INTER + INTRA:         -11.154
REMARK INTER:                  -8.356
REMARK INTRA:                  -2.798
REMARK UNBOUND:                -2.798
REMARK SMILES CCCCCCCCC=CCCCCCCCC(=O)[O-]
REMARK SMILES IDX 10 1 9 2 11 3 12 4 13 5 14 6 15 7 16 8 17 9 18 10 19 11
REMARK SMILES IDX 20 12 8 13 7 14 6 15 5 16 4 17 3 18 2 19 1 20
REMARK H PARENT
REMARK Flexibility Score: inf
ROOT
ATOM      1  C   UNL     1     112.043 117.241 126.617  1.00  0.00    -0.031 C 
ATOM      2  C   UNL     1     112.309 115.946 126.390  1.00  0.00    -0.031 C 
ENDROOT
BRANCH   1   3
ATOM      3  C   UNL     1     111.584 117.729 127.964  1.00  0.00     0.027 C 
BRANCH   3   4
ATOM      4  C   UNL     1     111.749 116.656 129.051  1.00  0.00     0.004 C 
BRANCH   4   5
ATOM      5  C   UNL     1     112.252 117.210 130.397  1.00  0.00     0.000 C 
BRANCH   5   6
ATOM      6  C   UNL     1     113.329 116.326 131.052  1.00  0.00     0.000 C 
BRANCH   6   7
ATOM      7  C   UNL     1     114.088 115.474 130.017  1.00  0.00     0.000 C 
BRANCH   7   8
ATOM      8  C   UNL     1     115.428 116.083 129.568  1.00  0.00     0.006 C 
BRANCH   8   9
ATOM      9  C   UNL     1     115.508 116.389 128.061  1.00  0.00     0.053 C 
BRANCH   9  10
ATOM     10  C   UNL     1     115.366 117.852 127.755  1.00  0.00     0.041 C 
ATOM     11  O   UNL     1     114.987 118.658 128.649  1.00  0.00    -0.550 OA
ATOM     12  O   UNL     1     115.580 118.317 126.463  1.00  0.00    -0.550 OA
ENDBRANCH   9  10
ENDBRANCH   8   9
ENDBRANCH   7   8
ENDBRANCH   6   7
ENDBRANCH   5   6
ENDBRANCH   4   5
ENDBRANCH   3   4
ENDBRANCH   1   3
BRANCH   2  13
ATOM     13  C   UNL     1     112.778 115.460 125.045  1.00  0.00     0.027 C 
BRANCH  13  14
ATOM     14  C   UNL     1     113.329 116.594 124.170  1.00  0.00     0.004 C 
BRANCH  14  15
ATOM     15  C   UNL     1     112.621 116.664 122.808  1.00  0.00     0.000 C 
BRANCH  15  16
ATOM     16  C   UNL     1     111.384 117.574 122.831  1.00  0.00     0.000 C 
BRANCH  16  17
ATOM     17  C   UNL     1     111.745 119.066 122.745  1.00  0.00    -0.000 C 
BRANCH  17  18
ATOM     18  C   UNL     1     111.263 119.821 123.991  1.00  0.00    -0.000 C 
BRANCH  18  19
ATOM     19  C   UNL     1     112.423 120.432 124.795  1.00  0.00    -0.003 C 
ATOM     20  C   UNL     1     113.769 120.298 124.084  1.00  0.00     0.004 C 
ENDBRANCH  18  19
ENDBRANCH  17  18
ENDBRANCH  16  17
ENDBRANCH  15  16
ENDBRANCH  14  15
ENDBRANCH  13  14
ENDBRANCH   2  13
TORSDOF 15
ENDMDL
MODEL 2
REMARK VINA RESULT:    -4.334      1.699      5.821
REMARK INTER + INTRA:         -10.932
REMARK INTER:                  -8.079
REMARK INTRA:                  -2.854
REMARK UNBOUND:                -2.798
REMARK SMILES CCCCCCCCC=CCCCCCCCC(=O)[O-]
REMARK SMILES IDX 10 1 9 2 11 3 12 4 13 5 14 6 15 7 16 8 17 9 18 10 19 11
REMARK SMILES IDX 20 12 8 13 7 14 6 15 5 16 4 17 3 18 2 19 1 20
REMARK H PARENT
REMARK Flexibility Score: inf
ROOT
ATOM      1  C   UNL     1     112.363 115.898 125.641  1.00  0.00    -0.031 C 
ATOM      2  C   UNL     1     112.622 116.472 126.825  1.00  0.00    -0.031 C 
ENDROOT
BRANCH   1   3
ATOM      3  C   UNL     1     113.463 115.534 124.681  1.00  0.00     0.027 C 
BRANCH   3   4
ATOM      4  C   UNL     1     113.321 116.271 123.340  1.00  0.00     0.004 C 
BRANCH   4   5
ATOM      5  C   UNL     1     111.894 116.774 123.058  1.00  0.00     0.000 C 
BRANCH   5   6
ATOM      6  C   UNL     1     111.811 118.302 122.890  1.00  0.00     0.000 C 
BRANCH   6   7
ATOM      7  C   UNL     1     111.155 118.984 124.106  1.00  0.00     0.000 C 
BRANCH   7   8
ATOM      8  C   UNL     1     112.141 119.770 124.989  1.00  0.00     0.006 C 
BRANCH   8   9
ATOM      9  C   UNL     1     113.572 119.845 124.425  1.00  0.00     0.053 C 
BRANCH   9  10
ATOM     10  C   UNL     1     114.196 121.199 124.598  1.00  0.00     0.041 C 
ATOM     11  O   UNL     1     113.746 122.005 125.459  1.00  0.00    -0.550 OA
ATOM     12  O   UNL     1     115.229 121.602 123.759  1.00  0.00    -0.550 OA
ENDBRANCH   9  10
ENDBRANCH   8   9
ENDBRANCH   7   8
ENDBRANCH   6   7
ENDBRANCH   5   6
ENDBRANCH   4   5
ENDBRANCH   3   4
ENDBRANCH   1   3
BRANCH   2  13
ATOM     13  C   UNL     1     111.522 116.826 127.790  1.00  0.00     0.027 C 
BRANCH  13  14
ATOM     14  C   UNL     1     111.947 116.656 129.253  1.00  0.00     0.004 C 
BRANCH  14  15
ATOM     15  C   UNL     1     113.258 115.865 129.383  1.00  0.00     0.000 C 
BRANCH  15  16
ATOM     16  C   UNL     1     114.162 116.399 130.504  1.00  0.00     0.000 C 
BRANCH  16  17
ATOM     17  C   UNL     1     114.846 117.724 130.132  1.00  0.00    -0.000 C 
BRANCH  17  18
ATOM     18  C   UNL     1     115.434 117.660 128.715  1.00  0.00    -0.000 C 
BRANCH  18  19
ATOM     19  C   UNL     1     115.230 118.969 127.934  1.00  0.00    -0.003 C 
ATOM     20  C   UNL     1     113.890 119.638 128.242  1.00  0.00     0.004 C 
ENDBRANCH  18  19
ENDBRANCH  17  18
ENDBRANCH  16  17
ENDBRANCH  15  16
ENDBRANCH  14  15
ENDBRANCH  13  14
ENDBRANCH   2  13
TORSDOF 15
ENDMDL
MODEL 3
REMARK VINA RESULT:    -4.312      1.322      5.646
REMARK INTER + INTRA:         -10.891
REMARK INTER:                  -7.911
REMARK INTRA:                  -2.979
REMARK UNBOUND:                -2.798
REMARK SMILES CCCCCCCCC=CCCCCCCCC(=O)[O-]
REMARK SMILES IDX 10 1 9 2 11 3 12 4 13 5 14 6 15 7 16 8 17 9 18 10 19 11
REMARK SMILES IDX 20 12 8 13 7 14 6 15 5 16 4 17 3 18 2 19 1 20
REMARK H PARENT
REMARK Flexibility Score: inf
ROOT
ATOM      1  C   UNL     1     113.498 115.698 125.682  1.00  0.00    -0.031 C 
ATOM      2  C   UNL     1     114.278 116.729 126.035  1.00  0.00    -0.031 C 
ENDROOT
BRANCH   1   3
ATOM      3  C   UNL     1     112.352 115.866 124.720  1.00  0.00     0.027 C 
BRANCH   3   4
ATOM      4  C   UNL     1     112.793 116.548 123.416  1.00  0.00     0.004 C 
BRANCH   4   5
ATOM      5  C   UNL     1     111.632 117.174 122.622  1.00  0.00     0.000 C 
BRANCH   5   6
ATOM      6  C   UNL     1     111.633 118.712 122.656  1.00  0.00     0.000 C 
BRANCH   6   7
ATOM      7  C   UNL     1     111.170 119.263 124.019  1.00  0.00     0.000 C 
BRANCH   7   8
ATOM      8  C   UNL     1     112.072 120.375 124.582  1.00  0.00     0.006 C 
BRANCH   8   9
ATOM      9  C   UNL     1     113.578 120.058 124.524  1.00  0.00     0.053 C 
BRANCH   9  10
ATOM     10  C   UNL     1     114.360 120.743 125.607  1.00  0.00     0.041 C 
ATOM     11  O   UNL     1     114.056 121.911 125.974  1.00  0.00    -0.550 OA
ATOM     12  O   UNL     1     115.471 120.119 126.163  1.00  0.00    -0.550 OA
ENDBRANCH   9  10
ENDBRANCH   8   9
ENDBRANCH   7   8
ENDBRANCH   6   7
ENDBRANCH   5   6
ENDBRANCH   4   5
ENDBRANCH   3   4
ENDBRANCH   1   3
BRANCH   2  13
ATOM     13  C   UNL     1     115.431 116.557 126.989  1.00  0.00     0.027 C 
BRANCH  13  14
ATOM     14  C   UNL     1     115.139 117.147 128.374  1.00  0.00     0.004 C 
BRANCH  14  15
ATOM     15  C   UNL     1     115.017 116.056 129.449  1.00  0.00     0.000 C 
BRANCH  15  16
ATOM     16  C   UNL     1     113.558 115.737 129.805  1.00  0.00     0.000 C 
BRANCH  16  17
ATOM     17  C   UNL     1     112.627 116.948 129.628  1.00  0.00    -0.000 C 
BRANCH  17  18
ATOM     18  C   UNL     1     111.505 116.636 128.627  1.00  0.00    -0.000 C 
BRANCH  18  19
ATOM     19  C   UNL     1     111.189 117.827 127.708  1.00  0.00    -0.003 C 
ATOM     20  C   UNL     1     112.063 119.047 127.999  1.00  0.00     0.004 C 
ENDBRANCH  18  19
ENDBRANCH  17  18
ENDBRANCH  16  17
ENDBRANCH  15  16
ENDBRANCH  14  15
ENDBRANCH  13  14
ENDBRANCH   2  13
TORSDOF 15
ENDMDL
MODEL 4
REMARK VINA RESULT:    -4.259      2.253      5.163
REMARK INTER + INTRA:         -10.791
REMARK INTER:                  -7.657
REMARK INTRA:                  -3.134
REMARK UNBOUND:                -2.798
REMARK SMILES CCCCCCCCC=CCCCCCCCC(=O)[O-]
REMARK SMILES IDX 10 1 9 2 11 3 12 4 13 5 14 6 15 7 16 8 17 9 18 10 19 11
REMARK SMILES IDX 20 12 8 13 7 14 6 15 5 16 4 17 3 18 2 19 1 20
REMARK H PARENT
REMARK Flexibility Score: inf
ROOT
ATOM      1  C   UNL     1     112.025 116.403 124.582  1.00  0.00    -0.031 C 
ATOM      2  C   UNL     1     112.317 117.649 124.180  1.00  0.00    -0.031 C 
ENDROOT
BRANCH   1   3
ATOM      3  C   UNL     1     113.102 115.393 124.872  1.00  0.00     0.027 C 
BRANCH   3   4
ATOM      4  C   UNL     1     114.499 116.034 124.897  1.00  0.00     0.004 C 
BRANCH   4   5
ATOM      5  C   UNL     1     114.963 116.451 126.305  1.00  0.00     0.000 C 
BRANCH   5   6
ATOM      6  C   UNL     1     115.911 117.664 126.296  1.00  0.00     0.000 C 
BRANCH   6   7
ATOM      7  C   UNL     1     115.738 118.525 125.030  1.00  0.00     0.000 C 
BRANCH   7   8
ATOM      8  C   UNL     1     115.109 119.905 125.295  1.00  0.00     0.006 C 
BRANCH   8   9
ATOM      9  C   UNL     1     114.653 120.645 124.023  1.00  0.00     0.053 C 
BRANCH   9  10
ATOM     10  C   UNL     1     115.538 121.806 123.676  1.00  0.00     0.041 C 
ATOM     11  O   UNL     1     116.540 121.645 122.926  1.00  0.00    -0.550 OA
ATOM     12  O   UNL     1     115.301 123.054 124.240  1.00  0.00    -0.550 OA
ENDBRANCH   9  10
ENDBRANCH   8   9
ENDBRANCH   7   8
ENDBRANCH   6   7
ENDBRANCH   5   6
ENDBRANCH   4   5
ENDBRANCH   3   4
ENDBRANCH   1   3
BRANCH   2  13
ATOM     13  C   UNL     1     111.239 118.662 123.900  1.00  0.00     0.027 C 
BRANCH  13  14
ATOM     14  C   UNL     1     111.213 119.793 124.935  1.00  0.00     0.004 C 
BRANCH  14  15
ATOM     15  C   UNL     1     110.937 119.270 126.353  1.00  0.00     0.000 C 
BRANCH  15  16
ATOM     16  C   UNL     1     112.083 119.573 127.329  1.00  0.00     0.000 C 
BRANCH  16  17
ATOM     17  C   UNL     1     112.461 118.360 128.193  1.00  0.00    -0.000 C 
BRANCH  17  18
ATOM     18  C   UNL     1     111.413 117.244 128.063  1.00  0.00    -0.000 C 
BRANCH  18  19
ATOM     19  C   UNL     1     111.963 115.870 128.479  1.00  0.00    -0.003 C 
ATOM     20  C   UNL     1     113.082 115.970 129.515  1.00  0.00     0.004 C 
ENDBRANCH  18  19
ENDBRANCH  17  18
ENDBRANCH  16  17
ENDBRANCH  15  16
ENDBRANCH  14  15
ENDBRANCH  13  14
ENDBRANCH   2  13
TORSDOF 15
ENDMDL
MODEL 5
REMARK VINA RESULT:    -4.223      1.448      5.849
REMARK INTER + INTRA:         -10.724
REMARK INTER:                  -8.188
REMARK INTRA:                  -2.536
REMARK UNBOUND:                -2.798
REMARK SMILES CCCCCCCCC=CCCCCCCCC(=O)[O-]
REMARK SMILES IDX 10 1 9 2 11 3 12 4 13 5 14 6 15 7 16 8 17 9 18 10 19 11
REMARK SMILES IDX 20 12 8 13 7 14 6 15 5 16 4 17 3 18 2 19 1 20
REMARK H PARENT
REMARK Flexibility Score: inf
ROOT
ATOM      1  C   UNL     1     113.189 116.186 124.316  1.00  0.00    -0.031 C 
ATOM      2  C   UNL     1     112.260 116.216 125.282  1.00  0.00    -0.031 C 
ENDROOT
BRANCH   1   3
ATOM      3  C   UNL     1     112.830 116.375 122.867  1.00  0.00     0.027 C 
BRANCH   3   4
ATOM      4  C   UNL     1     111.519 117.159 122.698  1.00  0.00     0.004 C 
BRANCH   4   5
ATOM      5  C   UNL     1     111.714 118.685 122.639  1.00  0.00     0.000 C 
BRANCH   5   6
ATOM      6  C   UNL     1     110.888 119.444 123.693  1.00  0.00     0.000 C 
BRANCH   6   7
ATOM      7  C   UNL     1     111.738 119.851 124.913  1.00  0.00     0.000 C 
BRANCH   7   8
ATOM      8  C   UNL     1     113.254 119.836 124.651  1.00  0.00     0.006 C 
BRANCH   8   9
ATOM      9  C   UNL     1     114.109 119.572 125.904  1.00  0.00     0.053 C 
BRANCH   9  10
ATOM     10  C   UNL     1     113.905 120.603 126.976  1.00  0.00     0.041 C 
ATOM     11  O   UNL     1     113.516 120.261 128.127  1.00  0.00    -0.550 OA
ATOM     12  O   UNL     1     114.073 121.952 126.685  1.00  0.00    -0.550 OA
ENDBRANCH   9  10
ENDBRANCH   8   9
ENDBRANCH   7   8
ENDBRANCH   6   7
ENDBRANCH   5   6
ENDBRANCH   4   5
ENDBRANCH   3   4
ENDBRANCH   1   3
BRANCH   2  13
ATOM     13  C   UNL     1     112.622 116.037 126.733  1.00  0.00     0.027 C 
BRANCH  13  14
ATOM     14  C   UNL     1     111.884 117.022 127.648  1.00  0.00     0.004 C 
BRANCH  14  15
ATOM     15  C   UNL     1     111.687 116.455 129.063  1.00  0.00     0.000 C 
BRANCH  15  16
ATOM     16  C   UNL     1     112.768 116.930 130.045  1.00  0.00     0.000 C 
BRANCH  16  17
ATOM     17  C   UNL     1     113.655 115.781 130.549  1.00  0.00    -0.000 C 
BRANCH  17  18
ATOM     18  C   UNL     1     115.130 116.032 130.202  1.00  0.00    -0.000 C 
BRANCH  18  19
ATOM     19  C   UNL     1     115.299 116.979 129.003  1.00  0.00    -0.003 C 
ATOM     20  C   UNL     1     116.301 118.101 129.273  1.00  0.00     0.004 C 
ENDBRANCH  18  19
ENDBRANCH  17  18
ENDBRANCH  16  17
ENDBRANCH  15  16
ENDBRANCH  14  15
ENDBRANCH  13  14
ENDBRANCH   2  13
TORSDOF 15
ENDMDL
MODEL 6
REMARK VINA RESULT:    -4.188      1.863      5.867
REMARK INTER + INTRA:         -10.658
REMARK INTER:                  -8.158
REMARK INTRA:                  -2.499
REMARK UNBOUND:                -2.798
REMARK SMILES CCCCCCCCC=CCCCCCCCC(=O)[O-]
REMARK SMILES IDX 10 1 9 2 11 3 12 4 13 5 14 6 15 7 16 8 17 9 18 10 19 11
REMARK SMILES IDX 20 12 8 13 7 14 6 15 5 16 4 17 3 18 2 19 1 20
REMARK H PARENT
REMARK Flexibility Score: inf
ROOT
ATOM      1  C   UNL     1     111.998 116.743 124.338  1.00  0.00    -0.031 C 
ATOM      2  C   UNL     1     113.099 116.408 125.028  1.00  0.00    -0.031 C 
ENDROOT
BRANCH   1   3
ATOM      3  C   UNL     1     112.061 117.125 122.884  1.00  0.00     0.027 C 
BRANCH   3   4
ATOM      4  C   UNL     1     111.618 118.578 122.652  1.00  0.00     0.004 C 
BRANCH   4   5
ATOM      5  C   UNL     1     111.034 119.254 123.906  1.00  0.00     0.000 C 
BRANCH   5   6
ATOM      6  C   UNL     1     111.848 120.475 124.370  1.00  0.00     0.000 C 
BRANCH   6   7
ATOM      7  C   UNL     1     112.826 120.122 125.508  1.00  0.00     0.000 C 
BRANCH   7   8
ATOM      8  C   UNL     1     114.282 119.935 125.046  1.00  0.00     0.006 C 
BRANCH   8   9
ATOM      9  C   UNL     1     114.712 120.888 123.915  1.00  0.00     0.053 C 
BRANCH   9  10
ATOM     10  C   UNL     1     115.321 122.161 124.426  1.00  0.00     0.041 C 
ATOM     11  O   UNL     1     116.541 122.203 124.745  1.00  0.00    -0.550 OA
ATOM     12  O   UNL     1     114.525 123.284 124.620  1.00  0.00    -0.550 OA
ENDBRANCH   9  10
ENDBRANCH   8   9
ENDBRANCH   7   8
ENDBRANCH   6   7
ENDBRANCH   5   6
ENDBRANCH   4   5
ENDBRANCH   3   4
ENDBRANCH   1   3
BRANCH   2  13
ATOM     13  C   UNL     1     113.034 116.016 126.479  1.00  0.00     0.027 C 
BRANCH  13  14
ATOM     14  C   UNL     1     112.035 116.868 127.273  1.00  0.00     0.004 C 
BRANCH  14  15
ATOM     15  C   UNL     1     111.708 116.246 128.639  1.00  0.00     0.000 C 
BRANCH  15  16
ATOM     16  C   UNL     1     112.085 117.163 129.812  1.00  0.00     0.000 C 
BRANCH  16  17
ATOM     17  C   UNL     1     113.219 116.585 130.673  1.00  0.00    -0.000 C 
BRANCH  17  18
ATOM     18  C   UNL     1     114.469 117.475 130.607  1.00  0.00    -0.000 C 
BRANCH  18  19
ATOM     19  C   UNL     1     115.224 117.330 129.275  1.00  0.00    -0.003 C 
ATOM     20  C   UNL     1     115.166 118.598 128.422  1.00  0.00     0.004 C 
ENDBRANCH  18  19
ENDBRANCH  17  18
ENDBRANCH  16  17
ENDBRANCH  15  16
ENDBRANCH  14  15
ENDBRANCH  13  14
ENDBRANCH   2  13
TORSDOF 15
ENDMDL
MODEL 7
REMARK VINA RESULT:    -4.188      2.727      6.305
REMARK INTER + INTRA:         -10.658
REMARK INTER:                  -8.103
REMARK INTRA:                  -2.555
REMARK UNBOUND:                -2.798
REMARK SMILES CCCCCCCCC=CCCCCCCCC(=O)[O-]
REMARK SMILES IDX 10 1 9 2 11 3 12 4 13 5 14 6 15 7 16 8 17 9 18 10 19 11
REMARK SMILES IDX 20 12 8 13 7 14 6 15 5 16 4 17 3 18 2 19 1 20
REMARK H PARENT
REMARK Flexibility Score: inf
ROOT
ATOM      1  C   UNL     1     114.143 119.390 128.158  1.00  0.00    -0.031 C 
ATOM      2  C   UNL     1     115.184 118.567 128.355  1.00  0.00    -0.031 C 
ENDROOT
BRANCH   1   3
ATOM      3  C   UNL     1     114.164 120.451 127.091  1.00  0.00     0.027 C 
BRANCH   3   4
ATOM      4  C   UNL     1     113.025 120.268 126.076  1.00  0.00     0.004 C 
BRANCH   4   5
ATOM      5  C   UNL     1     113.491 120.301 124.609  1.00  0.00     0.000 C 
BRANCH   5   6
ATOM      6  C   UNL     1     115.023 120.330 124.460  1.00  0.00     0.000 C 
BRANCH   6   7
ATOM      7  C   UNL     1     115.498 121.503 123.581  1.00  0.00     0.000 C 
BRANCH   7   8
ATOM      8  C   UNL     1     116.084 122.683 124.378  1.00  0.00     0.006 C 
BRANCH   8   9
ATOM      9  C   UNL     1     115.225 123.960 124.337  1.00  0.00     0.053 C 
BRANCH   9  10
ATOM     10  C   UNL     1     114.083 123.925 125.310  1.00  0.00     0.041 C 
ATOM     11  O   UNL     1     114.302 123.872 126.552  1.00  0.00    -0.550 OA
ATOM     12  O   UNL     1     112.774 123.878 124.845  1.00  0.00    -0.550 OA
ENDBRANCH   9  10
ENDBRANCH   8   9
ENDBRANCH   7   8
ENDBRANCH   6   7
ENDBRANCH   5   6
ENDBRANCH   4   5
ENDBRANCH   3   4
ENDBRANCH   1   3
BRANCH   2  13
ATOM     13  C   UNL     1     115.157 117.499 129.415  1.00  0.00     0.027 C 
BRANCH  13  14
ATOM     14  C   UNL     1     114.165 117.815 130.542  1.00  0.00     0.004 C 
BRANCH  14  15
ATOM     15  C   UNL     1     112.972 116.846 130.545  1.00  0.00     0.000 C 
BRANCH  15  16
ATOM     16  C   UNL     1     112.981 115.892 129.342  1.00  0.00     0.000 C 
BRANCH  16  17
ATOM     17  C   UNL     1     111.710 116.007 128.486  1.00  0.00    -0.000 C 
BRANCH  17  18
ATOM     18  C   UNL     1     111.969 116.849 127.228  1.00  0.00    -0.000 C 
BRANCH  18  19
ATOM     19  C   UNL     1     112.557 116.019 126.075  1.00  0.00    -0.003 C 
ATOM     20  C   UNL     1     113.928 116.522 125.624  1.00  0.00     0.004 C 
ENDBRANCH  18  19
ENDBRANCH  17  18
ENDBRANCH  16  17
ENDBRANCH  15  16
ENDBRANCH  14  15
ENDBRANCH  13  14
ENDBRANCH   2  13
TORSDOF 15
ENDMDL
MODEL 8
REMARK VINA RESULT:    -4.181      2.491      6.115
REMARK INTER + INTRA:         -10.645
REMARK INTER:                  -8.159
REMARK INTRA:                  -2.486
REMARK UNBOUND:                -2.798
REMARK SMILES CCCCCCCCC=CCCCCCCCC(=O)[O-]
REMARK SMILES IDX 10 1 9 2 11 3 12 4 13 5 14 6 15 7 16 8 17 9 18 10 19 11
REMARK SMILES IDX 20 12 8 13 7 14 6 15 5 16 4 17 3 18 2 19 1 20
REMARK H PARENT
REMARK Flexibility Score: inf
ROOT
ATOM      1  C   UNL     1     112.243 116.660 126.480  1.00  0.00    -0.031 C 
ATOM      2  C   UNL     1     111.666 117.120 127.600  1.00  0.00    -0.031 C 
ENDROOT
BRANCH   1   3
ATOM      3  C   UNL     1     112.296 117.483 125.222  1.00  0.00     0.027 C 
BRANCH   3   4
ATOM      4  C   UNL     1     111.328 118.676 125.275  1.00  0.00     0.004 C 
BRANCH   4   5
ATOM      5  C   UNL     1     111.902 119.966 124.662  1.00  0.00     0.000 C 
BRANCH   5   6
ATOM      6  C   UNL     1     113.337 119.800 124.132  1.00  0.00     0.000 C 
BRANCH   6   7
ATOM      7  C   UNL     1     114.237 120.992 124.511  1.00  0.00     0.000 C 
BRANCH   7   8
ATOM      8  C   UNL     1     115.699 120.840 124.055  1.00  0.00     0.006 C 
BRANCH   8   9
ATOM      9  C   UNL     1     116.197 121.977 123.143  1.00  0.00     0.053 C 
BRANCH   9  10
ATOM     10  C   UNL     1     116.438 123.258 123.887  1.00  0.00     0.041 C 
ATOM     11  O   UNL     1     115.504 124.093 124.042  1.00  0.00    -0.550 OA
ATOM     12  O   UNL     1     117.713 123.567 124.346  1.00  0.00    -0.550 OA
ENDBRANCH   9  10
ENDBRANCH   8   9
ENDBRANCH   7   8
ENDBRANCH   6   7
ENDBRANCH   5   6
ENDBRANCH   4   5
ENDBRANCH   3   4
ENDBRANCH   1   3
BRANCH   2  13
ATOM     13  C   UNL     1     111.623 116.299 128.861  1.00  0.00     0.027 C 
BRANCH  13  14
ATOM     14  C   UNL     1     112.365 116.969 130.024  1.00  0.00     0.004 C 
BRANCH  14  15
ATOM     15  C   UNL     1     113.392 116.026 130.671  1.00  0.00     0.000 C 
BRANCH  15  16
ATOM     16  C   UNL     1     114.822 116.276 130.171  1.00  0.00     0.000 C 
BRANCH  16  17
ATOM     17  C   UNL     1     115.012 117.693 129.606  1.00  0.00    -0.000 C 
BRANCH  17  18
ATOM     18  C   UNL     1     115.530 117.644 128.161  1.00  0.00    -0.000 C 
BRANCH  18  19
ATOM     19  C   UNL     1     115.060 118.846 127.326  1.00  0.00    -0.003 C 
ATOM     20  C   UNL     1     114.075 119.740 128.080  1.00  0.00     0.004 C 
ENDBRANCH  18  19
ENDBRANCH  17  18
ENDBRANCH  16  17
ENDBRANCH  15  16
ENDBRANCH  14  15
ENDBRANCH  13  14
ENDBRANCH   2  13
TORSDOF 15
ENDMDL
MODEL 9
REMARK VINA RESULT:    -4.149      1.315      2.743
REMARK INTER + INTRA:         -10.585
REMARK INTER:                  -7.509
REMARK INTRA:                  -3.077
REMARK UNBOUND:                -2.798
REMARK SMILES CCCCCCCCC=CCCCCCCCC(=O)[O-]
REMARK SMILES IDX 10 1 9 2 11 3 12 4 13 5 14 6 15 7 16 8 17 9 18 10 19 11
REMARK SMILES IDX 20 12 8 13 7 14 6 15 5 16 4 17 3 18 2 19 1 20
REMARK H PARENT
REMARK Flexibility Score: inf
ROOT
ATOM      1  C   UNL     1     112.077 116.397 124.775  1.00  0.00    -0.031 C 
ATOM      2  C   UNL     1     112.668 116.377 123.572  1.00  0.00    -0.031 C 
ENDROOT
BRANCH   1   3
ATOM      3  C   UNL     1     112.687 115.711 125.967  1.00  0.00     0.027 C 
BRANCH   3   4
ATOM      4  C   UNL     1     112.104 116.231 127.290  1.00  0.00     0.004 C 
BRANCH   4   5
ATOM      5  C   UNL     1     111.724 117.723 127.255  1.00  0.00     0.000 C 
BRANCH   5   6
ATOM      6  C   UNL     1     112.266 118.515 128.458  1.00  0.00     0.000 C 
BRANCH   6   7
ATOM      7  C   UNL     1     112.391 117.641 129.720  1.00  0.00     0.000 C 
BRANCH   7   8
ATOM      8  C   UNL     1     113.795 117.650 130.350  1.00  0.00     0.006 C 
BRANCH   8   9
ATOM      9  C   UNL     1     114.698 116.487 129.899  1.00  0.00     0.053 C 
BRANCH   9  10
ATOM     10  C   UNL     1     115.716 116.903 128.877  1.00  0.00     0.041 C 
ATOM     11  O   UNL     1     116.013 118.120 128.729  1.00  0.00    -0.550 OA
ATOM     12  O   UNL     1     116.285 115.954 128.036  1.00  0.00    -0.550 OA
ENDBRANCH   9  10
ENDBRANCH   8   9
ENDBRANCH   7   8
ENDBRANCH   6   7
ENDBRANCH   5   6
ENDBRANCH   4   5
ENDBRANCH   3   4
ENDBRANCH   1   3
BRANCH   2  13
ATOM     13  C   UNL     1     112.062 117.073 122.382  1.00  0.00     0.027 C 
BRANCH  13  14
ATOM     14  C   UNL     1     111.063 118.164 122.787  1.00  0.00     0.004 C 
BRANCH  14  15
ATOM     15  C   UNL     1     111.736 119.539 122.922  1.00  0.00     0.000 C 
BRANCH  15  16
ATOM     16  C   UNL     1     111.578 120.139 124.326  1.00  0.00     0.000 C 
BRANCH  16  17
ATOM     17  C   UNL     1     112.907 120.654 124.903  1.00  0.00    -0.000 C 
BRANCH  17  18
ATOM     18  C   UNL     1     114.082 119.782 124.439  1.00  0.00    -0.000 C 
BRANCH  18  19
ATOM     19  C   UNL     1     114.703 118.972 125.590  1.00  0.00    -0.003 C 
ATOM     20  C   UNL     1     115.652 117.879 125.098  1.00  0.00     0.004 C 
ENDBRANCH  18  19
ENDBRANCH  17  18
ENDBRANCH  16  17
ENDBRANCH  15  16
ENDBRANCH  14  15
ENDBRANCH  13  14
ENDBRANCH   2  13
TORSDOF 15
ENDMDL
