MODEL 1
REMARK VINA RESULT:    -4.347      0.000      0.000
REMARK INTER + INTRA:          -5.373
REMARK INTER:                  -5.109
REMARK INTRA:                  -0.264
REMARK UNBOUND:                -0.264
REMARK SMILES O=c1cc(-c2ccc(O)c(O)c2)oc2cc(O)cc(O)c12
REMARK SMILES IDX 4 1 3 2 2 3 1 4 21 5 19 6 18 7 16 8 15 9 14 10 13 11 5 12
REMARK SMILES IDX 6 13 7 14 8 15 12 16 10 17 9 18 11 20 20 22 17 24
REMARK H PARENT 9 19 11 21 20 23 17 25
REMARK Flexibility Score: inf
ROOT
ATOM      1  C   UNL     1      24.991  28.369   5.423  1.00  0.00     0.138 A 
ATOM      2  C   UNL     1      26.154  28.503   6.200  1.00  0.00     0.100 A 
ATOM      3  C   UNL     1      26.832  27.361   6.625  1.00  0.00     0.197 A 
ATOM      4  O   UNL     1      27.876  27.491   7.321  1.00  0.00    -0.289 OA
ATOM      5  C   UNL     1      26.343  26.089   6.267  1.00  0.00     0.107 A 
ATOM      6  C   UNL     1      26.969  24.880   6.656  1.00  0.00     0.134 A 
ATOM      7  C   UNL     1      26.422  23.653   6.252  1.00  0.00     0.093 A 
ATOM      8  C   UNL     1      25.266  23.610   5.470  1.00  0.00     0.123 A 
ATOM      9  C   UNL     1      24.644  24.801   5.082  1.00  0.00     0.094 A 
ATOM     10  C   UNL     1      25.172  26.035   5.474  1.00  0.00     0.146 A 
ATOM     11  O   UNL     1      24.562  27.153   5.094  1.00  0.00    -0.456 OA
ENDROOT
BRANCH   1  12
ATOM     12  C   UNL     1      24.229  29.549   4.942  1.00  0.00     0.021 A 
ATOM     13  C   UNL     1      24.376  29.970   3.610  1.00  0.00     0.016 A 
ATOM     14  C   UNL     1      23.666  31.073   3.131  1.00  0.00     0.051 A 
ATOM     15  C   UNL     1      22.789  31.769   3.971  1.00  0.00     0.157 A 
ATOM     16  C   UNL     1      23.335  30.245   5.780  1.00  0.00     0.062 A 
ATOM     17  C   UNL     1      22.620  31.349   5.301  1.00  0.00     0.158 A 
BRANCH  15  18
ATOM     18  O   UNL     1      22.081  32.870   3.490  1.00  0.00    -0.504 OA
ATOM     19  H   UNL     1      21.362  33.320   4.043  1.00  0.00     0.293 HD
ENDBRANCH  15  18
BRANCH  17  20
ATOM     20  O   UNL     1      21.745  32.014   6.161  1.00  0.00    -0.504 OA
ATOM     21  H   UNL     1      21.886  32.979   6.432  1.00  0.00     0.293 HD
ENDBRANCH  17  20
ENDBRANCH   1  12
BRANCH   6  22
ATOM     22  O   UNL     1      28.125  24.891   7.438  1.00  0.00    -0.507 OA
ATOM     23  H   UNL     1      28.467  24.052   7.894  1.00  0.00     0.293 HD
ENDBRANCH   6  22
BRANCH   8  24
ATOM     24  O   UNL     1      24.744  22.378   5.082  1.00  0.00    -0.508 OA
ATOM     25  H   UNL     1      25.234  21.777   4.430  1.00  0.00     0.293 HD
ENDBRANCH   8  24
TORSDOF 5
ENDMDL
MODEL 2
REMARK VINA RESULT:    -4.320      3.019      6.281
REMARK INTER + INTRA:          -5.342
REMARK INTER:                  -5.024
REMARK INTRA:                  -0.318
REMARK UNBOUND:                -0.264
REMARK SMILES O=c1cc(-c2ccc(O)c(O)c2)oc2cc(O)cc(O)c12
REMARK SMILES IDX 4 1 3 2 2 3 1 4 21 5 19 6 18 7 16 8 15 9 14 10 13 11 5 12
REMARK SMILES IDX 6 13 7 14 8 15 12 16 10 17 9 18 11 20 20 22 17 24
REMARK H PARENT 9 19 11 21 20 23 17 25
REMARK Flexibility Score: inf
ROOT
ATOM      1  C   UNL     1      23.801  24.485   5.113  1.00  0.00     0.138 A 
ATOM      2  C   UNL     1      25.131  24.032   5.119  1.00  0.00     0.100 A 
ATOM      3  C   UNL     1      26.140  24.867   5.599  1.00  0.00     0.197 A 
ATOM      4  O   UNL     1      27.330  24.451   5.601  1.00  0.00    -0.289 OA
ATOM      5  C   UNL     1      25.811  26.152   6.074  1.00  0.00     0.107 A 
ATOM      6  C   UNL     1      26.772  27.063   6.577  1.00  0.00     0.134 A 
ATOM      7  C   UNL     1      26.361  28.322   7.037  1.00  0.00     0.093 A 
ATOM      8  C   UNL     1      25.014  28.689   7.006  1.00  0.00     0.123 A 
ATOM      9  C   UNL     1      24.060  27.794   6.511  1.00  0.00     0.094 A 
ATOM     10  C   UNL     1      24.448  26.533   6.046  1.00  0.00     0.146 A 
ATOM     11  O   UNL     1      23.523  25.700   5.579  1.00  0.00    -0.456 OA
ENDROOT
BRANCH   1  12
ATOM     12  C   UNL     1      22.687  23.640   4.616  1.00  0.00     0.021 A 
ATOM     13  C   UNL     1      22.974  22.414   3.992  1.00  0.00     0.016 A 
ATOM     14  C   UNL     1      21.944  21.597   3.521  1.00  0.00     0.051 A 
ATOM     15  C   UNL     1      20.608  21.986   3.674  1.00  0.00     0.157 A 
ATOM     16  C   UNL     1      21.340  24.020   4.778  1.00  0.00     0.062 A 
ATOM     17  C   UNL     1      20.305  23.201   4.310  1.00  0.00     0.158 A 
BRANCH  15  18
ATOM     18  O   UNL     1      19.581  21.169   3.202  1.00  0.00    -0.504 OA
ATOM     19  H   UNL     1      19.264  21.217   2.241  1.00  0.00     0.293 HD
ENDBRANCH  15  18
BRANCH  17  20
ATOM     20  O   UNL     1      18.984  23.612   4.488  1.00  0.00    -0.504 OA
ATOM     21  H   UNL     1      18.722  24.293   5.189  1.00  0.00     0.293 HD
ENDBRANCH  17  20
ENDBRANCH   1  12
BRANCH   6  22
ATOM     22  O   UNL     1      28.125  26.724   6.620  1.00  0.00    -0.507 OA
ATOM     23  H   UNL     1      28.770  27.016   5.894  1.00  0.00     0.293 HD
ENDBRANCH   6  22
BRANCH   8  24
ATOM     24  O   UNL     1      24.633  29.946   7.470  1.00  0.00    -0.508 OA
ATOM     25  H   UNL     1      25.240  30.496   8.066  1.00  0.00     0.293 HD
ENDBRANCH   8  24
TORSDOF 5
ENDMDL
MODEL 3
REMARK VINA RESULT:    -4.238      2.027      2.871
REMARK INTER + INTRA:          -5.245
REMARK INTER:                  -4.932
REMARK INTRA:                  -0.313
REMARK UNBOUND:                -0.264
REMARK SMILES O=c1cc(-c2ccc(O)c(O)c2)oc2cc(O)cc(O)c12
REMARK SMILES IDX 4 1 3 2 2 3 1 4 21 5 19 6 18 7 16 8 15 9 14 10 13 11 5 12
REMARK SMILES IDX 6 13 7 14 8 15 12 16 10 17 9 18 11 20 20 22 17 24
REMARK H PARENT 9 19 11 21 20 23 17 25
REMARK Flexibility Score: inf
ROOT
ATOM      1  C   UNL     1      24.500  29.493   6.877  1.00  0.00     0.138 A 
ATOM      2  C   UNL     1      25.742  29.285   7.500  1.00  0.00     0.100 A 
ATOM      3  C   UNL     1      26.554  28.231   7.079  1.00  0.00     0.197 A 
ATOM      4  O   UNL     1      27.667  28.053   7.644  1.00  0.00    -0.289 OA
ATOM      5  C   UNL     1      26.120  27.394   6.032  1.00  0.00     0.107 A 
ATOM      6  C   UNL     1      26.881  26.304   5.545  1.00  0.00     0.134 A 
ATOM      7  C   UNL     1      26.379  25.522   4.494  1.00  0.00     0.093 A 
ATOM      8  C   UNL     1      25.137  25.806   3.923  1.00  0.00     0.123 A 
ATOM      9  C   UNL     1      24.381  26.882   4.400  1.00  0.00     0.094 A 
ATOM     10  C   UNL     1      24.862  27.674   5.447  1.00  0.00     0.146 A 
ATOM     11  O   UNL     1      24.125  28.690   5.884  1.00  0.00    -0.456 OA
ENDROOT
BRANCH   1  12
ATOM     12  C   UNL     1      23.596  30.597   7.282  1.00  0.00     0.021 A 
ATOM     13  C   UNL     1      23.774  31.214   8.532  1.00  0.00     0.016 A 
ATOM     14  C   UNL     1      22.940  32.260   8.935  1.00  0.00     0.051 A 
ATOM     15  C   UNL     1      21.919  32.714   8.091  1.00  0.00     0.157 A 
ATOM     16  C   UNL     1      22.574  31.068   6.433  1.00  0.00     0.062 A 
ATOM     17  C   UNL     1      21.739  32.117   6.833  1.00  0.00     0.158 A 
BRANCH  15  18
ATOM     18  O   UNL     1      21.088  33.758   8.496  1.00  0.00    -0.504 OA
ATOM     19  H   UNL     1      20.414  34.175   7.864  1.00  0.00     0.293 HD
ENDBRANCH  15  18
BRANCH  17  20
ATOM     20  O   UNL     1      20.738  32.555   5.965  1.00  0.00    -0.504 OA
ATOM     21  H   UNL     1      20.933  33.174   5.188  1.00  0.00     0.293 HD
ENDBRANCH  17  20
ENDBRANCH   1  12
BRANCH   6  22
ATOM     22  O   UNL     1      28.125  25.995   6.096  1.00  0.00    -0.507 OA
ATOM     23  H   UNL     1      28.239  25.823   7.089  1.00  0.00     0.293 HD
ENDBRANCH   6  22
BRANCH   8  24
ATOM     24  O   UNL     1      24.663  25.013   2.880  1.00  0.00    -0.508 OA
ATOM     25  H   UNL     1      24.910  25.204   1.916  1.00  0.00     0.293 HD
ENDBRANCH   8  24
TORSDOF 5
ENDMDL
MODEL 4
REMARK VINA RESULT:    -4.203      2.598      7.362
REMARK INTER + INTRA:          -5.204
REMARK INTER:                  -4.914
REMARK INTRA:                  -0.290
REMARK UNBOUND:                -0.264
REMARK SMILES O=c1cc(-c2ccc(O)c(O)c2)oc2cc(O)cc(O)c12
REMARK SMILES IDX 4 1 3 2 2 3 1 4 21 5 19 6 18 7 16 8 15 9 14 10 13 11 5 12
REMARK SMILES IDX 6 13 7 14 8 15 12 16 10 17 9 18 11 20 20 22 17 24
REMARK H PARENT 9 19 11 21 20 23 17 25
REMARK Flexibility Score: inf
ROOT
ATOM      1  C   UNL     1      23.101  25.398   4.570  1.00  0.00     0.138 A 
ATOM      2  C   UNL     1      22.242  26.217   3.819  1.00  0.00     0.100 A 
ATOM      3  C   UNL     1      22.233  27.593   4.044  1.00  0.00     0.197 A 
ATOM      4  O   UNL     1      21.459  28.320   3.364  1.00  0.00    -0.289 OA
ATOM      5  C   UNL     1      23.088  28.143   5.020  1.00  0.00     0.107 A 
ATOM      6  C   UNL     1      23.142  29.528   5.311  1.00  0.00     0.134 A 
ATOM      7  C   UNL     1      24.027  29.997   6.294  1.00  0.00     0.093 A 
ATOM      8  C   UNL     1      24.856  29.113   6.988  1.00  0.00     0.123 A 
ATOM      9  C   UNL     1      24.808  27.744   6.703  1.00  0.00     0.094 A 
ATOM     10  C   UNL     1      23.932  27.256   5.728  1.00  0.00     0.146 A 
ATOM     11  O   UNL     1      23.904  25.951   5.477  1.00  0.00    -0.456 OA
ENDROOT
BRANCH   1  12
ATOM     12  C   UNL     1      23.154  23.928   4.374  1.00  0.00     0.021 A 
ATOM     13  C   UNL     1      24.335  23.231   4.678  1.00  0.00     0.016 A 
ATOM     14  C   UNL     1      24.409  21.847   4.508  1.00  0.00     0.051 A 
ATOM     15  C   UNL     1      23.300  21.132   4.040  1.00  0.00     0.157 A 
ATOM     16  C   UNL     1      22.037  23.201   3.914  1.00  0.00     0.062 A 
ATOM     17  C   UNL     1      22.108  21.813   3.745  1.00  0.00     0.158 A 
BRANCH  15  18
ATOM     18  O   UNL     1      23.377  19.750   3.870  1.00  0.00    -0.504 OA
ATOM     19  H   UNL     1      22.948  19.289   3.076  1.00  0.00     0.293 HD
ENDBRANCH  15  18
BRANCH  17  20
ATOM     20  O   UNL     1      20.982  21.129   3.287  1.00  0.00    -0.504 OA
ATOM     21  H   UNL     1      20.311  21.555   2.661  1.00  0.00     0.293 HD
ENDBRANCH  17  20
ENDBRANCH   1  12
BRANCH   6  22
ATOM     22  O   UNL     1      22.325  30.435   4.635  1.00  0.00    -0.507 OA
ATOM     23  H   UNL     1      22.711  31.225   4.130  1.00  0.00     0.293 HD
ENDBRANCH   6  22
BRANCH   8  24
ATOM     24  O   UNL     1      25.726  29.606   7.958  1.00  0.00    -0.508 OA
ATOM     25  H   UNL     1      25.383  30.002   8.824  1.00  0.00     0.293 HD
ENDBRANCH   8  24
TORSDOF 5
ENDMDL
MODEL 5
REMARK VINA RESULT:    -4.101      3.542      5.708
REMARK INTER + INTRA:          -5.084
REMARK INTER:                  -4.789
REMARK INTRA:                  -0.295
REMARK UNBOUND:                -0.264
REMARK SMILES O=c1cc(-c2ccc(O)c(O)c2)oc2cc(O)cc(O)c12
REMARK SMILES IDX 4 1 3 2 2 3 1 4 21 5 19 6 18 7 16 8 15 9 14 10 13 11 5 12
REMARK SMILES IDX 6 13 7 14 8 15 12 16 10 17 9 18 11 20 20 22 17 24
REMARK H PARENT 9 19 11 21 20 23 17 25
REMARK Flexibility Score: inf
ROOT
ATOM      1  C   UNL     1      22.581  24.917   4.775  1.00  0.00     0.138 A 
ATOM      2  C   UNL     1      21.187  24.865   4.608  1.00  0.00     0.100 A 
ATOM      3  C   UNL     1      20.598  23.704   4.106  1.00  0.00     0.197 A 
ATOM      4  O   UNL     1      19.347  23.665   3.960  1.00  0.00    -0.289 OA
ATOM      5  C   UNL     1      21.410  22.599   3.778  1.00  0.00     0.107 A 
ATOM      6  C   UNL     1      20.894  21.384   3.264  1.00  0.00     0.134 A 
ATOM      7  C   UNL     1      21.769  20.328   2.969  1.00  0.00     0.093 A 
ATOM      8  C   UNL     1      23.144  20.461   3.176  1.00  0.00     0.123 A 
ATOM      9  C   UNL     1      23.658  21.659   3.684  1.00  0.00     0.094 A 
ATOM     10  C   UNL     1      22.804  22.724   3.985  1.00  0.00     0.146 A 
ATOM     11  O   UNL     1      23.317  23.852   4.466  1.00  0.00    -0.456 OA
ENDROOT
BRANCH   1  12
ATOM     12  C   UNL     1      23.262  26.125   5.305  1.00  0.00     0.021 A 
ATOM     13  C   UNL     1      24.603  26.038   5.715  1.00  0.00     0.016 A 
ATOM     14  C   UNL     1      25.269  27.161   6.211  1.00  0.00     0.051 A 
ATOM     15  C   UNL     1      24.609  28.393   6.298  1.00  0.00     0.157 A 
ATOM     16  C   UNL     1      22.607  27.370   5.383  1.00  0.00     0.062 A 
ATOM     17  C   UNL     1      23.273  28.498   5.877  1.00  0.00     0.158 A 
BRANCH  15  18
ATOM     18  O   UNL     1      25.276  29.513   6.794  1.00  0.00    -0.504 OA
ATOM     19  H   UNL     1      26.220  29.450   7.156  1.00  0.00     0.293 HD
ENDBRANCH  15  18
BRANCH  17  20
ATOM     20  O   UNL     1      22.592  29.714   5.939  1.00  0.00    -0.504 OA
ATOM     21  H   UNL     1      22.558  30.269   6.784  1.00  0.00     0.293 HD
ENDBRANCH  17  20
ENDBRANCH   1  12
BRANCH   6  22
ATOM     22  O   UNL     1      19.526  21.222   3.046  1.00  0.00    -0.507 OA
ATOM     23  H   UNL     1      18.875  21.099   3.814  1.00  0.00     0.293 HD
ENDBRANCH   6  22
BRANCH   8  24
ATOM     24  O   UNL     1      23.990  19.397   2.875  1.00  0.00    -0.508 OA
ATOM     25  H   UNL     1      24.531  18.931   3.593  1.00  0.00     0.293 HD
ENDBRANCH   8  24
TORSDOF 5
ENDMDL
MODEL 6
REMARK VINA RESULT:    -4.082      2.720      4.689
REMARK INTER + INTRA:          -5.062
REMARK INTER:                  -4.745
REMARK INTRA:                  -0.316
REMARK UNBOUND:                -0.264
REMARK SMILES O=c1cc(-c2ccc(O)c(O)c2)oc2cc(O)cc(O)c12
REMARK SMILES IDX 4 1 3 2 2 3 1 4 21 5 19 6 18 7 16 8 15 9 14 10 13 11 5 12
REMARK SMILES IDX 6 13 7 14 8 15 12 16 10 17 9 18 11 20 20 22 17 24
REMARK H PARENT 9 19 11 21 20 23 17 25
REMARK Flexibility Score: inf
ROOT
ATOM      1  C   UNL     1      25.032  24.320   5.496  1.00  0.00     0.138 A 
ATOM      2  C   UNL     1      26.163  23.552   5.821  1.00  0.00     0.100 A 
ATOM      3  C   UNL     1      26.182  22.192   5.511  1.00  0.00     0.197 A 
ATOM      4  O   UNL     1      27.201  21.511   5.806  1.00  0.00    -0.289 OA
ATOM      5  C   UNL     1      25.068  21.608   4.874  1.00  0.00     0.107 A 
ATOM      6  C   UNL     1      25.005  20.237   4.526  1.00  0.00     0.134 A 
ATOM      7  C   UNL     1      23.862  19.735   3.887  1.00  0.00     0.093 A 
ATOM      8  C   UNL     1      22.784  20.572   3.591  1.00  0.00     0.123 A 
ATOM      9  C   UNL     1      22.841  21.928   3.932  1.00  0.00     0.094 A 
ATOM     10  C   UNL     1      23.971  22.449   4.570  1.00  0.00     0.146 A 
ATOM     11  O   UNL     1      24.001  23.740   4.886  1.00  0.00    -0.456 OA
ENDROOT
BRANCH   1  12
ATOM     12  C   UNL     1      24.956  25.771   5.801  1.00  0.00     0.021 A 
ATOM     13  C   UNL     1      26.119  26.458   6.186  1.00  0.00     0.016 A 
ATOM     14  C   UNL     1      26.075  27.824   6.472  1.00  0.00     0.051 A 
ATOM     15  C   UNL     1      24.871  28.531   6.367  1.00  0.00     0.157 A 
ATOM     16  C   UNL     1      23.749  26.489   5.685  1.00  0.00     0.062 A 
ATOM     17  C   UNL     1      23.704  27.859   5.968  1.00  0.00     0.158 A 
BRANCH  15  18
ATOM     18  O   UNL     1      24.830  29.895   6.654  1.00  0.00    -0.504 OA
ATOM     19  H   UNL     1      24.801  30.236   7.607  1.00  0.00     0.293 HD
ENDBRANCH  15  18
BRANCH  17  20
ATOM     20  O   UNL     1      22.490  28.537   5.844  1.00  0.00    -0.504 OA
ATOM     21  H   UNL     1      22.002  28.607   4.960  1.00  0.00     0.293 HD
ENDBRANCH  17  20
ENDBRANCH   1  12
BRANCH   6  22
ATOM     22  O   UNL     1      26.066  19.376   4.810  1.00  0.00    -0.507 OA
ATOM     23  H   UNL     1      26.275  19.084   5.758  1.00  0.00     0.293 HD
ENDBRANCH   6  22
BRANCH   8  24
ATOM     24  O   UNL     1      21.661  20.048   2.955  1.00  0.00    -0.508 OA
ATOM     25  H   UNL     1      21.677  19.132   2.523  1.00  0.00     0.293 HD
ENDBRANCH   8  24
TORSDOF 5
ENDMDL
MODEL 7
REMARK VINA RESULT:    -4.079      3.931      5.954
REMARK INTER + INTRA:          -5.059
REMARK INTER:                  -4.741
REMARK INTRA:                  -0.318
REMARK UNBOUND:                -0.264
REMARK SMILES O=c1cc(-c2ccc(O)c(O)c2)oc2cc(O)cc(O)c12
REMARK SMILES IDX 4 1 3 2 2 3 1 4 21 5 19 6 18 7 16 8 15 9 14 10 13 11 5 12
REMARK SMILES IDX 6 13 7 14 8 15 12 16 10 17 9 18 11 20 20 22 17 24
REMARK H PARENT 9 19 11 21 20 23 17 25
REMARK Flexibility Score: inf
ROOT
ATOM      1  C   UNL     1      22.780  24.748   4.749  1.00  0.00     0.138 A 
ATOM      2  C   UNL     1      23.520  23.573   4.535  1.00  0.00     0.100 A 
ATOM      3  C   UNL     1      22.880  22.438   4.037  1.00  0.00     0.197 A 
ATOM      4  O   UNL     1      23.553  21.389   3.847  1.00  0.00    -0.289 OA
ATOM      5  C   UNL     1      21.501  22.487   3.751  1.00  0.00     0.107 A 
ATOM      6  C   UNL     1      20.774  21.383   3.244  1.00  0.00     0.134 A 
ATOM      7  C   UNL     1      19.403  21.515   2.981  1.00  0.00     0.093 A 
ATOM      8  C   UNL     1      18.745  22.725   3.212  1.00  0.00     0.123 A 
ATOM      9  C   UNL     1      19.458  23.820   3.713  1.00  0.00     0.094 A 
ATOM     10  C   UNL     1      20.826  23.709   3.983  1.00  0.00     0.146 A 
ATOM     11  O   UNL     1      21.481  24.763   4.460  1.00  0.00    -0.456 OA
ENDROOT
BRANCH   1  12
ATOM     12  C   UNL     1      23.407  25.985   5.277  1.00  0.00     0.021 A 
ATOM     13  C   UNL     1      24.751  25.958   5.686  1.00  0.00     0.016 A 
ATOM     14  C   UNL     1      25.367  27.110   6.180  1.00  0.00     0.051 A 
ATOM     15  C   UNL     1      24.655  28.312   6.265  1.00  0.00     0.157 A 
ATOM     16  C   UNL     1      22.699  27.201   5.353  1.00  0.00     0.062 A 
ATOM     17  C   UNL     1      23.315  28.357   5.845  1.00  0.00     0.158 A 
BRANCH  15  18
ATOM     18  O   UNL     1      25.272  29.460   6.759  1.00  0.00    -0.504 OA
ATOM     19  H   UNL     1      24.825  30.368   6.703  1.00  0.00     0.293 HD
ENDBRANCH  15  18
BRANCH  17  20
ATOM     20  O   UNL     1      22.581  29.542   5.906  1.00  0.00    -0.504 OA
ATOM     21  H   UNL     1      22.971  30.432   5.623  1.00  0.00     0.293 HD
ENDBRANCH  17  20
ENDBRANCH   1  12
BRANCH   6  22
ATOM     22  O   UNL     1      21.404  20.161   3.003  1.00  0.00    -0.507 OA
ATOM     23  H   UNL     1      21.903  19.666   3.734  1.00  0.00     0.293 HD
ENDBRANCH   6  22
BRANCH   8  24
ATOM     24  O   UNL     1      17.383  22.830   2.941  1.00  0.00    -0.508 OA
ATOM     25  H   UNL     1      16.735  23.207   3.622  1.00  0.00     0.293 HD
ENDBRANCH   8  24
TORSDOF 5
ENDMDL
MODEL 8
REMARK VINA RESULT:    -4.016      1.555      7.287
REMARK INTER + INTRA:          -4.985
REMARK INTER:                  -4.706
REMARK INTRA:                  -0.279
REMARK UNBOUND:                -0.264
REMARK SMILES O=c1cc(-c2ccc(O)c(O)c2)oc2cc(O)cc(O)c12
REMARK SMILES IDX 4 1 3 2 2 3 1 4 21 5 19 6 18 7 16 8 15 9 14 10 13 11 5 12
REMARK SMILES IDX 6 13 7 14 8 15 12 16 10 17 9 18 11 20 20 22 17 24
REMARK H PARENT 9 19 11 21 20 23 17 25
REMARK Flexibility Score: inf
ROOT
ATOM      1  C   UNL     1      24.838  27.357   5.636  1.00  0.00     0.138 A 
ATOM      2  C   UNL     1      24.128  27.522   4.435  1.00  0.00     0.100 A 
ATOM      3  C   UNL     1      23.355  28.668   4.245  1.00  0.00     0.197 A 
ATOM      4  O   UNL     1      22.723  28.808   3.163  1.00  0.00    -0.289 OA
ATOM      5  C   UNL     1      23.301  29.645   5.259  1.00  0.00     0.107 A 
ATOM      6  C   UNL     1      22.542  30.836   5.148  1.00  0.00     0.134 A 
ATOM      7  C   UNL     1      22.545  31.762   6.201  1.00  0.00     0.093 A 
ATOM      8  C   UNL     1      23.289  31.524   7.359  1.00  0.00     0.123 A 
ATOM      9  C   UNL     1      24.041  30.350   7.474  1.00  0.00     0.094 A 
ATOM     10  C   UNL     1      24.051  29.412   6.436  1.00  0.00     0.146 A 
ATOM     11  O   UNL     1      24.773  28.304   6.569  1.00  0.00    -0.456 OA
ENDROOT
BRANCH   1  12
ATOM     12  C   UNL     1      25.676  26.159   5.893  1.00  0.00     0.021 A 
ATOM     13  C   UNL     1      26.948  26.317   6.469  1.00  0.00     0.016 A 
ATOM     14  C   UNL     1      27.754  25.206   6.727  1.00  0.00     0.051 A 
ATOM     15  C   UNL     1      27.299  23.917   6.423  1.00  0.00     0.157 A 
ATOM     16  C   UNL     1      25.219  24.859   5.600  1.00  0.00     0.062 A 
ATOM     17  C   UNL     1      26.024  23.744   5.861  1.00  0.00     0.158 A 
BRANCH  15  18
ATOM     18  O   UNL     1      28.106  22.809   6.681  1.00  0.00    -0.504 OA
ATOM     19  H   UNL     1      28.076  22.327   7.571  1.00  0.00     0.293 HD
ENDBRANCH  15  18
BRANCH  17  20
ATOM     20  O   UNL     1      25.538  22.472   5.557  1.00  0.00    -0.504 OA
ATOM     21  H   UNL     1      25.134  22.252   4.655  1.00  0.00     0.293 HD
ENDBRANCH  17  20
ENDBRANCH   1  12
BRANCH   6  22
ATOM     22  O   UNL     1      21.788  31.101   4.004  1.00  0.00    -0.507 OA
ATOM     23  H   UNL     1      21.022  31.765   4.014  1.00  0.00     0.293 HD
ENDBRANCH   6  22
BRANCH   8  24
ATOM     24  O   UNL     1      23.275  32.461   8.389  1.00  0.00    -0.508 OA
ATOM     25  H   UNL     1      22.426  32.947   8.652  1.00  0.00     0.293 HD
ENDBRANCH   8  24
TORSDOF 5
ENDMDL
MODEL 9
REMARK VINA RESULT:    -3.963      3.549      5.901
REMARK INTER + INTRA:          -4.922
REMARK INTER:                  -4.631
REMARK INTRA:                  -0.291
REMARK UNBOUND:                -0.264
REMARK SMILES O=c1cc(-c2ccc(O)c(O)c2)oc2cc(O)cc(O)c12
REMARK SMILES IDX 4 1 3 2 2 3 1 4 21 5 19 6 18 7 16 8 15 9 14 10 13 11 5 12
REMARK SMILES IDX 6 13 7 14 8 15 12 16 10 17 9 18 11 20 20 22 17 24
REMARK H PARENT 9 19 11 21 20 23 17 25
REMARK Flexibility Score: inf
ROOT
ATOM      1  C   UNL     1      23.085  26.134   5.129  1.00  0.00     0.138 A 
ATOM      2  C   UNL     1      21.981  26.968   4.887  1.00  0.00     0.100 A 
ATOM      3  C   UNL     1      20.814  26.426   4.348  1.00  0.00     0.197 A 
ATOM      4  O   UNL     1      19.828  27.183   4.135  1.00  0.00    -0.289 OA
ATOM      5  C   UNL     1      20.758  25.048   4.058  1.00  0.00     0.107 A 
ATOM      6  C   UNL     1      19.614  24.418   3.510  1.00  0.00     0.134 A 
ATOM      7  C   UNL     1      19.637  23.038   3.255  1.00  0.00     0.093 A 
ATOM      8  C   UNL     1      20.775  22.279   3.537  1.00  0.00     0.123 A 
ATOM      9  C   UNL     1      21.907  22.897   4.079  1.00  0.00     0.094 A 
ATOM     10  C   UNL     1      21.906  24.271   4.339  1.00  0.00     0.146 A 
ATOM     11  O   UNL     1      22.995  24.835   4.853  1.00  0.00    -0.456 OA
ENDROOT
BRANCH   1  12
ATOM     12  C   UNL     1      24.351  26.655   5.702  1.00  0.00     0.021 A 
ATOM     13  C   UNL     1      25.554  25.974   5.452  1.00  0.00     0.016 A 
ATOM     14  C   UNL     1      26.760  26.447   5.974  1.00  0.00     0.051 A 
ATOM     15  C   UNL     1      26.787  27.614   6.746  1.00  0.00     0.157 A 
ATOM     16  C   UNL     1      24.386  27.836   6.469  1.00  0.00     0.062 A 
ATOM     17  C   UNL     1      25.594  28.314   6.991  1.00  0.00     0.158 A 
BRANCH  15  18
ATOM     18  O   UNL     1      27.993  28.084   7.266  1.00  0.00    -0.504 OA
ATOM     19  H   UNL     1      28.503  27.567   7.972  1.00  0.00     0.293 HD
ENDBRANCH  15  18
BRANCH  17  20
ATOM     20  O   UNL     1      25.589  29.486   7.746  1.00  0.00    -0.504 OA
ATOM     21  H   UNL     1      24.756  30.051   7.857  1.00  0.00     0.293 HD
ENDBRANCH  17  20
ENDBRANCH   1  12
BRANCH   6  22
ATOM     22  O   UNL     1      18.463  25.150   3.218  1.00  0.00    -0.507 OA
ATOM     23  H   UNL     1      17.541  24.820   3.482  1.00  0.00     0.293 HD
ENDBRANCH   6  22
BRANCH   8  24
ATOM     24  O   UNL     1      20.770  20.911   3.275  1.00  0.00    -0.508 OA
ATOM     25  H   UNL     1      21.259  20.523   2.477  1.00  0.00     0.293 HD
ENDBRANCH   8  24
TORSDOF 5
ENDMDL
