MODEL 1
REMARK VINA RESULT:    -7.860      0.000      0.000
REMARK INTER + INTRA:         -11.846
REMARK INTER:                 -11.535
REMARK INTRA:                  -0.311
REMARK UNBOUND:                -0.311
REMARK SMILES O=c1c(OC[C@@H]2O[C@@H](O)[C@@H](O)[C@H](O)[C@H]2O)c(-c2ccc(O)c(O)c2)oc2cc(O)cc(O)c12
REMARK SMILES IDX 4 1 3 2 16 3 25 4 2 5 26 6 1 7 33 8 27 9 31 10 28 11 30 12
REMARK SMILES IDX 17 13 18 14 19 15 20 16 24 17 22 18 21 19 23 21 32 23 29 25
REMARK SMILES IDX 5 27 6 28 14 29 7 30 12 31 8 32 10 33 15 34 13 36 9 38 11 40
REMARK H PARENT 21 20 23 22 32 24 29 26 15 35 13 37 9 39 11 41
REMARK Flexibility Score: inf
ROOT
ATOM      1  O   UNL     1      -2.027   5.316  16.633  1.00  0.00    -0.483 OA
ENDROOT
BRANCH   1   2
ATOM      2  C   UNL     1      -2.983   5.129  15.608  1.00  0.00     0.211 A 
ATOM      3  C   UNL     1      -3.781   3.972  15.663  1.00  0.00     0.180 A 
ATOM      4  O   UNL     1      -4.749   3.781  14.777  1.00  0.00    -0.452 OA
ATOM      5  C   UNL     1      -3.214   6.049  14.554  1.00  0.00     0.239 A 
ATOM      6  C   UNL     1      -4.997   4.610  13.775  1.00  0.00     0.146 A 
ATOM      7  O   UNL     1      -2.591   7.144  14.538  1.00  0.00    -0.285 OA
ATOM      8  C   UNL     1      -4.185   5.756  13.562  1.00  0.00     0.111 A 
ATOM      9  C   UNL     1      -6.082   4.341  12.929  1.00  0.00     0.094 A 
ATOM     10  C   UNL     1      -4.427   6.557  12.406  1.00  0.00     0.134 A 
ATOM     11  C   UNL     1      -6.363   5.184  11.853  1.00  0.00     0.123 A 
ATOM     12  C   UNL     1      -5.531   6.273  11.590  1.00  0.00     0.093 A 
BRANCH   3  13
ATOM     13  C   UNL     1      -3.579   2.954  16.711  1.00  0.00     0.025 A 
ATOM     14  C   UNL     1      -2.296   2.482  17.028  1.00  0.00     0.016 A 
ATOM     15  C   UNL     1      -2.133   1.562  18.070  1.00  0.00     0.051 A 
ATOM     16  C   UNL     1      -3.243   1.095  18.793  1.00  0.00     0.157 A 
ATOM     17  C   UNL     1      -4.694   2.449  17.400  1.00  0.00     0.062 A 
ATOM     18  C   UNL     1      -4.531   1.525  18.440  1.00  0.00     0.158 A 
BRANCH  16  19
ATOM     19  O   UNL     1      -3.052   0.209  19.856  1.00  0.00    -0.504 OA
ATOM     20  H   UNL     1      -3.103   0.510  20.823  1.00  0.00     0.293 HD
ENDBRANCH  16  19
BRANCH  18  21
ATOM     21  O   UNL     1      -5.651   1.049  19.127  1.00  0.00    -0.504 OA
ATOM     22  H   UNL     1      -6.419   1.665  19.360  1.00  0.00     0.293 HD
ENDBRANCH  18  21
ENDBRANCH   3  13
BRANCH  10  23
ATOM     23  O   UNL     1      -3.601   7.616  11.997  1.00  0.00    -0.507 OA
ATOM     24  H   UNL     1      -3.888   8.577  11.894  1.00  0.00     0.293 HD
ENDBRANCH  10  23
BRANCH  11  25
ATOM     25  O   UNL     1      -7.460   4.922  11.039  1.00  0.00    -0.508 OA
ATOM     26  H   UNL     1      -7.649   5.476  10.206  1.00  0.00     0.293 HD
ENDBRANCH  11  25
ENDBRANCH   1   2
BRANCH   1  27
ATOM     27  C   UNL     1      -0.603   5.175  16.535  1.00  0.00     0.265 C 
BRANCH  27  28
ATOM     28  C   UNL     1       0.084   6.061  17.599  1.00  0.00     0.190 C 
ATOM     29  C   UNL     1       0.536   7.422  17.042  1.00  0.00     0.178 C 
ATOM     30  O   UNL     1      -0.798   6.271  18.691  1.00  0.00    -0.340 OA
ATOM     31  C   UNL     1       1.364   8.119  18.122  1.00  0.00     0.179 C 
ATOM     32  C   UNL     1      -0.104   6.840  19.793  1.00  0.00     0.279 C 
ATOM     33  C   UNL     1       0.560   8.197  19.432  1.00  0.00     0.201 C 
BRANCH  29  34
ATOM     34  O   UNL     1       1.332   7.265  15.897  1.00  0.00    -0.387 OA
ATOM     35  H   UNL     1       2.213   7.687  16.083  1.00  0.00     0.211 HD
ENDBRANCH  29  34
BRANCH  31  36
ATOM     36  O   UNL     1       1.686   9.419  17.689  1.00  0.00    -0.387 OA
ATOM     37  H   UNL     1       2.652   9.555  17.870  1.00  0.00     0.211 HD
ENDBRANCH  31  36
BRANCH  32  38
ATOM     38  O   UNL     1       0.813   5.916  20.333  1.00  0.00    -0.366 OA
ATOM     39  H   UNL     1       0.337   5.409  21.040  1.00  0.00     0.213 HD
ENDBRANCH  32  38
BRANCH  33  40
ATOM     40  O   UNL     1       1.352   8.666  20.503  1.00  0.00    -0.385 OA
ATOM     41  H   UNL     1       1.825   7.883  20.895  1.00  0.00     0.211 HD
ENDBRANCH  33  40
ENDBRANCH  27  28
ENDBRANCH   1  27
TORSDOF 12
ENDMDL
MODEL 2
REMARK VINA RESULT:    -7.655      3.406      8.491
REMARK INTER + INTRA:         -11.546
REMARK INTER:                 -11.306
REMARK INTRA:                  -0.240
REMARK UNBOUND:                -0.311
REMARK SMILES O=c1c(OC[C@@H]2O[C@@H](O)[C@@H](O)[C@H](O)[C@H]2O)c(-c2ccc(O)c(O)c2)oc2cc(O)cc(O)c12
REMARK SMILES IDX 4 1 3 2 16 3 25 4 2 5 26 6 1 7 33 8 27 9 31 10 28 11 30 12
REMARK SMILES IDX 17 13 18 14 19 15 20 16 24 17 22 18 21 19 23 21 32 23 29 25
REMARK SMILES IDX 5 27 6 28 14 29 7 30 12 31 8 32 10 33 15 34 13 36 9 38 11 40
REMARK H PARENT 21 20 23 22 32 24 29 26 15 35 13 37 9 39 11 41
REMARK Flexibility Score: inf
ROOT
ATOM      1  O   UNL     1      -5.642   7.357  14.985  1.00  0.00    -0.483 OA
ENDROOT
BRANCH   1   2
ATOM      2  C   UNL     1      -4.760   6.284  15.251  1.00  0.00     0.211 A 
ATOM      3  C   UNL     1      -3.562   6.228  14.516  1.00  0.00     0.180 A 
ATOM      4  O   UNL     1      -2.657   5.294  14.776  1.00  0.00    -0.452 OA
ATOM      5  C   UNL     1      -4.987   5.288  16.233  1.00  0.00     0.239 A 
ATOM      6  C   UNL     1      -2.829   4.342  15.680  1.00  0.00     0.146 A 
ATOM      7  O   UNL     1      -5.997   5.372  16.981  1.00  0.00    -0.285 OA
ATOM      8  C   UNL     1      -4.045   4.240  16.407  1.00  0.00     0.111 A 
ATOM      9  C   UNL     1      -1.784   3.437  15.915  1.00  0.00     0.094 A 
ATOM     10  C   UNL     1      -4.221   3.133  17.290  1.00  0.00     0.134 A 
ATOM     11  C   UNL     1      -1.936   2.411  16.849  1.00  0.00     0.123 A 
ATOM     12  C   UNL     1      -3.150   2.257  17.516  1.00  0.00     0.093 A 
BRANCH   3  13
ATOM     13  C   UNL     1      -3.269   7.212  13.456  1.00  0.00     0.025 A 
ATOM     14  C   UNL     1      -2.356   8.256  13.666  1.00  0.00     0.016 A 
ATOM     15  C   UNL     1      -2.055   9.136  12.620  1.00  0.00     0.051 A 
ATOM     16  C   UNL     1      -2.667   8.990  11.364  1.00  0.00     0.157 A 
ATOM     17  C   UNL     1      -3.919   7.097  12.216  1.00  0.00     0.062 A 
ATOM     18  C   UNL     1      -3.620   7.979  11.170  1.00  0.00     0.158 A 
BRANCH  16  19
ATOM     19  O   UNL     1      -2.320   9.853  10.322  1.00  0.00    -0.504 OA
ATOM     20  H   UNL     1      -2.879   9.932   9.481  1.00  0.00     0.293 HD
ENDBRANCH  16  19
BRANCH  18  21
ATOM     21  O   UNL     1      -4.263   7.838   9.938  1.00  0.00    -0.504 OA
ATOM     22  H   UNL     1      -4.423   6.923   9.537  1.00  0.00     0.293 HD
ENDBRANCH  18  21
ENDBRANCH   3  13
BRANCH  10  23
ATOM     23  O   UNL     1      -5.428   2.831  17.940  1.00  0.00    -0.507 OA
ATOM     24  H   UNL     1      -5.559   2.103  18.624  1.00  0.00     0.293 HD
ENDBRANCH  10  23
BRANCH  11  25
ATOM     25  O   UNL     1      -0.881   1.538  17.092  1.00  0.00    -0.508 OA
ATOM     26  H   UNL     1      -0.304   1.176  16.336  1.00  0.00     0.293 HD
ENDBRANCH  11  25
ENDBRANCH   1   2
BRANCH   1  27
ATOM     27  C   UNL     1      -7.060   7.291  14.779  1.00  0.00     0.265 C 
BRANCH  27  28
ATOM     28  C   UNL     1      -7.372   6.358  13.587  1.00  0.00     0.190 C 
ATOM     29  C   UNL     1      -7.090   7.014  12.225  1.00  0.00     0.178 C 
ATOM     30  O   UNL     1      -6.611   5.165  13.700  1.00  0.00    -0.340 OA
ATOM     31  C   UNL     1      -7.614   6.078  11.136  1.00  0.00     0.179 C 
ATOM     32  C   UNL     1      -7.078   4.185  12.783  1.00  0.00     0.279 C 
ATOM     33  C   UNL     1      -7.005   4.675  11.311  1.00  0.00     0.201 C 
BRANCH  29  34
ATOM     34  O   UNL     1      -7.745   8.249  12.109  1.00  0.00    -0.387 OA
ATOM     35  H   UNL     1      -8.647   8.152  12.518  1.00  0.00     0.211 HD
ENDBRANCH  29  34
BRANCH  31  36
ATOM     36  O   UNL     1      -7.258   6.592   9.875  1.00  0.00    -0.387 OA
ATOM     37  H   UNL     1      -6.343   6.264   9.675  1.00  0.00     0.211 HD
ENDBRANCH  31  36
BRANCH  32  38
ATOM     38  O   UNL     1      -8.366   3.743  13.142  1.00  0.00    -0.366 OA
ATOM     39  H   UNL     1      -8.814   3.436  12.311  1.00  0.00     0.213 HD
ENDBRANCH  32  38
BRANCH  33  40
ATOM     40  O   UNL     1      -7.601   3.736  10.441  1.00  0.00    -0.385 OA
ATOM     41  H   UNL     1      -8.254   3.204  10.971  1.00  0.00     0.211 HD
ENDBRANCH  33  40
ENDBRANCH  27  28
ENDBRANCH   1  27
TORSDOF 12
ENDMDL
MODEL 3
REMARK VINA RESULT:    -7.499      0.630      1.762
REMARK INTER + INTRA:         -11.316
REMARK INTER:                 -10.917
REMARK INTRA:                  -0.399
REMARK UNBOUND:                -0.311
REMARK SMILES O=c1c(OC[C@@H]2O[C@@H](O)[C@@H](O)[C@H](O)[C@H]2O)c(-c2ccc(O)c(O)c2)oc2cc(O)cc(O)c12
REMARK SMILES IDX 4 1 3 2 16 3 25 4 2 5 26 6 1 7 33 8 27 9 31 10 28 11 30 12
REMARK SMILES IDX 17 13 18 14 19 15 20 16 24 17 22 18 21 19 23 21 32 23 29 25
REMARK SMILES IDX 5 27 6 28 14 29 7 30 12 31 8 32 10 33 15 34 13 36 9 38 11 40
REMARK H PARENT 21 20 23 22 32 24 29 26 15 35 13 37 9 39 11 41
REMARK Flexibility Score: inf
ROOT
ATOM      1  O   UNL     1      -2.275   5.292  16.631  1.00  0.00    -0.483 OA
ENDROOT
BRANCH   1   2
ATOM      2  C   UNL     1      -3.208   5.042  15.599  1.00  0.00     0.211 A 
ATOM      3  C   UNL     1      -3.945   3.845  15.662  1.00  0.00     0.180 A 
ATOM      4  O   UNL     1      -4.893   3.591  14.769  1.00  0.00    -0.452 OA
ATOM      5  C   UNL     1      -3.476   5.935  14.530  1.00  0.00     0.239 A 
ATOM      6  C   UNL     1      -5.173   4.393  13.754  1.00  0.00     0.146 A 
ATOM      7  O   UNL     1      -2.912   7.061  14.506  1.00  0.00    -0.285 OA
ATOM      8  C   UNL     1      -4.421   5.578  13.533  1.00  0.00     0.111 A 
ATOM      9  C   UNL     1      -6.234   4.057  12.900  1.00  0.00     0.094 A 
ATOM     10  C   UNL     1      -4.692   6.350  12.364  1.00  0.00     0.134 A 
ATOM     11  C   UNL     1      -6.547   4.870  11.810  1.00  0.00     0.123 A 
ATOM     12  C   UNL     1      -5.771   5.997  11.541  1.00  0.00     0.093 A 
BRANCH   3  13
ATOM     13  C   UNL     1      -3.701   2.853  16.726  1.00  0.00     0.025 A 
ATOM     14  C   UNL     1      -2.400   2.441  17.050  1.00  0.00     0.016 A 
ATOM     15  C   UNL     1      -2.199   1.544  18.106  1.00  0.00     0.051 A 
ATOM     16  C   UNL     1      -3.288   1.042  18.836  1.00  0.00     0.157 A 
ATOM     17  C   UNL     1      -4.794   2.311  17.422  1.00  0.00     0.062 A 
ATOM     18  C   UNL     1      -4.593   1.412  18.476  1.00  0.00     0.158 A 
BRANCH  16  19
ATOM     19  O   UNL     1      -3.061   0.182  19.912  1.00  0.00    -0.504 OA
ATOM     20  H   UNL     1      -3.817  -0.167  20.491  1.00  0.00     0.293 HD
ENDBRANCH  16  19
BRANCH  18  21
ATOM     21  O   UNL     1      -5.692   0.899  19.170  1.00  0.00    -0.504 OA
ATOM     22  H   UNL     1      -5.953   1.266  20.076  1.00  0.00     0.293 HD
ENDBRANCH  18  21
ENDBRANCH   3  13
BRANCH  10  23
ATOM     23  O   UNL     1      -3.919   7.446  11.949  1.00  0.00    -0.507 OA
ATOM     24  H   UNL     1      -3.262   7.444  11.185  1.00  0.00     0.293 HD
ENDBRANCH  10  23
BRANCH  11  25
ATOM     25  O   UNL     1      -7.620   4.540  10.989  1.00  0.00    -0.508 OA
ATOM     26  H   UNL     1      -8.060   3.623  11.031  1.00  0.00     0.293 HD
ENDBRANCH  11  25
ENDBRANCH   1   2
BRANCH   1  27
ATOM     27  C   UNL     1      -0.850   5.137  16.575  1.00  0.00     0.265 C 
BRANCH  27  28
ATOM     28  C   UNL     1      -0.164   6.483  16.903  1.00  0.00     0.190 C 
ATOM     29  C   UNL     1       0.243   6.602  18.381  1.00  0.00     0.178 C 
ATOM     30  O   UNL     1       0.984   6.648  16.086  1.00  0.00    -0.340 OA
ATOM     31  C   UNL     1       0.725   8.032  18.621  1.00  0.00     0.179 C 
ATOM     32  C   UNL     1       1.469   7.981  16.165  1.00  0.00     0.279 C 
ATOM     33  C   UNL     1       1.839   8.386  17.619  1.00  0.00     0.201 C 
BRANCH  29  34
ATOM     34  O   UNL     1      -0.845   6.348  19.231  1.00  0.00    -0.387 OA
ATOM     35  H   UNL     1      -0.750   5.417  19.571  1.00  0.00     0.211 HD
ENDBRANCH  29  34
BRANCH  31  36
ATOM     36  O   UNL     1       1.223   8.138  19.933  1.00  0.00    -0.387 OA
ATOM     37  H   UNL     1       1.886   8.876  19.935  1.00  0.00     0.211 HD
ENDBRANCH  31  36
BRANCH  32  38
ATOM     38  O   UNL     1       0.558   8.876  15.571  1.00  0.00    -0.366 OA
ATOM     39  H   UNL     1       0.686   9.758  16.007  1.00  0.00     0.213 HD
ENDBRANCH  32  38
BRANCH  33  40
ATOM     40  O   UNL     1       2.186   9.753  17.684  1.00  0.00    -0.385 OA
ATOM     41  H   UNL     1       1.341  10.280  17.667  1.00  0.00     0.211 HD
ENDBRANCH  33  40
ENDBRANCH  27  28
ENDBRANCH   1  27
TORSDOF 12
ENDMDL
MODEL 4
REMARK VINA RESULT:    -7.228     11.276     16.092
REMARK INTER + INTRA:         -10.919
REMARK INTER:                  -9.353
REMARK INTRA:                  -1.566
REMARK UNBOUND:                -0.311
REMARK SMILES O=c1c(OC[C@@H]2O[C@@H](O)[C@@H](O)[C@H](O)[C@H]2O)c(-c2ccc(O)c(O)c2)oc2cc(O)cc(O)c12
REMARK SMILES IDX 4 1 3 2 16 3 25 4 2 5 26 6 1 7 33 8 27 9 31 10 28 11 30 12
REMARK SMILES IDX 17 13 18 14 19 15 20 16 24 17 22 18 21 19 23 21 32 23 29 25
REMARK SMILES IDX 5 27 6 28 14 29 7 30 12 31 8 32 10 33 15 34 13 36 9 38 11 40
REMARK H PARENT 21 20 23 22 32 24 29 26 15 35 13 37 9 39 11 41
REMARK Flexibility Score: inf
ROOT
ATOM      1  O   UNL     1      -4.424  -8.303  22.816  1.00  0.00    -0.483 OA
ENDROOT
BRANCH   1   2
ATOM      2  C   UNL     1      -3.921  -7.668  23.975  1.00  0.00     0.211 A 
ATOM      3  C   UNL     1      -4.009  -6.265  24.040  1.00  0.00     0.180 A 
ATOM      4  O   UNL     1      -3.630  -5.617  25.133  1.00  0.00    -0.452 OA
ATOM      5  C   UNL     1      -3.371  -8.353  25.088  1.00  0.00     0.239 A 
ATOM      6  C   UNL     1      -3.108  -6.216  26.192  1.00  0.00     0.146 A 
ATOM      7  O   UNL     1      -3.378  -9.612  25.106  1.00  0.00    -0.285 OA
ATOM      8  C   UNL     1      -2.875  -7.617  26.195  1.00  0.00     0.111 A 
ATOM      9  C   UNL     1      -2.793  -5.441  27.318  1.00  0.00     0.094 A 
ATOM     10  C   UNL     1      -2.211  -8.195  27.318  1.00  0.00     0.134 A 
ATOM     11  C   UNL     1      -2.226  -6.036  28.446  1.00  0.00     0.123 A 
ATOM     12  C   UNL     1      -1.927  -7.398  28.435  1.00  0.00     0.093 A 
BRANCH   3  13
ATOM     13  C   UNL     1      -4.541  -5.480  22.909  1.00  0.00     0.025 A 
ATOM     14  C   UNL     1      -3.789  -5.290  21.740  1.00  0.00     0.016 A 
ATOM     15  C   UNL     1      -4.346  -4.592  20.662  1.00  0.00     0.051 A 
ATOM     16  C   UNL     1      -5.647  -4.069  20.744  1.00  0.00     0.157 A 
ATOM     17  C   UNL     1      -5.822  -4.912  23.010  1.00  0.00     0.062 A 
ATOM     18  C   UNL     1      -6.378  -4.212  21.933  1.00  0.00     0.158 A 
BRANCH  16  19
ATOM     19  O   UNL     1      -6.199  -3.413  19.642  1.00  0.00    -0.504 OA
ATOM     20  H   UNL     1      -7.023  -3.762  19.165  1.00  0.00     0.293 HD
ENDBRANCH  16  19
BRANCH  18  21
ATOM     21  O   UNL     1      -7.662  -3.671  22.046  1.00  0.00    -0.504 OA
ATOM     22  H   UNL     1      -8.206  -3.447  21.223  1.00  0.00     0.293 HD
ENDBRANCH  18  21
ENDBRANCH   3  13
BRANCH  10  23
ATOM     23  O   UNL     1      -1.782  -9.531  27.374  1.00  0.00    -0.507 OA
ATOM     24  H   UNL     1      -0.823  -9.837  27.420  1.00  0.00     0.293 HD
ENDBRANCH  10  23
BRANCH  11  25
ATOM     25  O   UNL     1      -1.945  -5.261  29.567  1.00  0.00    -0.508 OA
ATOM     26  H   UNL     1      -2.259  -5.536  30.496  1.00  0.00     0.293 HD
ENDBRANCH  11  25
ENDBRANCH   1   2
BRANCH   1  27
ATOM     27  C   UNL     1      -5.707  -8.922  22.647  1.00  0.00     0.265 C 
BRANCH  27  28
ATOM     28  C   UNL     1      -6.555  -8.102  21.650  1.00  0.00     0.190 C 
ATOM     29  C   UNL     1      -6.071  -8.240  20.197  1.00  0.00     0.178 C 
ATOM     30  O   UNL     1      -7.914  -8.505  21.731  1.00  0.00    -0.340 OA
ATOM     31  C   UNL     1      -6.855  -7.243  19.344  1.00  0.00     0.179 C 
ATOM     32  C   UNL     1      -8.751  -7.589  21.039  1.00  0.00     0.279 C 
ATOM     33  C   UNL     1      -8.366  -7.461  19.539  1.00  0.00     0.201 C 
BRANCH  29  34
ATOM     34  O   UNL     1      -4.703  -7.946  20.086  1.00  0.00    -0.387 OA
ATOM     35  H   UNL     1      -4.365  -7.737  20.998  1.00  0.00     0.211 HD
ENDBRANCH  29  34
BRANCH  31  36
ATOM     36  O   UNL     1      -6.524  -7.434  17.990  1.00  0.00    -0.387 OA
ATOM     37  H   UNL     1      -6.780  -6.606  17.508  1.00  0.00     0.211 HD
ENDBRANCH  31  36
BRANCH  32  38
ATOM     38  O   UNL     1      -8.777  -6.344  21.698  1.00  0.00    -0.366 OA
ATOM     39  H   UNL     1      -8.400  -5.673  21.072  1.00  0.00     0.213 HD
ENDBRANCH  32  38
BRANCH  33  40
ATOM     40  O   UNL     1      -9.125  -6.446  18.913  1.00  0.00    -0.385 OA
ATOM     41  H   UNL     1      -9.901  -6.881  18.468  1.00  0.00     0.211 HD
ENDBRANCH  33  40
ENDBRANCH  27  28
ENDBRANCH   1  27
TORSDOF 12
ENDMDL
MODEL 5
REMARK VINA RESULT:    -6.730     11.776     16.211
REMARK INTER + INTRA:         -10.189
REMARK INTER:                  -8.404
REMARK INTRA:                  -1.785
REMARK UNBOUND:                -0.311
REMARK SMILES O=c1c(OC[C@@H]2O[C@@H](O)[C@@H](O)[C@H](O)[C@H]2O)c(-c2ccc(O)c(O)c2)oc2cc(O)cc(O)c12
REMARK SMILES IDX 4 1 3 2 16 3 25 4 2 5 26 6 1 7 33 8 27 9 31 10 28 11 30 12
REMARK SMILES IDX 17 13 18 14 19 15 20 16 24 17 22 18 21 19 23 21 32 23 29 25
REMARK SMILES IDX 5 27 6 28 14 29 7 30 12 31 8 32 10 33 15 34 13 36 9 38 11 40
REMARK H PARENT 21 20 23 22 32 24 29 26 15 35 13 37 9 39 11 41
REMARK Flexibility Score: inf
ROOT
ATOM      1  O   UNL     1      -5.145  -6.408  24.666  1.00  0.00    -0.483 OA
ENDROOT
BRANCH   1   2
ATOM      2  C   UNL     1      -3.970  -7.121  25.000  1.00  0.00     0.211 A 
ATOM      3  C   UNL     1      -3.699  -8.302  24.285  1.00  0.00     0.180 A 
ATOM      4  O   UNL     1      -2.573  -8.971  24.495  1.00  0.00    -0.452 OA
ATOM      5  C   UNL     1      -3.034  -6.704  25.979  1.00  0.00     0.239 A 
ATOM      6  C   UNL     1      -1.674  -8.621  25.401  1.00  0.00     0.146 A 
ATOM      7  O   UNL     1      -3.193  -5.597  26.559  1.00  0.00    -0.285 OA
ATOM      8  C   UNL     1      -1.895  -7.506  26.253  1.00  0.00     0.111 A 
ATOM      9  C   UNL     1      -0.491  -9.368  25.503  1.00  0.00     0.094 A 
ATOM     10  C   UNL     1      -0.945  -7.236  27.283  1.00  0.00     0.134 A 
ATOM     11  C   UNL     1       0.472  -9.038  26.457  1.00  0.00     0.123 A 
ATOM     12  C   UNL     1       0.235  -7.990  27.346  1.00  0.00     0.093 A 
BRANCH   3  13
ATOM     13  C   UNL     1      -4.641  -8.816  23.273  1.00  0.00     0.025 A 
ATOM     14  C   UNL     1      -5.762  -9.574  23.644  1.00  0.00     0.016 A 
ATOM     15  C   UNL     1      -6.670  -9.995  22.664  1.00  0.00     0.051 A 
ATOM     16  C   UNL     1      -6.463  -9.676  21.312  1.00  0.00     0.157 A 
ATOM     17  C   UNL     1      -4.407  -8.542  21.915  1.00  0.00     0.062 A 
ATOM     18  C   UNL     1      -5.313  -8.965  20.936  1.00  0.00     0.158 A 
BRANCH  16  19
ATOM     19  O   UNL     1      -7.403 -10.070  20.358  1.00  0.00    -0.504 OA
ATOM     20  H   UNL     1      -8.144 -10.729  20.573  1.00  0.00     0.293 HD
ENDBRANCH  16  19
BRANCH  18  21
ATOM     21  O   UNL     1      -5.073  -8.666  19.592  1.00  0.00    -0.504 OA
ATOM     22  H   UNL     1      -5.422  -9.265  18.855  1.00  0.00     0.293 HD
ENDBRANCH  18  21
ENDBRANCH   3  13
BRANCH  10  23
ATOM     23  O   UNL     1      -1.126  -6.269  28.284  1.00  0.00    -0.507 OA
ATOM     24  H   UNL     1      -2.002  -5.835  28.529  1.00  0.00     0.293 HD
ENDBRANCH  10  23
BRANCH  11  25
ATOM     25  O   UNL     1       1.653  -9.769  26.527  1.00  0.00    -0.508 OA
ATOM     26  H   UNL     1       2.563  -9.313  26.511  1.00  0.00     0.293 HD
ENDBRANCH  11  25
ENDBRANCH   1   2
BRANCH   1  27
ATOM     27  C   UNL     1      -5.239  -5.169  23.950  1.00  0.00     0.265 C 
BRANCH  27  28
ATOM     28  C   UNL     1      -5.567  -5.446  22.465  1.00  0.00     0.190 C 
ATOM     29  C   UNL     1      -7.070  -5.650  22.213  1.00  0.00     0.178 C 
ATOM     30  O   UNL     1      -5.098  -4.374  21.662  1.00  0.00    -0.340 OA
ATOM     31  C   UNL     1      -7.246  -6.105  20.764  1.00  0.00     0.179 C 
ATOM     32  C   UNL     1      -5.135  -4.726  20.286  1.00  0.00     0.279 C 
ATOM     33  C   UNL     1      -6.566  -5.103  19.814  1.00  0.00     0.201 C 
BRANCH  29  34
ATOM     34  O   UNL     1      -7.599  -6.636  23.060  1.00  0.00    -0.387 OA
ATOM     35  H   UNL     1      -6.940  -6.795  23.787  1.00  0.00     0.211 HD
ENDBRANCH  29  34
BRANCH  31  36
ATOM     36  O   UNL     1      -8.619  -6.179  20.467  1.00  0.00    -0.387 OA
ATOM     37  H   UNL     1      -8.792  -7.091  20.117  1.00  0.00     0.211 HD
ENDBRANCH  31  36
BRANCH  32  38
ATOM     38  O   UNL     1      -4.191  -5.733  20.005  1.00  0.00    -0.366 OA
ATOM     39  H   UNL     1      -3.619  -5.832  20.810  1.00  0.00     0.213 HD
ENDBRANCH  32  38
BRANCH  33  40
ATOM     40  O   UNL     1      -6.545  -5.577  18.484  1.00  0.00    -0.385 OA
ATOM     41  H   UNL     1      -5.642  -5.388  18.110  1.00  0.00     0.211 HD
ENDBRANCH  33  40
ENDBRANCH  27  28
ENDBRANCH   1  27
TORSDOF 12
ENDMDL
MODEL 6
REMARK VINA RESULT:    -6.632      3.143      7.250
REMARK INTER + INTRA:         -10.044
REMARK INTER:                  -8.545
REMARK INTRA:                  -1.500
REMARK UNBOUND:                -0.311
REMARK SMILES O=c1c(OC[C@@H]2O[C@@H](O)[C@@H](O)[C@H](O)[C@H]2O)c(-c2ccc(O)c(O)c2)oc2cc(O)cc(O)c12
REMARK SMILES IDX 4 1 3 2 16 3 25 4 2 5 26 6 1 7 33 8 27 9 31 10 28 11 30 12
REMARK SMILES IDX 17 13 18 14 19 15 20 16 24 17 22 18 21 19 23 21 32 23 29 25
REMARK SMILES IDX 5 27 6 28 14 29 7 30 12 31 8 32 10 33 15 34 13 36 9 38 11 40
REMARK H PARENT 21 20 23 22 32 24 29 26 15 35 13 37 9 39 11 41
REMARK Flexibility Score: inf
ROOT
ATOM      1  O   UNL     1      -3.560   5.601  14.132  1.00  0.00    -0.483 OA
ENDROOT
BRANCH   1   2
ATOM      2  C   UNL     1      -3.901   4.634  15.106  1.00  0.00     0.211 A 
ATOM      3  C   UNL     1      -5.267   4.361  15.304  1.00  0.00     0.180 A 
ATOM      4  O   UNL     1      -5.647   3.408  16.144  1.00  0.00    -0.452 OA
ATOM      5  C   UNL     1      -2.957   3.898  15.866  1.00  0.00     0.239 A 
ATOM      6  C   UNL     1      -4.801   2.700  16.876  1.00  0.00     0.146 A 
ATOM      7  O   UNL     1      -1.727   4.042  15.635  1.00  0.00    -0.285 OA
ATOM      8  C   UNL     1      -3.406   2.963  16.835  1.00  0.00     0.111 A 
ATOM      9  C   UNL     1      -5.306   1.677  17.691  1.00  0.00     0.094 A 
ATOM     10  C   UNL     1      -2.550   2.246  17.723  1.00  0.00     0.134 A 
ATOM     11  C   UNL     1      -4.446   0.921  18.489  1.00  0.00     0.123 A 
ATOM     12  C   UNL     1      -3.084   1.217  18.511  1.00  0.00     0.093 A 
BRANCH   3  13
ATOM     13  C   UNL     1      -6.309   5.108  14.573  1.00  0.00     0.025 A 
ATOM     14  C   UNL     1      -6.839   6.302  15.083  1.00  0.00     0.016 A 
ATOM     15  C   UNL     1      -7.782   7.017  14.336  1.00  0.00     0.051 A 
ATOM     16  C   UNL     1      -8.212   6.545  13.085  1.00  0.00     0.157 A 
ATOM     17  C   UNL     1      -6.777   4.608  13.346  1.00  0.00     0.062 A 
ATOM     18  C   UNL     1      -7.723   5.323  12.601  1.00  0.00     0.158 A 
BRANCH  16  19
ATOM     19  O   UNL     1      -9.122   7.297  12.339  1.00  0.00    -0.504 OA
ATOM     20  H   UNL     1      -9.505   8.171  12.680  1.00  0.00     0.293 HD
ENDBRANCH  16  19
BRANCH  18  21
ATOM     21  O   UNL     1      -8.162   4.820  11.373  1.00  0.00    -0.504 OA
ATOM     22  H   UNL     1      -8.158   3.825  11.187  1.00  0.00     0.293 HD
ENDBRANCH  18  21
ENDBRANCH   3  13
BRANCH  10  23
ATOM     23  O   UNL     1      -1.185   2.524  17.893  1.00  0.00    -0.507 OA
ATOM     24  H   UNL     1      -0.510   2.626  17.151  1.00  0.00     0.293 HD
ENDBRANCH  10  23
BRANCH  11  25
ATOM     25  O   UNL     1      -4.957  -0.110  19.271  1.00  0.00    -0.508 OA
ATOM     26  H   UNL     1      -5.941  -0.368  19.234  1.00  0.00     0.293 HD
ENDBRANCH  11  25
ENDBRANCH   1   2
BRANCH   1  27
ATOM     27  C   UNL     1      -3.037   6.918  14.354  1.00  0.00     0.265 C 
BRANCH  27  28
ATOM     28  C   UNL     1      -3.506   7.864  13.226  1.00  0.00     0.190 C 
ATOM     29  C   UNL     1      -2.373   8.250  12.260  1.00  0.00     0.178 C 
ATOM     30  O   UNL     1      -4.558   7.254  12.494  1.00  0.00    -0.340 OA
ATOM     31  C   UNL     1      -2.908   9.328  11.317  1.00  0.00     0.179 C 
ATOM     32  C   UNL     1      -5.189   8.198  11.641  1.00  0.00     0.279 C 
ATOM     33  C   UNL     1      -4.194   8.835  10.631  1.00  0.00     0.201 C 
BRANCH  29  34
ATOM     34  O   UNL     1      -1.268   8.768  12.953  1.00  0.00    -0.387 OA
ATOM     35  H   UNL     1      -0.699   9.250  12.295  1.00  0.00     0.211 HD
ENDBRANCH  29  34
BRANCH  31  36
ATOM     36  O   UNL     1      -1.934   9.612  10.342  1.00  0.00    -0.387 OA
ATOM     37  H   UNL     1      -1.491   8.754  10.114  1.00  0.00     0.211 HD
ENDBRANCH  31  36
BRANCH  32  38
ATOM     38  O   UNL     1      -5.883   9.164  12.397  1.00  0.00    -0.366 OA
ATOM     39  H   UNL     1      -6.690   9.418  11.879  1.00  0.00     0.213 HD
ENDBRANCH  32  38
BRANCH  33  40
ATOM     40  O   UNL     1      -4.820   9.864   9.894  1.00  0.00    -0.385 OA
ATOM     41  H   UNL     1      -4.133  10.272   9.301  1.00  0.00     0.211 HD
ENDBRANCH  33  40
ENDBRANCH  27  28
ENDBRANCH   1  27
TORSDOF 12
ENDMDL
MODEL 7
REMARK VINA RESULT:    -6.570      3.535      8.742
REMARK INTER + INTRA:          -9.953
REMARK INTER:                  -8.860
REMARK INTRA:                  -1.093
REMARK UNBOUND:                -0.311
REMARK SMILES O=c1c(OC[C@@H]2O[C@@H](O)[C@@H](O)[C@H](O)[C@H]2O)c(-c2ccc(O)c(O)c2)oc2cc(O)cc(O)c12
REMARK SMILES IDX 4 1 3 2 16 3 25 4 2 5 26 6 1 7 33 8 27 9 31 10 28 11 30 12
REMARK SMILES IDX 17 13 18 14 19 15 20 16 24 17 22 18 21 19 23 21 32 23 29 25
REMARK SMILES IDX 5 27 6 28 14 29 7 30 12 31 8 32 10 33 15 34 13 36 9 38 11 40
REMARK H PARENT 21 20 23 22 32 24 29 26 15 35 13 37 9 39 11 41
REMARK Flexibility Score: inf
ROOT
ATOM      1  O   UNL     1      -5.987   6.694  15.291  1.00  0.00    -0.483 OA
ENDROOT
BRANCH   1   2
ATOM      2  C   UNL     1      -5.029   5.682  15.528  1.00  0.00     0.211 A 
ATOM      3  C   UNL     1      -3.874   5.677  14.724  1.00  0.00     0.180 A 
ATOM      4  O   UNL     1      -2.901   4.805  14.950  1.00  0.00    -0.452 OA
ATOM      5  C   UNL     1      -5.138   4.700  16.544  1.00  0.00     0.239 A 
ATOM      6  C   UNL     1      -2.963   3.868  15.884  1.00  0.00     0.146 A 
ATOM      7  O   UNL     1      -6.106   4.744  17.348  1.00  0.00    -0.285 OA
ATOM      8  C   UNL     1      -4.126   3.714  16.684  1.00  0.00     0.111 A 
ATOM      9  C   UNL     1      -1.853   3.032  16.076  1.00  0.00     0.094 A 
ATOM     10  C   UNL     1      -4.184   2.622  17.600  1.00  0.00     0.134 A 
ATOM     11  C   UNL     1      -1.889   2.024  17.040  1.00  0.00     0.123 A 
ATOM     12  C   UNL     1      -3.051   1.816  17.782  1.00  0.00     0.093 A 
BRANCH   3  13
ATOM     13  C   UNL     1      -3.702   6.649  13.627  1.00  0.00     0.025 A 
ATOM     14  C   UNL     1      -2.752   7.678  13.709  1.00  0.00     0.016 A 
ATOM     15  C   UNL     1      -2.573   8.545  12.625  1.00  0.00     0.051 A 
ATOM     16  C   UNL     1      -3.343   8.403  11.460  1.00  0.00     0.157 A 
ATOM     17  C   UNL     1      -4.509   6.539  12.482  1.00  0.00     0.062 A 
ATOM     18  C   UNL     1      -4.331   7.408  11.399  1.00  0.00     0.158 A 
BRANCH  16  19
ATOM     19  O   UNL     1      -3.118   9.253  10.374  1.00  0.00    -0.504 OA
ATOM     20  H   UNL     1      -2.319   9.140   9.760  1.00  0.00     0.293 HD
ENDBRANCH  16  19
BRANCH  18  21
ATOM     21  O   UNL     1      -5.130   7.271  10.260  1.00  0.00    -0.504 OA
ATOM     22  H   UNL     1      -5.956   7.842  10.133  1.00  0.00     0.293 HD
ENDBRANCH  18  21
ENDBRANCH   3  13
BRANCH  10  23
ATOM     23  O   UNL     1      -5.330   2.267  18.328  1.00  0.00    -0.507 OA
ATOM     24  H   UNL     1      -5.930   1.481  18.132  1.00  0.00     0.293 HD
ENDBRANCH  10  23
BRANCH  11  25
ATOM     25  O   UNL     1      -0.771   1.220  17.240  1.00  0.00    -0.508 OA
ATOM     26  H   UNL     1      -0.332   0.719  16.471  1.00  0.00     0.293 HD
ENDBRANCH  11  25
ENDBRANCH   1   2
BRANCH   1  27
ATOM     27  C   UNL     1      -7.386   6.526  15.019  1.00  0.00     0.265 C 
BRANCH  27  28
ATOM     28  C   UNL     1      -7.685   6.925  13.557  1.00  0.00     0.190 C 
ATOM     29  C   UNL     1      -8.312   5.783  12.741  1.00  0.00     0.178 C 
ATOM     30  O   UNL     1      -8.554   8.048  13.535  1.00  0.00    -0.340 OA
ATOM     31  C   UNL     1      -8.380   6.230  11.281  1.00  0.00     0.179 C 
ATOM     32  C   UNL     1      -8.623   8.603  12.228  1.00  0.00     0.279 C 
ATOM     33  C   UNL     1      -9.124   7.574  11.178  1.00  0.00     0.201 C 
BRANCH  29  34
ATOM     34  O   UNL     1      -7.534   4.617  12.816  1.00  0.00    -0.387 OA
ATOM     35  H   UNL     1      -7.521   4.204  11.911  1.00  0.00     0.211 HD
ENDBRANCH  29  34
BRANCH  31  36
ATOM     36  O   UNL     1      -9.064   5.256  10.530  1.00  0.00    -0.387 OA
ATOM     37  H   UNL     1      -8.437   4.934   9.832  1.00  0.00     0.211 HD
ENDBRANCH  31  36
BRANCH  32  38
ATOM     38  O   UNL     1      -7.389   9.183  11.870  1.00  0.00    -0.366 OA
ATOM     39  H   UNL     1      -7.345  10.073  12.306  1.00  0.00     0.213 HD
ENDBRANCH  32  38
BRANCH  33  40
ATOM     40  O   UNL     1      -9.051   8.113   9.875  1.00  0.00    -0.385 OA
ATOM     41  H   UNL     1      -9.649   7.573   9.290  1.00  0.00     0.211 HD
ENDBRANCH  33  40
ENDBRANCH  27  28
ENDBRANCH   1  27
TORSDOF 12
ENDMDL
MODEL 8
REMARK VINA RESULT:    -6.477     12.007     15.966
REMARK INTER + INTRA:          -9.817
REMARK INTER:                  -8.576
REMARK INTRA:                  -1.241
REMARK UNBOUND:                -0.311
REMARK SMILES O=c1c(OC[C@@H]2O[C@@H](O)[C@@H](O)[C@H](O)[C@H]2O)c(-c2ccc(O)c(O)c2)oc2cc(O)cc(O)c12
REMARK SMILES IDX 4 1 3 2 16 3 25 4 2 5 26 6 1 7 33 8 27 9 31 10 28 11 30 12
REMARK SMILES IDX 17 13 18 14 19 15 20 16 24 17 22 18 21 19 23 21 32 23 29 25
REMARK SMILES IDX 5 27 6 28 14 29 7 30 12 31 8 32 10 33 15 34 13 36 9 38 11 40
REMARK H PARENT 21 20 23 22 32 24 29 26 15 35 13 37 9 39 11 41
REMARK Flexibility Score: inf
ROOT
ATOM      1  O   UNL     1      -4.871  -5.795  23.995  1.00  0.00    -0.483 OA
ENDROOT
BRANCH   1   2
ATOM      2  C   UNL     1      -3.994  -6.664  24.684  1.00  0.00     0.211 A 
ATOM      3  C   UNL     1      -3.658  -7.880  24.061  1.00  0.00     0.180 A 
ATOM      4  O   UNL     1      -2.778  -8.701  24.618  1.00  0.00    -0.452 OA
ATOM      5  C   UNL     1      -3.402  -6.373  25.939  1.00  0.00     0.239 A 
ATOM      6  C   UNL     1      -2.205  -8.471  25.790  1.00  0.00     0.146 A 
ATOM      7  O   UNL     1      -3.597  -5.248  26.471  1.00  0.00    -0.285 OA
ATOM      8  C   UNL     1      -2.549  -7.325  26.556  1.00  0.00     0.111 A 
ATOM      9  C   UNL     1      -1.245  -9.378  26.262  1.00  0.00     0.094 A 
ATOM     10  C   UNL     1      -1.985  -7.181  27.858  1.00  0.00     0.134 A 
ATOM     11  C   UNL     1      -0.633  -9.176  27.499  1.00  0.00     0.123 A 
ATOM     12  C   UNL     1      -1.014  -8.094  28.292  1.00  0.00     0.093 A 
BRANCH   3  13
ATOM     13  C   UNL     1      -4.257  -8.268  22.769  1.00  0.00     0.025 A 
ATOM     14  C   UNL     1      -3.496  -8.279  21.591  1.00  0.00     0.016 A 
ATOM     15  C   UNL     1      -4.078  -8.710  20.393  1.00  0.00     0.051 A 
ATOM     16  C   UNL     1      -5.421  -9.120  20.357  1.00  0.00     0.157 A 
ATOM     17  C   UNL     1      -5.614  -8.628  22.723  1.00  0.00     0.062 A 
ATOM     18  C   UNL     1      -6.196  -9.057  21.524  1.00  0.00     0.158 A 
BRANCH  16  19
ATOM     19  O   UNL     1      -5.969  -9.587  19.160  1.00  0.00    -0.504 OA
ATOM     20  H   UNL     1      -5.406  -9.721  18.327  1.00  0.00     0.293 HD
ENDBRANCH  16  19
BRANCH  18  21
ATOM     21  O   UNL     1      -7.543  -9.430  21.502  1.00  0.00    -0.504 OA
ATOM     22  H   UNL     1      -8.094  -9.439  22.351  1.00  0.00     0.293 HD
ENDBRANCH  18  21
ENDBRANCH   3  13
BRANCH  10  23
ATOM     23  O   UNL     1      -2.363  -6.186  28.772  1.00  0.00    -0.507 OA
ATOM     24  H   UNL     1      -3.224  -5.661  28.746  1.00  0.00     0.293 HD
ENDBRANCH  10  23
BRANCH  11  25
ATOM     25  O   UNL     1       0.339 -10.068  27.942  1.00  0.00    -0.508 OA
ATOM     26  H   UNL     1       1.330  -9.844  27.888  1.00  0.00     0.293 HD
ENDBRANCH  11  25
ENDBRANCH   1   2
BRANCH   1  27
ATOM     27  C   UNL     1      -4.543  -4.881  22.940  1.00  0.00     0.265 C 
BRANCH  27  28
ATOM     28  C   UNL     1      -5.744  -4.740  21.978  1.00  0.00     0.190 C 
ATOM     29  C   UNL     1      -5.519  -5.448  20.632  1.00  0.00     0.178 C 
ATOM     30  O   UNL     1      -6.914  -5.260  22.592  1.00  0.00    -0.340 OA
ATOM     31  C   UNL     1      -6.678  -5.077  19.707  1.00  0.00     0.179 C 
ATOM     32  C   UNL     1      -8.072  -4.895  21.854  1.00  0.00     0.279 C 
ATOM     33  C   UNL     1      -8.019  -5.406  20.388  1.00  0.00     0.201 C 
BRANCH  29  34
ATOM     34  O   UNL     1      -4.318  -5.036  20.034  1.00  0.00    -0.387 OA
ATOM     35  H   UNL     1      -4.403  -4.067  19.825  1.00  0.00     0.211 HD
ENDBRANCH  29  34
BRANCH  31  36
ATOM     36  O   UNL     1      -6.566  -5.810  18.511  1.00  0.00    -0.387 OA
ATOM     37  H   UNL     1      -6.951  -6.708  18.682  1.00  0.00     0.211 HD
ENDBRANCH  31  36
BRANCH  32  38
ATOM     38  O   UNL     1      -8.295  -3.507  21.935  1.00  0.00    -0.366 OA
ATOM     39  H   UNL     1      -8.734  -3.329  22.807  1.00  0.00     0.213 HD
ENDBRANCH  32  38
BRANCH  33  40
ATOM     40  O   UNL     1      -9.115  -4.912  19.647  1.00  0.00    -0.385 OA
ATOM     41  H   UNL     1      -8.810  -4.776  18.709  1.00  0.00     0.211 HD
ENDBRANCH  33  40
ENDBRANCH  27  28
ENDBRANCH   1  27
TORSDOF 12
ENDMDL
MODEL 9
REMARK VINA RESULT:    -6.455     11.662     16.514
REMARK INTER + INTRA:          -9.785
REMARK INTER:                  -8.137
REMARK INTRA:                  -1.648
REMARK UNBOUND:                -0.311
REMARK SMILES O=c1c(OC[C@@H]2O[C@@H](O)[C@@H](O)[C@H](O)[C@H]2O)c(-c2ccc(O)c(O)c2)oc2cc(O)cc(O)c12
REMARK SMILES IDX 4 1 3 2 16 3 25 4 2 5 26 6 1 7 33 8 27 9 31 10 28 11 30 12
REMARK SMILES IDX 17 13 18 14 19 15 20 16 24 17 22 18 21 19 23 21 32 23 29 25
REMARK SMILES IDX 5 27 6 28 14 29 7 30 12 31 8 32 10 33 15 34 13 36 9 38 11 40
REMARK H PARENT 21 20 23 22 32 24 29 26 15 35 13 37 9 39 11 41
REMARK Flexibility Score: inf
ROOT
ATOM      1  O   UNL     1      -6.074  -8.073  24.166  1.00  0.00    -0.483 OA
ENDROOT
BRANCH   1   2
ATOM      2  C   UNL     1      -5.082  -7.555  25.031  1.00  0.00     0.211 A 
ATOM      3  C   UNL     1      -4.458  -6.351  24.660  1.00  0.00     0.180 A 
ATOM      4  O   UNL     1      -3.579  -5.772  25.468  1.00  0.00    -0.452 OA
ATOM      5  C   UNL     1      -4.707  -8.149  26.263  1.00  0.00     0.239 A 
ATOM      6  C   UNL     1      -3.196  -6.293  26.623  1.00  0.00     0.146 A 
ATOM      7  O   UNL     1      -5.323  -9.167  26.674  1.00  0.00    -0.285 OA
ATOM      8  C   UNL     1      -3.684  -7.557  27.048  1.00  0.00     0.111 A 
ATOM      9  C   UNL     1      -2.303  -5.570  27.427  1.00  0.00     0.094 A 
ATOM     10  C   UNL     1      -3.157  -8.123  28.248  1.00  0.00     0.134 A 
ATOM     11  C   UNL     1      -1.865  -6.095  28.643  1.00  0.00     0.123 A 
ATOM     12  C   UNL     1      -2.280  -7.366  29.038  1.00  0.00     0.093 A 
BRANCH   3  13
ATOM     13  C   UNL     1      -4.773  -5.689  23.379  1.00  0.00     0.025 A 
ATOM     14  C   UNL     1      -3.909  -5.790  22.278  1.00  0.00     0.016 A 
ATOM     15  C   UNL     1      -4.268  -5.202  21.060  1.00  0.00     0.051 A 
ATOM     16  C   UNL     1      -5.478  -4.502  20.931  1.00  0.00     0.157 A 
ATOM     17  C   UNL     1      -5.959  -4.945  23.266  1.00  0.00     0.062 A 
ATOM     18  C   UNL     1      -6.315  -4.355  22.047  1.00  0.00     0.158 A 
BRANCH  16  19
ATOM     19  O   UNL     1      -5.834  -3.959  19.694  1.00  0.00    -0.504 OA
ATOM     20  H   UNL     1      -6.132  -4.540  18.918  1.00  0.00     0.293 HD
ENDBRANCH  16  19
BRANCH  18  21
ATOM     21  O   UNL     1      -7.509  -3.634  21.948  1.00  0.00    -0.504 OA
ATOM     22  H   UNL     1      -7.581  -2.695  22.317  1.00  0.00     0.293 HD
ENDBRANCH  18  21
ENDBRANCH   3  13
BRANCH  10  23
ATOM     23  O   UNL     1      -3.435  -9.426  28.690  1.00  0.00    -0.507 OA
ATOM     24  H   UNL     1      -2.859 -10.236  28.524  1.00  0.00     0.293 HD
ENDBRANCH  10  23
BRANCH  11  25
ATOM     25  O   UNL     1      -1.002  -5.354  29.444  1.00  0.00    -0.508 OA
ATOM     26  H   UNL     1      -0.063  -5.683  29.659  1.00  0.00     0.293 HD
ENDBRANCH  11  25
ENDBRANCH   1   2
BRANCH   1  27
ATOM     27  C   UNL     1      -5.957  -9.190  23.274  1.00  0.00     0.265 C 
BRANCH  27  28
ATOM     28  C   UNL     1      -6.498  -8.803  21.879  1.00  0.00     0.190 C 
ATOM     29  C   UNL     1      -7.454  -7.600  21.921  1.00  0.00     0.178 C 
ATOM     30  O   UNL     1      -5.415  -8.511  21.009  1.00  0.00    -0.340 OA
ATOM     31  C   UNL     1      -8.067  -7.439  20.530  1.00  0.00     0.179 C 
ATOM     32  C   UNL     1      -5.862  -8.426  19.663  1.00  0.00     0.279 C 
ATOM     33  C   UNL     1      -6.952  -7.334  19.474  1.00  0.00     0.201 C 
BRANCH  29  34
ATOM     34  O   UNL     1      -8.490  -7.805  22.846  1.00  0.00    -0.387 OA
ATOM     35  H   UNL     1      -9.086  -7.009  22.811  1.00  0.00     0.211 HD
ENDBRANCH  29  34
BRANCH  31  36
ATOM     36  O   UNL     1      -8.851  -6.270  20.503  1.00  0.00    -0.387 OA
ATOM     37  H   UNL     1      -9.487  -6.329  21.262  1.00  0.00     0.211 HD
ENDBRANCH  31  36
BRANCH  32  38
ATOM     38  O   UNL     1      -6.277  -9.689  19.197  1.00  0.00    -0.366 OA
ATOM     39  H   UNL     1      -7.005  -9.535  18.540  1.00  0.00     0.213 HD
ENDBRANCH  32  38
BRANCH  33  40
ATOM     40  O   UNL     1      -7.471  -7.368  18.161  1.00  0.00    -0.385 OA
ATOM     41  H   UNL     1      -7.062  -6.616  17.654  1.00  0.00     0.211 HD
ENDBRANCH  33  40
ENDBRANCH  27  28
ENDBRANCH   1  27
TORSDOF 12
ENDMDL
