MODEL 1
REMARK VINA RESULT:    -6.134      0.000      0.000
REMARK INTER + INTRA:          -7.864
REMARK INTER:                  -7.568
REMARK INTRA:                  -0.296
REMARK UNBOUND:                -0.296
REMARK SMILES Oc1cc(O)c2cc(O)c(-c3cc(O)c(O)c(O)c3)[o+]c2c1
REMARK SMILES IDX 10 1 20 2 21 3 22 4 2 5 3 6 4 7 6 8 7 9 8 10 11 11 12 12
REMARK SMILES IDX 13 13 19 14 15 15 17 16 14 17 16 19 18 21 9 23 1 25 5 27
REMARK H PARENT 14 18 16 20 18 22 9 24 1 26 5 28
REMARK Flexibility Score: inf
ROOT
ATOM      1  C   UNL     1       8.354  26.010  12.981  1.00  0.00     0.402 A 
ATOM      2  O   UNL     1       9.130  26.173  11.912  1.00  0.00    -0.202 OA
ATOM      3  C   UNL     1       9.241  25.267  10.946  1.00  0.00     0.368 A 
ATOM      4  C   UNL     1      10.081  25.530   9.861  1.00  0.00     0.162 A 
ATOM      5  C   UNL     1      10.213  24.596   8.829  1.00  0.00     0.128 A 
ATOM      6  C   UNL     1       9.503  23.394   8.883  1.00  0.00     0.093 A 
ATOM      7  C   UNL     1       8.656  23.107   9.960  1.00  0.00     0.136 A 
ATOM      8  C   UNL     1       8.519  24.050  11.011  1.00  0.00     0.125 A 
ATOM      9  C   UNL     1       7.703  23.842  12.135  1.00  0.00     0.078 A 
ATOM     10  C   UNL     1       7.623  24.817  13.134  1.00  0.00     0.223 A 
ENDROOT
BRANCH   1  11
ATOM     11  C   UNL     1       8.307  27.098  13.984  1.00  0.00     0.091 A 
ATOM     12  C   UNL     1       7.147  27.870  14.174  1.00  0.00     0.068 A 
ATOM     13  C   UNL     1       7.131  28.909  15.113  1.00  0.00     0.162 A 
ATOM     14  C   UNL     1       9.459  27.405  14.724  1.00  0.00     0.068 A 
ATOM     15  C   UNL     1       8.278  29.195  15.864  1.00  0.00     0.200 A 
ATOM     16  C   UNL     1       9.449  28.443  15.666  1.00  0.00     0.162 A 
BRANCH  13  17
ATOM     17  O   UNL     1       5.977  29.667  15.304  1.00  0.00    -0.504 OA
ATOM     18  H   UNL     1       5.463  30.058  14.521  1.00  0.00     0.293 HD
ENDBRANCH  13  17
BRANCH  15  19
ATOM     19  O   UNL     1       8.242  30.231  16.797  1.00  0.00    -0.502 OA
ATOM     20  H   UNL     1       7.450  30.378  17.409  1.00  0.00     0.293 HD
ENDBRANCH  15  19
BRANCH  16  21
ATOM     21  O   UNL     1      10.596  28.730  16.403  1.00  0.00    -0.504 OA
ATOM     22  H   UNL     1      10.842  29.681  16.655  1.00  0.00     0.293 HD
ENDBRANCH  16  21
ENDBRANCH   1  11
BRANCH  10  23
ATOM     23  O   UNL     1       6.852  24.590  14.274  1.00  0.00    -0.500 OA
ATOM     24  H   UNL     1       6.038  25.154  14.487  1.00  0.00     0.294 HD
ENDBRANCH  10  23
BRANCH   5  25
ATOM     25  O   UNL     1      11.049  24.851   7.743  1.00  0.00    -0.507 OA
ATOM     26  H   UNL     1      11.262  25.798   7.451  1.00  0.00     0.293 HD
ENDBRANCH   5  25
BRANCH   7  27
ATOM     27  O   UNL     1       7.979  21.884   9.938  1.00  0.00    -0.507 OA
ATOM     28  H   UNL     1       7.651  21.398  10.760  1.00  0.00     0.293 HD
ENDBRANCH   7  27
TORSDOF 7
ENDMDL
MODEL 2
REMARK VINA RESULT:    -5.875      1.464      1.957
REMARK INTER + INTRA:          -7.544
REMARK INTER:                  -7.403
REMARK INTRA:                  -0.141
REMARK UNBOUND:                -0.296
REMARK SMILES Oc1cc(O)c2cc(O)c(-c3cc(O)c(O)c(O)c3)[o+]c2c1
REMARK SMILES IDX 10 1 20 2 21 3 22 4 2 5 3 6 4 7 6 8 7 9 8 10 11 11 12 12
REMARK SMILES IDX 13 13 19 14 15 15 17 16 14 17 16 19 18 21 9 23 1 25 5 27
REMARK H PARENT 14 18 16 20 18 22 9 24 1 26 5 28
REMARK Flexibility Score: inf
ROOT
ATOM      1  C   UNL     1       7.248  26.354  13.955  1.00  0.00     0.402 A 
ATOM      2  O   UNL     1       7.957  26.021  12.880  1.00  0.00    -0.202 OA
ATOM      3  C   UNL     1       7.737  24.917  12.174  1.00  0.00     0.368 A 
ATOM      4  C   UNL     1       8.535  24.654  11.057  1.00  0.00     0.162 A 
ATOM      5  C   UNL     1       8.323  23.501  10.295  1.00  0.00     0.128 A 
ATOM      6  C   UNL     1       7.310  22.608  10.651  1.00  0.00     0.093 A 
ATOM      7  C   UNL     1       6.498  22.849  11.766  1.00  0.00     0.136 A 
ATOM      8  C   UNL     1       6.710  24.016  12.545  1.00  0.00     0.125 A 
ATOM      9  C   UNL     1       5.953  24.331  13.685  1.00  0.00     0.078 A 
ATOM     10  C   UNL     1       6.225  25.499  14.406  1.00  0.00     0.223 A 
ENDROOT
BRANCH   1  11
ATOM     11  C   UNL     1       7.583  27.617  14.652  1.00  0.00     0.091 A 
ATOM     12  C   UNL     1       6.605  28.594  14.907  1.00  0.00     0.068 A 
ATOM     13  C   UNL     1       6.946  29.793  15.547  1.00  0.00     0.162 A 
ATOM     14  C   UNL     1       8.913  27.873  15.017  1.00  0.00     0.068 A 
ATOM     15  C   UNL     1       8.273  30.031  15.928  1.00  0.00     0.200 A 
ATOM     16  C   UNL     1       9.261  29.069  15.659  1.00  0.00     0.162 A 
BRANCH  13  17
ATOM     17  O   UNL     1       5.973  30.756  15.805  1.00  0.00    -0.504 OA
ATOM     18  H   UNL     1       5.304  30.646  16.559  1.00  0.00     0.293 HD
ENDBRANCH  13  17
BRANCH  15  19
ATOM     19  O   UNL     1       8.594  31.228  16.569  1.00  0.00    -0.502 OA
ATOM     20  H   UNL     1       9.399  31.315  17.176  1.00  0.00     0.293 HD
ENDBRANCH  15  19
BRANCH  16  21
ATOM     21  O   UNL     1      10.585  29.305  16.028  1.00  0.00    -0.504 OA
ATOM     22  H   UNL     1      11.102  28.648  16.600  1.00  0.00     0.293 HD
ENDBRANCH  16  21
ENDBRANCH   1  11
BRANCH  10  23
ATOM     23  O   UNL     1       5.507  25.788  15.566  1.00  0.00    -0.500 OA
ATOM     24  H   UNL     1       4.638  26.308  15.539  1.00  0.00     0.294 HD
ENDBRANCH  10  23
BRANCH   5  25
ATOM     25  O   UNL     1       9.114  23.233   9.179  1.00  0.00    -0.507 OA
ATOM     26  H   UNL     1       9.178  23.885   8.407  1.00  0.00     0.293 HD
ENDBRANCH   5  25
BRANCH   7  27
ATOM     27  O   UNL     1       5.504  21.908  12.054  1.00  0.00    -0.507 OA
ATOM     28  H   UNL     1       5.260  21.135  11.452  1.00  0.00     0.293 HD
ENDBRANCH   7  27
TORSDOF 7
ENDMDL
MODEL 3
REMARK VINA RESULT:    -5.757      3.566      4.068
REMARK INTER + INTRA:          -7.399
REMARK INTER:                  -7.292
REMARK INTRA:                  -0.107
REMARK UNBOUND:                -0.296
REMARK SMILES Oc1cc(O)c2cc(O)c(-c3cc(O)c(O)c(O)c3)[o+]c2c1
REMARK SMILES IDX 10 1 20 2 21 3 22 4 2 5 3 6 4 7 6 8 7 9 8 10 11 11 12 12
REMARK SMILES IDX 13 13 19 14 15 15 17 16 14 17 16 19 18 21 9 23 1 25 5 27
REMARK H PARENT 14 18 16 20 18 22 9 24 1 26 5 28
REMARK Flexibility Score: inf
ROOT
ATOM      1  C   UNL     1       6.726  26.724  14.326  1.00  0.00     0.402 A 
ATOM      2  O   UNL     1       5.989  26.844  13.225  1.00  0.00    -0.202 OA
ATOM      3  C   UNL     1       5.380  25.818  12.640  1.00  0.00     0.368 A 
ATOM      4  C   UNL     1       4.625  26.044  11.486  1.00  0.00     0.162 A 
ATOM      5  C   UNL     1       3.971  24.983  10.852  1.00  0.00     0.128 A 
ATOM      6  C   UNL     1       4.073  23.691  11.374  1.00  0.00     0.093 A 
ATOM      7  C   UNL     1       4.824  23.439  12.528  1.00  0.00     0.136 A 
ATOM      8  C   UNL     1       5.491  24.511  13.175  1.00  0.00     0.125 A 
ATOM      9  C   UNL     1       6.276  24.349  14.328  1.00  0.00     0.078 A 
ATOM     10  C   UNL     1       6.908  25.454  14.907  1.00  0.00     0.223 A 
ENDROOT
BRANCH   1  11
ATOM     11  C   UNL     1       7.346  27.944  14.890  1.00  0.00     0.091 A 
ATOM     12  C   UNL     1       8.731  28.021  15.124  1.00  0.00     0.068 A 
ATOM     13  C   UNL     1       9.295  29.177  15.680  1.00  0.00     0.162 A 
ATOM     14  C   UNL     1       6.532  29.027  15.254  1.00  0.00     0.068 A 
ATOM     15  C   UNL     1       8.479  30.263  16.019  1.00  0.00     0.200 A 
ATOM     16  C   UNL     1       7.091  30.187  15.808  1.00  0.00     0.162 A 
BRANCH  13  17
ATOM     17  O   UNL     1      10.669  29.253  15.903  1.00  0.00    -0.504 OA
ATOM     18  H   UNL     1      11.049  29.362  16.836  1.00  0.00     0.293 HD
ENDBRANCH  13  17
BRANCH  15  19
ATOM     19  O   UNL     1       9.058  31.407  16.567  1.00  0.00    -0.502 OA
ATOM     20  H   UNL     1      10.049  31.470  16.762  1.00  0.00     0.293 HD
ENDBRANCH  15  19
BRANCH  16  21
ATOM     21  O   UNL     1       6.273  31.262  16.153  1.00  0.00    -0.504 OA
ATOM     22  H   UNL     1       6.608  32.217  16.118  1.00  0.00     0.293 HD
ENDBRANCH  16  21
ENDBRANCH   1  11
BRANCH  10  23
ATOM     23  O   UNL     1       7.727  25.287  16.023  1.00  0.00    -0.500 OA
ATOM     24  H   UNL     1       8.733  25.207  15.939  1.00  0.00     0.294 HD
ENDBRANCH  10  23
BRANCH   5  25
ATOM     25  O   UNL     1       3.216  25.201   9.700  1.00  0.00    -0.507 OA
ATOM     26  H   UNL     1       3.472  25.915   9.028  1.00  0.00     0.293 HD
ENDBRANCH   5  25
BRANCH   7  27
ATOM     27  O   UNL     1       4.873  22.119  12.988  1.00  0.00    -0.507 OA
ATOM     28  H   UNL     1       4.160  21.427  12.810  1.00  0.00     0.293 HD
ENDBRANCH   7  27
TORSDOF 7
ENDMDL
MODEL 4
REMARK VINA RESULT:    -5.744      2.072      4.305
REMARK INTER + INTRA:          -7.382
REMARK INTER:                  -7.269
REMARK INTRA:                  -0.114
REMARK UNBOUND:                -0.296
REMARK SMILES Oc1cc(O)c2cc(O)c(-c3cc(O)c(O)c(O)c3)[o+]c2c1
REMARK SMILES IDX 10 1 20 2 21 3 22 4 2 5 3 6 4 7 6 8 7 9 8 10 11 11 12 12
REMARK SMILES IDX 13 13 19 14 15 15 17 16 14 17 16 19 18 21 9 23 1 25 5 27
REMARK H PARENT 14 18 16 20 18 22 9 24 1 26 5 28
REMARK Flexibility Score: inf
ROOT
ATOM      1  C   UNL     1       7.170  26.073  13.743  1.00  0.00     0.402 A 
ATOM      2  O   UNL     1       6.067  25.421  14.098  1.00  0.00    -0.202 OA
ATOM      3  C   UNL     1       5.666  24.295  13.517  1.00  0.00     0.368 A 
ATOM      4  C   UNL     1       4.492  23.681  13.961  1.00  0.00     0.162 A 
ATOM      5  C   UNL     1       4.050  22.494  13.370  1.00  0.00     0.128 A 
ATOM      6  C   UNL     1       4.783  21.919  12.330  1.00  0.00     0.093 A 
ATOM      7  C   UNL     1       5.962  22.515  11.866  1.00  0.00     0.136 A 
ATOM      8  C   UNL     1       6.415  23.721  12.461  1.00  0.00     0.125 A 
ATOM      9  C   UNL     1       7.578  24.395  12.052  1.00  0.00     0.078 A 
ATOM     10  C   UNL     1       7.958  25.583  12.684  1.00  0.00     0.223 A 
ENDROOT
BRANCH   1  11
ATOM     11  C   UNL     1       7.517  27.313  14.474  1.00  0.00     0.091 A 
ATOM     12  C   UNL     1       8.794  27.503  15.029  1.00  0.00     0.068 A 
ATOM     13  C   UNL     1       9.095  28.675  15.737  1.00  0.00     0.162 A 
ATOM     14  C   UNL     1       6.536  28.297  14.667  1.00  0.00     0.068 A 
ATOM     15  C   UNL     1       8.117  29.662  15.907  1.00  0.00     0.200 A 
ATOM     16  C   UNL     1       6.831  29.472  15.373  1.00  0.00     0.162 A 
BRANCH  13  17
ATOM     17  O   UNL     1      10.365  28.863  16.280  1.00  0.00    -0.504 OA
ATOM     18  H   UNL     1      10.535  28.771  17.276  1.00  0.00     0.293 HD
ENDBRANCH  13  17
BRANCH  15  19
ATOM     19  O   UNL     1       8.435  30.824  16.611  1.00  0.00    -0.502 OA
ATOM     20  H   UNL     1       8.994  30.807  17.455  1.00  0.00     0.293 HD
ENDBRANCH  15  19
BRANCH  16  21
ATOM     21  O   UNL     1       5.851  30.448  15.548  1.00  0.00    -0.504 OA
ATOM     22  H   UNL     1       5.780  30.981  16.407  1.00  0.00     0.293 HD
ENDBRANCH  16  21
ENDBRANCH   1  11
BRANCH  10  23
ATOM     23  O   UNL     1       9.084  26.279  12.246  1.00  0.00    -0.500 OA
ATOM     24  H   UNL     1       9.018  27.216  11.867  1.00  0.00     0.294 HD
ENDBRANCH  10  23
BRANCH   5  25
ATOM     25  O   UNL     1       2.880  21.875  13.808  1.00  0.00    -0.507 OA
ATOM     26  H   UNL     1       2.198  21.509  13.155  1.00  0.00     0.293 HD
ENDBRANCH   5  25
BRANCH   7  27
ATOM     27  O   UNL     1       6.640  21.875  10.823  1.00  0.00    -0.507 OA
ATOM     28  H   UNL     1       7.335  21.155  10.953  1.00  0.00     0.293 HD
ENDBRANCH   7  27
TORSDOF 7
ENDMDL
MODEL 5
REMARK VINA RESULT:    -5.521     21.515     22.880
REMARK INTER + INTRA:          -7.108
REMARK INTER:                  -6.775
REMARK INTRA:                  -0.332
REMARK UNBOUND:                -0.296
REMARK SMILES Oc1cc(O)c2cc(O)c(-c3cc(O)c(O)c(O)c3)[o+]c2c1
REMARK SMILES IDX 10 1 20 2 21 3 22 4 2 5 3 6 4 7 6 8 7 9 8 10 11 11 12 12
REMARK SMILES IDX 13 13 19 14 15 15 17 16 14 17 16 19 18 21 9 23 1 25 5 27
REMARK H PARENT 14 18 16 20 18 22 9 24 1 26 5 28
REMARK Flexibility Score: inf
ROOT
ATOM      1  C   UNL     1      -3.896  38.941  -0.092  1.00  0.00     0.402 A 
ATOM      2  O   UNL     1      -3.243  39.519  -1.096  1.00  0.00    -0.202 OA
ATOM      3  C   UNL     1      -2.130  40.226  -0.931  1.00  0.00     0.368 A 
ATOM      4  C   UNL     1      -1.514  40.795  -2.049  1.00  0.00     0.162 A 
ATOM      5  C   UNL     1      -0.340  41.541  -1.905  1.00  0.00     0.128 A 
ATOM      6  C   UNL     1       0.219  41.720  -0.638  1.00  0.00     0.093 A 
ATOM      7  C   UNL     1      -0.380  41.161   0.498  1.00  0.00     0.136 A 
ATOM      8  C   UNL     1      -1.572  40.405   0.358  1.00  0.00     0.125 A 
ATOM      9  C   UNL     1      -2.247  39.820   1.441  1.00  0.00     0.078 A 
ATOM     10  C   UNL     1      -3.421  39.091   1.225  1.00  0.00     0.223 A 
ENDROOT
BRANCH   1  11
ATOM     11  C   UNL     1      -5.120  38.170  -0.404  1.00  0.00     0.091 A 
ATOM     12  C   UNL     1      -6.401  38.698  -0.162  1.00  0.00     0.068 A 
ATOM     13  C   UNL     1      -7.547  37.942  -0.443  1.00  0.00     0.162 A 
ATOM     14  C   UNL     1      -5.005  36.862  -0.900  1.00  0.00     0.068 A 
ATOM     15  C   UNL     1      -7.423  36.646  -0.959  1.00  0.00     0.200 A 
ATOM     16  C   UNL     1      -6.147  36.102  -1.185  1.00  0.00     0.162 A 
BRANCH  13  17
ATOM     17  O   UNL     1      -8.815  38.472  -0.209  1.00  0.00    -0.504 OA
ATOM     18  H   UNL     1      -8.993  39.095   0.572  1.00  0.00     0.293 HD
ENDBRANCH  13  17
BRANCH  15  19
ATOM     19  O   UNL     1      -8.575  35.910  -1.238  1.00  0.00    -0.502 OA
ATOM     20  H   UNL     1      -8.537  34.964  -1.593  1.00  0.00     0.293 HD
ENDBRANCH  15  19
BRANCH  16  21
ATOM     21  O   UNL     1      -6.020  34.809  -1.690  1.00  0.00    -0.504 OA
ATOM     22  H   UNL     1      -5.117  34.424  -1.942  1.00  0.00     0.293 HD
ENDBRANCH  16  21
ENDBRANCH   1  11
BRANCH  10  23
ATOM     23  O   UNL     1      -4.119  38.552   2.305  1.00  0.00    -0.500 OA
ATOM     24  H   UNL     1      -5.100  38.751   2.459  1.00  0.00     0.294 HD
ENDBRANCH  10  23
BRANCH   5  25
ATOM     25  O   UNL     1       0.280  42.110  -3.016  1.00  0.00    -0.507 OA
ATOM     26  H   UNL     1      -0.239  42.323  -3.860  1.00  0.00     0.293 HD
ENDBRANCH   5  25
BRANCH   7  27
ATOM     27  O   UNL     1       0.245  41.384   1.729  1.00  0.00    -0.507 OA
ATOM     28  H   UNL     1      -0.106  41.049   2.615  1.00  0.00     0.293 HD
ENDBRANCH   7  27
TORSDOF 7
ENDMDL
MODEL 6
REMARK VINA RESULT:    -5.483     21.561     22.967
REMARK INTER + INTRA:          -7.061
REMARK INTER:                  -6.701
REMARK INTRA:                  -0.361
REMARK UNBOUND:                -0.296
REMARK SMILES Oc1cc(O)c2cc(O)c(-c3cc(O)c(O)c(O)c3)[o+]c2c1
REMARK SMILES IDX 10 1 20 2 21 3 22 4 2 5 3 6 4 7 6 8 7 9 8 10 11 11 12 12
REMARK SMILES IDX 13 13 19 14 15 15 17 16 14 17 16 19 18 21 9 23 1 25 5 27
REMARK H PARENT 14 18 16 20 18 22 9 24 1 26 5 28
REMARK Flexibility Score: inf
ROOT
ATOM      1  C   UNL     1      -3.882  38.910  -0.128  1.00  0.00     0.402 A 
ATOM      2  O   UNL     1      -3.224  39.499  -1.123  1.00  0.00    -0.202 OA
ATOM      3  C   UNL     1      -2.118  40.213  -0.945  1.00  0.00     0.368 A 
ATOM      4  C   UNL     1      -1.495  40.792  -2.054  1.00  0.00     0.162 A 
ATOM      5  C   UNL     1      -0.328  41.545  -1.895  1.00  0.00     0.128 A 
ATOM      6  C   UNL     1       0.218  41.721  -0.621  1.00  0.00     0.093 A 
ATOM      7  C   UNL     1      -0.388  41.153   0.506  1.00  0.00     0.136 A 
ATOM      8  C   UNL     1      -1.573  40.389   0.351  1.00  0.00     0.125 A 
ATOM      9  C   UNL     1      -2.254  39.793   1.425  1.00  0.00     0.078 A 
ATOM     10  C   UNL     1      -3.421  39.057   1.194  1.00  0.00     0.223 A 
ENDROOT
BRANCH   1  11
ATOM     11  C   UNL     1      -5.098  38.132  -0.456  1.00  0.00     0.091 A 
ATOM     12  C   UNL     1      -5.016  36.809  -0.924  1.00  0.00     0.068 A 
ATOM     13  C   UNL     1      -6.178  36.096  -1.251  1.00  0.00     0.162 A 
ATOM     14  C   UNL     1      -6.357  38.742  -0.354  1.00  0.00     0.068 A 
ATOM     15  C   UNL     1      -7.433  36.705  -1.124  1.00  0.00     0.200 A 
ATOM     16  C   UNL     1      -7.523  38.035  -0.678  1.00  0.00     0.162 A 
BRANCH  13  17
ATOM     17  O   UNL     1      -6.094  34.782  -1.707  1.00  0.00    -0.504 OA
ATOM     18  H   UNL     1      -5.858  34.569  -2.670  1.00  0.00     0.293 HD
ENDBRANCH  13  17
BRANCH  15  19
ATOM     19  O   UNL     1      -8.579  35.980  -1.450  1.00  0.00    -0.502 OA
ATOM     20  H   UNL     1      -8.579  35.263  -2.164  1.00  0.00     0.293 HD
ENDBRANCH  15  19
BRANCH  16  21
ATOM     21  O   UNL     1      -8.769  38.649  -0.560  1.00  0.00    -0.504 OA
ATOM     22  H   UNL     1      -9.625  38.108  -0.508  1.00  0.00     0.293 HD
ENDBRANCH  16  21
ENDBRANCH   1  11
BRANCH  10  23
ATOM     23  O   UNL     1      -4.125  38.507   2.264  1.00  0.00    -0.500 OA
ATOM     24  H   UNL     1      -5.039  38.088   2.142  1.00  0.00     0.294 HD
ENDBRANCH  10  23
BRANCH   5  25
ATOM     25  O   UNL     1       0.298  42.125  -2.997  1.00  0.00    -0.507 OA
ATOM     26  H   UNL     1       1.274  41.948  -3.204  1.00  0.00     0.293 HD
ENDBRANCH   5  25
BRANCH   7  27
ATOM     27  O   UNL     1       0.223  41.373   1.744  1.00  0.00    -0.507 OA
ATOM     28  H   UNL     1       1.125  41.004   2.009  1.00  0.00     0.293 HD
ENDBRANCH   7  27
TORSDOF 7
ENDMDL
MODEL 7
REMARK VINA RESULT:    -5.309      3.237      7.120
REMARK INTER + INTRA:          -6.846
REMARK INTER:                  -6.609
REMARK INTRA:                  -0.237
REMARK UNBOUND:                -0.296
REMARK SMILES Oc1cc(O)c2cc(O)c(-c3cc(O)c(O)c(O)c3)[o+]c2c1
REMARK SMILES IDX 10 1 20 2 21 3 22 4 2 5 3 6 4 7 6 8 7 9 8 10 11 11 12 12
REMARK SMILES IDX 13 13 19 14 15 15 17 16 14 17 16 19 18 21 9 23 1 25 5 27
REMARK H PARENT 14 18 16 20 18 22 9 24 1 26 5 28
REMARK Flexibility Score: inf
ROOT
ATOM      1  C   UNL     1       6.816  26.053  13.926  1.00  0.00     0.402 A 
ATOM      2  O   UNL     1       6.371  27.238  14.334  1.00  0.00    -0.202 OA
ATOM      3  C   UNL     1       7.151  28.156  14.894  1.00  0.00     0.368 A 
ATOM      4  C   UNL     1       6.592  29.375  15.289  1.00  0.00     0.162 A 
ATOM      5  C   UNL     1       7.390  30.360  15.878  1.00  0.00     0.128 A 
ATOM      6  C   UNL     1       8.753  30.125  16.074  1.00  0.00     0.093 A 
ATOM      7  C   UNL     1       9.337  28.913  15.688  1.00  0.00     0.136 A 
ATOM      8  C   UNL     1       8.532  27.909  15.092  1.00  0.00     0.125 A 
ATOM      9  C   UNL     1       9.029  26.659  14.686  1.00  0.00     0.078 A 
ATOM     10  C   UNL     1       8.171  25.717  14.109  1.00  0.00     0.223 A 
ENDROOT
BRANCH   1  11
ATOM     11  C   UNL     1       5.850  25.118  13.306  1.00  0.00     0.091 A 
ATOM     12  C   UNL     1       5.233  25.410  12.076  1.00  0.00     0.068 A 
ATOM     13  C   UNL     1       4.304  24.523  11.517  1.00  0.00     0.162 A 
ATOM     14  C   UNL     1       5.497  23.941  13.982  1.00  0.00     0.068 A 
ATOM     15  C   UNL     1       3.974  23.339  12.188  1.00  0.00     0.200 A 
ATOM     16  C   UNL     1       4.570  23.048  13.428  1.00  0.00     0.162 A 
BRANCH  13  17
ATOM     17  O   UNL     1       3.701  24.813  10.295  1.00  0.00    -0.504 OA
ATOM     18  H   UNL     1       3.534  25.769   9.999  1.00  0.00     0.293 HD
ENDBRANCH  13  17
BRANCH  15  19
ATOM     19  O   UNL     1       3.051  22.465  11.615  1.00  0.00    -0.502 OA
ATOM     20  H   UNL     1       2.884  22.434  10.617  1.00  0.00     0.293 HD
ENDBRANCH  15  19
BRANCH  16  21
ATOM     21  O   UNL     1       4.237  21.875  14.104  1.00  0.00    -0.504 OA
ATOM     22  H   UNL     1       3.616  21.882  14.905  1.00  0.00     0.293 HD
ENDBRANCH  16  21
ENDBRANCH   1  11
BRANCH  10  23
ATOM     23  O   UNL     1       8.653  24.459  13.751  1.00  0.00    -0.500 OA
ATOM     24  H   UNL     1       8.764  24.187  12.781  1.00  0.00     0.294 HD
ENDBRANCH  10  23
BRANCH   5  25
ATOM     25  O   UNL     1       6.839  31.577  16.274  1.00  0.00    -0.507 OA
ATOM     26  H   UNL     1       7.414  32.402  16.398  1.00  0.00     0.293 HD
ENDBRANCH   5  25
BRANCH   7  27
ATOM     27  O   UNL     1      10.708  28.758  15.916  1.00  0.00    -0.507 OA
ATOM     28  H   UNL     1      11.422  29.352  15.521  1.00  0.00     0.293 HD
ENDBRANCH   7  27
TORSDOF 7
ENDMDL
MODEL 8
REMARK VINA RESULT:    -5.169      1.386      6.963
REMARK INTER + INTRA:          -6.673
REMARK INTER:                  -6.747
REMARK INTRA:                   0.073
REMARK UNBOUND:                -0.296
REMARK SMILES Oc1cc(O)c2cc(O)c(-c3cc(O)c(O)c(O)c3)[o+]c2c1
REMARK SMILES IDX 10 1 20 2 21 3 22 4 2 5 3 6 4 7 6 8 7 9 8 10 11 11 12 12
REMARK SMILES IDX 13 13 19 14 15 15 17 16 14 17 16 19 18 21 9 23 1 25 5 27
REMARK H PARENT 14 18 16 20 18 22 9 24 1 26 5 28
REMARK Flexibility Score: inf
ROOT
ATOM      1  C   UNL     1       7.540  26.218  13.048  1.00  0.00     0.402 A 
ATOM      2  O   UNL     1       8.629  26.766  13.582  1.00  0.00    -0.202 OA
ATOM      3  C   UNL     1       8.589  27.773  14.448  1.00  0.00     0.368 A 
ATOM      4  C   UNL     1       9.788  28.281  14.956  1.00  0.00     0.162 A 
ATOM      5  C   UNL     1       9.775  29.338  15.871  1.00  0.00     0.128 A 
ATOM      6  C   UNL     1       8.558  29.890  16.279  1.00  0.00     0.093 A 
ATOM      7  C   UNL     1       7.344  29.399  15.784  1.00  0.00     0.136 A 
ATOM      8  C   UNL     1       7.351  28.328  14.854  1.00  0.00     0.125 A 
ATOM      9  C   UNL     1       6.184  27.782  14.296  1.00  0.00     0.078 A 
ATOM     10  C   UNL     1       6.271  26.728  13.380  1.00  0.00     0.223 A 
ENDROOT
BRANCH   1  11
ATOM     11  C   UNL     1       7.714  25.093  12.102  1.00  0.00     0.091 A 
ATOM     12  C   UNL     1       6.815  24.012  12.076  1.00  0.00     0.068 A 
ATOM     13  C   UNL     1       7.010  22.946  11.188  1.00  0.00     0.162 A 
ATOM     14  C   UNL     1       8.830  25.072  11.252  1.00  0.00     0.068 A 
ATOM     15  C   UNL     1       8.114  22.944  10.327  1.00  0.00     0.200 A 
ATOM     16  C   UNL     1       9.030  24.009  10.361  1.00  0.00     0.162 A 
BRANCH  13  17
ATOM     17  O   UNL     1       6.112  21.880  11.159  1.00  0.00    -0.504 OA
ATOM     18  H   UNL     1       6.401  20.951  10.872  1.00  0.00     0.293 HD
ENDBRANCH  13  17
BRANCH  15  19
ATOM     19  O   UNL     1       8.291  21.876   9.447  1.00  0.00    -0.502 OA
ATOM     20  H   UNL     1       8.709  21.994   8.533  1.00  0.00     0.293 HD
ENDBRANCH  15  19
BRANCH  16  21
ATOM     21  O   UNL     1      10.136  24.006   9.512  1.00  0.00    -0.504 OA
ATOM     22  H   UNL     1      10.645  24.856   9.300  1.00  0.00     0.293 HD
ENDBRANCH  16  21
ENDBRANCH   1  11
BRANCH  10  23
ATOM     23  O   UNL     1       5.116  26.218  12.788  1.00  0.00    -0.500 OA
ATOM     24  H   UNL     1       5.066  25.264  12.453  1.00  0.00     0.294 HD
ENDBRANCH  10  23
BRANCH   5  25
ATOM     25  O   UNL     1      10.967  29.849  16.382  1.00  0.00    -0.507 OA
ATOM     26  H   UNL     1      11.107  29.968  17.378  1.00  0.00     0.293 HD
ENDBRANCH   5  25
BRANCH   7  27
ATOM     27  O   UNL     1       6.170  30.004  16.245  1.00  0.00    -0.507 OA
ATOM     28  H   UNL     1       5.256  29.851  15.846  1.00  0.00     0.293 HD
ENDBRANCH   7  27
TORSDOF 7
ENDMDL
MODEL 9
REMARK VINA RESULT:    -5.010     21.294     22.434
REMARK INTER + INTRA:          -6.477
REMARK INTER:                  -6.328
REMARK INTRA:                  -0.149
REMARK UNBOUND:                -0.296
REMARK SMILES Oc1cc(O)c2cc(O)c(-c3cc(O)c(O)c(O)c3)[o+]c2c1
REMARK SMILES IDX 10 1 20 2 21 3 22 4 2 5 3 6 4 7 6 8 7 9 8 10 11 11 12 12
REMARK SMILES IDX 13 13 19 14 15 15 17 16 14 17 16 19 18 21 9 23 1 25 5 27
REMARK H PARENT 14 18 16 20 18 22 9 24 1 26 5 28
REMARK Flexibility Score: inf
ROOT
ATOM      1  C   UNL     1      -4.288  38.941   0.208  1.00  0.00     0.402 A 
ATOM      2  O   UNL     1      -4.460  37.865  -0.556  1.00  0.00    -0.202 OA
ATOM      3  C   UNL     1      -5.497  37.043  -0.434  1.00  0.00     0.368 A 
ATOM      4  C   UNL     1      -5.592  35.938  -1.284  1.00  0.00     0.162 A 
ATOM      5  C   UNL     1      -6.673  35.058  -1.181  1.00  0.00     0.128 A 
ATOM      6  C   UNL     1      -7.664  35.284  -0.222  1.00  0.00     0.093 A 
ATOM      7  C   UNL     1      -7.591  36.383   0.642  1.00  0.00     0.136 A 
ATOM      8  C   UNL     1      -6.495  37.278   0.543  1.00  0.00     0.125 A 
ATOM      9  C   UNL     1      -6.334  38.398   1.375  1.00  0.00     0.078 A 
ATOM     10  C   UNL     1      -5.222  39.232   1.220  1.00  0.00     0.223 A 
ENDROOT
BRANCH   1  11
ATOM     11  C   UNL     1      -3.097  39.787  -0.032  1.00  0.00     0.091 A 
ATOM     12  C   UNL     1      -2.858  40.378  -1.285  1.00  0.00     0.068 A 
ATOM     13  C   UNL     1      -1.713  41.156  -1.498  1.00  0.00     0.162 A 
ATOM     14  C   UNL     1      -2.155  39.958   0.994  1.00  0.00     0.068 A 
ATOM     15  C   UNL     1      -0.788  41.341  -0.462  1.00  0.00     0.200 A 
ATOM     16  C   UNL     1      -1.007  40.737   0.788  1.00  0.00     0.162 A 
BRANCH  13  17
ATOM     17  O   UNL     1      -1.483  41.747  -2.739  1.00  0.00    -0.504 OA
ATOM     18  H   UNL     1      -2.075  42.492  -3.089  1.00  0.00     0.293 HD
ENDBRANCH  13  17
BRANCH  15  19
ATOM     19  O   UNL     1       0.345  42.122  -0.690  1.00  0.00    -0.502 OA
ATOM     20  H   UNL     1       1.261  41.716  -0.829  1.00  0.00     0.293 HD
ENDBRANCH  15  19
BRANCH  16  21
ATOM     21  O   UNL     1      -0.085  40.910   1.818  1.00  0.00    -0.504 OA
ATOM     22  H   UNL     1      -0.377  40.984   2.786  1.00  0.00     0.293 HD
ENDBRANCH  16  21
ENDBRANCH   1  11
BRANCH  10  23
ATOM     23  O   UNL     1      -5.036  40.316   2.078  1.00  0.00    -0.500 OA
ATOM     24  H   UNL     1      -4.194  40.879   2.050  1.00  0.00     0.294 HD
ENDBRANCH  10  23
BRANCH   5  25
ATOM     25  O   UNL     1      -6.774  33.954  -2.026  1.00  0.00    -0.507 OA
ATOM     26  H   UNL     1      -6.046  33.732  -2.694  1.00  0.00     0.293 HD
ENDBRANCH   5  25
BRANCH   7  27
ATOM     27  O   UNL     1      -8.625  36.540   1.572  1.00  0.00    -0.507 OA
ATOM     28  H   UNL     1      -9.180  37.377   1.670  1.00  0.00     0.293 HD
ENDBRANCH   7  27
TORSDOF 7
ENDMDL
