MODEL 1
REMARK VINA RESULT:    -6.607      0.000      0.000
REMARK INTER + INTRA:          -8.251
REMARK INTER:                  -7.958
REMARK INTRA:                  -0.292
REMARK UNBOUND:                -0.292
REMARK SMILES O=c1c(O)c(-c2ccc(O)c(O)c2)oc2cc(O)cc(O)c12
REMARK SMILES IDX 5 1 3 2 2 3 1 4 22 5 20 6 19 7 17 8 16 9 15 10 14 11 6 12
REMARK SMILES IDX 7 13 8 14 9 15 13 16 11 17 10 18 12 20 4 22 21 24 18 26
REMARK H PARENT 10 19 12 21 4 23 21 25 18 27
REMARK Flexibility Score: inf
ROOT
ATOM      1  C   UNL     1     131.100 140.028 146.594  1.00  0.00     0.180 A 
ATOM      2  C   UNL     1     132.231 140.623 147.178  1.00  0.00     0.208 A 
ATOM      3  C   UNL     1     132.310 140.711 148.577  1.00  0.00     0.238 A 
ATOM      4  O   UNL     1     133.300 141.294 149.091  1.00  0.00    -0.285 OA
ATOM      5  C   UNL     1     131.264 140.189 149.376  1.00  0.00     0.111 A 
ATOM      6  C   UNL     1     131.258 140.188 150.802  1.00  0.00     0.134 A 
ATOM      7  C   UNL     1     130.113 139.763 151.487  1.00  0.00     0.093 A 
ATOM      8  C   UNL     1     128.999 139.279 150.801  1.00  0.00     0.123 A 
ATOM      9  C   UNL     1     129.018 139.220 149.406  1.00  0.00     0.094 A 
ATOM     10  C   UNL     1     130.132 139.670 148.694  1.00  0.00     0.146 A 
ATOM     11  O   UNL     1     130.106 139.607 147.368  1.00  0.00    -0.452 OA
ENDROOT
BRANCH   1  12
ATOM     12  C   UNL     1     130.956 139.876 145.128  1.00  0.00     0.025 A 
ATOM     13  C   UNL     1     131.648 138.875 144.426  1.00  0.00     0.016 A 
ATOM     14  C   UNL     1     131.478 138.735 143.046  1.00  0.00     0.051 A 
ATOM     15  C   UNL     1     130.607 139.583 142.350  1.00  0.00     0.157 A 
ATOM     16  C   UNL     1     130.068 140.711 144.430  1.00  0.00     0.062 A 
ATOM     17  C   UNL     1     129.896 140.574 143.047  1.00  0.00     0.158 A 
BRANCH  15  18
ATOM     18  O   UNL     1     130.442 139.443 140.974  1.00  0.00    -0.504 OA
ATOM     19  H   UNL     1     129.756 138.806 140.584  1.00  0.00     0.293 HD
ENDBRANCH  15  18
BRANCH  17  20
ATOM     20  O   UNL     1     129.016 141.430 142.387  1.00  0.00    -0.504 OA
ATOM     21  H   UNL     1     129.335 142.104 141.701  1.00  0.00     0.293 HD
ENDBRANCH  17  20
ENDBRANCH   1  12
BRANCH   2  22
ATOM     22  O   UNL     1     133.242 141.152 146.370  1.00  0.00    -0.502 OA
ATOM     23  H   UNL     1     134.226 141.012 146.569  1.00  0.00     0.293 HD
ENDBRANCH   2  22
BRANCH   6  24
ATOM     24  O   UNL     1     132.351 140.564 151.589  1.00  0.00    -0.507 OA
ATOM     25  H   UNL     1     133.252 140.835 151.227  1.00  0.00     0.293 HD
ENDBRANCH   6  24
BRANCH   8  26
ATOM     26  O   UNL     1     127.884 138.849 151.515  1.00  0.00    -0.508 OA
ATOM     27  H   UNL     1     127.540 137.900 151.439  1.00  0.00     0.293 HD
ENDBRANCH   8  26
TORSDOF 6
ENDMDL
MODEL 2
REMARK VINA RESULT:    -6.533      1.907      2.380
REMARK INTER + INTRA:          -8.162
REMARK INTER:                  -7.850
REMARK INTRA:                  -0.311
REMARK UNBOUND:                -0.292
REMARK SMILES O=c1c(O)c(-c2ccc(O)c(O)c2)oc2cc(O)cc(O)c12
REMARK SMILES IDX 5 1 3 2 2 3 1 4 22 5 20 6 19 7 17 8 16 9 15 10 14 11 6 12
REMARK SMILES IDX 7 13 8 14 9 15 13 16 11 17 10 18 12 20 4 22 21 24 18 26
REMARK H PARENT 10 19 12 21 4 23 21 25 18 27
REMARK Flexibility Score: inf
ROOT
ATOM      1  C   UNL     1     131.539 139.986 145.724  1.00  0.00     0.180 A 
ATOM      2  C   UNL     1     132.752 140.641 145.998  1.00  0.00     0.208 A 
ATOM      3  C   UNL     1     133.408 140.381 147.213  1.00  0.00     0.238 A 
ATOM      4  O   UNL     1     134.465 141.012 147.475  1.00  0.00    -0.285 OA
ATOM      5  C   UNL     1     132.851 139.459 148.131  1.00  0.00     0.111 A 
ATOM      6  C   UNL     1     133.450 139.090 149.372  1.00  0.00     0.134 A 
ATOM      7  C   UNL     1     132.746 138.268 150.260  1.00  0.00     0.093 A 
ATOM      8  C   UNL     1     131.496 137.748 149.926  1.00  0.00     0.123 A 
ATOM      9  C   UNL     1     130.928 138.054 148.689  1.00  0.00     0.094 A 
ATOM     10  C   UNL     1     131.589 138.901 147.796  1.00  0.00     0.146 A 
ATOM     11  O   UNL     1     131.010 139.177 146.634  1.00  0.00    -0.452 OA
ENDROOT
BRANCH   1  12
ATOM     12  C   UNL     1     130.802 140.188 144.455  1.00  0.00     0.025 A 
ATOM     13  C   UNL     1     129.765 141.131 144.355  1.00  0.00     0.016 A 
ATOM     14  C   UNL     1     129.099 141.321 143.141  1.00  0.00     0.051 A 
ATOM     15  C   UNL     1     129.468 140.583 142.008  1.00  0.00     0.157 A 
ATOM     16  C   UNL     1     131.182 139.465 143.313  1.00  0.00     0.062 A 
ATOM     17  C   UNL     1     130.517 139.653 142.095  1.00  0.00     0.158 A 
BRANCH  15  18
ATOM     18  O   UNL     1     128.801 140.772 140.800  1.00  0.00    -0.504 OA
ATOM     19  H   UNL     1     127.935 141.297 140.749  1.00  0.00     0.293 HD
ENDBRANCH  15  18
BRANCH  17  20
ATOM     20  O   UNL     1     130.913 138.906 140.986  1.00  0.00    -0.504 OA
ATOM     21  H   UNL     1     131.465 139.307 140.237  1.00  0.00     0.293 HD
ENDBRANCH  17  20
ENDBRANCH   1  12
BRANCH   2  22
ATOM     22  O   UNL     1     133.273 141.565 145.087  1.00  0.00    -0.502 OA
ATOM     23  H   UNL     1     133.799 142.380 145.380  1.00  0.00     0.293 HD
ENDBRANCH   2  22
BRANCH   6  24
ATOM     24  O   UNL     1     134.734 139.479 149.766  1.00  0.00    -0.507 OA
ATOM     25  H   UNL     1     135.116 139.345 150.689  1.00  0.00     0.293 HD
ENDBRANCH   6  24
BRANCH   8  26
ATOM     26  O   UNL     1     130.832 136.919 150.827  1.00  0.00    -0.508 OA
ATOM     27  H   UNL     1     130.657 137.207 151.782  1.00  0.00     0.293 HD
ENDBRANCH   8  26
TORSDOF 6
ENDMDL
MODEL 3
REMARK VINA RESULT:    -6.414      1.669      6.805
REMARK INTER + INTRA:          -8.018
REMARK INTER:                  -7.696
REMARK INTRA:                  -0.322
REMARK UNBOUND:                -0.292
REMARK SMILES O=c1c(O)c(-c2ccc(O)c(O)c2)oc2cc(O)cc(O)c12
REMARK SMILES IDX 5 1 3 2 2 3 1 4 22 5 20 6 19 7 17 8 16 9 15 10 14 11 6 12
REMARK SMILES IDX 7 13 8 14 9 15 13 16 11 17 10 18 12 20 4 22 21 24 18 26
REMARK H PARENT 10 19 12 21 4 23 21 25 18 27
REMARK Flexibility Score: inf
ROOT
ATOM      1  C   UNL     1     131.234 139.691 146.304  1.00  0.00     0.180 A 
ATOM      2  C   UNL     1     132.566 139.462 145.920  1.00  0.00     0.208 A 
ATOM      3  C   UNL     1     132.916 139.586 144.565  1.00  0.00     0.238 A 
ATOM      4  O   UNL     1     134.098 139.326 144.221  1.00  0.00    -0.285 OA
ATOM      5  C   UNL     1     131.933 139.953 143.615  1.00  0.00     0.111 A 
ATOM      6  C   UNL     1     132.184 140.146 142.224  1.00  0.00     0.134 A 
ATOM      7  C   UNL     1     131.111 140.380 141.355  1.00  0.00     0.093 A 
ATOM      8  C   UNL     1     129.806 140.493 141.834  1.00  0.00     0.123 A 
ATOM      9  C   UNL     1     129.557 140.365 143.201  1.00  0.00     0.094 A 
ATOM     10  C   UNL     1     130.602 140.095 144.089  1.00  0.00     0.146 A 
ATOM     11  O   UNL     1     130.322 139.970 145.380  1.00  0.00    -0.452 OA
ENDROOT
BRANCH   1  12
ATOM     12  C   UNL     1     130.794 139.605 147.716  1.00  0.00     0.025 A 
ATOM     13  C   UNL     1     130.304 138.404 148.257  1.00  0.00     0.016 A 
ATOM     14  C   UNL     1     129.916 138.340 149.598  1.00  0.00     0.051 A 
ATOM     15  C   UNL     1     130.024 139.469 150.420  1.00  0.00     0.157 A 
ATOM     16  C   UNL     1     130.919 140.729 148.549  1.00  0.00     0.062 A 
ATOM     17  C   UNL     1     130.531 140.668 149.893  1.00  0.00     0.158 A 
BRANCH  15  18
ATOM     18  O   UNL     1     129.634 139.403 151.756  1.00  0.00    -0.504 OA
ATOM     19  H   UNL     1     128.855 138.826 152.054  1.00  0.00     0.293 HD
ENDBRANCH  15  18
BRANCH  17  20
ATOM     20  O   UNL     1     130.657 141.808 150.685  1.00  0.00    -0.504 OA
ATOM     21  H   UNL     1     129.899 142.145 151.268  1.00  0.00     0.293 HD
ENDBRANCH  17  20
ENDBRANCH   1  12
BRANCH   2  22
ATOM     22  O   UNL     1     133.516 139.079 146.871  1.00  0.00    -0.502 OA
ATOM     23  H   UNL     1     133.991 138.185 146.837  1.00  0.00     0.293 HD
ENDBRANCH   2  22
BRANCH   6  24
ATOM     24  O   UNL     1     133.460 140.146 141.653  1.00  0.00    -0.507 OA
ATOM     25  H   UNL     1     134.218 140.744 141.943  1.00  0.00     0.293 HD
ENDBRANCH   6  24
BRANCH   8  26
ATOM     26  O   UNL     1     128.766 140.743 140.943  1.00  0.00    -0.508 OA
ATOM     27  H   UNL     1     128.732 141.593 140.392  1.00  0.00     0.293 HD
ENDBRANCH   8  26
TORSDOF 6
ENDMDL
MODEL 4
REMARK VINA RESULT:    -6.387      1.532      2.948
REMARK INTER + INTRA:          -7.986
REMARK INTER:                  -7.663
REMARK INTRA:                  -0.323
REMARK UNBOUND:                -0.292
REMARK SMILES O=c1c(O)c(-c2ccc(O)c(O)c2)oc2cc(O)cc(O)c12
REMARK SMILES IDX 5 1 3 2 2 3 1 4 22 5 20 6 19 7 17 8 16 9 15 10 14 11 6 12
REMARK SMILES IDX 7 13 8 14 9 15 13 16 11 17 10 18 12 20 4 22 21 24 18 26
REMARK H PARENT 10 19 12 21 4 23 21 25 18 27
REMARK Flexibility Score: inf
ROOT
ATOM      1  C   UNL     1     131.151 139.819 147.148  1.00  0.00     0.180 A 
ATOM      2  C   UNL     1     130.439 138.983 148.025  1.00  0.00     0.208 A 
ATOM      3  C   UNL     1     130.429 139.285 149.396  1.00  0.00     0.238 A 
ATOM      4  O   UNL     1     129.836 138.502 150.183  1.00  0.00    -0.285 OA
ATOM      5  C   UNL     1     131.118 140.427 149.871  1.00  0.00     0.111 A 
ATOM      6  C   UNL     1     131.141 140.851 151.234  1.00  0.00     0.134 A 
ATOM      7  C   UNL     1     131.961 141.921 151.610  1.00  0.00     0.093 A 
ATOM      8  C   UNL     1     132.707 142.625 150.664  1.00  0.00     0.123 A 
ATOM      9  C   UNL     1     132.645 142.257 149.320  1.00  0.00     0.094 A 
ATOM     10  C   UNL     1     131.863 141.170 148.919  1.00  0.00     0.146 A 
ATOM     11  O   UNL     1     131.840 140.846 147.632  1.00  0.00    -0.452 OA
ENDROOT
BRANCH   1  12
ATOM     12  C   UNL     1     131.187 139.581 145.686  1.00  0.00     0.025 A 
ATOM     13  C   UNL     1     132.191 138.791 145.099  1.00  0.00     0.016 A 
ATOM     14  C   UNL     1     132.192 138.561 143.721  1.00  0.00     0.051 A 
ATOM     15  C   UNL     1     131.185 139.104 142.912  1.00  0.00     0.157 A 
ATOM     16  C   UNL     1     130.169 140.106 144.874  1.00  0.00     0.062 A 
ATOM     17  C   UNL     1     130.167 139.878 143.493  1.00  0.00     0.158 A 
BRANCH  15  18
ATOM     18  O   UNL     1     131.190 138.875 141.537  1.00  0.00    -0.504 OA
ATOM     19  H   UNL     1     132.048 138.673 141.036  1.00  0.00     0.293 HD
ENDBRANCH  15  18
BRANCH  17  20
ATOM     20  O   UNL     1     129.147 140.428 142.718  1.00  0.00    -0.504 OA
ATOM     21  H   UNL     1     128.170 140.230 142.897  1.00  0.00     0.293 HD
ENDBRANCH  17  20
ENDBRANCH   1  12
BRANCH   2  22
ATOM     22  O   UNL     1     129.785 137.847 147.538  1.00  0.00    -0.502 OA
ATOM     23  H   UNL     1     130.274 136.984 147.332  1.00  0.00     0.293 HD
ENDBRANCH   2  22
BRANCH   6  24
ATOM     24  O   UNL     1     130.363 140.276 152.243  1.00  0.00    -0.507 OA
ATOM     25  H   UNL     1     130.219 139.285 152.364  1.00  0.00     0.293 HD
ENDBRANCH   6  24
BRANCH   8  26
ATOM     26  O   UNL     1     133.499 143.696 151.072  1.00  0.00    -0.508 OA
ATOM     27  H   UNL     1     134.501 143.702 150.922  1.00  0.00     0.293 HD
ENDBRANCH   8  26
TORSDOF 6
ENDMDL
MODEL 5
REMARK VINA RESULT:    -6.356      1.643      3.372
REMARK INTER + INTRA:          -7.949
REMARK INTER:                  -7.632
REMARK INTRA:                  -0.317
REMARK UNBOUND:                -0.292
REMARK SMILES O=c1c(O)c(-c2ccc(O)c(O)c2)oc2cc(O)cc(O)c12
REMARK SMILES IDX 5 1 3 2 2 3 1 4 22 5 20 6 19 7 17 8 16 9 15 10 14 11 6 12
REMARK SMILES IDX 7 13 8 14 9 15 13 16 11 17 10 18 12 20 4 22 21 24 18 26
REMARK H PARENT 10 19 12 21 4 23 21 25 18 27
REMARK Flexibility Score: inf
ROOT
ATOM      1  C   UNL     1     131.629 139.878 146.366  1.00  0.00     0.180 A 
ATOM      2  C   UNL     1     130.905 139.213 147.371  1.00  0.00     0.208 A 
ATOM      3  C   UNL     1     131.380 139.253 148.692  1.00  0.00     0.238 A 
ATOM      4  O   UNL     1     130.757 138.611 149.577  1.00  0.00    -0.285 OA
ATOM      5  C   UNL     1     132.563 139.969 148.994  1.00  0.00     0.111 A 
ATOM      6  C   UNL     1     133.113 140.110 150.303  1.00  0.00     0.134 A 
ATOM      7  C   UNL     1     134.357 140.730 150.467  1.00  0.00     0.093 A 
ATOM      8  C   UNL     1     135.041 141.273 149.379  1.00  0.00     0.123 A 
ATOM      9  C   UNL     1     134.484 141.194 148.102  1.00  0.00     0.094 A 
ATOM     10  C   UNL     1     133.260 140.549 147.902  1.00  0.00     0.146 A 
ATOM     11  O   UNL     1     132.770 140.486 146.670  1.00  0.00    -0.452 OA
ENDROOT
BRANCH   1  12
ATOM     12  C   UNL     1     131.179 139.903 144.955  1.00  0.00     0.025 A 
ATOM     13  C   UNL     1     131.633 138.952 144.026  1.00  0.00     0.016 A 
ATOM     14  C   UNL     1     131.177 138.980 142.705  1.00  0.00     0.051 A 
ATOM     15  C   UNL     1     130.252 139.951 142.297  1.00  0.00     0.157 A 
ATOM     16  C   UNL     1     130.236 140.861 144.546  1.00  0.00     0.062 A 
ATOM     17  C   UNL     1     129.777 140.893 143.225  1.00  0.00     0.158 A 
BRANCH  15  18
ATOM     18  O   UNL     1     129.800 139.979 140.980  1.00  0.00    -0.504 OA
ATOM     19  H   UNL     1     129.807 139.148 140.398  1.00  0.00     0.293 HD
ENDBRANCH  15  18
BRANCH  17  20
ATOM     20  O   UNL     1     128.852 141.867 142.853  1.00  0.00    -0.504 OA
ATOM     21  H   UNL     1     129.009 142.853 143.029  1.00  0.00     0.293 HD
ENDBRANCH  17  20
ENDBRANCH   1  12
BRANCH   2  22
ATOM     22  O   UNL     1     129.752 138.494 147.047  1.00  0.00    -0.502 OA
ATOM     23  H   UNL     1     128.820 138.854 147.218  1.00  0.00     0.293 HD
ENDBRANCH   2  22
BRANCH   6  24
ATOM     24  O   UNL     1     132.470 139.686 151.470  1.00  0.00    -0.507 OA
ATOM     25  H   UNL     1     132.251 138.726 151.689  1.00  0.00     0.293 HD
ENDBRANCH   6  24
BRANCH   8  26
ATOM     26  O   UNL     1     136.269 141.898 149.580  1.00  0.00    -0.508 OA
ATOM     27  H   UNL     1     137.130 141.504 149.220  1.00  0.00     0.293 HD
ENDBRANCH   8  26
TORSDOF 6
ENDMDL
MODEL 6
REMARK VINA RESULT:    -6.316      1.589      6.862
REMARK INTER + INTRA:          -7.900
REMARK INTER:                  -7.691
REMARK INTRA:                  -0.209
REMARK UNBOUND:                -0.292
REMARK SMILES O=c1c(O)c(-c2ccc(O)c(O)c2)oc2cc(O)cc(O)c12
REMARK SMILES IDX 5 1 3 2 2 3 1 4 22 5 20 6 19 7 17 8 16 9 15 10 14 11 6 12
REMARK SMILES IDX 7 13 8 14 9 15 13 16 11 17 10 18 12 20 4 22 21 24 18 26
REMARK H PARENT 10 19 12 21 4 23 21 25 18 27
REMARK Flexibility Score: inf
ROOT
ATOM      1  C   UNL     1     131.379 139.911 146.343  1.00  0.00     0.180 A 
ATOM      2  C   UNL     1     132.526 139.216 145.920  1.00  0.00     0.208 A 
ATOM      3  C   UNL     1     132.719 138.992 144.547  1.00  0.00     0.238 A 
ATOM      4  O   UNL     1     133.719 138.323 144.180  1.00  0.00    -0.285 OA
ATOM      5  C   UNL     1     131.772 139.479 143.614  1.00  0.00     0.111 A 
ATOM      6  C   UNL     1     131.888 139.344 142.198  1.00  0.00     0.134 A 
ATOM      7  C   UNL     1     130.828 139.749 141.377  1.00  0.00     0.093 A 
ATOM      8  C   UNL     1     129.686 140.342 141.914  1.00  0.00     0.123 A 
ATOM      9  C   UNL     1     129.588 140.533 143.293  1.00  0.00     0.094 A 
ATOM     10  C   UNL     1     130.614 140.107 144.141  1.00  0.00     0.146 A 
ATOM     11  O   UNL     1     130.478 140.297 145.448  1.00  0.00    -0.452 OA
ENDROOT
BRANCH   1  12
ATOM     12  C   UNL     1     131.118 140.208 147.770  1.00  0.00     0.025 A 
ATOM     13  C   UNL     1     131.943 141.084 148.497  1.00  0.00     0.016 A 
ATOM     14  C   UNL     1     131.664 141.368 149.836  1.00  0.00     0.051 A 
ATOM     15  C   UNL     1     130.552 140.792 150.465  1.00  0.00     0.157 A 
ATOM     16  C   UNL     1     129.993 139.649 148.399  1.00  0.00     0.062 A 
ATOM     17  C   UNL     1     129.711 139.931 149.740  1.00  0.00     0.158 A 
BRANCH  15  18
ATOM     18  O   UNL     1     130.277 141.075 151.801  1.00  0.00    -0.504 OA
ATOM     19  H   UNL     1     130.886 140.756 152.547  1.00  0.00     0.293 HD
ENDBRANCH  15  18
BRANCH  17  20
ATOM     20  O   UNL     1     128.593 139.347 150.333  1.00  0.00    -0.504 OA
ATOM     21  H   UNL     1     128.242 138.441 150.045  1.00  0.00     0.293 HD
ENDBRANCH  17  20
ENDBRANCH   1  12
BRANCH   2  22
ATOM     22  O   UNL     1     133.437 138.725 146.860  1.00  0.00    -0.502 OA
ATOM     23  H   UNL     1     133.165 138.485 147.806  1.00  0.00     0.293 HD
ENDBRANCH   2  22
BRANCH   6  24
ATOM     24  O   UNL     1     133.024 138.850 141.551  1.00  0.00    -0.507 OA
ATOM     25  H   UNL     1     133.967 138.938 141.898  1.00  0.00     0.293 HD
ENDBRANCH   6  24
BRANCH   8  26
ATOM     26  O   UNL     1     128.658 140.748 141.066  1.00  0.00    -0.508 OA
ATOM     27  H   UNL     1     128.007 141.476 141.334  1.00  0.00     0.293 HD
ENDBRANCH   8  26
TORSDOF 6
ENDMDL
MODEL 7
REMARK VINA RESULT:    -6.276      3.010      4.973
REMARK INTER + INTRA:          -7.852
REMARK INTER:                  -7.548
REMARK INTRA:                  -0.304
REMARK UNBOUND:                -0.292
REMARK SMILES O=c1c(O)c(-c2ccc(O)c(O)c2)oc2cc(O)cc(O)c12
REMARK SMILES IDX 5 1 3 2 2 3 1 4 22 5 20 6 19 7 17 8 16 9 15 10 14 11 6 12
REMARK SMILES IDX 7 13 8 14 9 15 13 16 11 17 10 18 12 20 4 22 21 24 18 26
REMARK H PARENT 10 19 12 21 4 23 21 25 18 27
REMARK Flexibility Score: inf
ROOT
ATOM      1  C   UNL     1     132.388 140.614 145.105  1.00  0.00     0.180 A 
ATOM      2  C   UNL     1     132.321 139.813 146.257  1.00  0.00     0.208 A 
ATOM      3  C   UNL     1     133.348 139.904 147.211  1.00  0.00     0.238 A 
ATOM      4  O   UNL     1     133.310 139.145 148.214  1.00  0.00    -0.285 OA
ATOM      5  C   UNL     1     134.420 140.806 147.008  1.00  0.00     0.111 A 
ATOM      6  C   UNL     1     135.492 141.010 147.928  1.00  0.00     0.134 A 
ATOM      7  C   UNL     1     136.566 141.831 147.564  1.00  0.00     0.093 A 
ATOM      8  C   UNL     1     136.576 142.508 146.345  1.00  0.00     0.123 A 
ATOM      9  C   UNL     1     135.504 142.363 145.464  1.00  0.00     0.094 A 
ATOM     10  C   UNL     1     134.434 141.522 145.782  1.00  0.00     0.146 A 
ATOM     11  O   UNL     1     133.439 141.403 144.912  1.00  0.00    -0.452 OA
ENDROOT
BRANCH   1  12
ATOM     12  C   UNL     1     131.331 140.593 144.067  1.00  0.00     0.025 A 
ATOM     13  C   UNL     1     130.123 141.290 144.239  1.00  0.00     0.016 A 
ATOM     14  C   UNL     1     129.150 141.275 143.236  1.00  0.00     0.051 A 
ATOM     15  C   UNL     1     129.375 140.576 142.043  1.00  0.00     0.157 A 
ATOM     16  C   UNL     1     131.560 139.911 142.861  1.00  0.00     0.062 A 
ATOM     17  C   UNL     1     130.588 139.894 141.854  1.00  0.00     0.158 A 
BRANCH  15  18
ATOM     18  O   UNL     1     128.402 140.561 141.046  1.00  0.00    -0.504 OA
ATOM     19  H   UNL     1     128.326 141.311 140.367  1.00  0.00     0.293 HD
ENDBRANCH  15  18
BRANCH  17  20
ATOM     20  O   UNL     1     130.846 139.194 140.676  1.00  0.00    -0.504 OA
ATOM     21  H   UNL     1     131.257 139.640 139.864  1.00  0.00     0.293 HD
ENDBRANCH  17  20
ENDBRANCH   1  12
BRANCH   2  22
ATOM     22  O   UNL     1     131.265 138.913 146.427  1.00  0.00    -0.502 OA
ATOM     23  H   UNL     1     130.981 138.265 145.702  1.00  0.00     0.293 HD
ENDBRANCH   2  22
BRANCH   6  24
ATOM     24  O   UNL     1     135.537 140.455 149.210  1.00  0.00    -0.507 OA
ATOM     25  H   UNL     1     136.307 139.916 149.576  1.00  0.00     0.293 HD
ENDBRANCH   6  24
BRANCH   8  26
ATOM     26  O   UNL     1     137.653 143.330 146.023  1.00  0.00    -0.508 OA
ATOM     27  H   UNL     1     138.605 143.073 146.258  1.00  0.00     0.293 HD
ENDBRANCH   8  26
TORSDOF 6
ENDMDL
MODEL 8
REMARK VINA RESULT:    -5.993      1.948      6.772
REMARK INTER + INTRA:          -7.512
REMARK INTER:                  -7.259
REMARK INTRA:                  -0.252
REMARK UNBOUND:                -0.292
REMARK SMILES O=c1c(O)c(-c2ccc(O)c(O)c2)oc2cc(O)cc(O)c12
REMARK SMILES IDX 5 1 3 2 2 3 1 4 22 5 20 6 19 7 17 8 16 9 15 10 14 11 6 12
REMARK SMILES IDX 7 13 8 14 9 15 13 16 11 17 10 18 12 20 4 22 21 24 18 26
REMARK H PARENT 10 19 12 21 4 23 21 25 18 27
REMARK Flexibility Score: inf
ROOT
ATOM      1  C   UNL     1     131.976 140.235 147.561  1.00  0.00     0.180 A 
ATOM      2  C   UNL     1     133.136 139.462 147.385  1.00  0.00     0.208 A 
ATOM      3  C   UNL     1     133.405 138.913 146.121  1.00  0.00     0.238 A 
ATOM      4  O   UNL     1     134.417 138.178 145.985  1.00  0.00    -0.285 OA
ATOM      5  C   UNL     1     132.518 139.155 145.045  1.00  0.00     0.111 A 
ATOM      6  C   UNL     1     132.712 138.682 143.713  1.00  0.00     0.134 A 
ATOM      7  C   UNL     1     131.705 138.872 142.759  1.00  0.00     0.093 A 
ATOM      8  C   UNL     1     130.541 139.574 143.070  1.00  0.00     0.123 A 
ATOM      9  C   UNL     1     130.367 140.093 144.354  1.00  0.00     0.094 A 
ATOM     10  C   UNL     1     131.338 139.889 145.337  1.00  0.00     0.146 A 
ATOM     11  O   UNL     1     131.130 140.390 146.549  1.00  0.00    -0.452 OA
ENDROOT
BRANCH   1  12
ATOM     12  C   UNL     1     131.637 140.868 148.857  1.00  0.00     0.025 A 
ATOM     13  C   UNL     1     130.635 140.341 149.688  1.00  0.00     0.016 A 
ATOM     14  C   UNL     1     130.349 140.942 150.917  1.00  0.00     0.051 A 
ATOM     15  C   UNL     1     131.068 142.069 151.338  1.00  0.00     0.157 A 
ATOM     16  C   UNL     1     132.369 141.986 149.292  1.00  0.00     0.062 A 
ATOM     17  C   UNL     1     132.085 142.590 150.522  1.00  0.00     0.158 A 
BRANCH  15  18
ATOM     18  O   UNL     1     130.779 142.667 152.563  1.00  0.00    -0.504 OA
ATOM     19  H   UNL     1     131.318 143.453 152.910  1.00  0.00     0.293 HD
ENDBRANCH  15  18
BRANCH  17  20
ATOM     20  O   UNL     1     132.823 143.706 150.914  1.00  0.00    -0.504 OA
ATOM     21  H   UNL     1     132.381 144.545 151.269  1.00  0.00     0.293 HD
ENDBRANCH  17  20
ENDBRANCH   1  12
BRANCH   2  22
ATOM     22  O   UNL     1     133.987 139.217 148.467  1.00  0.00    -0.502 OA
ATOM     23  H   UNL     1     134.837 138.672 148.378  1.00  0.00     0.293 HD
ENDBRANCH   2  22
BRANCH   6  24
ATOM     24  O   UNL     1     133.878 138.049 143.272  1.00  0.00    -0.507 OA
ATOM     25  H   UNL     1     134.432 137.414 143.826  1.00  0.00     0.293 HD
ENDBRANCH   6  24
BRANCH   8  26
ATOM     26  O   UNL     1     129.567 139.759 142.091  1.00  0.00    -0.508 OA
ATOM     27  H   UNL     1     128.736 140.312 142.268  1.00  0.00     0.293 HD
ENDBRANCH   8  26
TORSDOF 6
ENDMDL
MODEL 9
REMARK VINA RESULT:    -5.938      1.676      6.762
REMARK INTER + INTRA:          -7.445
REMARK INTER:                  -7.128
REMARK INTRA:                  -0.317
REMARK UNBOUND:                -0.292
REMARK SMILES O=c1c(O)c(-c2ccc(O)c(O)c2)oc2cc(O)cc(O)c12
REMARK SMILES IDX 5 1 3 2 2 3 1 4 22 5 20 6 19 7 17 8 16 9 15 10 14 11 6 12
REMARK SMILES IDX 7 13 8 14 9 15 13 16 11 17 10 18 12 20 4 22 21 24 18 26
REMARK H PARENT 10 19 12 21 4 23 21 25 18 27
REMARK Flexibility Score: inf
ROOT
ATOM      1  C   UNL     1     131.303 139.520 148.335  1.00  0.00     0.180 A 
ATOM      2  C   UNL     1     132.465 140.310 148.335  1.00  0.00     0.208 A 
ATOM      3  C   UNL     1     133.007 140.725 147.108  1.00  0.00     0.238 A 
ATOM      4  O   UNL     1     134.078 141.386 147.114  1.00  0.00    -0.285 OA
ATOM      5  C   UNL     1     132.372 140.359 145.897  1.00  0.00     0.111 A 
ATOM      6  C   UNL     1     132.811 140.757 144.599  1.00  0.00     0.134 A 
ATOM      7  C   UNL     1     132.182 140.229 143.466  1.00  0.00     0.093 A 
ATOM      8  C   UNL     1     131.090 139.369 143.582  1.00  0.00     0.123 A 
ATOM      9  C   UNL     1     130.615 139.020 144.846  1.00  0.00     0.094 A 
ATOM     10  C   UNL     1     131.244 139.503 145.997  1.00  0.00     0.146 A 
ATOM     11  O   UNL     1     130.768 139.138 147.181  1.00  0.00    -0.452 OA
ENDROOT
BRANCH   1  12
ATOM     12  C   UNL     1     130.658 139.065 149.588  1.00  0.00     0.025 A 
ATOM     13  C   UNL     1     129.581 139.769 150.153  1.00  0.00     0.016 A 
ATOM     14  C   UNL     1     128.972 139.309 151.324  1.00  0.00     0.051 A 
ATOM     15  C   UNL     1     129.421 138.132 151.939  1.00  0.00     0.157 A 
ATOM     16  C   UNL     1     131.091 137.876 150.197  1.00  0.00     0.062 A 
ATOM     17  C   UNL     1     130.484 137.411 151.370  1.00  0.00     0.158 A 
BRANCH  15  18
ATOM     18  O   UNL     1     128.814 137.676 153.107  1.00  0.00    -0.504 OA
ATOM     19  H   UNL     1     129.221 137.850 154.020  1.00  0.00     0.293 HD
ENDBRANCH  15  18
BRANCH  17  20
ATOM     20  O   UNL     1     130.951 136.234 151.952  1.00  0.00    -0.504 OA
ATOM     21  H   UNL     1     131.227 135.432 151.398  1.00  0.00     0.293 HD
ENDBRANCH  17  20
ENDBRANCH   1  12
BRANCH   2  22
ATOM     22  O   UNL     1     133.089 140.642 149.541  1.00  0.00    -0.502 OA
ATOM     23  H   UNL     1     133.775 140.041 149.982  1.00  0.00     0.293 HD
ENDBRANCH   2  22
BRANCH   6  24
ATOM     24  O   UNL     1     133.833 141.683 144.371  1.00  0.00    -0.507 OA
ATOM     25  H   UNL     1     133.981 142.172 143.501  1.00  0.00     0.293 HD
ENDBRANCH   6  24
BRANCH   8  26
ATOM     26  O   UNL     1     130.478 138.875 142.432  1.00  0.00    -0.508 OA
ATOM     27  H   UNL     1     130.292 139.470 141.633  1.00  0.00     0.293 HD
ENDBRANCH   8  26
TORSDOF 6
ENDMDL
