MODEL 1
REMARK VINA RESULT:    -4.732      0.000      0.000
REMARK INTER + INTRA:          -9.073
REMARK INTER:                  -7.498
REMARK INTRA:                  -1.575
REMARK UNBOUND:                -1.575
REMARK SMILES CCCCCCCCCCCC(=O)[O-]
REMARK SMILES IDX 7 1 8 2 9 3 10 4 11 5 12 6 13 7 14 8 6 9 5 10 4 11 3 12 2 13
REMARK SMILES IDX 1 14
REMARK H PARENT
REMARK Flexibility Score: inf
ROOT
ATOM      1  C   UNL     1      30.197  30.384  17.158  1.00  0.00     0.000 C 
ENDROOT
BRANCH   1   2
ATOM      2  C   UNL     1      29.518  30.707  15.818  1.00  0.00     0.000 C 
BRANCH   2   3
ATOM      3  C   UNL     1      29.243  29.454  14.967  1.00  0.00     0.000 C 
BRANCH   3   4
ATOM      4  C   UNL     1      29.296  29.677  13.444  1.00  0.00     0.006 C 
BRANCH   4   5
ATOM      5  C   UNL     1      29.758  31.089  13.064  1.00  0.00     0.053 C 
BRANCH   5   6
ATOM      6  C   UNL     1      30.539  31.057  11.788  1.00  0.00     0.041 C 
ATOM      7  O   UNL     1      29.942  31.057  10.679  1.00  0.00    -0.550 OA
ATOM      8  O   UNL     1      31.926  30.976  11.824  1.00  0.00    -0.550 OA
ENDBRANCH   5   6
ENDBRANCH   4   5
ENDBRANCH   3   4
ENDBRANCH   2   3
ENDBRANCH   1   2
BRANCH   1   9
ATOM      9  C   UNL     1      31.454  31.238  17.357  1.00  0.00     0.000 C 
BRANCH   9  10
ATOM     10  C   UNL     1      31.687  32.165  16.159  1.00  0.00    -0.000 C 
BRANCH  10  11
ATOM     11  C   UNL     1      32.914  31.720  15.349  1.00  0.00    -0.000 C 
BRANCH  11  12
ATOM     12  C   UNL     1      33.409  30.314  15.735  1.00  0.00    -0.000 C 
BRANCH  12  13
ATOM     13  C   UNL     1      33.072  29.209  14.718  1.00  0.00    -0.003 C 
ATOM     14  C   UNL     1      32.554  27.929  15.374  1.00  0.00     0.004 C 
ENDBRANCH  12  13
ENDBRANCH  11  12
ENDBRANCH  10  11
ENDBRANCH   9  10
ENDBRANCH   1   9
TORSDOF 10
ENDMDL
MODEL 2
REMARK VINA RESULT:    -4.725      2.681      4.720
REMARK INTER + INTRA:          -9.062
REMARK INTER:                  -7.540
REMARK INTRA:                  -1.523
REMARK UNBOUND:                -1.575
REMARK SMILES CCCCCCCCCCCC(=O)[O-]
REMARK SMILES IDX 7 1 8 2 9 3 10 4 11 5 12 6 13 7 14 8 6 9 5 10 4 11 3 12 2 13
REMARK SMILES IDX 1 14
REMARK H PARENT
REMARK Flexibility Score: inf
ROOT
ATOM      1  C   UNL     1      31.711  32.140  16.165  1.00  0.00     0.000 C 
ENDROOT
BRANCH   1   2
ATOM      2  C   UNL     1      32.907  31.625  15.350  1.00  0.00     0.000 C 
BRANCH   2   3
ATOM      3  C   UNL     1      33.458  30.286  15.872  1.00  0.00     0.000 C 
BRANCH   3   4
ATOM      4  C   UNL     1      33.245  29.084  14.933  1.00  0.00     0.006 C 
BRANCH   4   5
ATOM      5  C   UNL     1      32.844  27.806  15.681  1.00  0.00     0.053 C 
BRANCH   5   6
ATOM      6  C   UNL     1      33.922  26.776  15.568  1.00  0.00     0.041 C 
ATOM      7  O   UNL     1      35.064  27.097  15.146  1.00  0.00    -0.550 OA
ATOM      8  O   UNL     1      33.652  25.450  15.885  1.00  0.00    -0.550 OA
ENDBRANCH   5   6
ENDBRANCH   4   5
ENDBRANCH   3   4
ENDBRANCH   2   3
ENDBRANCH   1   2
BRANCH   1   9
ATOM      9  C   UNL     1      31.448  31.245  17.381  1.00  0.00     0.000 C 
BRANCH   9  10
ATOM     10  C   UNL     1      30.217  30.358  17.157  1.00  0.00    -0.000 C 
BRANCH  10  11
ATOM     11  C   UNL     1      29.508  30.724  15.844  1.00  0.00    -0.000 C 
BRANCH  11  12
ATOM     12  C   UNL     1      29.367  29.526  14.886  1.00  0.00    -0.000 C 
BRANCH  12  13
ATOM     13  C   UNL     1      29.932  29.759  13.474  1.00  0.00    -0.003 C 
ATOM     14  C   UNL     1      29.819  31.212  13.015  1.00  0.00     0.004 C 
ENDBRANCH  12  13
ENDBRANCH  11  12
ENDBRANCH  10  11
ENDBRANCH   9  10
ENDBRANCH   1   9
TORSDOF 10
ENDMDL
MODEL 3
REMARK VINA RESULT:    -4.678      2.257      3.998
REMARK INTER + INTRA:          -8.987
REMARK INTER:                  -7.750
REMARK INTRA:                  -1.237
REMARK UNBOUND:                -1.575
REMARK SMILES CCCCCCCCCCCC(=O)[O-]
REMARK SMILES IDX 7 1 8 2 9 3 10 4 11 5 12 6 13 7 14 8 6 9 5 10 4 11 3 12 2 13
REMARK SMILES IDX 1 14
REMARK H PARENT
REMARK Flexibility Score: inf
ROOT
ATOM      1  C   UNL     1      33.023  31.408  15.363  1.00  0.00     0.000 C 
ENDROOT
BRANCH   1   2
ATOM      2  C   UNL     1      33.452  30.122  16.086  1.00  0.00     0.000 C 
BRANCH   2   3
ATOM      3  C   UNL     1      33.533  28.904  15.148  1.00  0.00     0.000 C 
BRANCH   3   4
ATOM      4  C   UNL     1      33.016  29.148  13.718  1.00  0.00     0.006 C 
BRANCH   4   5
ATOM      5  C   UNL     1      33.244  27.950  12.788  1.00  0.00     0.053 C 
BRANCH   5   6
ATOM      6  C   UNL     1      34.656  27.936  12.293  1.00  0.00     0.041 C 
ATOM      7  O   UNL     1      34.990  28.649  11.311  1.00  0.00    -0.550 OA
ATOM      8  O   UNL     1      35.592  27.098  12.887  1.00  0.00    -0.550 OA
ENDBRANCH   5   6
ENDBRANCH   4   5
ENDBRANCH   3   4
ENDBRANCH   2   3
ENDBRANCH   1   2
BRANCH   1   9
ATOM      9  C   UNL     1      31.869  32.095  16.102  1.00  0.00     0.000 C 
BRANCH   9  10
ATOM     10  C   UNL     1      31.448  31.291  17.337  1.00  0.00    -0.000 C 
BRANCH  10  11
ATOM     11  C   UNL     1      30.186  30.463  17.051  1.00  0.00    -0.000 C 
BRANCH  11  12
ATOM     12  C   UNL     1      29.621  30.702  15.638  1.00  0.00    -0.000 C 
BRANCH  12  13
ATOM     13  C   UNL     1      29.294  29.423  14.848  1.00  0.00    -0.003 C 
ATOM     14  C   UNL     1      29.928  28.169  15.450  1.00  0.00     0.004 C 
ENDBRANCH  12  13
ENDBRANCH  11  12
ENDBRANCH  10  11
ENDBRANCH   9  10
ENDBRANCH   1   9
TORSDOF 10
ENDMDL
MODEL 4
REMARK VINA RESULT:    -4.606      3.120      3.771
REMARK INTER + INTRA:          -8.874
REMARK INTER:                  -7.560
REMARK INTRA:                  -1.314
REMARK UNBOUND:                -1.575
REMARK SMILES CCCCCCCCCCCC(=O)[O-]
REMARK SMILES IDX 7 1 8 2 9 3 10 4 11 5 12 6 13 7 14 8 6 9 5 10 4 11 3 12 2 13
REMARK SMILES IDX 1 14
REMARK H PARENT
REMARK Flexibility Score: inf
ROOT
ATOM      1  C   UNL     1      30.169  30.459  17.179  1.00  0.00     0.000 C 
ENDROOT
BRANCH   1   2
ATOM      2  C   UNL     1      29.504  30.649  15.807  1.00  0.00     0.000 C 
BRANCH   2   3
ATOM      3  C   UNL     1      29.427  29.346  14.991  1.00  0.00     0.000 C 
BRANCH   3   4
ATOM      4  C   UNL     1      30.036  28.110  15.679  1.00  0.00     0.006 C 
BRANCH   4   5
ATOM      5  C   UNL     1      29.667  26.795  14.982  1.00  0.00     0.053 C 
BRANCH   5   6
ATOM      6  C   UNL     1      28.433  26.210  15.593  1.00  0.00     0.041 C 
ATOM      7  O   UNL     1      28.526  25.347  16.505  1.00  0.00    -0.550 OA
ATOM      8  O   UNL     1      27.180  26.582  15.121  1.00  0.00    -0.550 OA
ENDBRANCH   5   6
ENDBRANCH   4   5
ENDBRANCH   3   4
ENDBRANCH   2   3
ENDBRANCH   1   2
BRANCH   1   9
ATOM      9  C   UNL     1      31.396  31.366  17.325  1.00  0.00     0.000 C 
BRANCH   9  10
ATOM     10  C   UNL     1      31.762  32.019  15.987  1.00  0.00    -0.000 C 
BRANCH  10  11
ATOM     11  C   UNL     1      33.060  31.424  15.422  1.00  0.00    -0.000 C 
BRANCH  11  12
ATOM     12  C   UNL     1      33.391  30.040  16.010  1.00  0.00    -0.000 C 
BRANCH  12  13
ATOM     13  C   UNL     1      33.623  28.933  14.966  1.00  0.00    -0.003 C 
ATOM     14  C   UNL     1      32.840  29.156  13.672  1.00  0.00     0.004 C 
ENDBRANCH  12  13
ENDBRANCH  11  12
ENDBRANCH  10  11
ENDBRANCH   9  10
ENDBRANCH   1   9
TORSDOF 10
ENDMDL
MODEL 5
REMARK VINA RESULT:    -4.525      1.145      3.280
REMARK INTER + INTRA:          -8.745
REMARK INTER:                  -7.063
REMARK INTRA:                  -1.681
REMARK UNBOUND:                -1.575
REMARK SMILES CCCCCCCCCCCC(=O)[O-]
REMARK SMILES IDX 7 1 8 2 9 3 10 4 11 5 12 6 13 7 14 8 6 9 5 10 4 11 3 12 2 13
REMARK SMILES IDX 1 14
REMARK H PARENT
REMARK Flexibility Score: inf
ROOT
ATOM      1  C   UNL     1      31.306  27.611  14.879  1.00  0.00     0.000 C 
ENDROOT
BRANCH   1   2
ATOM      2  C   UNL     1      32.659  28.230  15.260  1.00  0.00     0.000 C 
BRANCH   2   3
ATOM      3  C   UNL     1      33.226  29.156  14.169  1.00  0.00     0.000 C 
BRANCH   3   4
ATOM      4  C   UNL     1      32.386  29.233  12.881  1.00  0.00     0.006 C 
BRANCH   4   5
ATOM      5  C   UNL     1      31.860  30.645  12.595  1.00  0.00     0.053 C 
BRANCH   5   6
ATOM      6  C   UNL     1      30.865  30.615  11.478  1.00  0.00     0.041 C 
ATOM      7  O   UNL     1      29.768  31.222  11.591  1.00  0.00    -0.550 OA
ATOM      8  O   UNL     1      31.130  29.876  10.332  1.00  0.00    -0.550 OA
ENDBRANCH   5   6
ENDBRANCH   4   5
ENDBRANCH   3   4
ENDBRANCH   2   3
ENDBRANCH   1   2
BRANCH   1   9
ATOM      9  C   UNL     1      30.179  28.168  15.757  1.00  0.00     0.000 C 
BRANCH   9  10
ATOM     10  C   UNL     1      29.386  29.251  15.016  1.00  0.00    -0.000 C 
BRANCH  10  11
ATOM     11  C   UNL     1      29.705  30.646  15.575  1.00  0.00    -0.000 C 
BRANCH  11  12
ATOM     12  C   UNL     1      30.344  30.599  16.975  1.00  0.00    -0.000 C 
BRANCH  12  13
ATOM     13  C   UNL     1      31.657  31.389  17.113  1.00  0.00    -0.003 C 
ATOM     14  C   UNL     1      31.946  32.285  15.909  1.00  0.00     0.004 C 
ENDBRANCH  12  13
ENDBRANCH  11  12
ENDBRANCH  10  11
ENDBRANCH   9  10
ENDBRANCH   1   9
TORSDOF 10
ENDMDL
MODEL 6
REMARK VINA RESULT:    -4.513      0.684      2.540
REMARK INTER + INTRA:          -8.727
REMARK INTER:                  -7.129
REMARK INTRA:                  -1.598
REMARK UNBOUND:                -1.575
REMARK SMILES CCCCCCCCCCCC(=O)[O-]
REMARK SMILES IDX 7 1 8 2 9 3 10 4 11 5 12 6 13 7 14 8 6 9 5 10 4 11 3 12 2 13
REMARK SMILES IDX 1 14
REMARK H PARENT
REMARK Flexibility Score: inf
ROOT
ATOM      1  C   UNL     1      31.287  27.564  14.630  1.00  0.00     0.000 C 
ENDROOT
BRANCH   1   2
ATOM      2  C   UNL     1      30.212  28.036  15.621  1.00  0.00     0.000 C 
BRANCH   2   3
ATOM      3  C   UNL     1      29.491  29.315  15.161  1.00  0.00     0.000 C 
BRANCH   3   4
ATOM      4  C   UNL     1      29.496  29.554  13.640  1.00  0.00     0.006 C 
BRANCH   4   5
ATOM      5  C   UNL     1      29.864  30.994  13.263  1.00  0.00     0.053 C 
BRANCH   5   6
ATOM      6  C   UNL     1      30.574  31.024  11.946  1.00  0.00     0.041 C 
ATOM      7  O   UNL     1      29.920  31.126  10.875  1.00  0.00    -0.550 OA
ATOM      8  O   UNL     1      31.956  30.890  11.899  1.00  0.00    -0.550 OA
ENDBRANCH   5   6
ENDBRANCH   4   5
ENDBRANCH   3   4
ENDBRANCH   2   3
ENDBRANCH   1   2
BRANCH   1   9
ATOM      9  C   UNL     1      32.692  27.747  15.214  1.00  0.00     0.000 C 
BRANCH   9  10
ATOM     10  C   UNL     1      33.319  29.064  14.740  1.00  0.00    -0.000 C 
BRANCH  10  11
ATOM     11  C   UNL     1      33.353  30.096  15.877  1.00  0.00    -0.000 C 
BRANCH  11  12
ATOM     12  C   UNL     1      32.770  31.461  15.466  1.00  0.00    -0.000 C 
BRANCH  12  13
ATOM     13  C   UNL     1      31.751  32.053  16.456  1.00  0.00    -0.003 C 
ATOM     14  C   UNL     1      31.423  31.110  17.613  1.00  0.00     0.004 C 
ENDBRANCH  12  13
ENDBRANCH  11  12
ENDBRANCH  10  11
ENDBRANCH   9  10
ENDBRANCH   1   9
TORSDOF 10
ENDMDL
MODEL 7
REMARK VINA RESULT:    -4.496      1.854      3.581
REMARK INTER + INTRA:          -8.699
REMARK INTER:                  -7.438
REMARK INTRA:                  -1.261
REMARK UNBOUND:                -1.575
REMARK SMILES CCCCCCCCCCCC(=O)[O-]
REMARK SMILES IDX 7 1 8 2 9 3 10 4 11 5 12 6 13 7 14 8 6 9 5 10 4 11 3 12 2 13
REMARK SMILES IDX 1 14
REMARK H PARENT
REMARK Flexibility Score: inf
ROOT
ATOM      1  C   UNL     1      33.019  31.515  15.444  1.00  0.00     0.000 C 
ENDROOT
BRANCH   1   2
ATOM      2  C   UNL     1      31.813  32.122  16.176  1.00  0.00     0.000 C 
BRANCH   2   3
ATOM      3  C   UNL     1      31.159  31.144  17.169  1.00  0.00     0.000 C 
BRANCH   3   4
ATOM      4  C   UNL     1      29.933  30.387  16.626  1.00  0.00     0.006 C 
BRANCH   4   5
ATOM      5  C   UNL     1      29.430  30.946  15.290  1.00  0.00     0.053 C 
BRANCH   5   6
ATOM      6  C   UNL     1      28.805  29.860  14.473  1.00  0.00     0.041 C 
ATOM      7  O   UNL     1      28.912  28.657  14.829  1.00  0.00    -0.550 OA
ATOM      8  O   UNL     1      28.144  30.172  13.291  1.00  0.00    -0.550 OA
ENDBRANCH   5   6
ENDBRANCH   4   5
ENDBRANCH   3   4
ENDBRANCH   2   3
ENDBRANCH   1   2
BRANCH   1   9
ATOM      9  C   UNL     1      33.460  30.203  16.103  1.00  0.00     0.000 C 
BRANCH   9  10
ATOM     10  C   UNL     1      33.655  29.099  15.057  1.00  0.00    -0.000 C 
BRANCH  10  11
ATOM     11  C   UNL     1      32.355  28.841  14.282  1.00  0.00    -0.000 C 
BRANCH  11  12
ATOM     12  C   UNL     1      32.513  29.041  12.763  1.00  0.00    -0.000 C 
BRANCH  12  13
ATOM     13  C   UNL     1      31.807  30.286  12.197  1.00  0.00    -0.003 C 
ATOM     14  C   UNL     1      32.345  30.712  10.832  1.00  0.00     0.004 C 
ENDBRANCH  12  13
ENDBRANCH  11  12
ENDBRANCH  10  11
ENDBRANCH   9  10
ENDBRANCH   1   9
TORSDOF 10
ENDMDL
MODEL 8
REMARK VINA RESULT:    -4.490      1.232      2.434
REMARK INTER + INTRA:          -8.689
REMARK INTER:                  -7.163
REMARK INTRA:                  -1.527
REMARK UNBOUND:                -1.575
REMARK SMILES CCCCCCCCCCCC(=O)[O-]
REMARK SMILES IDX 7 1 8 2 9 3 10 4 11 5 12 6 13 7 14 8 6 9 5 10 4 11 3 12 2 13
REMARK SMILES IDX 1 14
REMARK H PARENT
REMARK Flexibility Score: inf
ROOT
ATOM      1  C   UNL     1      32.073  31.928  16.179  1.00  0.00     0.000 C 
ENDROOT
BRANCH   1   2
ATOM      2  C   UNL     1      31.395  31.061  17.250  1.00  0.00     0.000 C 
BRANCH   2   3
ATOM      3  C   UNL     1      30.087  30.414  16.759  1.00  0.00     0.000 C 
BRANCH   3   4
ATOM      4  C   UNL     1      29.501  31.025  15.474  1.00  0.00     0.006 C 
BRANCH   4   5
ATOM      5  C   UNL     1      28.985  29.968  14.490  1.00  0.00     0.053 C 
BRANCH   5   6
ATOM      6  C   UNL     1      29.349  30.339  13.088  1.00  0.00     0.041 C 
ATOM      7  O   UNL     1      29.544  31.545  12.781  1.00  0.00    -0.550 OA
ATOM      8  O   UNL     1      29.425  29.358  12.106  1.00  0.00    -0.550 OA
ENDBRANCH   5   6
ENDBRANCH   4   5
ENDBRANCH   3   4
ENDBRANCH   2   3
ENDBRANCH   1   2
BRANCH   1   9
ATOM      9  C   UNL     1      33.135  31.130  15.415  1.00  0.00     0.000 C 
BRANCH   9  10
ATOM     10  C   UNL     1      33.586  29.904  16.217  1.00  0.00    -0.000 C 
BRANCH  10  11
ATOM     11  C   UNL     1      33.699  28.666  15.314  1.00  0.00    -0.000 C 
BRANCH  11  12
ATOM     12  C   UNL     1      32.749  28.720  14.103  1.00  0.00    -0.000 C 
BRANCH  12  13
ATOM     13  C   UNL     1      31.726  27.572  14.032  1.00  0.00    -0.003 C 
ATOM     14  C   UNL     1      31.247  27.111  15.408  1.00  0.00     0.004 C 
ENDBRANCH  12  13
ENDBRANCH  11  12
ENDBRANCH  10  11
ENDBRANCH   9  10
ENDBRANCH   1   9
TORSDOF 10
ENDMDL
MODEL 9
REMARK VINA RESULT:    -4.434      2.905      4.781
REMARK INTER + INTRA:          -8.601
REMARK INTER:                  -7.514
REMARK INTRA:                  -1.087
REMARK UNBOUND:                -1.575
REMARK SMILES CCCCCCCCCCCC(=O)[O-]
REMARK SMILES IDX 7 1 8 2 9 3 10 4 11 5 12 6 13 7 14 8 6 9 5 10 4 11 3 12 2 13
REMARK SMILES IDX 1 14
REMARK H PARENT
REMARK Flexibility Score: inf
ROOT
ATOM      1  C   UNL     1      30.627  30.637  16.947  1.00  0.00     0.000 C 
ENDROOT
BRANCH   1   2
ATOM      2  C   UNL     1      31.647  31.755  16.683  1.00  0.00     0.000 C 
BRANCH   2   3
ATOM      3  C   UNL     1      32.770  31.329  15.720  1.00  0.00     0.000 C 
BRANCH   3   4
ATOM      4  C   UNL     1      33.432  29.979  16.049  1.00  0.00     0.006 C 
BRANCH   4   5
ATOM      5  C   UNL     1      33.561  29.064  14.825  1.00  0.00     0.053 C 
BRANCH   5   6
ATOM      6  C   UNL     1      34.107  27.730  15.226  1.00  0.00     0.041 C 
ATOM      7  O   UNL     1      33.651  27.137  16.239  1.00  0.00    -0.550 OA
ATOM      8  O   UNL     1      35.154  27.163  14.509  1.00  0.00    -0.550 OA
ENDBRANCH   5   6
ENDBRANCH   4   5
ENDBRANCH   3   4
ENDBRANCH   2   3
ENDBRANCH   1   2
BRANCH   1   9
ATOM      9  C   UNL     1      29.545  30.613  15.862  1.00  0.00     0.000 C 
BRANCH   9  10
ATOM     10  C   UNL     1      29.630  29.330  15.027  1.00  0.00    -0.000 C 
BRANCH  10  11
ATOM     11  C   UNL     1      30.238  28.181  15.845  1.00  0.00    -0.000 C 
BRANCH  11  12
ATOM     12  C   UNL     1      29.938  26.794  15.246  1.00  0.00    -0.000 C 
BRANCH  12  13
ATOM     13  C   UNL     1      28.800  26.024  15.938  1.00  0.00    -0.003 C 
ATOM     14  C   UNL     1      27.440  26.239  15.275  1.00  0.00     0.004 C 
ENDBRANCH  12  13
ENDBRANCH  11  12
ENDBRANCH  10  11
ENDBRANCH   9  10
ENDBRANCH   1   9
TORSDOF 10
ENDMDL
