MODEL 1
REMARK VINA RESULT:    -4.559      0.000      0.000
REMARK INTER + INTRA:          -4.559
REMARK INTER:                  -4.559
REMARK INTRA:                   0.000
REMARK UNBOUND:                 0.000
REMARK SMILES CC1(C)C(=O)[C@]2(C)CC[C@H]1C2
REMARK SMILES IDX 1 1 2 2 10 3 9 4 8 5 6 6 11 7 4 8 5 9 7 10 3 11
REMARK H PARENT
REMARK Flexibility Score: inf
ROOT
ATOM      1  C   UNL     1     106.269 107.517 103.344  1.00  0.00     0.020 C 
ATOM      2  C   UNL     1     106.994 106.273 103.901  1.00  0.00     0.027 C 
ATOM      3  C   UNL     1     106.050 105.241 104.616  1.00  0.00     0.003 C 
ATOM      4  C   UNL     1     104.802 104.931 103.749  1.00  0.00     0.005 C 
ATOM      5  C   UNL     1     105.394 104.153 102.552  1.00  0.00     0.015 C 
ATOM      6  C   UNL     1     106.882 104.030 102.933  1.00  0.00     0.027 C 
ATOM      7  C   UNL     1     106.802 103.922 104.443  1.00  0.00     0.019 C 
ATOM      8  C   UNL     1     107.502 105.392 102.796  1.00  0.00     0.144 C 
ATOM      9  O   UNL     1     108.239 105.750 101.889  1.00  0.00    -0.298 OA
ATOM     10  C   UNL     1     107.642 102.892 102.249  1.00  0.00     0.020 C 
ATOM     11  C   UNL     1     108.143 106.727 104.826  1.00  0.00     0.020 C 
ENDROOT
TORSDOF 0
ENDMDL
MODEL 2
REMARK VINA RESULT:    -4.493      1.979      4.056
REMARK INTER + INTRA:          -4.493
REMARK INTER:                  -4.493
REMARK INTRA:                   0.000
REMARK UNBOUND:                 0.000
REMARK SMILES CC1(C)C(=O)[C@]2(C)CC[C@H]1C2
REMARK SMILES IDX 1 1 2 2 10 3 9 4 8 5 6 6 11 7 4 8 5 9 7 10 3 11
REMARK H PARENT
REMARK Flexibility Score: inf
ROOT
ATOM      1  C   UNL     1     105.734 104.447 103.460  1.00  0.00     0.020 C 
ATOM      2  C   UNL     1     104.976 105.665 104.032  1.00  0.00     0.027 C 
ATOM      3  C   UNL     1     105.888 106.694 104.792  1.00  0.00     0.003 C 
ATOM      4  C   UNL     1     107.147 107.047 103.959  1.00  0.00     0.005 C 
ATOM      5  C   UNL     1     106.566 107.845 102.770  1.00  0.00     0.015 C 
ATOM      6  C   UNL     1     105.069 107.934 103.124  1.00  0.00     0.027 C 
ATOM      7  C   UNL     1     105.117 108.004 104.637  1.00  0.00     0.019 C 
ATOM      8  C   UNL     1     104.476 106.565 102.939  1.00  0.00     0.144 C 
ATOM      9  O   UNL     1     103.763 106.218 102.009  1.00  0.00    -0.298 OA
ATOM     10  C   UNL     1     104.303 109.075 102.453  1.00  0.00     0.020 C 
ATOM     11  C   UNL     1     103.817 105.167 104.921  1.00  0.00     0.020 C 
ENDROOT
TORSDOF 0
ENDMDL
MODEL 3
REMARK VINA RESULT:    -4.492      1.631      2.878
REMARK INTER + INTRA:          -4.492
REMARK INTER:                  -4.492
REMARK INTRA:                   0.000
REMARK UNBOUND:                 0.000
REMARK SMILES CC1(C)C(=O)[C@]2(C)CC[C@H]1C2
REMARK SMILES IDX 1 1 2 2 10 3 9 4 8 5 6 6 11 7 4 8 5 9 7 10 3 11
REMARK H PARENT
REMARK Flexibility Score: inf
ROOT
ATOM      1  C   UNL     1     107.528 105.745 103.416  1.00  0.00     0.020 C 
ATOM      2  C   UNL     1     106.273 105.013 103.940  1.00  0.00     0.027 C 
ATOM      3  C   UNL     1     105.249 105.941 104.687  1.00  0.00     0.003 C 
ATOM      4  C   UNL     1     104.957 107.225 103.869  1.00  0.00     0.005 C 
ATOM      5  C   UNL     1     104.177 106.689 102.647  1.00  0.00     0.015 C 
ATOM      6  C   UNL     1     104.035 105.189 102.970  1.00  0.00     0.027 C 
ATOM      7  C   UNL     1     103.922 105.212 104.481  1.00  0.00     0.019 C 
ATOM      8  C   UNL     1     105.390 104.559 102.813  1.00  0.00     0.144 C 
ATOM      9  O   UNL     1     105.744 103.853 101.880  1.00  0.00    -0.298 OA
ATOM     10  C   UNL     1     102.891 104.470 102.253  1.00  0.00     0.020 C 
ATOM     11  C   UNL     1     106.711 103.825 104.821  1.00  0.00     0.020 C 
ENDROOT
TORSDOF 0
ENDMDL
MODEL 4
REMARK VINA RESULT:    -4.458      1.954      3.565
REMARK INTER + INTRA:          -4.458
REMARK INTER:                  -4.458
REMARK INTRA:                   0.000
REMARK UNBOUND:                 0.000
REMARK SMILES CC1(C)C(=O)[C@]2(C)CC[C@H]1C2
REMARK SMILES IDX 1 1 2 2 10 3 9 4 8 5 6 6 11 7 4 8 5 9 7 10 3 11
REMARK H PARENT
REMARK Flexibility Score: inf
ROOT
ATOM      1  C   UNL     1     103.905 105.238 104.381  1.00  0.00     0.020 C 
ATOM      2  C   UNL     1     104.404 105.901 103.078  1.00  0.00     0.027 C 
ATOM      3  C   UNL     1     104.497 107.467 103.145  1.00  0.00     0.003 C 
ATOM      4  C   UNL     1     105.232 107.929 104.430  1.00  0.00     0.005 C 
ATOM      5  C   UNL     1     106.686 107.462 104.187  1.00  0.00     0.015 C 
ATOM      6  C   UNL     1     106.620 106.886 102.760  1.00  0.00     0.027 C 
ATOM      7  C   UNL     1     105.582 107.783 102.116  1.00  0.00     0.019 C 
ATOM      8  C   UNL     1     105.853 105.595 102.825  1.00  0.00     0.144 C 
ATOM      9  O   UNL     1     106.337 104.475 102.759  1.00  0.00    -0.298 OA
ATOM     10  C   UNL     1     107.956 106.817 102.019  1.00  0.00     0.020 C 
ATOM     11  C   UNL     1     103.521 105.434 101.902  1.00  0.00     0.020 C 
ENDROOT
TORSDOF 0
ENDMDL
MODEL 5
REMARK VINA RESULT:    -4.451      1.595      2.794
REMARK INTER + INTRA:          -4.451
REMARK INTER:                  -4.451
REMARK INTRA:                   0.000
REMARK UNBOUND:                 0.000
REMARK SMILES CC1(C)C(=O)[C@]2(C)CC[C@H]1C2
REMARK SMILES IDX 1 1 2 2 10 3 9 4 8 5 6 6 11 7 4 8 5 9 7 10 3 11
REMARK H PARENT
REMARK Flexibility Score: inf
ROOT
ATOM      1  C   UNL     1     104.473 106.206 103.645  1.00  0.00     0.020 C 
ATOM      2  C   UNL     1     105.762 106.941 104.073  1.00  0.00     0.027 C 
ATOM      3  C   UNL     1     106.837 106.017 104.750  1.00  0.00     0.003 C 
ATOM      4  C   UNL     1     107.070 104.729 103.920  1.00  0.00     0.005 C 
ATOM      5  C   UNL     1     107.761 105.258 102.642  1.00  0.00     0.015 C 
ATOM      6  C   UNL     1     107.925 106.759 102.946  1.00  0.00     0.027 C 
ATOM      7  C   UNL     1     108.146 106.745 104.444  1.00  0.00     0.019 C 
ATOM      8  C   UNL     1     106.561 107.388 102.882  1.00  0.00     0.144 C 
ATOM      9  O   UNL     1     106.142 108.089 101.973  1.00  0.00    -0.298 OA
ATOM     10  C   UNL     1     109.014 107.474 102.144  1.00  0.00     0.020 C 
ATOM     11  C   UNL     1     105.388 108.135 104.976  1.00  0.00     0.020 C 
ENDROOT
TORSDOF 0
ENDMDL
MODEL 6
REMARK VINA RESULT:    -4.450      1.390      3.259
REMARK INTER + INTRA:          -4.450
REMARK INTER:                  -4.450
REMARK INTRA:                   0.000
REMARK UNBOUND:                 0.000
REMARK SMILES CC1(C)C(=O)[C@]2(C)CC[C@H]1C2
REMARK SMILES IDX 1 1 2 2 10 3 9 4 8 5 6 6 11 7 4 8 5 9 7 10 3 11
REMARK H PARENT
REMARK Flexibility Score: inf
ROOT
ATOM      1  C   UNL     1     106.731 103.869 104.363  1.00  0.00     0.020 C 
ATOM      2  C   UNL     1     106.083 104.400 103.065  1.00  0.00     0.027 C 
ATOM      3  C   UNL     1     104.517 104.508 103.123  1.00  0.00     0.003 C 
ATOM      4  C   UNL     1     104.052 105.221 104.419  1.00  0.00     0.005 C 
ATOM      5  C   UNL     1     104.536 106.674 104.209  1.00  0.00     0.015 C 
ATOM      6  C   UNL     1     105.122 106.632 102.785  1.00  0.00     0.027 C 
ATOM      7  C   UNL     1     104.220 105.617 102.114  1.00  0.00     0.019 C 
ATOM      8  C   UNL     1     106.405 105.851 102.844  1.00  0.00     0.144 C 
ATOM      9  O   UNL     1     107.530 106.325 102.797  1.00  0.00    -0.298 OA
ATOM     10  C   UNL     1     105.210 107.982 102.072  1.00  0.00     0.020 C 
ATOM     11  C   UNL     1     106.550 103.536 101.875  1.00  0.00     0.020 C 
ENDROOT
TORSDOF 0
ENDMDL
MODEL 7
REMARK VINA RESULT:    -4.440      1.690      2.928
REMARK INTER + INTRA:          -4.440
REMARK INTER:                  -4.440
REMARK INTRA:                   0.000
REMARK UNBOUND:                 0.000
REMARK SMILES CC1(C)C(=O)[C@]2(C)CC[C@H]1C2
REMARK SMILES IDX 1 1 2 2 10 3 9 4 8 5 6 6 11 7 4 8 5 9 7 10 3 11
REMARK H PARENT
REMARK Flexibility Score: inf
ROOT
ATOM      1  C   UNL     1     105.250 108.056 104.360  1.00  0.00     0.020 C 
ATOM      2  C   UNL     1     105.832 107.568 103.015  1.00  0.00     0.027 C 
ATOM      3  C   UNL     1     107.401 107.494 102.980  1.00  0.00     0.003 C 
ATOM      4  C   UNL     1     107.955 106.763 104.229  1.00  0.00     0.005 C 
ATOM      5  C   UNL     1     107.491 105.304 104.014  1.00  0.00     0.015 C 
ATOM      6  C   UNL     1     106.822 105.366 102.627  1.00  0.00     0.027 C 
ATOM      7  C   UNL     1     107.662 106.416 101.929  1.00  0.00     0.019 C 
ATOM      8  C   UNL     1     105.529 106.116 102.779  1.00  0.00     0.144 C 
ATOM      9  O   UNL     1     104.413 105.617 102.785  1.00  0.00    -0.298 OA
ATOM     10  C   UNL     1     106.722 104.030 101.888  1.00  0.00     0.020 C 
ATOM     11  C   UNL     1     105.278 108.448 101.875  1.00  0.00     0.020 C 
ENDROOT
TORSDOF 0
ENDMDL
MODEL 8
REMARK VINA RESULT:    -4.430      1.476      2.533
REMARK INTER + INTRA:          -4.430
REMARK INTER:                  -4.430
REMARK INTRA:                   0.000
REMARK UNBOUND:                 0.000
REMARK SMILES CC1(C)C(=O)[C@]2(C)CC[C@H]1C2
REMARK SMILES IDX 1 1 2 2 10 3 9 4 8 5 6 6 11 7 4 8 5 9 7 10 3 11
REMARK H PARENT
REMARK Flexibility Score: inf
ROOT
ATOM      1  C   UNL     1     108.085 106.753 104.363  1.00  0.00     0.020 C 
ATOM      2  C   UNL     1     107.581 106.167 103.026  1.00  0.00     0.027 C 
ATOM      3  C   UNL     1     107.485 104.599 103.003  1.00  0.00     0.003 C 
ATOM      4  C   UNL     1     106.754 104.065 104.261  1.00  0.00     0.005 C 
ATOM      5  C   UNL     1     105.300 104.548 104.050  1.00  0.00     0.015 C 
ATOM      6  C   UNL     1     105.363 105.205 102.658  1.00  0.00     0.027 C 
ATOM      7  C   UNL     1     106.397 104.345 101.961  1.00  0.00     0.019 C 
ATOM      8  C   UNL     1     106.133 106.489 102.795  1.00  0.00     0.144 C 
ATOM      9  O   UNL     1     105.650 107.612 102.796  1.00  0.00    -0.298 OA
ATOM     10  C   UNL     1     104.024 105.319 101.926  1.00  0.00     0.020 C 
ATOM     11  C   UNL     1     108.462 106.700 101.876  1.00  0.00     0.020 C 
ENDROOT
TORSDOF 0
ENDMDL
MODEL 9
REMARK VINA RESULT:    -4.415      2.101      3.573
REMARK INTER + INTRA:          -4.415
REMARK INTER:                  -4.415
REMARK INTRA:                   0.000
REMARK UNBOUND:                 0.000
REMARK SMILES CC1(C)C(=O)[C@]2(C)CC[C@H]1C2
REMARK SMILES IDX 1 1 2 2 10 3 9 4 8 5 6 6 11 7 4 8 5 9 7 10 3 11
REMARK H PARENT
REMARK Flexibility Score: inf
ROOT
ATOM      1  C   UNL     1     105.318 108.001 101.875  1.00  0.00     0.020 C 
ATOM      2  C   UNL     1     105.723 106.870 102.846  1.00  0.00     0.027 C 
ATOM      3  C   UNL     1     106.935 106.000 102.354  1.00  0.00     0.003 C 
ATOM      4  C   UNL     1     108.107 106.894 101.875  1.00  0.00     0.005 C 
ATOM      5  C   UNL     1     108.603 107.549 103.185  1.00  0.00     0.015 C 
ATOM      6  C   UNL     1     107.723 106.873 104.253  1.00  0.00     0.027 C 
ATOM      7  C   UNL     1     107.535 105.490 103.664  1.00  0.00     0.019 C 
ATOM      8  C   UNL     1     106.330 107.418 104.106  1.00  0.00     0.144 C 
ATOM      9  O   UNL     1     105.802 108.233 104.848  1.00  0.00    -0.298 OA
ATOM     10  C   UNL     1     108.287 106.894 105.675  1.00  0.00     0.020 C 
ATOM     11  C   UNL     1     104.486 106.000 103.154  1.00  0.00     0.020 C 
ENDROOT
TORSDOF 0
ENDMDL
