MODEL 1
REMARK VINA RESULT:    -4.554      0.000      0.000
REMARK INTER + INTRA:          -7.955
REMARK INTER:                  -7.216
REMARK INTRA:                  -0.739
REMARK UNBOUND:                -0.739
REMARK SMILES CCCCCCCCCCCC(=O)[O-]
REMARK SMILES IDX 7 1 8 2 9 3 10 4 11 5 12 6 13 7 14 8 6 9 5 10 4 11 3 12 2 13
REMARK SMILES IDX 1 14
REMARK H PARENT
REMARK Flexibility Score: inf
ROOT
ATOM      1  C   UNL     1      14.191 -32.595  20.967  1.00  0.00     0.000 C 
ENDROOT
BRANCH   1   2
ATOM      2  C   UNL     1      14.500 -33.688  19.921  1.00  0.00     0.000 C 
BRANCH   2   3
ATOM      3  C   UNL     1      15.517 -34.719  20.443  1.00  0.00     0.000 C 
BRANCH   3   4
ATOM      4  C   UNL     1      16.597 -35.072  19.401  1.00  0.00     0.006 C 
BRANCH   4   5
ATOM      5  C   UNL     1      17.440 -33.866  18.953  1.00  0.00     0.053 C 
BRANCH   5   6
ATOM      6  C   UNL     1      18.013 -33.104  20.107  1.00  0.00     0.041 C 
ATOM      7  O   UNL     1      17.731 -31.886  20.264  1.00  0.00    -0.550 OA
ATOM      8  O   UNL     1      18.859 -33.737  21.008  1.00  0.00    -0.550 OA
ENDBRANCH   5   6
ENDBRANCH   4   5
ENDBRANCH   3   4
ENDBRANCH   2   3
ENDBRANCH   1   2
BRANCH   1   9
ATOM      9  C   UNL     1      14.949 -32.777  22.294  1.00  0.00     0.000 C 
BRANCH   9  10
ATOM     10  C   UNL     1      14.159 -32.260  23.508  1.00  0.00    -0.000 C 
BRANCH  10  11
ATOM     11  C   UNL     1      13.173 -31.140  23.135  1.00  0.00    -0.000 C 
BRANCH  11  12
ATOM     12  C   UNL     1      13.585 -29.776  23.717  1.00  0.00    -0.000 C 
BRANCH  12  13
ATOM     13  C   UNL     1      12.399 -28.805  23.835  1.00  0.00    -0.003 C 
ATOM     14  C   UNL     1      12.754 -27.524  24.589  1.00  0.00     0.004 C 
ENDBRANCH  12  13
ENDBRANCH  11  12
ENDBRANCH  10  11
ENDBRANCH   9  10
ENDBRANCH   1   9
TORSDOF 10
ENDMDL
MODEL 2
REMARK VINA RESULT:    -4.477      3.041      6.243
REMARK INTER + INTRA:          -7.833
REMARK INTER:                  -6.885
REMARK INTRA:                  -0.948
REMARK UNBOUND:                -0.739
REMARK SMILES CCCCCCCCCCCC(=O)[O-]
REMARK SMILES IDX 7 1 8 2 9 3 10 4 11 5 12 6 13 7 14 8 6 9 5 10 4 11 3 12 2 13
REMARK SMILES IDX 1 14
REMARK H PARENT
REMARK Flexibility Score: inf
ROOT
ATOM      1  C   UNL     1      14.986 -33.652  21.505  1.00  0.00     0.000 C 
ENDROOT
BRANCH   1   2
ATOM      2  C   UNL     1      14.378 -32.287  21.892  1.00  0.00     0.000 C 
BRANCH   2   3
ATOM      3  C   UNL     1      13.342 -31.800  20.863  1.00  0.00     0.000 C 
BRANCH   3   4
ATOM      4  C   UNL     1      12.424 -30.693  21.418  1.00  0.00     0.006 C 
BRANCH   4   5
ATOM      5  C   UNL     1      12.836 -30.192  22.814  1.00  0.00     0.053 C 
BRANCH   5   6
ATOM      6  C   UNL     1      12.390 -28.788  23.076  1.00  0.00     0.041 C 
ATOM      7  O   UNL     1      13.233 -27.853  23.120  1.00  0.00    -0.550 OA
ATOM      8  O   UNL     1      11.044 -28.510  23.273  1.00  0.00    -0.550 OA
ENDBRANCH   5   6
ENDBRANCH   4   5
ENDBRANCH   3   4
ENDBRANCH   2   3
ENDBRANCH   1   2
BRANCH   1   9
ATOM      9  C   UNL     1      14.959 -33.933  19.992  1.00  0.00     0.000 C 
BRANCH   9  10
ATOM     10  C   UNL     1      16.253 -34.593  19.485  1.00  0.00    -0.000 C 
BRANCH  10  11
ATOM     11  C   UNL     1      17.373 -33.572  19.225  1.00  0.00    -0.000 C 
BRANCH  11  12
ATOM     12  C   UNL     1      18.485 -33.636  20.287  1.00  0.00    -0.000 C 
BRANCH  12  13
ATOM     13  C   UNL     1      18.693 -32.291  21.002  1.00  0.00    -0.003 C 
ATOM     14  C   UNL     1      17.726 -31.208  20.523  1.00  0.00     0.004 C 
ENDBRANCH  12  13
ENDBRANCH  11  12
ENDBRANCH  10  11
ENDBRANCH   9  10
ENDBRANCH   1   9
TORSDOF 10
ENDMDL
MODEL 3
REMARK VINA RESULT:    -4.450      1.843      2.736
REMARK INTER + INTRA:          -7.790
REMARK INTER:                  -6.885
REMARK INTRA:                  -0.905
REMARK UNBOUND:                -0.739
REMARK SMILES CCCCCCCCCCCC(=O)[O-]
REMARK SMILES IDX 7 1 8 2 9 3 10 4 11 5 12 6 13 7 14 8 6 9 5 10 4 11 3 12 2 13
REMARK SMILES IDX 1 14
REMARK H PARENT
REMARK Flexibility Score: inf
ROOT
ATOM      1  C   UNL     1      16.570 -30.677  23.193  1.00  0.00     0.000 C 
ENDROOT
BRANCH   1   2
ATOM      2  C   UNL     1      15.932 -32.069  23.387  1.00  0.00     0.000 C 
BRANCH   2   3
ATOM      3  C   UNL     1      16.233 -33.014  22.210  1.00  0.00     0.000 C 
BRANCH   3   4
ATOM      4  C   UNL     1      14.967 -33.696  21.655  1.00  0.00     0.006 C 
BRANCH   4   5
ATOM      5  C   UNL     1      14.905 -33.725  20.118  1.00  0.00     0.053 C 
BRANCH   5   6
ATOM      6  C   UNL     1      16.004 -34.542  19.513  1.00  0.00     0.041 C 
ATOM      7  O   UNL     1      16.859 -33.999  18.765  1.00  0.00    -0.550 OA
ATOM      8  O   UNL     1      16.084 -35.904  19.774  1.00  0.00    -0.550 OA
ENDBRANCH   5   6
ENDBRANCH   4   5
ENDBRANCH   3   4
ENDBRANCH   2   3
ENDBRANCH   1   2
BRANCH   1   9
ATOM      9  C   UNL     1      15.548 -29.566  22.893  1.00  0.00     0.000 C 
BRANCH   9  10
ATOM     10  C   UNL     1      14.552 -29.954  21.787  1.00  0.00    -0.000 C 
BRANCH  10  11
ATOM     11  C   UNL     1      13.114 -30.097  22.312  1.00  0.00    -0.000 C 
BRANCH  11  12
ATOM     12  C   UNL     1      12.970 -29.625  23.770  1.00  0.00    -0.000 C 
BRANCH  12  13
ATOM     13  C   UNL     1      12.085 -28.375  23.899  1.00  0.00    -0.003 C 
ATOM     14  C   UNL     1      12.679 -27.321  24.833  1.00  0.00     0.004 C 
ENDBRANCH  12  13
ENDBRANCH  11  12
ENDBRANCH  10  11
ENDBRANCH   9  10
ENDBRANCH   1   9
TORSDOF 10
ENDMDL
MODEL 4
REMARK VINA RESULT:    -4.439      2.103      3.085
REMARK INTER + INTRA:          -7.774
REMARK INTER:                  -6.698
REMARK INTRA:                  -1.076
REMARK UNBOUND:                -0.739
REMARK SMILES CCCCCCCCCCCC(=O)[O-]
REMARK SMILES IDX 7 1 8 2 9 3 10 4 11 5 12 6 13 7 14 8 6 9 5 10 4 11 3 12 2 13
REMARK SMILES IDX 1 14
REMARK H PARENT
REMARK Flexibility Score: inf
ROOT
ATOM      1  C   UNL     1      14.738 -32.902  21.328  1.00  0.00     0.000 C 
ENDROOT
BRANCH   1   2
ATOM      2  C   UNL     1      14.690 -33.101  22.858  1.00  0.00     0.000 C 
BRANCH   2   3
ATOM      3  C   UNL     1      16.018 -32.716  23.534  1.00  0.00     0.000 C 
BRANCH   3   4
ATOM      4  C   UNL     1      16.196 -31.191  23.673  1.00  0.00     0.006 C 
BRANCH   4   5
ATOM      5  C   UNL     1      17.500 -30.662  23.052  1.00  0.00     0.053 C 
BRANCH   5   6
ATOM      6  C   UNL     1      17.297 -30.107  21.677  1.00  0.00     0.041 C 
ATOM      7  O   UNL     1      16.854 -28.938  21.524  1.00  0.00    -0.550 OA
ATOM      8  O   UNL     1      17.597 -30.880  20.562  1.00  0.00    -0.550 OA
ENDBRANCH   5   6
ENDBRANCH   4   5
ENDBRANCH   3   4
ENDBRANCH   2   3
ENDBRANCH   1   2
BRANCH   1   9
ATOM      9  C   UNL     1      13.545 -32.104  20.772  1.00  0.00     0.000 C 
BRANCH   9  10
ATOM     10  C   UNL     1      13.555 -30.631  21.214  1.00  0.00    -0.000 C 
BRANCH  10  11
ATOM     11  C   UNL     1      12.384 -30.289  22.151  1.00  0.00    -0.000 C 
BRANCH  11  12
ATOM     12  C   UNL     1      12.849 -29.600  23.446  1.00  0.00    -0.000 C 
BRANCH  12  13
ATOM     13  C   UNL     1      11.940 -28.427  23.847  1.00  0.00    -0.003 C 
ATOM     14  C   UNL     1      12.636 -27.424  24.767  1.00  0.00     0.004 C 
ENDBRANCH  12  13
ENDBRANCH  11  12
ENDBRANCH  10  11
ENDBRANCH   9  10
ENDBRANCH   1   9
TORSDOF 10
ENDMDL
MODEL 5
REMARK VINA RESULT:    -4.433      1.897      3.604
REMARK INTER + INTRA:          -7.764
REMARK INTER:                  -6.148
REMARK INTRA:                  -1.617
REMARK UNBOUND:                -0.739
REMARK SMILES CCCCCCCCCCCC(=O)[O-]
REMARK SMILES IDX 7 1 8 2 9 3 10 4 11 5 12 6 13 7 14 8 6 9 5 10 4 11 3 12 2 13
REMARK SMILES IDX 1 14
REMARK H PARENT
REMARK Flexibility Score: inf
ROOT
ATOM      1  C   UNL     1      13.146 -31.330  23.075  1.00  0.00     0.000 C 
ENDROOT
BRANCH   1   2
ATOM      2  C   UNL     1      13.873 -32.307  24.024  1.00  0.00     0.000 C 
BRANCH   2   3
ATOM      3  C   UNL     1      14.905 -33.175  23.283  1.00  0.00     0.000 C 
BRANCH   3   4
ATOM      4  C   UNL     1      14.669 -33.211  21.759  1.00  0.00     0.006 C 
BRANCH   4   5
ATOM      5  C   UNL     1      15.507 -34.275  21.030  1.00  0.00     0.053 C 
BRANCH   5   6
ATOM      6  C   UNL     1      16.954 -33.902  20.936  1.00  0.00     0.041 C 
ATOM      7  O   UNL     1      17.807 -34.488  21.654  1.00  0.00    -0.550 OA
ATOM      8  O   UNL     1      17.361 -32.907  20.056  1.00  0.00    -0.550 OA
ENDBRANCH   5   6
ENDBRANCH   4   5
ENDBRANCH   3   4
ENDBRANCH   2   3
ENDBRANCH   1   2
BRANCH   1   9
ATOM      9  C   UNL     1      13.135 -29.875  23.576  1.00  0.00     0.000 C 
BRANCH   9  10
ATOM     10  C   UNL     1      14.377 -29.083  23.134  1.00  0.00    -0.000 C 
BRANCH  10  11
ATOM     11  C   UNL     1      14.856 -29.475  21.727  1.00  0.00    -0.000 C 
BRANCH  11  12
ATOM     12  C   UNL     1      16.327 -29.927  21.711  1.00  0.00    -0.000 C 
BRANCH  12  13
ATOM     13  C   UNL     1      16.877 -30.188  23.123  1.00  0.00    -0.003 C 
ATOM     14  C   UNL     1      18.120 -31.078  23.121  1.00  0.00     0.004 C 
ENDBRANCH  12  13
ENDBRANCH  11  12
ENDBRANCH  10  11
ENDBRANCH   9  10
ENDBRANCH   1   9
TORSDOF 10
ENDMDL
MODEL 6
REMARK VINA RESULT:    -4.411      3.135      6.890
REMARK INTER + INTRA:          -7.728
REMARK INTER:                  -7.098
REMARK INTRA:                  -0.630
REMARK UNBOUND:                -0.739
REMARK SMILES CCCCCCCCCCCC(=O)[O-]
REMARK SMILES IDX 7 1 8 2 9 3 10 4 11 5 12 6 13 7 14 8 6 9 5 10 4 11 3 12 2 13
REMARK SMILES IDX 1 14
REMARK H PARENT
REMARK Flexibility Score: inf
ROOT
ATOM      1  C   UNL     1      15.268 -32.675  23.522  1.00  0.00     0.000 C 
ENDROOT
BRANCH   1   2
ATOM      2  C   UNL     1      13.843 -32.087  23.606  1.00  0.00     0.000 C 
BRANCH   2   3
ATOM      3  C   UNL     1      13.852 -30.550  23.665  1.00  0.00     0.000 C 
BRANCH   3   4
ATOM      4  C   UNL     1      13.095 -29.904  22.488  1.00  0.00     0.006 C 
BRANCH   4   5
ATOM      5  C   UNL     1      11.834 -29.131  22.913  1.00  0.00     0.053 C 
BRANCH   5   6
ATOM      6  C   UNL     1      12.146 -27.760  23.425  1.00  0.00     0.041 C 
ATOM      7  O   UNL     1      11.264 -27.093  24.029  1.00  0.00    -0.550 OA
ATOM      8  O   UNL     1      13.409 -27.215  23.234  1.00  0.00    -0.550 OA
ENDBRANCH   5   6
ENDBRANCH   4   5
ENDBRANCH   3   4
ENDBRANCH   2   3
ENDBRANCH   1   2
BRANCH   1   9
ATOM      9  C   UNL     1      15.481 -33.607  22.317  1.00  0.00     0.000 C 
BRANCH   9  10
ATOM     10  C   UNL     1      14.623 -33.217  21.102  1.00  0.00    -0.000 C 
BRANCH  10  11
ATOM     11  C   UNL     1      14.939 -34.066  19.859  1.00  0.00    -0.000 C 
BRANCH  11  12
ATOM     12  C   UNL     1      15.805 -35.294  20.190  1.00  0.00    -0.000 C 
BRANCH  12  13
ATOM     13  C   UNL     1      17.078 -35.364  19.331  1.00  0.00    -0.003 C 
ATOM     14  C   UNL     1      17.483 -34.007  18.758  1.00  0.00     0.004 C 
ENDBRANCH  12  13
ENDBRANCH  11  12
ENDBRANCH  10  11
ENDBRANCH   9  10
ENDBRANCH   1   9
TORSDOF 10
ENDMDL
MODEL 7
REMARK VINA RESULT:    -4.407      2.459      6.135
REMARK INTER + INTRA:          -7.722
REMARK INTER:                  -6.602
REMARK INTRA:                  -1.120
REMARK UNBOUND:                -0.739
REMARK SMILES CCCCCCCCCCCC(=O)[O-]
REMARK SMILES IDX 7 1 8 2 9 3 10 4 11 5 12 6 13 7 14 8 6 9 5 10 4 11 3 12 2 13
REMARK SMILES IDX 1 14
REMARK H PARENT
REMARK Flexibility Score: inf
ROOT
ATOM      1  C   UNL     1      16.290 -33.049  22.379  1.00  0.00     0.000 C 
ENDROOT
BRANCH   1   2
ATOM      2  C   UNL     1      14.749 -32.963  22.408  1.00  0.00     0.000 C 
BRANCH   2   3
ATOM      3  C   UNL     1      14.164 -32.587  21.035  1.00  0.00     0.000 C 
BRANCH   3   4
ATOM      4  C   UNL     1      13.240 -31.354  21.100  1.00  0.00     0.006 C 
BRANCH   4   5
ATOM      5  C   UNL     1      12.735 -31.034  22.518  1.00  0.00     0.053 C 
BRANCH   5   6
ATOM      6  C   UNL     1      13.274 -29.740  23.042  1.00  0.00     0.041 C 
ATOM      7  O   UNL     1      12.735 -29.185  24.035  1.00  0.00    -0.550 OA
ATOM      8  O   UNL     1      14.372 -29.145  22.433  1.00  0.00    -0.550 OA
ENDBRANCH   5   6
ENDBRANCH   4   5
ENDBRANCH   3   4
ENDBRANCH   2   3
ENDBRANCH   1   2
BRANCH   1   9
ATOM      9  C   UNL     1      16.975 -31.731  21.976  1.00  0.00     0.000 C 
BRANCH   9  10
ATOM     10  C   UNL     1      17.567 -31.776  20.557  1.00  0.00    -0.000 C 
BRANCH  10  11
ATOM     11  C   UNL     1      18.168 -33.148  20.212  1.00  0.00    -0.000 C 
BRANCH  11  12
ATOM     12  C   UNL     1      17.488 -33.798  18.994  1.00  0.00    -0.000 C 
BRANCH  12  13
ATOM     13  C   UNL     1      17.294 -35.313  19.168  1.00  0.00    -0.003 C 
ATOM     14  C   UNL     1      16.016 -35.665  19.929  1.00  0.00     0.004 C 
ENDBRANCH  12  13
ENDBRANCH  11  12
ENDBRANCH  10  11
ENDBRANCH   9  10
ENDBRANCH   1   9
TORSDOF 10
ENDMDL
MODEL 8
REMARK VINA RESULT:    -4.359      3.302      6.091
REMARK INTER + INTRA:          -7.646
REMARK INTER:                  -6.284
REMARK INTRA:                  -1.363
REMARK UNBOUND:                -0.739
REMARK SMILES CCCCCCCCCCCC(=O)[O-]
REMARK SMILES IDX 7 1 8 2 9 3 10 4 11 5 12 6 13 7 14 8 6 9 5 10 4 11 3 12 2 13
REMARK SMILES IDX 1 14
REMARK H PARENT
REMARK Flexibility Score: inf
ROOT
ATOM      1  C   UNL     1      17.266 -30.015  21.578  1.00  0.00     0.000 C 
ENDROOT
BRANCH   1   2
ATOM      2  C   UNL     1      15.757 -30.311  21.711  1.00  0.00     0.000 C 
BRANCH   2   3
ATOM      3  C   UNL     1      15.438 -31.143  22.966  1.00  0.00     0.000 C 
BRANCH   3   4
ATOM      4  C   UNL     1      13.942 -31.500  23.080  1.00  0.00     0.006 C 
BRANCH   4   5
ATOM      5  C   UNL     1      13.175 -31.375  21.752  1.00  0.00     0.053 C 
BRANCH   5   6
ATOM      6  C   UNL     1      12.007 -30.444  21.847  1.00  0.00     0.041 C 
ATOM      7  O   UNL     1      12.008 -29.511  22.693  1.00  0.00    -0.550 OA
ATOM      8  O   UNL     1      10.916 -30.606  21.003  1.00  0.00    -0.550 OA
ENDBRANCH   5   6
ENDBRANCH   4   5
ENDBRANCH   3   4
ENDBRANCH   2   3
ENDBRANCH   1   2
BRANCH   1   9
ATOM      9  C   UNL     1      17.991 -30.935  20.580  1.00  0.00     0.000 C 
BRANCH   9  10
ATOM     10  C   UNL     1      18.680 -32.129  21.261  1.00  0.00    -0.000 C 
BRANCH  10  11
ATOM     11  C   UNL     1      17.917 -33.448  21.054  1.00  0.00    -0.000 C 
BRANCH  11  12
ATOM     12  C   UNL     1      17.311 -33.561  19.644  1.00  0.00    -0.000 C 
BRANCH  12  13
ATOM     13  C   UNL     1      15.819 -33.929  19.673  1.00  0.00    -0.003 C 
ATOM     14  C   UNL     1      15.333 -34.328  21.066  1.00  0.00     0.004 C 
ENDBRANCH  12  13
ENDBRANCH  11  12
ENDBRANCH  10  11
ENDBRANCH   9  10
ENDBRANCH   1   9
TORSDOF 10
ENDMDL
MODEL 9
REMARK VINA RESULT:    -4.350      2.918      4.909
REMARK INTER + INTRA:          -7.633
REMARK INTER:                  -6.118
REMARK INTRA:                  -1.514
REMARK UNBOUND:                -0.739
REMARK SMILES CCCCCCCCCCCC(=O)[O-]
REMARK SMILES IDX 7 1 8 2 9 3 10 4 11 5 12 6 13 7 14 8 6 9 5 10 4 11 3 12 2 13
REMARK SMILES IDX 1 14
REMARK H PARENT
REMARK Flexibility Score: inf
ROOT
ATOM      1  C   UNL     1      16.551 -34.515  21.370  1.00  0.00     0.000 C 
ENDROOT
BRANCH   1   2
ATOM      2  C   UNL     1      15.718 -34.725  20.088  1.00  0.00     0.000 C 
BRANCH   2   3
ATOM      3  C   UNL     1      14.525 -33.756  20.006  1.00  0.00     0.000 C 
BRANCH   3   4
ATOM      4  C   UNL     1      14.362 -32.904  21.280  1.00  0.00     0.006 C 
BRANCH   4   5
ATOM      5  C   UNL     1      13.703 -31.537  21.028  1.00  0.00     0.053 C 
BRANCH   5   6
ATOM      6  C   UNL     1      12.801 -31.118  22.147  1.00  0.00     0.041 C 
ATOM      7  O   UNL     1      13.184 -31.222  23.343  1.00  0.00    -0.550 OA
ATOM      8  O   UNL     1      11.536 -30.614  21.871  1.00  0.00    -0.550 OA
ENDBRANCH   5   6
ENDBRANCH   4   5
ENDBRANCH   3   4
ENDBRANCH   2   3
ENDBRANCH   1   2
BRANCH   1   9
ATOM      9  C   UNL     1      18.035 -34.212  21.099  1.00  0.00     0.000 C 
BRANCH   9  10
ATOM     10  C   UNL     1      18.239 -32.949  20.245  1.00  0.00    -0.000 C 
BRANCH  10  11
ATOM     11  C   UNL     1      18.547 -31.705  21.096  1.00  0.00    -0.000 C 
BRANCH  11  12
ATOM     12  C   UNL     1      17.398 -30.682  21.080  1.00  0.00    -0.000 C 
BRANCH  12  13
ATOM     13  C   UNL     1      16.912 -30.322  22.494  1.00  0.00    -0.003 C 
ATOM     14  C   UNL     1      17.071 -31.473  23.487  1.00  0.00     0.004 C 
ENDBRANCH  12  13
ENDBRANCH  11  12
ENDBRANCH  10  11
ENDBRANCH   9  10
ENDBRANCH   1   9
TORSDOF 10
ENDMDL
