MODEL 1
REMARK VINA RESULT:    -3.719      0.000      0.000
REMARK INTER + INTRA:         -11.998
REMARK INTER:                  -8.067
REMARK INTRA:                  -3.931
REMARK UNBOUND:                -3.931
REMARK SMILES CCCCCCCCCCCCCCCCCCCCCC(=O)[O-]
REMARK SMILES IDX 12 1 11 2 10 3 9 4 8 5 7 6 6 7 5 8 4 9 3 10 2 11 1 12 13 13
REMARK SMILES IDX 14 14 15 15 16 16 17 17 18 18 19 19 20 20 21 21 22 22 23 23
REMARK SMILES IDX 24 24
REMARK H PARENT
REMARK Flexibility Score: inf
ROOT
ATOM      1  C   UNL     1      15.421  16.577  16.109  1.00  0.00     0.000 C 
ENDROOT
BRANCH   1   2
ATOM      2  C   UNL     1      14.762  16.970  17.443  1.00  0.00     0.000 C 
BRANCH   2   3
ATOM      3  C   UNL     1      15.435  18.189  18.095  1.00  0.00     0.000 C 
BRANCH   3   4
ATOM      4  C   UNL     1      14.459  19.360  18.309  1.00  0.00    -0.000 C 
BRANCH   4   5
ATOM      5  C   UNL     1      14.835  20.599  17.481  1.00  0.00    -0.000 C 
BRANCH   5   6
ATOM      6  C   UNL     1      14.471  20.447  15.994  1.00  0.00    -0.000 C 
BRANCH   6   7
ATOM      7  C   UNL     1      13.056  19.885  15.787  1.00  0.00    -0.000 C 
BRANCH   7   8
ATOM      8  C   UNL     1      12.985  18.860  14.644  1.00  0.00    -0.000 C 
BRANCH   8   9
ATOM      9  C   UNL     1      12.016  17.721  14.991  1.00  0.00    -0.000 C 
BRANCH   9  10
ATOM     10  C   UNL     1      11.576  17.737  16.466  1.00  0.00    -0.000 C 
BRANCH  10  11
ATOM     11  C   UNL     1      10.809  16.483  16.924  1.00  0.00    -0.003 C 
ATOM     12  C   UNL     1      11.668  15.219  16.911  1.00  0.00     0.004 C 
ENDBRANCH  10  11
ENDBRANCH   9  10
ENDBRANCH   8   9
ENDBRANCH   7   8
ENDBRANCH   6   7
ENDBRANCH   5   6
ENDBRANCH   4   5
ENDBRANCH   3   4
ENDBRANCH   2   3
ENDBRANCH   1   2
BRANCH   1  13
ATOM     13  C   UNL     1      16.605  17.488  15.744  1.00  0.00     0.000 C 
BRANCH  13  14
ATOM     14  C   UNL     1      16.796  17.630  14.225  1.00  0.00     0.000 C 
BRANCH  14  15
ATOM     15  C   UNL     1      17.126  19.071  13.803  1.00  0.00     0.000 C 
BRANCH  15  16
ATOM     16  C   UNL     1      17.927  19.834  14.872  1.00  0.00     0.000 C 
BRANCH  16  17
ATOM     17  C   UNL     1      19.442  19.605  14.747  1.00  0.00     0.000 C 
BRANCH  17  18
ATOM     18  C   UNL     1      20.088  19.180  16.077  1.00  0.00     0.000 C 
BRANCH  18  19
ATOM     19  C   UNL     1      19.174  19.430  17.290  1.00  0.00     0.000 C 
BRANCH  19  20
ATOM     20  C   UNL     1      19.145  18.288  18.324  1.00  0.00     0.006 C 
BRANCH  20  21
ATOM     21  C   UNL     1      19.884  17.030  17.849  1.00  0.00     0.053 C 
BRANCH  21  22
ATOM     22  C   UNL     1      20.769  16.499  18.933  1.00  0.00     0.041 C 
ATOM     23  O   UNL     1      22.019  16.635  18.856  1.00  0.00    -0.550 OA
ATOM     24  O   UNL     1      20.210  15.881  20.046  1.00  0.00    -0.550 OA
ENDBRANCH  21  22
ENDBRANCH  20  21
ENDBRANCH  19  20
ENDBRANCH  18  19
ENDBRANCH  17  18
ENDBRANCH  16  17
ENDBRANCH  15  16
ENDBRANCH  14  15
ENDBRANCH  13  14
ENDBRANCH   1  13
TORSDOF 20
ENDMDL
MODEL 2
REMARK VINA RESULT:    -3.652      2.684      6.866
REMARK INTER + INTRA:         -11.852
REMARK INTER:                  -8.296
REMARK INTRA:                  -3.557
REMARK UNBOUND:                -3.931
REMARK SMILES CCCCCCCCCCCCCCCCCCCCCC(=O)[O-]
REMARK SMILES IDX 12 1 11 2 10 3 9 4 8 5 7 6 6 7 5 8 4 9 3 10 2 11 1 12 13 13
REMARK SMILES IDX 14 14 15 15 16 16 17 17 18 18 19 19 20 20 21 21 22 22 23 23
REMARK SMILES IDX 24 24
REMARK H PARENT
REMARK Flexibility Score: inf
ROOT
ATOM      1  C   UNL     1      16.284  17.038  16.079  1.00  0.00     0.000 C 
ENDROOT
BRANCH   1   2
ATOM      2  C   UNL     1      16.609  17.398  14.619  1.00  0.00     0.000 C 
BRANCH   2   3
ATOM      3  C   UNL     1      16.188  18.833  14.260  1.00  0.00     0.000 C 
BRANCH   3   4
ATOM      4  C   UNL     1      16.968  19.395  13.058  1.00  0.00    -0.000 C 
BRANCH   4   5
ATOM      5  C   UNL     1      18.013  20.443  13.472  1.00  0.00    -0.000 C 
BRANCH   5   6
ATOM      6  C   UNL     1      17.913  20.818  14.961  1.00  0.00    -0.000 C 
BRANCH   6   7
ATOM      7  C   UNL     1      19.208  20.520  15.732  1.00  0.00    -0.000 C 
BRANCH   7   8
ATOM      8  C   UNL     1      20.110  19.507  15.009  1.00  0.00    -0.000 C 
BRANCH   8   9
ATOM      9  C   UNL     1      19.992  18.116  15.648  1.00  0.00    -0.000 C 
BRANCH   9  10
ATOM     10  C   UNL     1      20.459  18.088  17.114  1.00  0.00    -0.000 C 
BRANCH  10  11
ATOM     11  C   UNL     1      20.003  16.854  17.914  1.00  0.00    -0.003 C 
ATOM     12  C   UNL     1      20.770  16.672  19.223  1.00  0.00     0.004 C 
ENDBRANCH  10  11
ENDBRANCH   9  10
ENDBRANCH   8   9
ENDBRANCH   7   8
ENDBRANCH   6   7
ENDBRANCH   5   6
ENDBRANCH   4   5
ENDBRANCH   3   4
ENDBRANCH   2   3
ENDBRANCH   1   2
BRANCH   1  13
ATOM     13  C   UNL     1      16.209  18.275  16.991  1.00  0.00     0.000 C 
BRANCH  13  14
ATOM     14  C   UNL     1      15.162  18.124  18.108  1.00  0.00     0.000 C 
BRANCH  14  15
ATOM     15  C   UNL     1      14.070  19.205  18.044  1.00  0.00     0.000 C 
BRANCH  15  16
ATOM     16  C   UNL     1      14.347  20.266  16.964  1.00  0.00     0.000 C 
BRANCH  16  17
ATOM     17  C   UNL     1      13.258  20.299  15.880  1.00  0.00     0.000 C 
BRANCH  17  18
ATOM     18  C   UNL     1      12.126  19.292  16.147  1.00  0.00     0.000 C 
BRANCH  18  19
ATOM     19  C   UNL     1      11.607  18.624  14.861  1.00  0.00     0.000 C 
BRANCH  19  20
ATOM     20  C   UNL     1      11.598  17.084  14.891  1.00  0.00     0.006 C 
BRANCH  20  21
ATOM     21  C   UNL     1      12.740  16.494  15.729  1.00  0.00     0.053 C 
BRANCH  21  22
ATOM     22  C   UNL     1      12.195  15.660  16.847  1.00  0.00     0.041 C 
ATOM     23  O   UNL     1      11.022  15.203  16.784  1.00  0.00    -0.550 OA
ATOM     24  O   UNL     1      12.994  15.359  17.944  1.00  0.00    -0.550 OA
ENDBRANCH  21  22
ENDBRANCH  20  21
ENDBRANCH  19  20
ENDBRANCH  18  19
ENDBRANCH  17  18
ENDBRANCH  16  17
ENDBRANCH  15  16
ENDBRANCH  14  15
ENDBRANCH  13  14
ENDBRANCH   1  13
TORSDOF 20
ENDMDL
MODEL 3
REMARK VINA RESULT:    -3.613      6.097      9.343
REMARK INTER + INTRA:         -11.768
REMARK INTER:                  -8.363
REMARK INTRA:                  -3.405
REMARK UNBOUND:                -3.931
REMARK SMILES CCCCCCCCCCCCCCCCCCCCCC(=O)[O-]
REMARK SMILES IDX 12 1 11 2 10 3 9 4 8 5 7 6 6 7 5 8 4 9 3 10 2 11 1 12 13 13
REMARK SMILES IDX 14 14 15 15 16 16 17 17 18 18 19 19 20 20 21 21 22 22 23 23
REMARK SMILES IDX 24 24
REMARK H PARENT
REMARK Flexibility Score: inf
ROOT
ATOM      1  C   UNL     1      10.281  16.612  12.262  1.00  0.00     0.000 C 
ENDROOT
BRANCH   1   2
ATOM      2  C   UNL     1      10.410  17.218  13.670  1.00  0.00     0.000 C 
BRANCH   2   3
ATOM      3  C   UNL     1      11.497  18.303  13.745  1.00  0.00     0.000 C 
BRANCH   3   4
ATOM      4  C   UNL     1      11.387  19.164  15.016  1.00  0.00    -0.000 C 
BRANCH   4   5
ATOM      5  C   UNL     1      12.760  19.528  15.602  1.00  0.00    -0.000 C 
BRANCH   5   6
ATOM      6  C   UNL     1      12.866  19.201  17.102  1.00  0.00    -0.000 C 
BRANCH   6   7
ATOM      7  C   UNL     1      14.251  18.659  17.490  1.00  0.00    -0.000 C 
BRANCH   7   8
ATOM      8  C   UNL     1      14.537  17.274  16.889  1.00  0.00    -0.000 C 
BRANCH   8   9
ATOM      9  C   UNL     1      13.514  16.241  17.384  1.00  0.00    -0.000 C 
BRANCH   9  10
ATOM     10  C   UNL     1      12.587  15.731  16.266  1.00  0.00    -0.000 C 
BRANCH  10  11
ATOM     11  C   UNL     1      11.220  15.212  16.748  1.00  0.00    -0.003 C 
ATOM     12  C   UNL     1      10.292  16.328  17.226  1.00  0.00     0.004 C 
ENDBRANCH  10  11
ENDBRANCH   9  10
ENDBRANCH   8   9
ENDBRANCH   7   8
ENDBRANCH   6   7
ENDBRANCH   5   6
ENDBRANCH   4   5
ENDBRANCH   3   4
ENDBRANCH   2   3
ENDBRANCH   1   2
BRANCH   1  13
ATOM     13  C   UNL     1       8.866  16.083  11.974  1.00  0.00     0.000 C 
BRANCH  13  14
ATOM     14  C   UNL     1       8.474  16.217  10.492  1.00  0.00     0.000 C 
BRANCH  14  15
ATOM     15  C   UNL     1       7.278  17.160  10.280  1.00  0.00     0.000 C 
BRANCH  15  16
ATOM     16  C   UNL     1       6.938  17.979  11.537  1.00  0.00     0.000 C 
BRANCH  16  17
ATOM     17  C   UNL     1       7.177  19.486  11.340  1.00  0.00     0.000 C 
BRANCH  17  18
ATOM     18  C   UNL     1       8.607  19.912  11.716  1.00  0.00     0.000 C 
BRANCH  18  19
ATOM     19  C   UNL     1       9.435  20.359  10.498  1.00  0.00     0.000 C 
BRANCH  19  20
ATOM     20  C   UNL     1      10.529  19.367  10.061  1.00  0.00     0.006 C 
BRANCH  20  21
ATOM     21  C   UNL     1      10.299  18.804   8.652  1.00  0.00     0.053 C 
BRANCH  21  22
ATOM     22  C   UNL     1      11.297  19.371   7.690  1.00  0.00     0.041 C 
ATOM     23  O   UNL     1      12.290  20.019   8.115  1.00  0.00    -0.550 OA
ATOM     24  O   UNL     1      11.147  19.154   6.325  1.00  0.00    -0.550 OA
ENDBRANCH  21  22
ENDBRANCH  20  21
ENDBRANCH  19  20
ENDBRANCH  18  19
ENDBRANCH  17  18
ENDBRANCH  16  17
ENDBRANCH  15  16
ENDBRANCH  14  15
ENDBRANCH  13  14
ENDBRANCH   1  13
TORSDOF 20
ENDMDL
MODEL 4
REMARK VINA RESULT:    -3.574      2.244      3.716
REMARK INTER + INTRA:         -11.685
REMARK INTER:                  -8.540
REMARK INTRA:                  -3.145
REMARK UNBOUND:                -3.931
REMARK SMILES CCCCCCCCCCCCCCCCCCCCCC(=O)[O-]
REMARK SMILES IDX 12 1 11 2 10 3 9 4 8 5 7 6 6 7 5 8 4 9 3 10 2 11 1 12 13 13
REMARK SMILES IDX 14 14 15 15 16 16 17 17 18 18 19 19 20 20 21 21 22 22 23 23
REMARK SMILES IDX 24 24
REMARK H PARENT
REMARK Flexibility Score: inf
ROOT
ATOM      1  C   UNL     1      16.093  16.956  16.051  1.00  0.00     0.000 C 
ENDROOT
BRANCH   1   2
ATOM      2  C   UNL     1      14.746  16.213  16.065  1.00  0.00     0.000 C 
BRANCH   2   3
ATOM      3  C   UNL     1      13.960  16.446  17.367  1.00  0.00     0.000 C 
BRANCH   3   4
ATOM      4  C   UNL     1      12.724  15.536  17.483  1.00  0.00    -0.000 C 
BRANCH   4   5
ATOM      5  C   UNL     1      11.469  16.165  16.859  1.00  0.00    -0.000 C 
BRANCH   5   6
ATOM      6  C   UNL     1      11.523  17.703  16.849  1.00  0.00    -0.000 C 
BRANCH   6   7
ATOM      7  C   UNL     1      11.642  18.280  15.430  1.00  0.00    -0.000 C 
BRANCH   7   8
ATOM      8  C   UNL     1      11.469  17.212  14.338  1.00  0.00    -0.000 C 
BRANCH   8   9
ATOM      9  C   UNL     1      10.493  17.692  13.254  1.00  0.00    -0.000 C 
BRANCH   9  10
ATOM     10  C   UNL     1      10.339  16.687  12.099  1.00  0.00    -0.000 C 
BRANCH  10  11
ATOM     11  C   UNL     1       9.414  17.150  10.959  1.00  0.00    -0.003 C 
ATOM     12  C   UNL     1       8.437  16.065  10.504  1.00  0.00     0.004 C 
ENDBRANCH  10  11
ENDBRANCH   9  10
ENDBRANCH   8   9
ENDBRANCH   7   8
ENDBRANCH   6   7
ENDBRANCH   5   6
ENDBRANCH   4   5
ENDBRANCH   3   4
ENDBRANCH   2   3
ENDBRANCH   1   2
BRANCH   1  13
ATOM     13  C   UNL     1      16.398  17.601  14.688  1.00  0.00     0.000 C 
BRANCH  13  14
ATOM     14  C   UNL     1      16.441  19.137  14.757  1.00  0.00     0.000 C 
BRANCH  14  15
ATOM     15  C   UNL     1      15.098  19.747  15.193  1.00  0.00     0.000 C 
BRANCH  15  16
ATOM     16  C   UNL     1      15.219  20.597  16.470  1.00  0.00     0.000 C 
BRANCH  16  17
ATOM     17  C   UNL     1      14.486  19.969  17.667  1.00  0.00     0.000 C 
BRANCH  17  18
ATOM     18  C   UNL     1      15.445  19.552  18.795  1.00  0.00     0.000 C 
BRANCH  18  19
ATOM     19  C   UNL     1      16.900  19.978  18.529  1.00  0.00     0.000 C 
BRANCH  19  20
ATOM     20  C   UNL     1      17.891  18.814  18.340  1.00  0.00     0.006 C 
BRANCH  20  21
ATOM     21  C   UNL     1      19.061  19.167  17.412  1.00  0.00     0.053 C 
BRANCH  21  22
ATOM     22  C   UNL     1      19.640  17.928  16.802  1.00  0.00     0.041 C 
ATOM     23  O   UNL     1      19.942  17.906  15.578  1.00  0.00    -0.550 OA
ATOM     24  O   UNL     1      19.876  16.809  17.591  1.00  0.00    -0.550 OA
ENDBRANCH  21  22
ENDBRANCH  20  21
ENDBRANCH  19  20
ENDBRANCH  18  19
ENDBRANCH  17  18
ENDBRANCH  16  17
ENDBRANCH  15  16
ENDBRANCH  14  15
ENDBRANCH  13  14
ENDBRANCH   1  13
TORSDOF 20
ENDMDL
MODEL 5
REMARK VINA RESULT:    -3.559      1.043      2.970
REMARK INTER + INTRA:         -11.652
REMARK INTER:                  -8.294
REMARK INTRA:                  -3.358
REMARK UNBOUND:                -3.931
REMARK SMILES CCCCCCCCCCCCCCCCCCCCCC(=O)[O-]
REMARK SMILES IDX 12 1 11 2 10 3 9 4 8 5 7 6 6 7 5 8 4 9 3 10 2 11 1 12 13 13
REMARK SMILES IDX 14 14 15 15 16 16 17 17 18 18 19 19 20 20 21 21 22 22 23 23
REMARK SMILES IDX 24 24
REMARK H PARENT
REMARK Flexibility Score: inf
ROOT
ATOM      1  C   UNL     1      15.021  16.294  16.133  1.00  0.00     0.000 C 
ENDROOT
BRANCH   1   2
ATOM      2  C   UNL     1      14.040  16.707  17.244  1.00  0.00     0.000 C 
BRANCH   2   3
ATOM      3  C   UNL     1      13.173  15.533  17.729  1.00  0.00     0.000 C 
BRANCH   3   4
ATOM      4  C   UNL     1      11.823  15.452  16.996  1.00  0.00    -0.000 C 
BRANCH   4   5
ATOM      5  C   UNL     1      11.334  16.825  16.509  1.00  0.00    -0.000 C 
BRANCH   5   6
ATOM      6  C   UNL     1      10.991  16.831  15.008  1.00  0.00    -0.000 C 
BRANCH   6   7
ATOM      7  C   UNL     1      11.650  17.999  14.258  1.00  0.00    -0.000 C 
BRANCH   7   8
ATOM      8  C   UNL     1      12.255  19.047  15.205  1.00  0.00    -0.000 C 
BRANCH   8   9
ATOM      9  C   UNL     1      13.541  19.641  14.612  1.00  0.00    -0.000 C 
BRANCH   9  10
ATOM     10  C   UNL     1      14.310  20.524  15.611  1.00  0.00    -0.000 C 
BRANCH  10  11
ATOM     11  C   UNL     1      13.854  20.391  17.075  1.00  0.00    -0.003 C 
ATOM     12  C   UNL     1      15.019  20.243  18.053  1.00  0.00     0.004 C 
ENDBRANCH  10  11
ENDBRANCH   9  10
ENDBRANCH   8   9
ENDBRANCH   7   8
ENDBRANCH   6   7
ENDBRANCH   5   6
ENDBRANCH   4   5
ENDBRANCH   3   4
ENDBRANCH   2   3
ENDBRANCH   1   2
BRANCH   1  13
ATOM     13  C   UNL     1      16.169  17.301  15.953  1.00  0.00     0.000 C 
BRANCH  13  14
ATOM     14  C   UNL     1      16.557  17.499  14.478  1.00  0.00     0.000 C 
BRANCH  14  15
ATOM     15  C   UNL     1      17.493  18.701  14.269  1.00  0.00     0.000 C 
BRANCH  15  16
ATOM     16  C   UNL     1      17.784  19.461  15.575  1.00  0.00     0.000 C 
BRANCH  16  17
ATOM     17  C   UNL     1      19.287  19.539  15.888  1.00  0.00     0.000 C 
BRANCH  17  18
ATOM     18  C   UNL     1      20.002  18.191  15.695  1.00  0.00     0.000 C 
BRANCH  18  19
ATOM     19  C   UNL     1      19.659  17.171  16.796  1.00  0.00     0.000 C 
BRANCH  19  20
ATOM     20  C   UNL     1      19.751  17.716  18.234  1.00  0.00     0.006 C 
BRANCH  20  21
ATOM     21  C   UNL     1      21.190  18.039  18.661  1.00  0.00     0.053 C 
BRANCH  21  22
ATOM     22  C   UNL     1      21.569  17.245  19.872  1.00  0.00     0.041 C 
ATOM     23  O   UNL     1      20.962  17.422  20.962  1.00  0.00    -0.550 OA
ATOM     24  O   UNL     1      22.572  16.286  19.789  1.00  0.00    -0.550 OA
ENDBRANCH  21  22
ENDBRANCH  20  21
ENDBRANCH  19  20
ENDBRANCH  18  19
ENDBRANCH  17  18
ENDBRANCH  16  17
ENDBRANCH  15  16
ENDBRANCH  14  15
ENDBRANCH  13  14
ENDBRANCH   1  13
TORSDOF 20
ENDMDL
MODEL 6
REMARK VINA RESULT:    -3.546      6.154      9.383
REMARK INTER + INTRA:         -11.623
REMARK INTER:                  -8.350
REMARK INTRA:                  -3.273
REMARK UNBOUND:                -3.931
REMARK SMILES CCCCCCCCCCCCCCCCCCCCCC(=O)[O-]
REMARK SMILES IDX 12 1 11 2 10 3 9 4 8 5 7 6 6 7 5 8 4 9 3 10 2 11 1 12 13 13
REMARK SMILES IDX 14 14 15 15 16 16 17 17 18 18 19 19 20 20 21 21 22 22 23 23
REMARK SMILES IDX 24 24
REMARK H PARENT
REMARK Flexibility Score: inf
ROOT
ATOM      1  C   UNL     1      10.753  17.901  13.314  1.00  0.00     0.000 C 
ENDROOT
BRANCH   1   2
ATOM      2  C   UNL     1       9.912  19.189  13.283  1.00  0.00     0.000 C 
BRANCH   2   3
ATOM      3  C   UNL     1      10.732  20.417  12.854  1.00  0.00     0.000 C 
BRANCH   3   4
ATOM      4  C   UNL     1      12.204  20.073  12.565  1.00  0.00    -0.000 C 
BRANCH   4   5
ATOM      5  C   UNL     1      13.178  20.866  13.451  1.00  0.00    -0.000 C 
BRANCH   5   6
ATOM      6  C   UNL     1      13.775  20.011  14.583  1.00  0.00    -0.000 C 
BRANCH   6   7
ATOM      7  C   UNL     1      12.948  20.084  15.876  1.00  0.00    -0.000 C 
BRANCH   7   8
ATOM      8  C   UNL     1      12.629  18.697  16.456  1.00  0.00    -0.000 C 
BRANCH   8   9
ATOM      9  C   UNL     1      13.552  17.628  15.854  1.00  0.00    -0.000 C 
BRANCH   9  10
ATOM     10  C   UNL     1      12.875  16.251  15.733  1.00  0.00    -0.000 C 
BRANCH  10  11
ATOM     11  C   UNL     1      11.963  15.874  16.914  1.00  0.00    -0.003 C 
ATOM     12  C   UNL     1      10.503  15.677  16.504  1.00  0.00     0.004 C 
ENDBRANCH  10  11
ENDBRANCH   9  10
ENDBRANCH   8   9
ENDBRANCH   7   8
ENDBRANCH   6   7
ENDBRANCH   5   6
ENDBRANCH   4   5
ENDBRANCH   3   4
ENDBRANCH   2   3
ENDBRANCH   1   2
BRANCH   1  13
ATOM     13  C   UNL     1      10.296  16.869  12.269  1.00  0.00     0.000 C 
BRANCH  13  14
ATOM     14  C   UNL     1       8.989  16.163  12.668  1.00  0.00     0.000 C 
BRANCH  14  15
ATOM     15  C   UNL     1       8.041  15.955  11.475  1.00  0.00     0.000 C 
BRANCH  15  16
ATOM     16  C   UNL     1       8.742  16.150  10.119  1.00  0.00     0.000 C 
BRANCH  16  17
ATOM     17  C   UNL     1       8.092  17.259   9.276  1.00  0.00     0.000 C 
BRANCH  17  18
ATOM     18  C   UNL     1       7.970  18.589  10.039  1.00  0.00     0.000 C 
BRANCH  18  19
ATOM     19  C   UNL     1       9.082  19.589   9.676  1.00  0.00     0.000 C 
BRANCH  19  20
ATOM     20  C   UNL     1      10.302  18.971   8.967  1.00  0.00     0.006 C 
BRANCH  20  21
ATOM     21  C   UNL     1      11.128  20.002   8.186  1.00  0.00     0.053 C 
BRANCH  21  22
ATOM     22  C   UNL     1      11.995  19.322   7.172  1.00  0.00     0.041 C 
ATOM     23  O   UNL     1      11.605  19.206   5.980  1.00  0.00    -0.550 OA
ATOM     24  O   UNL     1      13.249  18.845   7.538  1.00  0.00    -0.550 OA
ENDBRANCH  21  22
ENDBRANCH  20  21
ENDBRANCH  19  20
ENDBRANCH  18  19
ENDBRANCH  17  18
ENDBRANCH  16  17
ENDBRANCH  15  16
ENDBRANCH  14  15
ENDBRANCH  13  14
ENDBRANCH   1  13
TORSDOF 20
ENDMDL
MODEL 7
REMARK VINA RESULT:    -3.496      1.467      2.620
REMARK INTER + INTRA:         -11.514
REMARK INTER:                  -8.223
REMARK INTRA:                  -3.292
REMARK UNBOUND:                -3.931
REMARK SMILES CCCCCCCCCCCCCCCCCCCCCC(=O)[O-]
REMARK SMILES IDX 12 1 11 2 10 3 9 4 8 5 7 6 6 7 5 8 4 9 3 10 2 11 1 12 13 13
REMARK SMILES IDX 14 14 15 15 16 16 17 17 18 18 19 19 20 20 21 21 22 22 23 23
REMARK SMILES IDX 24 24
REMARK H PARENT
REMARK Flexibility Score: inf
ROOT
ATOM      1  C   UNL     1      15.971  19.133  14.455  1.00  0.00     0.000 C 
ENDROOT
BRANCH   1   2
ATOM      2  C   UNL     1      16.541  17.709  14.579  1.00  0.00     0.000 C 
BRANCH   2   3
ATOM      3  C   UNL     1      16.382  17.135  15.997  1.00  0.00     0.000 C 
BRANCH   3   4
ATOM      4  C   UNL     1      16.489  18.215  17.089  1.00  0.00    -0.000 C 
BRANCH   4   5
ATOM      5  C   UNL     1      15.420  18.055  18.181  1.00  0.00    -0.000 C 
BRANCH   5   6
ATOM      6  C   UNL     1      14.548  19.313  18.341  1.00  0.00    -0.000 C 
BRANCH   6   7
ATOM      7  C   UNL     1      13.618  19.542  17.139  1.00  0.00    -0.000 C 
BRANCH   7   8
ATOM      8  C   UNL     1      12.409  18.594  17.134  1.00  0.00    -0.000 C 
BRANCH   8   9
ATOM      9  C   UNL     1      12.445  17.670  15.908  1.00  0.00    -0.000 C 
BRANCH   9  10
ATOM     10  C   UNL     1      12.913  16.243  16.246  1.00  0.00    -0.000 C 
BRANCH  10  11
ATOM     11  C   UNL     1      11.855  15.361  16.932  1.00  0.00    -0.003 C 
ATOM     12  C   UNL     1      10.424  15.734  16.545  1.00  0.00     0.004 C 
ENDBRANCH  10  11
ENDBRANCH   9  10
ENDBRANCH   8   9
ENDBRANCH   7   8
ENDBRANCH   6   7
ENDBRANCH   5   6
ENDBRANCH   4   5
ENDBRANCH   3   4
ENDBRANCH   2   3
ENDBRANCH   1   2
BRANCH   1  13
ATOM     13  C   UNL     1      17.027  20.155  14.001  1.00  0.00     0.000 C 
BRANCH  13  14
ATOM     14  C   UNL     1      18.444  19.558  13.949  1.00  0.00     0.000 C 
BRANCH  14  15
ATOM     15  C   UNL     1      19.450  20.348  14.803  1.00  0.00     0.000 C 
BRANCH  15  16
ATOM     16  C   UNL     1      20.472  19.440  15.509  1.00  0.00     0.000 C 
BRANCH  16  17
ATOM     17  C   UNL     1      19.939  18.015  15.729  1.00  0.00     0.000 C 
BRANCH  17  18
ATOM     18  C   UNL     1      20.264  17.471  17.131  1.00  0.00     0.000 C 
BRANCH  18  19
ATOM     19  C   UNL     1      21.069  18.468  17.985  1.00  0.00     0.000 C 
BRANCH  19  20
ATOM     20  C   UNL     1      20.661  18.526  19.469  1.00  0.00     0.006 C 
BRANCH  20  21
ATOM     21  C   UNL     1      19.193  18.926  19.671  1.00  0.00     0.053 C 
BRANCH  21  22
ATOM     22  C   UNL     1      18.511  17.969  20.600  1.00  0.00     0.041 C 
ATOM     23  O   UNL     1      17.382  18.251  21.084  1.00  0.00    -0.550 OA
ATOM     24  O   UNL     1      19.108  16.751  20.905  1.00  0.00    -0.550 OA
ENDBRANCH  21  22
ENDBRANCH  20  21
ENDBRANCH  19  20
ENDBRANCH  18  19
ENDBRANCH  17  18
ENDBRANCH  16  17
ENDBRANCH  15  16
ENDBRANCH  14  15
ENDBRANCH  13  14
ENDBRANCH   1  13
TORSDOF 20
ENDMDL
MODEL 8
REMARK VINA RESULT:    -3.481      2.135      3.454
REMARK INTER + INTRA:         -11.483
REMARK INTER:                  -8.567
REMARK INTRA:                  -2.916
REMARK UNBOUND:                -3.931
REMARK SMILES CCCCCCCCCCCCCCCCCCCCCC(=O)[O-]
REMARK SMILES IDX 12 1 11 2 10 3 9 4 8 5 7 6 6 7 5 8 4 9 3 10 2 11 1 12 13 13
REMARK SMILES IDX 14 14 15 15 16 16 17 17 18 18 19 19 20 20 21 21 22 22 23 23
REMARK SMILES IDX 24 24
REMARK H PARENT
REMARK Flexibility Score: inf
ROOT
ATOM      1  C   UNL     1      15.475  17.307  16.390  1.00  0.00     0.000 C 
ENDROOT
BRANCH   1   2
ATOM      2  C   UNL     1      14.436  16.173  16.333  1.00  0.00     0.000 C 
BRANCH   2   3
ATOM      3  C   UNL     1      13.461  16.211  17.522  1.00  0.00     0.000 C 
BRANCH   3   4
ATOM      4  C   UNL     1      12.175  15.407  17.257  1.00  0.00    -0.000 C 
BRANCH   4   5
ATOM      5  C   UNL     1      11.012  16.295  16.787  1.00  0.00    -0.000 C 
BRANCH   5   6
ATOM      6  C   UNL     1      11.369  17.792  16.803  1.00  0.00    -0.000 C 
BRANCH   6   7
ATOM      7  C   UNL     1      11.383  18.411  15.397  1.00  0.00    -0.000 C 
BRANCH   7   8
ATOM      8  C   UNL     1      11.253  17.359  14.284  1.00  0.00    -0.000 C 
BRANCH   8   9
ATOM      9  C   UNL     1      10.516  17.938  13.068  1.00  0.00    -0.000 C 
BRANCH   9  10
ATOM     10  C   UNL     1      10.284  16.898  11.957  1.00  0.00    -0.000 C 
BRANCH  10  11
ATOM     11  C   UNL     1       8.954  16.130  12.058  1.00  0.00    -0.003 C 
ATOM     12  C   UNL     1       8.246  15.980  10.712  1.00  0.00     0.004 C 
ENDBRANCH  10  11
ENDBRANCH   9  10
ENDBRANCH   8   9
ENDBRANCH   7   8
ENDBRANCH   6   7
ENDBRANCH   5   6
ENDBRANCH   4   5
ENDBRANCH   3   4
ENDBRANCH   2   3
ENDBRANCH   1   2
BRANCH   1  13
ATOM     13  C   UNL     1      14.940  18.566  17.093  1.00  0.00     0.000 C 
BRANCH  13  14
ATOM     14  C   UNL     1      14.788  19.759  16.135  1.00  0.00     0.000 C 
BRANCH  14  15
ATOM     15  C   UNL     1      14.813  19.337  14.656  1.00  0.00     0.000 C 
BRANCH  15  16
ATOM     16  C   UNL     1      15.594  20.324  13.770  1.00  0.00     0.000 C 
BRANCH  16  17
ATOM     17  C   UNL     1      17.049  20.506  14.235  1.00  0.00     0.000 C 
BRANCH  17  18
ATOM     18  C   UNL     1      17.946  19.316  13.852  1.00  0.00     0.000 C 
BRANCH  18  19
ATOM     19  C   UNL     1      18.593  18.641  15.075  1.00  0.00     0.000 C 
BRANCH  19  20
ATOM     20  C   UNL     1      18.594  19.492  16.359  1.00  0.00     0.006 C 
BRANCH  20  21
ATOM     21  C   UNL     1      18.736  18.651  17.635  1.00  0.00     0.053 C 
BRANCH  21  22
ATOM     22  C   UNL     1      20.098  18.035  17.710  1.00  0.00     0.041 C 
ATOM     23  O   UNL     1      20.273  16.838  17.358  1.00  0.00    -0.550 OA
ATOM     24  O   UNL     1      21.182  18.794  18.136  1.00  0.00    -0.550 OA
ENDBRANCH  21  22
ENDBRANCH  20  21
ENDBRANCH  19  20
ENDBRANCH  18  19
ENDBRANCH  17  18
ENDBRANCH  16  17
ENDBRANCH  15  16
ENDBRANCH  14  15
ENDBRANCH  13  14
ENDBRANCH   1  13
TORSDOF 20
ENDMDL
MODEL 9
REMARK VINA RESULT:    -3.448      4.095      7.710
REMARK INTER + INTRA:         -11.411
REMARK INTER:                  -7.605
REMARK INTRA:                  -3.806
REMARK UNBOUND:                -3.931
REMARK SMILES CCCCCCCCCCCCCCCCCCCCCC(=O)[O-]
REMARK SMILES IDX 12 1 11 2 10 3 9 4 8 5 7 6 6 7 5 8 4 9 3 10 2 11 1 12 13 13
REMARK SMILES IDX 14 14 15 15 16 16 17 17 18 18 19 19 20 20 21 21 22 22 23 23
REMARK SMILES IDX 24 24
REMARK H PARENT
REMARK Flexibility Score: inf
ROOT
ATOM      1  C   UNL     1      15.702  17.422  15.503  1.00  0.00     0.000 C 
ENDROOT
BRANCH   1   2
ATOM      2  C   UNL     1      14.874  18.699  15.278  1.00  0.00     0.000 C 
BRANCH   2   3
ATOM      3  C   UNL     1      15.730  19.975  15.350  1.00  0.00     0.000 C 
BRANCH   3   4
ATOM      4  C   UNL     1      15.408  20.835  16.585  1.00  0.00    -0.000 C 
BRANCH   4   5
ATOM      5  C   UNL     1      14.108  20.403  17.280  1.00  0.00    -0.000 C 
BRANCH   5   6
ATOM      6  C   UNL     1      14.339  19.941  18.730  1.00  0.00    -0.000 C 
BRANCH   6   7
ATOM      7  C   UNL     1      15.822  19.981  19.132  1.00  0.00    -0.000 C 
BRANCH   7   8
ATOM      8  C   UNL     1      16.453  18.582  19.213  1.00  0.00    -0.000 C 
BRANCH   8   9
ATOM      9  C   UNL     1      17.975  18.657  19.025  1.00  0.00    -0.000 C 
BRANCH   9  10
ATOM     10  C   UNL     1      18.446  18.044  17.695  1.00  0.00    -0.000 C 
BRANCH  10  11
ATOM     11  C   UNL     1      19.002  19.056  16.678  1.00  0.00    -0.003 C 
ATOM     12  C   UNL     1      19.697  18.391  15.490  1.00  0.00     0.004 C 
ENDBRANCH  10  11
ENDBRANCH   9  10
ENDBRANCH   8   9
ENDBRANCH   7   8
ENDBRANCH   6   7
ENDBRANCH   5   6
ENDBRANCH   4   5
ENDBRANCH   3   4
ENDBRANCH   2   3
ENDBRANCH   1   2
BRANCH   1  13
ATOM     13  C   UNL     1      14.852  16.248  16.017  1.00  0.00     0.000 C 
BRANCH  13  14
ATOM     14  C   UNL     1      14.116  16.579  17.326  1.00  0.00     0.000 C 
BRANCH  14  15
ATOM     15  C   UNL     1      12.900  15.669  17.567  1.00  0.00     0.000 C 
BRANCH  15  16
ATOM     16  C   UNL     1      11.620  16.198  16.897  1.00  0.00     0.000 C 
BRANCH  16  17
ATOM     17  C   UNL     1      11.559  17.734  16.874  1.00  0.00     0.000 C 
BRANCH  17  18
ATOM     18  C   UNL     1      11.318  18.297  15.463  1.00  0.00     0.000 C 
BRANCH  18  19
ATOM     19  C   UNL     1      11.566  17.256  14.356  1.00  0.00     0.000 C 
BRANCH  19  20
ATOM     20  C   UNL     1      10.533  17.267  13.214  1.00  0.00     0.006 C 
BRANCH  20  21
ATOM     21  C   UNL     1      10.085  18.683  12.825  1.00  0.00     0.053 C 
BRANCH  21  22
ATOM     22  C   UNL     1      10.844  19.163  11.627  1.00  0.00     0.041 C 
ATOM     23  O   UNL     1      10.447  18.872  10.466  1.00  0.00    -0.550 OA
ATOM     24  O   UNL     1      11.972  19.959  11.791  1.00  0.00    -0.550 OA
ENDBRANCH  21  22
ENDBRANCH  20  21
ENDBRANCH  19  20
ENDBRANCH  18  19
ENDBRANCH  17  18
ENDBRANCH  16  17
ENDBRANCH  15  16
ENDBRANCH  14  15
ENDBRANCH  13  14
ENDBRANCH   1  13
TORSDOF 20
ENDMDL
