MODEL 1
REMARK VINA RESULT:    58.040      0.000      0.000
REMARK INTER + INTRA:          79.135
REMARK INTER:                  80.095
REMARK INTRA:                  -0.960
REMARK UNBOUND:                -0.960
REMARK SMILES CC[C@H](CC[C@@H](C)[C@@H]1CC[C@@H]2[C@@H]3CC=C4C[C@@H](O)CC[C@@]4(C)[C@H]3CC[C@@]21C)C(C)C
REMARK SMILES IDX 5 1 4 2 3 3 2 4 1 5 28 6 29 7 30 8 6 9 7 10 8 11 9 12 26 13
REMARK SMILES IDX 10 14 11 15 25 16 27 17 12 18 24 19 23 20 13 21 21 22 14 23
REMARK SMILES IDX 15 24 20 25 22 26 16 27 19 28 17 29 18 30
REMARK H PARENT 18 31
REMARK Flexibility Score: inf
ROOT
ATOM      1  C   UNL     1       9.856  73.783   5.783  1.00  0.00     0.004 C 
ENDROOT
BRANCH   1   2
ATOM      2  C   UNL     1       9.842  72.546   4.858  1.00  0.00     0.004 C 
BRANCH   2   3
ATOM      3  C   UNL     1       9.972  71.208   5.652  1.00  0.00    -0.009 C 
BRANCH   3   4
ATOM      4  C   UNL     1       9.003  71.209   6.868  1.00  0.00     0.000 C 
ATOM      5  C   UNL     1       9.603  70.624   8.150  1.00  0.00     0.004 C 
ENDBRANCH   3   4
BRANCH   3   6
ATOM      6  C   UNL     1       9.809  69.944   4.737  1.00  0.00    -0.014 C 
ATOM      7  C   UNL     1       8.922  70.227   3.512  1.00  0.00     0.007 C 
ATOM      8  C   UNL     1      11.167  69.411   4.244  1.00  0.00     0.007 C 
ENDBRANCH   3   6
ENDBRANCH   2   3
ENDBRANCH   1   2
BRANCH   1   9
ATOM      9  C   UNL     1       9.656  75.139   5.058  1.00  0.00    -0.011 C 
ATOM     10  C   UNL     1       8.453  75.907   5.641  1.00  0.00     0.008 C 
BRANCH   9  11
ATOM     11  C   UNL     1      10.996  75.956   4.924  1.00  0.00    -0.002 C 
ATOM     12  C   UNL     1      11.129  77.237   5.766  1.00  0.00     0.005 C 
ATOM     13  C   UNL     1      11.410  76.376   3.485  1.00  0.00    -0.026 C 
ATOM     14  C   UNL     1      12.132  78.130   5.030  1.00  0.00     0.005 C 
ATOM     15  C   UNL     1      12.565  77.361   3.767  1.00  0.00    -0.001 C 
ATOM     16  C   UNL     1      10.252  77.106   2.741  1.00  0.00     0.007 C 
ATOM     17  C   UNL     1      11.909  75.152   2.676  1.00  0.00     0.012 C 
ATOM     18  C   UNL     1      12.991  78.238   2.547  1.00  0.00     0.000 C 
ATOM     19  C   UNL     1      10.723  77.837   1.484  1.00  0.00     0.005 C 
ATOM     20  C   UNL     1      11.804  78.897   1.811  1.00  0.00     0.003 C 
ATOM     21  C   UNL     1      13.988  79.324   2.975  1.00  0.00     0.031 C 
ATOM     22  C   UNL     1      12.268  79.744   0.546  1.00  0.00    -0.008 C 
ATOM     23  C   UNL     1      14.443  80.130   1.803  1.00  0.00    -0.027 C 
ATOM     24  C   UNL     1      13.656  80.386   0.738  1.00  0.00    -0.065 C 
ATOM     25  C   UNL     1      12.356  78.858  -0.739  1.00  0.00     0.014 C 
ATOM     26  C   UNL     1      11.223  80.869   0.329  1.00  0.00     0.016 C 
ATOM     27  C   UNL     1      14.262  81.125  -0.439  1.00  0.00     0.063 C 
ATOM     28  C   UNL     1      12.972  79.574  -1.961  1.00  0.00     0.033 C 
ATOM     29  C   UNL     1      14.346  80.185  -1.651  1.00  0.00     0.118 C 
BRANCH  29  30
ATOM     30  O   UNL     1      15.275  79.159  -1.411  1.00  0.00    -0.393 OA
ATOM     31  H   UNL     1      15.225  78.948  -0.442  1.00  0.00     0.210 HD
ENDBRANCH  29  30
ENDBRANCH   9  11
ENDBRANCH   1   9
TORSDOF 7
ENDMDL
MODEL 2
REMARK VINA RESULT:    59.309      4.383     10.844
REMARK INTER + INTRA:          80.885
REMARK INTER:                  80.443
REMARK INTRA:                   0.442
REMARK UNBOUND:                -0.960
REMARK SMILES CC[C@H](CC[C@@H](C)[C@@H]1CC[C@@H]2[C@@H]3CC=C4C[C@@H](O)CC[C@@]4(C)[C@H]3CC[C@@]21C)C(C)C
REMARK SMILES IDX 5 1 4 2 3 3 2 4 1 5 28 6 29 7 30 8 6 9 7 10 8 11 9 12 26 13
REMARK SMILES IDX 10 14 11 15 25 16 27 17 12 18 24 19 23 20 13 21 21 22 14 23
REMARK SMILES IDX 15 24 20 25 22 26 16 27 19 28 17 29 18 30
REMARK H PARENT 18 31
REMARK Flexibility Score: inf
ROOT
ATOM      1  C   UNL     1      10.485  73.308   5.776  1.00  0.00     0.004 C 
ENDROOT
BRANCH   1   2
ATOM      2  C   UNL     1       9.619  74.238   4.898  1.00  0.00     0.004 C 
BRANCH   2   3
ATOM      3  C   UNL     1      10.000  75.742   5.069  1.00  0.00    -0.009 C 
BRANCH   3   4
ATOM      4  C   UNL     1      11.472  75.872   5.552  1.00  0.00     0.000 C 
ATOM      5  C   UNL     1      12.132  77.210   5.204  1.00  0.00     0.004 C 
ENDBRANCH   3   4
BRANCH   3   6
ATOM      6  C   UNL     1       9.698  76.591   3.784  1.00  0.00    -0.014 C 
ATOM      7  C   UNL     1       9.119  77.975   4.128  1.00  0.00     0.007 C 
ATOM      8  C   UNL     1      10.955  76.789   2.916  1.00  0.00     0.007 C 
ENDBRANCH   3   6
ENDBRANCH   2   3
ENDBRANCH   1   2
BRANCH   1   9
ATOM      9  C   UNL     1      10.779  71.916   5.158  1.00  0.00    -0.011 C 
ATOM     10  C   UNL     1      12.134  71.368   5.646  1.00  0.00     0.008 C 
BRANCH   9  11
ATOM     11  C   UNL     1       9.553  70.934   5.275  1.00  0.00    -0.002 C 
ATOM     12  C   UNL     1       9.647  69.812   6.324  1.00  0.00     0.005 C 
ATOM     13  C   UNL     1       9.107  70.223   3.965  1.00  0.00    -0.026 C 
ATOM     14  C   UNL     1       8.727  68.690   5.833  1.00  0.00     0.005 C 
ATOM     15  C   UNL     1       8.115  69.170   4.503  1.00  0.00    -0.001 C 
ATOM     16  C   UNL     1      10.303  69.521   3.254  1.00  0.00     0.007 C 
ATOM     17  C   UNL     1       8.399  71.219   3.013  1.00  0.00     0.012 C 
ATOM     18  C   UNL     1       7.732  68.050   3.484  1.00  0.00     0.000 C 
ATOM     19  C   UNL     1       9.853  68.532   2.179  1.00  0.00     0.005 C 
ATOM     20  C   UNL     1       8.946  67.422   2.766  1.00  0.00     0.003 C 
ATOM     21  C   UNL     1       6.918  66.943   4.169  1.00  0.00     0.031 C 
ATOM     22  C   UNL     1       8.520  66.319   1.702  1.00  0.00    -0.008 C 
ATOM     23  C   UNL     1       6.500  65.897   3.188  1.00  0.00    -0.027 C 
ATOM     24  C   UNL     1       7.244  65.557   2.115  1.00  0.00    -0.065 C 
ATOM     25  C   UNL     1       8.231  66.951   0.301  1.00  0.00     0.014 C 
ATOM     26  C   UNL     1       9.689  65.307   1.584  1.00  0.00     0.016 C 
ATOM     27  C   UNL     1       6.668  64.558   1.131  1.00  0.00     0.063 C 
ATOM     28  C   UNL     1       7.639  65.965  -0.729  1.00  0.00     0.033 C 
ATOM     29  C   UNL     1       6.381  65.256  -0.206  1.00  0.00     0.118 C 
BRANCH  29  30
ATOM     30  O   UNL     1       5.341  66.189  -0.059  1.00  0.00    -0.393 OA
ATOM     31  H   UNL     1       4.598  65.885  -0.643  1.00  0.00     0.210 HD
ENDBRANCH  29  30
ENDBRANCH   9  11
ENDBRANCH   1   9
TORSDOF 7
ENDMDL
