MODEL 1
REMARK VINA RESULT:    -3.042      0.000      0.000
REMARK INTER + INTRA:          -6.300
REMARK INTER:                  -4.821
REMARK INTRA:                  -1.479
REMARK UNBOUND:                -1.479
REMARK SMILES CCCCCCCCCCCC(=O)[O-]
REMARK SMILES IDX 7 1 8 2 9 3 10 4 11 5 12 6 13 7 14 8 6 9 5 10 4 11 3 12 2 13
REMARK SMILES IDX 1 14
REMARK H PARENT
REMARK Flexibility Score: inf
ROOT
ATOM      1  C   UNL     1       8.963   0.680  -6.499  1.00  0.00     0.000 C 
ENDROOT
BRANCH   1   2
ATOM      2  C   UNL     1       8.151   1.919  -6.929  1.00  0.00     0.000 C 
BRANCH   2   3
ATOM      3  C   UNL     1       7.390   1.765  -8.258  1.00  0.00     0.000 C 
BRANCH   3   4
ATOM      4  C   UNL     1       5.887   2.050  -8.121  1.00  0.00     0.006 C 
BRANCH   4   5
ATOM      5  C   UNL     1       5.459   2.042  -6.650  1.00  0.00     0.053 C 
BRANCH   5   6
ATOM      6  C   UNL     1       4.739   3.308  -6.306  1.00  0.00     0.041 C 
ATOM      7  O   UNL     1       3.678   3.271  -5.630  1.00  0.00    -0.550 OA
ATOM      8  O   UNL     1       5.268   4.534  -6.692  1.00  0.00    -0.550 OA
ENDBRANCH   5   6
ENDBRANCH   4   5
ENDBRANCH   3   4
ENDBRANCH   2   3
ENDBRANCH   1   2
BRANCH   1   9
ATOM      9  C   UNL     1       8.349  -0.677  -6.897  1.00  0.00     0.000 C 
BRANCH   9  10
ATOM     10  C   UNL     1       7.296  -1.230  -5.918  1.00  0.00    -0.000 C 
BRANCH  10  11
ATOM     11  C   UNL     1       5.971  -1.593  -6.610  1.00  0.00    -0.000 C 
BRANCH  11  12
ATOM     12  C   UNL     1       6.107  -1.682  -8.138  1.00  0.00    -0.000 C 
BRANCH  12  13
ATOM     13  C   UNL     1       4.786  -2.046  -8.831  1.00  0.00    -0.003 C 
ATOM     14  C   UNL     1       4.334  -0.932  -9.771  1.00  0.00     0.004 C 
ENDBRANCH  12  13
ENDBRANCH  11  12
ENDBRANCH  10  11
ENDBRANCH   9  10
ENDBRANCH   1   9
TORSDOF 10
ENDMDL
MODEL 2
REMARK VINA RESULT:    -3.012     18.639     20.175
REMARK INTER + INTRA:          -6.252
REMARK INTER:                  -5.250
REMARK INTRA:                  -1.002
REMARK UNBOUND:                -1.479
REMARK SMILES CCCCCCCCCCCC(=O)[O-]
REMARK SMILES IDX 7 1 8 2 9 3 10 4 11 5 12 6 13 7 14 8 6 9 5 10 4 11 3 12 2 13
REMARK SMILES IDX 1 14
REMARK H PARENT
REMARK Flexibility Score: inf
ROOT
ATOM      1  C   UNL     1      -4.507  -5.146   8.719  1.00  0.00     0.000 C 
ENDROOT
BRANCH   1   2
ATOM      2  C   UNL     1      -4.840  -6.550   9.262  1.00  0.00     0.000 C 
BRANCH   2   3
ATOM      3  C   UNL     1      -5.272  -7.572   8.196  1.00  0.00     0.000 C 
BRANCH   3   4
ATOM      4  C   UNL     1      -4.185  -8.613   7.891  1.00  0.00     0.006 C 
BRANCH   4   5
ATOM      5  C   UNL     1      -3.871  -8.655   6.392  1.00  0.00     0.053 C 
BRANCH   5   6
ATOM      6  C   UNL     1      -2.689  -7.794   6.080  1.00  0.00     0.041 C 
ATOM      7  O   UNL     1      -2.801  -6.829   5.280  1.00  0.00    -0.550 OA
ATOM      8  O   UNL     1      -1.474  -8.027   6.712  1.00  0.00    -0.550 OA
ENDBRANCH   5   6
ENDBRANCH   4   5
ENDBRANCH   3   4
ENDBRANCH   2   3
ENDBRANCH   1   2
BRANCH   1   9
ATOM      9  C   UNL     1      -4.939  -4.887   7.261  1.00  0.00     0.000 C 
BRANCH   9  10
ATOM     10  C   UNL     1      -5.973  -3.762   7.077  1.00  0.00    -0.000 C 
BRANCH  10  11
ATOM     11  C   UNL     1      -7.291  -4.033   7.822  1.00  0.00    -0.000 C 
BRANCH  11  12
ATOM     12  C   UNL     1      -8.204  -5.014   7.069  1.00  0.00    -0.000 C 
BRANCH  12  13
ATOM     13  C   UNL     1      -8.382  -4.642   5.590  1.00  0.00    -0.003 C 
ATOM     14  C   UNL     1      -9.824  -4.240   5.296  1.00  0.00     0.004 C 
ENDBRANCH  12  13
ENDBRANCH  11  12
ENDBRANCH  10  11
ENDBRANCH   9  10
ENDBRANCH   1   9
TORSDOF 10
ENDMDL
MODEL 3
REMARK VINA RESULT:    -2.921      1.000      3.054
REMARK INTER + INTRA:          -6.108
REMARK INTER:                  -4.762
REMARK INTRA:                  -1.347
REMARK UNBOUND:                -1.479
REMARK SMILES CCCCCCCCCCCC(=O)[O-]
REMARK SMILES IDX 7 1 8 2 9 3 10 4 11 5 12 6 13 7 14 8 6 9 5 10 4 11 3 12 2 13
REMARK SMILES IDX 1 14
REMARK H PARENT
REMARK Flexibility Score: inf
ROOT
ATOM      1  C   UNL     1       5.820  -0.626  -9.621  1.00  0.00     0.000 C 
ENDROOT
BRANCH   1   2
ATOM      2  C   UNL     1       5.455   0.765  -9.063  1.00  0.00     0.000 C 
BRANCH   2   3
ATOM      3  C   UNL     1       6.626   1.761  -8.988  1.00  0.00     0.000 C 
BRANCH   3   4
ATOM      4  C   UNL     1       6.393   2.879  -7.961  1.00  0.00     0.006 C 
BRANCH   4   5
ATOM      5  C   UNL     1       4.912   2.979  -7.585  1.00  0.00     0.053 C 
BRANCH   5   6
ATOM      6  C   UNL     1       4.755   3.577  -6.223  1.00  0.00     0.041 C 
ATOM      7  O   UNL     1       4.024   3.017  -5.365  1.00  0.00    -0.550 OA
ATOM      8  O   UNL     1       5.458   4.727  -5.885  1.00  0.00    -0.550 OA
ENDBRANCH   5   6
ENDBRANCH   4   5
ENDBRANCH   3   4
ENDBRANCH   2   3
ENDBRANCH   1   2
BRANCH   1   9
ATOM      9  C   UNL     1       6.105  -1.705  -8.557  1.00  0.00     0.000 C 
BRANCH   9  10
ATOM     10  C   UNL     1       5.606  -1.372  -7.139  1.00  0.00    -0.000 C 
BRANCH  10  11
ATOM     11  C   UNL     1       6.708  -1.495  -6.073  1.00  0.00    -0.000 C 
BRANCH  11  12
ATOM     12  C   UNL     1       7.424  -0.161  -5.808  1.00  0.00    -0.000 C 
BRANCH  12  13
ATOM     13  C   UNL     1       8.774  -0.059  -6.534  1.00  0.00    -0.003 C 
ATOM     14  C   UNL     1       9.386   1.328  -6.363  1.00  0.00     0.004 C 
ENDBRANCH  12  13
ENDBRANCH  11  12
ENDBRANCH  10  11
ENDBRANCH   9  10
ENDBRANCH   1   9
TORSDOF 10
ENDMDL
MODEL 4
REMARK VINA RESULT:    -2.916     18.932     20.465
REMARK INTER + INTRA:          -6.100
REMARK INTER:                  -4.779
REMARK INTRA:                  -1.321
REMARK UNBOUND:                -1.479
REMARK SMILES CCCCCCCCCCCC(=O)[O-]
REMARK SMILES IDX 7 1 8 2 9 3 10 4 11 5 12 6 13 7 14 8 6 9 5 10 4 11 3 12 2 13
REMARK SMILES IDX 1 14
REMARK H PARENT
REMARK Flexibility Score: inf
ROOT
ATOM      1  C   UNL     1      -5.652  -4.073   7.274  1.00  0.00     0.000 C 
ENDROOT
BRANCH   1   2
ATOM      2  C   UNL     1      -4.991  -4.321   8.645  1.00  0.00     0.000 C 
BRANCH   2   3
ATOM      3  C   UNL     1      -4.169  -5.618   8.743  1.00  0.00     0.000 C 
BRANCH   3   4
ATOM      4  C   UNL     1      -4.156  -6.418   7.432  1.00  0.00     0.006 C 
BRANCH   4   5
ATOM      5  C   UNL     1      -3.228  -7.632   7.539  1.00  0.00     0.053 C 
BRANCH   5   6
ATOM      6  C   UNL     1      -2.394  -7.764   6.305  1.00  0.00     0.041 C 
ATOM      7  O   UNL     1      -2.700  -7.129   5.262  1.00  0.00    -0.550 OA
ATOM      8  O   UNL     1      -1.249  -8.551   6.321  1.00  0.00    -0.550 OA
ENDBRANCH   5   6
ENDBRANCH   4   5
ENDBRANCH   3   4
ENDBRANCH   2   3
ENDBRANCH   1   2
BRANCH   1   9
ATOM      9  C   UNL     1      -7.179  -3.860   7.310  1.00  0.00     0.000 C 
BRANCH   9  10
ATOM     10  C   UNL     1      -7.974  -4.655   6.258  1.00  0.00    -0.000 C 
BRANCH  10  11
ATOM     11  C   UNL     1      -8.643  -5.912   6.840  1.00  0.00    -0.000 C 
BRANCH  11  12
ATOM     12  C   UNL     1      -7.676  -7.102   6.942  1.00  0.00    -0.000 C 
BRANCH  12  13
ATOM     13  C   UNL     1      -7.818  -7.869   8.265  1.00  0.00    -0.003 C 
ATOM     14  C   UNL     1      -7.553  -6.957   9.460  1.00  0.00     0.004 C 
ENDBRANCH  12  13
ENDBRANCH  11  12
ENDBRANCH  10  11
ENDBRANCH   9  10
ENDBRANCH   1   9
TORSDOF 10
ENDMDL
MODEL 5
REMARK VINA RESULT:    -2.891      1.194      2.420
REMARK INTER + INTRA:          -6.060
REMARK INTER:                  -4.631
REMARK INTRA:                  -1.429
REMARK UNBOUND:                -1.479
REMARK SMILES CCCCCCCCCCCC(=O)[O-]
REMARK SMILES IDX 7 1 8 2 9 3 10 4 11 5 12 6 13 7 14 8 6 9 5 10 4 11 3 12 2 13
REMARK SMILES IDX 1 14
REMARK H PARENT
REMARK Flexibility Score: inf
ROOT
ATOM      1  C   UNL     1       7.864   0.606  -9.428  1.00  0.00     0.000 C 
ENDROOT
BRANCH   1   2
ATOM      2  C   UNL     1       8.787   1.377  -8.463  1.00  0.00     0.000 C 
BRANCH   2   3
ATOM      3  C   UNL     1       8.108   1.875  -7.175  1.00  0.00     0.000 C 
BRANCH   3   4
ATOM      4  C   UNL     1       7.034   2.940  -7.440  1.00  0.00     0.006 C 
BRANCH   4   5
ATOM      5  C   UNL     1       5.647   2.435  -7.032  1.00  0.00     0.053 C 
BRANCH   5   6
ATOM      6  C   UNL     1       4.929   3.470  -6.226  1.00  0.00     0.041 C 
ATOM      7  O   UNL     1       3.903   3.161  -5.565  1.00  0.00    -0.550 OA
ATOM      8  O   UNL     1       5.421   4.768  -6.164  1.00  0.00    -0.550 OA
ENDBRANCH   5   6
ENDBRANCH   4   5
ENDBRANCH   3   4
ENDBRANCH   2   3
ENDBRANCH   1   2
BRANCH   1   9
ATOM      9  C   UNL     1       8.213  -0.884  -9.619  1.00  0.00     0.000 C 
BRANCH   9  10
ATOM     10  C   UNL     1       7.218  -1.874  -8.986  1.00  0.00    -0.000 C 
BRANCH  10  11
ATOM     11  C   UNL     1       5.889  -1.211  -8.585  1.00  0.00    -0.000 C 
BRANCH  11  12
ATOM     12  C   UNL     1       5.630  -1.276  -7.072  1.00  0.00    -0.000 C 
BRANCH  12  13
ATOM     13  C   UNL     1       6.900  -1.583  -6.266  1.00  0.00    -0.003 C 
ATOM     14  C   UNL     1       6.927  -0.793  -4.960  1.00  0.00     0.004 C 
ENDBRANCH  12  13
ENDBRANCH  11  12
ENDBRANCH  10  11
ENDBRANCH   9  10
ENDBRANCH   1   9
TORSDOF 10
ENDMDL
MODEL 6
REMARK VINA RESULT:    -2.878      1.223      1.941
REMARK INTER + INTRA:          -6.039
REMARK INTER:                  -4.669
REMARK INTRA:                  -1.371
REMARK UNBOUND:                -1.479
REMARK SMILES CCCCCCCCCCCC(=O)[O-]
REMARK SMILES IDX 7 1 8 2 9 3 10 4 11 5 12 6 13 7 14 8 6 9 5 10 4 11 3 12 2 13
REMARK SMILES IDX 1 14
REMARK H PARENT
REMARK Flexibility Score: inf
ROOT
ATOM      1  C   UNL     1       7.471  -1.261  -6.301  1.00  0.00     0.000 C 
ENDROOT
BRANCH   1   2
ATOM      2  C   UNL     1       6.792  -0.059  -5.614  1.00  0.00     0.000 C 
BRANCH   2   3
ATOM      3  C   UNL     1       5.704   0.636  -6.451  1.00  0.00     0.000 C 
BRANCH   3   4
ATOM      4  C   UNL     1       6.245   1.817  -7.271  1.00  0.00     0.006 C 
BRANCH   4   5
ATOM      5  C   UNL     1       5.105   2.726  -7.741  1.00  0.00     0.053 C 
BRANCH   5   6
ATOM      6  C   UNL     1       5.139   4.030  -7.009  1.00  0.00     0.041 C 
ATOM      7  O   UNL     1       4.924   4.067  -5.769  1.00  0.00    -0.550 OA
ATOM      8  O   UNL     1       5.458   5.200  -7.688  1.00  0.00    -0.550 OA
ENDBRANCH   5   6
ENDBRANCH   4   5
ENDBRANCH   3   4
ENDBRANCH   2   3
ENDBRANCH   1   2
BRANCH   1   9
ATOM      9  C   UNL     1       8.662  -0.907  -7.215  1.00  0.00     0.000 C 
BRANCH   9  10
ATOM     10  C   UNL     1       8.418  -1.124  -8.719  1.00  0.00    -0.000 C 
BRANCH  10  11
ATOM     11  C   UNL     1       7.071  -1.808  -9.013  1.00  0.00    -0.000 C 
BRANCH  11  12
ATOM     12  C   UNL     1       6.090  -0.886  -9.754  1.00  0.00    -0.000 C 
BRANCH  12  13
ATOM     13  C   UNL     1       4.650  -1.418  -9.737  1.00  0.00    -0.003 C 
ATOM     14  C   UNL     1       4.396  -2.278  -8.502  1.00  0.00     0.004 C 
ENDBRANCH  12  13
ENDBRANCH  11  12
ENDBRANCH  10  11
ENDBRANCH   9  10
ENDBRANCH   1   9
TORSDOF 10
ENDMDL
MODEL 7
REMARK VINA RESULT:    -2.877      2.492      4.674
REMARK INTER + INTRA:          -6.038
REMARK INTER:                  -4.802
REMARK INTRA:                  -1.237
REMARK UNBOUND:                -1.479
REMARK SMILES CCCCCCCCCCCC(=O)[O-]
REMARK SMILES IDX 7 1 8 2 9 3 10 4 11 5 12 6 13 7 14 8 6 9 5 10 4 11 3 12 2 13
REMARK SMILES IDX 1 14
REMARK H PARENT
REMARK Flexibility Score: inf
ROOT
ATOM      1  C   UNL     1       8.496   0.364  -6.129  1.00  0.00     0.000 C 
ENDROOT
BRANCH   1   2
ATOM      2  C   UNL     1       7.210  -0.233  -5.522  1.00  0.00     0.000 C 
BRANCH   2   3
ATOM      3  C   UNL     1       6.744  -1.554  -6.160  1.00  0.00     0.000 C 
BRANCH   3   4
ATOM      4  C   UNL     1       5.489  -1.388  -7.028  1.00  0.00     0.006 C 
BRANCH   4   5
ATOM      5  C   UNL     1       5.802  -1.658  -8.503  1.00  0.00     0.053 C 
BRANCH   5   6
ATOM      6  C   UNL     1       4.600  -1.391  -9.352  1.00  0.00     0.041 C 
ATOM      7  O   UNL     1       4.412  -0.247  -9.843  1.00  0.00    -0.550 OA
ATOM      8  O   UNL     1       3.711  -2.419  -9.641  1.00  0.00    -0.550 OA
ENDBRANCH   5   6
ENDBRANCH   4   5
ENDBRANCH   3   4
ENDBRANCH   2   3
ENDBRANCH   1   2
BRANCH   1   9
ATOM      9  C   UNL     1       8.299   1.661  -6.938  1.00  0.00     0.000 C 
BRANCH   9  10
ATOM     10  C   UNL     1       7.559   1.490  -8.278  1.00  0.00    -0.000 C 
BRANCH  10  11
ATOM     11  C   UNL     1       6.406   2.493  -8.456  1.00  0.00    -0.000 C 
BRANCH  11  12
ATOM     12  C   UNL     1       6.138   3.315  -7.186  1.00  0.00    -0.000 C 
BRANCH  12  13
ATOM     13  C   UNL     1       4.653   3.330  -6.793  1.00  0.00    -0.003 C 
ATOM     14  C   UNL     1       4.447   2.727  -5.407  1.00  0.00     0.004 C 
ENDBRANCH  12  13
ENDBRANCH  11  12
ENDBRANCH  10  11
ENDBRANCH   9  10
ENDBRANCH   1   9
TORSDOF 10
ENDMDL
MODEL 8
REMARK VINA RESULT:    -2.801      2.619      5.032
REMARK INTER + INTRA:          -5.918
REMARK INTER:                  -4.684
REMARK INTRA:                  -1.235
REMARK UNBOUND:                -1.479
REMARK SMILES CCCCCCCCCCCC(=O)[O-]
REMARK SMILES IDX 7 1 8 2 9 3 10 4 11 5 12 6 13 7 14 8 6 9 5 10 4 11 3 12 2 13
REMARK SMILES IDX 1 14
REMARK H PARENT
REMARK Flexibility Score: inf
ROOT
ATOM      1  C   UNL     1       8.094   1.835  -7.049  1.00  0.00     0.000 C 
ENDROOT
BRANCH   1   2
ATOM      2  C   UNL     1       8.656   0.561  -6.385  1.00  0.00     0.000 C 
BRANCH   2   3
ATOM      3  C   UNL     1       7.611  -0.306  -5.660  1.00  0.00     0.000 C 
BRANCH   3   4
ATOM      4  C   UNL     1       7.183  -1.533  -6.478  1.00  0.00     0.006 C 
BRANCH   4   5
ATOM      5  C   UNL     1       5.682  -1.496  -6.778  1.00  0.00     0.053 C 
BRANCH   5   6
ATOM      6  C   UNL     1       5.431  -1.751  -8.231  1.00  0.00     0.041 C 
ATOM      7  O   UNL     1       6.380  -1.701  -9.056  1.00  0.00    -0.550 OA
ATOM      8  O   UNL     1       4.157  -2.092  -8.666  1.00  0.00    -0.550 OA
ENDBRANCH   5   6
ENDBRANCH   4   5
ENDBRANCH   3   4
ENDBRANCH   2   3
ENDBRANCH   1   2
BRANCH   1   9
ATOM      9  C   UNL     1       7.237   1.595  -8.308  1.00  0.00     0.000 C 
BRANCH   9  10
ATOM     10  C   UNL     1       5.740   1.917  -8.150  1.00  0.00    -0.000 C 
BRANCH  10  11
ATOM     11  C   UNL     1       5.366   2.332  -6.717  1.00  0.00    -0.000 C 
BRANCH  11  12
ATOM     12  C   UNL     1       4.709   3.720  -6.657  1.00  0.00    -0.000 C 
BRANCH  12  13
ATOM     13  C   UNL     1       5.645   4.841  -7.133  1.00  0.00    -0.003 C 
ATOM     14  C   UNL     1       6.305   5.543  -5.950  1.00  0.00     0.004 C 
ENDBRANCH  12  13
ENDBRANCH  11  12
ENDBRANCH  10  11
ENDBRANCH   9  10
ENDBRANCH   1   9
TORSDOF 10
ENDMDL
MODEL 9
REMARK VINA RESULT:    -2.787      1.314      2.953
REMARK INTER + INTRA:          -5.895
REMARK INTER:                  -4.554
REMARK INTRA:                  -1.341
REMARK UNBOUND:                -1.479
REMARK SMILES CCCCCCCCCCCC(=O)[O-]
REMARK SMILES IDX 7 1 8 2 9 3 10 4 11 5 12 6 13 7 14 8 6 9 5 10 4 11 3 12 2 13
REMARK SMILES IDX 1 14
REMARK H PARENT
REMARK Flexibility Score: inf
ROOT
ATOM      1  C   UNL     1       5.606  -0.147  -7.005  1.00  0.00     0.000 C 
ENDROOT
BRANCH   1   2
ATOM      2  C   UNL     1       5.478  -0.100  -8.541  1.00  0.00     0.000 C 
BRANCH   2   3
ATOM      3  C   UNL     1       5.314   1.310  -9.135  1.00  0.00     0.000 C 
BRANCH   3   4
ATOM      4  C   UNL     1       5.859   2.412  -8.216  1.00  0.00     0.006 C 
BRANCH   4   5
ATOM      5  C   UNL     1       4.767   3.429  -7.870  1.00  0.00     0.053 C 
BRANCH   5   6
ATOM      6  C   UNL     1       4.801   3.760  -6.412  1.00  0.00     0.041 C 
ATOM      7  O   UNL     1       5.509   4.713  -5.994  1.00  0.00    -0.550 OA
ATOM      8  O   UNL     1       4.011   3.045  -5.519  1.00  0.00    -0.550 OA
ENDBRANCH   5   6
ENDBRANCH   4   5
ENDBRANCH   3   4
ENDBRANCH   2   3
ENDBRANCH   1   2
BRANCH   1   9
ATOM      9  C   UNL     1       6.276  -1.416  -6.441  1.00  0.00     0.000 C 
BRANCH   9  10
ATOM     10  C   UNL     1       7.571  -1.172  -5.646  1.00  0.00    -0.000 C 
BRANCH  10  11
ATOM     11  C   UNL     1       8.246   0.164  -5.999  1.00  0.00    -0.000 C 
BRANCH  11  12
ATOM     12  C   UNL     1       9.469  -0.015  -6.912  1.00  0.00    -0.000 C 
BRANCH  12  13
ATOM     13  C   UNL     1       9.129   0.160  -8.399  1.00  0.00    -0.003 C 
ATOM     14  C   UNL     1       9.013  -1.192  -9.098  1.00  0.00     0.004 C 
ENDBRANCH  12  13
ENDBRANCH  11  12
ENDBRANCH  10  11
ENDBRANCH   9  10
ENDBRANCH   1   9
TORSDOF 10
ENDMDL
