MODEL 1
REMARK VINA RESULT:    -4.002      0.000      0.000
REMARK INTER + INTRA:         -15.085
REMARK INTER:                 -10.554
REMARK INTRA:                  -4.531
REMARK UNBOUND:                -4.531
REMARK SMILES CCCCCCCCCCCCCCCCCCCCCCCCCCCCCC(=O)[O-]
REMARK SMILES IDX 16 1 17 2 18 3 19 4 20 5 21 6 22 7 23 8 24 9 25 10 26 11
REMARK SMILES IDX 27 12 28 13 29 14 30 15 31 16 32 17 15 18 14 19 13 20 12 21
REMARK SMILES IDX 11 22 10 23 9 24 8 25 7 26 6 27 5 28 4 29 3 30 2 31 1 32
REMARK H PARENT
REMARK Flexibility Score: inf
ROOT
ATOM      1  C   UNL     1       6.606   6.290  -2.703  1.00  0.00     0.000 C 
ENDROOT
BRANCH   1   2
ATOM      2  C   UNL     1       7.500   5.034  -2.644  1.00  0.00     0.000 C 
BRANCH   2   3
ATOM      3  C   UNL     1       7.745   4.468  -1.229  1.00  0.00     0.000 C 
BRANCH   3   4
ATOM      4  C   UNL     1       9.175   4.656  -0.691  1.00  0.00     0.000 C 
BRANCH   4   5
ATOM      5  C   UNL     1       9.233   5.615   0.508  1.00  0.00     0.000 C 
BRANCH   5   6
ATOM      6  C   UNL     1      10.632   6.232   0.657  1.00  0.00     0.000 C 
BRANCH   6   7
ATOM      7  C   UNL     1      10.586   7.704   1.100  1.00  0.00     0.000 C 
BRANCH   7   8
ATOM      8  C   UNL     1       9.154   8.233   1.262  1.00  0.00     0.000 C 
BRANCH   8   9
ATOM      9  C   UNL     1       9.077   9.272   2.388  1.00  0.00     0.000 C 
BRANCH   9  10
ATOM     10  C   UNL     1       9.001   8.591   3.760  1.00  0.00     0.000 C 
BRANCH  10  11
ATOM     11  C   UNL     1       9.064   9.622   4.893  1.00  0.00     0.000 C 
BRANCH  11  12
ATOM     12  C   UNL     1       8.083  10.777   4.639  1.00  0.00     0.000 C 
BRANCH  12  13
ATOM     13  C   UNL     1       7.031  10.919   5.751  1.00  0.00     0.006 C 
BRANCH  13  14
ATOM     14  C   UNL     1       7.369  10.090   6.997  1.00  0.00     0.053 C 
BRANCH  14  15
ATOM     15  C   UNL     1       6.166   9.949   7.873  1.00  0.00     0.041 C 
ATOM     16  O   UNL     1       5.210  10.763   7.773  1.00  0.00    -0.550 OA
ATOM     17  O   UNL     1       6.118   8.946   8.832  1.00  0.00    -0.550 OA
ENDBRANCH  14  15
ENDBRANCH  13  14
ENDBRANCH  12  13
ENDBRANCH  11  12
ENDBRANCH  10  11
ENDBRANCH   9  10
ENDBRANCH   8   9
ENDBRANCH   7   8
ENDBRANCH   6   7
ENDBRANCH   5   6
ENDBRANCH   4   5
ENDBRANCH   3   4
ENDBRANCH   2   3
ENDBRANCH   1   2
BRANCH   1  18
ATOM     18  C   UNL     1       7.011   7.418  -1.737  1.00  0.00     0.000 C 
BRANCH  18  19
ATOM     19  C   UNL     1       6.114   8.662  -1.866  1.00  0.00     0.000 C 
BRANCH  19  20
ATOM     20  C   UNL     1       6.909   9.980  -1.728  1.00  0.00     0.000 C 
BRANCH  20  21
ATOM     21  C   UNL     1       7.524  10.480  -3.050  1.00  0.00     0.000 C 
BRANCH  21  22
ATOM     22  C   UNL     1       9.052  10.653  -3.031  1.00  0.00     0.000 C 
BRANCH  22  23
ATOM     23  C   UNL     1       9.748   9.721  -2.028  1.00  0.00     0.000 C 
BRANCH  23  24
ATOM     24  C   UNL     1      10.786   8.838  -2.735  1.00  0.00    -0.000 C 
BRANCH  24  25
ATOM     25  C   UNL     1      10.263   7.419  -3.011  1.00  0.00    -0.000 C 
BRANCH  25  26
ATOM     26  C   UNL     1      10.168   7.102  -4.514  1.00  0.00    -0.000 C 
BRANCH  26  27
ATOM     27  C   UNL     1       8.939   7.746  -5.176  1.00  0.00    -0.000 C 
BRANCH  27  28
ATOM     28  C   UNL     1       8.092   6.734  -5.962  1.00  0.00    -0.000 C 
BRANCH  28  29
ATOM     29  C   UNL     1       8.730   5.336  -5.925  1.00  0.00    -0.000 C 
BRANCH  29  30
ATOM     30  C   UNL     1       8.656   4.615  -7.279  1.00  0.00    -0.000 C 
BRANCH  30  31
ATOM     31  C   UNL     1       8.150   5.521  -8.409  1.00  0.00    -0.003 C 
ATOM     32  C   UNL     1       9.269   5.848  -9.395  1.00  0.00     0.004 C 
ENDBRANCH  30  31
ENDBRANCH  29  30
ENDBRANCH  28  29
ENDBRANCH  27  28
ENDBRANCH  26  27
ENDBRANCH  25  26
ENDBRANCH  24  25
ENDBRANCH  23  24
ENDBRANCH  22  23
ENDBRANCH  21  22
ENDBRANCH  20  21
ENDBRANCH  19  20
ENDBRANCH  18  19
ENDBRANCH   1  18
TORSDOF 28
ENDMDL
MODEL 2
REMARK VINA RESULT:    -3.791      4.559      9.501
REMARK INTER + INTRA:         -14.527
REMARK INTER:                  -9.517
REMARK INTRA:                  -5.009
REMARK UNBOUND:                -4.531
REMARK SMILES CCCCCCCCCCCCCCCCCCCCCCCCCCCCCC(=O)[O-]
REMARK SMILES IDX 16 1 17 2 18 3 19 4 20 5 21 6 22 7 23 8 24 9 25 10 26 11
REMARK SMILES IDX 27 12 28 13 29 14 30 15 31 16 32 17 15 18 14 19 13 20 12 21
REMARK SMILES IDX 11 22 10 23 9 24 8 25 7 26 6 27 5 28 4 29 3 30 2 31 1 32
REMARK H PARENT
REMARK Flexibility Score: inf
ROOT
ATOM      1  C   UNL     1       8.615   4.001  -1.496  1.00  0.00     0.000 C 
ENDROOT
BRANCH   1   2
ATOM      2  C   UNL     1      10.029   4.411  -1.037  1.00  0.00     0.000 C 
BRANCH   2   3
ATOM      3  C   UNL     1      11.073   4.550  -2.165  1.00  0.00     0.000 C 
BRANCH   3   4
ATOM      4  C   UNL     1      11.073   5.908  -2.889  1.00  0.00     0.000 C 
BRANCH   4   5
ATOM      5  C   UNL     1      10.607   5.801  -4.349  1.00  0.00     0.000 C 
BRANCH   5   6
ATOM      6  C   UNL     1       9.248   6.488  -4.549  1.00  0.00     0.000 C 
BRANCH   6   7
ATOM      7  C   UNL     1       8.127   5.495  -4.897  1.00  0.00     0.000 C 
BRANCH   7   8
ATOM      8  C   UNL     1       7.756   5.511  -6.387  1.00  0.00     0.000 C 
BRANCH   8   9
ATOM      9  C   UNL     1       8.619   4.520  -7.178  1.00  0.00     0.000 C 
BRANCH   9  10
ATOM     10  C   UNL     1       8.812   4.990  -8.624  1.00  0.00     0.000 C 
BRANCH  10  11
ATOM     11  C   UNL     1      10.300   5.116  -8.970  1.00  0.00     0.000 C 
BRANCH  11  12
ATOM     12  C   UNL     1      10.983   6.170  -8.085  1.00  0.00     0.000 C 
BRANCH  12  13
ATOM     13  C   UNL     1      10.638   7.608  -8.502  1.00  0.00     0.006 C 
BRANCH  13  14
ATOM     14  C   UNL     1       9.980   8.413  -7.375  1.00  0.00     0.053 C 
BRANCH  14  15
ATOM     15  C   UNL     1       8.639   8.916  -7.803  1.00  0.00     0.041 C 
ATOM     16  O   UNL     1       8.094   9.868  -7.185  1.00  0.00    -0.550 OA
ATOM     17  O   UNL     1       7.971   8.306  -8.857  1.00  0.00    -0.550 OA
ENDBRANCH  14  15
ENDBRANCH  13  14
ENDBRANCH  12  13
ENDBRANCH  11  12
ENDBRANCH  10  11
ENDBRANCH   9  10
ENDBRANCH   8   9
ENDBRANCH   7   8
ENDBRANCH   6   7
ENDBRANCH   5   6
ENDBRANCH   4   5
ENDBRANCH   3   4
ENDBRANCH   2   3
ENDBRANCH   1   2
BRANCH   1  18
ATOM     18  C   UNL     1       7.485   4.931  -1.019  1.00  0.00     0.000 C 
BRANCH  18  19
ATOM     19  C   UNL     1       7.854   6.421  -1.130  1.00  0.00     0.000 C 
BRANCH  19  20
ATOM     20  C   UNL     1       6.775   7.242  -1.871  1.00  0.00     0.000 C 
BRANCH  20  21
ATOM     21  C   UNL     1       7.221   8.672  -2.239  1.00  0.00     0.000 C 
BRANCH  21  22
ATOM     22  C   UNL     1       6.372   9.795  -1.620  1.00  0.00     0.000 C 
BRANCH  22  23
ATOM     23  C   UNL     1       7.123  10.586  -0.538  1.00  0.00     0.000 C 
BRANCH  23  24
ATOM     24  C   UNL     1       8.615  10.704  -0.886  1.00  0.00    -0.000 C 
BRANCH  24  25
ATOM     25  C   UNL     1       9.518  10.608   0.354  1.00  0.00    -0.000 C 
BRANCH  25  26
ATOM     26  C   UNL     1       8.807   9.966   1.559  1.00  0.00    -0.000 C 
BRANCH  26  27
ATOM     27  C   UNL     1       8.995   8.441   1.612  1.00  0.00    -0.000 C 
BRANCH  27  28
ATOM     28  C   UNL     1      10.416   8.007   1.223  1.00  0.00    -0.000 C 
BRANCH  28  29
ATOM     29  C   UNL     1      10.707   6.578   1.707  1.00  0.00    -0.000 C 
BRANCH  29  30
ATOM     30  C   UNL     1       9.530   5.963   2.480  1.00  0.00    -0.000 C 
BRANCH  30  31
ATOM     31  C   UNL     1       9.919   5.507   3.892  1.00  0.00    -0.003 C 
ATOM     32  C   UNL     1       8.763   4.777   4.572  1.00  0.00     0.004 C 
ENDBRANCH  30  31
ENDBRANCH  29  30
ENDBRANCH  28  29
ENDBRANCH  27  28
ENDBRANCH  26  27
ENDBRANCH  25  26
ENDBRANCH  24  25
ENDBRANCH  23  24
ENDBRANCH  22  23
ENDBRANCH  21  22
ENDBRANCH  20  21
ENDBRANCH  19  20
ENDBRANCH  18  19
ENDBRANCH   1  18
TORSDOF 28
ENDMDL
MODEL 3
REMARK VINA RESULT:    -3.616     16.604     20.230
REMARK INTER + INTRA:         -14.067
REMARK INTER:                  -9.547
REMARK INTRA:                  -4.520
REMARK UNBOUND:                -4.531
REMARK SMILES CCCCCCCCCCCCCCCCCCCCCCCCCCCCCC(=O)[O-]
REMARK SMILES IDX 16 1 17 2 18 3 19 4 20 5 21 6 22 7 23 8 24 9 25 10 26 11
REMARK SMILES IDX 27 12 28 13 29 14 30 15 31 16 32 17 15 18 14 19 13 20 12 21
REMARK SMILES IDX 11 22 10 23 9 24 8 25 7 26 6 27 5 28 4 29 3 30 2 31 1 32
REMARK H PARENT
REMARK Flexibility Score: inf
ROOT
ATOM      1  C   UNL     1       2.120  -5.016  -8.159  1.00  0.00     0.000 C 
ENDROOT
BRANCH   1   2
ATOM      2  C   UNL     1       1.205  -4.856  -6.927  1.00  0.00     0.000 C 
BRANCH   2   3
ATOM      3  C   UNL     1       0.651  -6.174  -6.345  1.00  0.00     0.000 C 
BRANCH   3   4
ATOM      4  C   UNL     1      -0.191  -7.014  -7.321  1.00  0.00     0.000 C 
BRANCH   4   5
ATOM      5  C   UNL     1      -1.355  -6.219  -7.932  1.00  0.00     0.000 C 
BRANCH   5   6
ATOM      6  C   UNL     1      -1.532  -6.551  -9.422  1.00  0.00     0.000 C 
BRANCH   6   7
ATOM      7  C   UNL     1      -2.005  -7.996  -9.654  1.00  0.00     0.000 C 
BRANCH   7   8
ATOM      8  C   UNL     1      -3.505  -8.089  -9.971  1.00  0.00     0.000 C 
BRANCH   8   9
ATOM      9  C   UNL     1      -4.295  -8.571  -8.747  1.00  0.00     0.000 C 
BRANCH   9  10
ATOM     10  C   UNL     1      -5.156  -7.442  -8.169  1.00  0.00     0.000 C 
BRANCH  10  11
ATOM     11  C   UNL     1      -6.647  -7.710  -8.401  1.00  0.00     0.000 C 
BRANCH  11  12
ATOM     12  C   UNL     1      -7.482  -7.244  -7.198  1.00  0.00     0.000 C 
BRANCH  12  13
ATOM     13  C   UNL     1      -6.979  -7.822  -5.866  1.00  0.00     0.006 C 
BRANCH  13  14
ATOM     14  C   UNL     1      -7.024  -6.803  -4.721  1.00  0.00     0.053 C 
BRANCH  14  15
ATOM     15  C   UNL     1      -8.113  -7.147  -3.755  1.00  0.00     0.041 C 
ATOM     16  O   UNL     1      -9.125  -6.404  -3.651  1.00  0.00    -0.550 OA
ATOM     17  O   UNL     1      -7.989  -8.262  -2.937  1.00  0.00    -0.550 OA
ENDBRANCH  14  15
ENDBRANCH  13  14
ENDBRANCH  12  13
ENDBRANCH  11  12
ENDBRANCH  10  11
ENDBRANCH   9  10
ENDBRANCH   8   9
ENDBRANCH   7   8
ENDBRANCH   6   7
ENDBRANCH   5   6
ENDBRANCH   4   5
ENDBRANCH   3   4
ENDBRANCH   2   3
ENDBRANCH   1   2
BRANCH   1  18
ATOM     18  C   UNL     1       1.540  -4.457  -9.471  1.00  0.00     0.000 C 
BRANCH  18  19
ATOM     19  C   UNL     1       1.308  -2.936  -9.419  1.00  0.00     0.000 C 
BRANCH  19  20
ATOM     20  C   UNL     1      -0.191  -2.566  -9.479  1.00  0.00     0.000 C 
BRANCH  20  21
ATOM     21  C   UNL     1      -0.760  -2.042  -8.145  1.00  0.00     0.000 C 
BRANCH  21  22
ATOM     22  C   UNL     1      -2.080  -2.693  -7.702  1.00  0.00     0.000 C 
BRANCH  22  23
ATOM     23  C   UNL     1      -2.998  -3.049  -8.882  1.00  0.00     0.000 C 
BRANCH  23  24
ATOM     24  C   UNL     1      -4.111  -4.009  -8.435  1.00  0.00    -0.000 C 
BRANCH  24  25
ATOM     25  C   UNL     1      -4.282  -4.043  -6.908  1.00  0.00    -0.000 C 
BRANCH  25  26
ATOM     26  C   UNL     1      -5.758  -3.990  -6.475  1.00  0.00    -0.000 C 
BRANCH  26  27
ATOM     27  C   UNL     1      -6.698  -3.601  -7.627  1.00  0.00    -0.000 C 
BRANCH  27  28
ATOM     28  C   UNL     1      -7.259  -2.179  -7.479  1.00  0.00    -0.000 C 
BRANCH  28  29
ATOM     29  C   UNL     1      -7.322  -1.763  -6.001  1.00  0.00    -0.000 C 
BRANCH  29  30
ATOM     30  C   UNL     1      -7.424  -0.242  -5.817  1.00  0.00    -0.000 C 
BRANCH  30  31
ATOM     31  C   UNL     1      -7.139   0.533  -7.110  1.00  0.00    -0.003 C 
ATOM     32  C   UNL     1      -6.321   1.792  -6.828  1.00  0.00     0.004 C 
ENDBRANCH  30  31
ENDBRANCH  29  30
ENDBRANCH  28  29
ENDBRANCH  27  28
ENDBRANCH  26  27
ENDBRANCH  25  26
ENDBRANCH  24  25
ENDBRANCH  23  24
ENDBRANCH  22  23
ENDBRANCH  21  22
ENDBRANCH  20  21
ENDBRANCH  19  20
ENDBRANCH  18  19
ENDBRANCH   1  18
TORSDOF 28
ENDMDL
MODEL 4
REMARK VINA RESULT:    -3.578      4.294     11.534
REMARK INTER + INTRA:         -13.966
REMARK INTER:                 -10.881
REMARK INTRA:                  -3.085
REMARK UNBOUND:                -4.531
REMARK SMILES CCCCCCCCCCCCCCCCCCCCCCCCCCCCCC(=O)[O-]
REMARK SMILES IDX 16 1 17 2 18 3 19 4 20 5 21 6 22 7 23 8 24 9 25 10 26 11
REMARK SMILES IDX 27 12 28 13 29 14 30 15 31 16 32 17 15 18 14 19 13 20 12 21
REMARK SMILES IDX 11 22 10 23 9 24 8 25 7 26 6 27 5 28 4 29 3 30 2 31 1 32
REMARK H PARENT
REMARK Flexibility Score: inf
ROOT
ATOM      1  C   UNL     1       9.478   7.381   2.088  1.00  0.00     0.000 C 
ENDROOT
BRANCH   1   2
ATOM      2  C   UNL     1       9.933   5.919   1.895  1.00  0.00     0.000 C 
BRANCH   2   3
ATOM      3  C   UNL     1       9.732   5.350   0.475  1.00  0.00     0.000 C 
BRANCH   3   4
ATOM      4  C   UNL     1       8.305   5.484  -0.085  1.00  0.00     0.000 C 
BRANCH   4   5
ATOM      5  C   UNL     1       7.962   4.383  -1.100  1.00  0.00     0.000 C 
BRANCH   5   6
ATOM      6  C   UNL     1       7.463   4.983  -2.423  1.00  0.00     0.000 C 
BRANCH   6   7
ATOM      7  C   UNL     1       8.006   6.400  -2.673  1.00  0.00     0.000 C 
BRANCH   7   8
ATOM      8  C   UNL     1       8.101   6.747  -4.166  1.00  0.00     0.000 C 
BRANCH   8   9
ATOM      9  C   UNL     1       7.620   5.576  -5.033  1.00  0.00     0.000 C 
BRANCH   9  10
ATOM     10  C   UNL     1       8.654   5.229  -6.110  1.00  0.00     0.000 C 
BRANCH  10  11
ATOM     11  C   UNL     1       7.974   4.898  -7.444  1.00  0.00     0.000 C 
BRANCH  11  12
ATOM     12  C   UNL     1       7.232   6.123  -8.000  1.00  0.00     0.000 C 
BRANCH  12  13
ATOM     13  C   UNL     1       8.107   6.974  -8.933  1.00  0.00     0.006 C 
BRANCH  13  14
ATOM     14  C   UNL     1       8.051   8.470  -8.600  1.00  0.00     0.053 C 
BRANCH  14  15
ATOM     15  C   UNL     1       8.786   8.752  -7.329  1.00  0.00     0.041 C 
ATOM     16  O   UNL     1       8.270   9.494  -6.451  1.00  0.00    -0.550 OA
ATOM     17  O   UNL     1      10.058   8.233  -7.131  1.00  0.00    -0.550 OA
ENDBRANCH  14  15
ENDBRANCH  13  14
ENDBRANCH  12  13
ENDBRANCH  11  12
ENDBRANCH  10  11
ENDBRANCH   9  10
ENDBRANCH   8   9
ENDBRANCH   7   8
ENDBRANCH   6   7
ENDBRANCH   5   6
ENDBRANCH   4   5
ENDBRANCH   3   4
ENDBRANCH   2   3
ENDBRANCH   1   2
BRANCH   1  18
ATOM     18  C   UNL     1       9.269   7.805   3.552  1.00  0.00     0.000 C 
BRANCH  18  19
ATOM     19  C   UNL     1       8.971   9.308   3.699  1.00  0.00     0.000 C 
BRANCH  19  20
ATOM     20  C   UNL     1      10.228  10.126   4.069  1.00  0.00     0.000 C 
BRANCH  20  21
ATOM     21  C   UNL     1      10.251  10.611   5.533  1.00  0.00     0.000 C 
BRANCH  21  22
ATOM     22  C   UNL     1      10.987   9.682   6.513  1.00  0.00     0.000 C 
BRANCH  22  23
ATOM     23  C   UNL     1      10.034   8.900   7.428  1.00  0.00     0.000 C 
BRANCH  23  24
ATOM     24  C   UNL     1      10.181   7.388   7.203  1.00  0.00    -0.000 C 
BRANCH  24  25
ATOM     25  C   UNL     1       8.891   6.616   7.523  1.00  0.00    -0.000 C 
BRANCH  25  26
ATOM     26  C   UNL     1       8.305   6.981   8.899  1.00  0.00    -0.000 C 
BRANCH  26  27
ATOM     27  C   UNL     1       6.911   6.376   9.126  1.00  0.00    -0.000 C 
BRANCH  27  28
ATOM     28  C   UNL     1       5.955   7.343   9.841  1.00  0.00    -0.000 C 
BRANCH  28  29
ATOM     29  C   UNL     1       6.464   8.790   9.745  1.00  0.00    -0.000 C 
BRANCH  29  30
ATOM     30  C   UNL     1       5.809   9.574   8.598  1.00  0.00    -0.000 C 
BRANCH  30  31
ATOM     31  C   UNL     1       6.778  10.547   7.915  1.00  0.00    -0.003 C 
ATOM     32  C   UNL     1       6.686  10.438   6.394  1.00  0.00     0.004 C 
ENDBRANCH  30  31
ENDBRANCH  29  30
ENDBRANCH  28  29
ENDBRANCH  27  28
ENDBRANCH  26  27
ENDBRANCH  25  26
ENDBRANCH  24  25
ENDBRANCH  23  24
ENDBRANCH  22  23
ENDBRANCH  21  22
ENDBRANCH  20  21
ENDBRANCH  19  20
ENDBRANCH  18  19
ENDBRANCH   1  18
TORSDOF 28
ENDMDL
MODEL 5
REMARK VINA RESULT:    -3.574      4.740      9.321
REMARK INTER + INTRA:         -13.956
REMARK INTER:                  -9.674
REMARK INTRA:                  -4.282
REMARK UNBOUND:                -4.531
REMARK SMILES CCCCCCCCCCCCCCCCCCCCCCCCCCCCCC(=O)[O-]
REMARK SMILES IDX 16 1 17 2 18 3 19 4 20 5 21 6 22 7 23 8 24 9 25 10 26 11
REMARK SMILES IDX 27 12 28 13 29 14 30 15 31 16 32 17 15 18 14 19 13 20 12 21
REMARK SMILES IDX 11 22 10 23 9 24 8 25 7 26 6 27 5 28 4 29 3 30 2 31 1 32
REMARK H PARENT
REMARK Flexibility Score: inf
ROOT
ATOM      1  C   UNL     1       8.494   4.062  -1.496  1.00  0.00     0.000 C 
ENDROOT
BRANCH   1   2
ATOM      2  C   UNL     1      10.028   4.136  -1.348  1.00  0.00     0.000 C 
BRANCH   2   3
ATOM      3  C   UNL     1      10.780   4.692  -2.576  1.00  0.00     0.000 C 
BRANCH   3   4
ATOM      4  C   UNL     1      11.080   6.200  -2.529  1.00  0.00     0.000 C 
BRANCH   4   5
ATOM      5  C   UNL     1      10.380   6.977  -3.655  1.00  0.00     0.000 C 
BRANCH   5   6
ATOM      6  C   UNL     1      11.037   8.349  -3.874  1.00  0.00     0.000 C 
BRANCH   6   7
ATOM      7  C   UNL     1      10.127   9.515  -3.454  1.00  0.00     0.000 C 
BRANCH   7   8
ATOM      8  C   UNL     1       9.723  10.411  -4.634  1.00  0.00     0.000 C 
BRANCH   8   9
ATOM      9  C   UNL     1       8.368   9.982  -5.210  1.00  0.00     0.000 C 
BRANCH   9  10
ATOM     10  C   UNL     1       8.243  10.386  -6.684  1.00  0.00     0.000 C 
BRANCH  10  11
ATOM     11  C   UNL     1       9.042   9.439  -7.586  1.00  0.00     0.000 C 
BRANCH  11  12
ATOM     12  C   UNL     1       8.283   8.122  -7.808  1.00  0.00     0.000 C 
BRANCH  12  13
ATOM     13  C   UNL     1       9.090   7.102  -8.628  1.00  0.00     0.006 C 
BRANCH  13  14
ATOM     14  C   UNL     1       9.566   5.910  -7.790  1.00  0.00     0.053 C 
BRANCH  14  15
ATOM     15  C   UNL     1       8.821   4.670  -8.171  1.00  0.00     0.041 C 
ATOM     16  O   UNL     1       7.662   4.466  -7.724  1.00  0.00    -0.550 OA
ATOM     17  O   UNL     1       9.424   3.719  -8.984  1.00  0.00    -0.550 OA
ENDBRANCH  14  15
ENDBRANCH  13  14
ENDBRANCH  12  13
ENDBRANCH  11  12
ENDBRANCH  10  11
ENDBRANCH   9  10
ENDBRANCH   8   9
ENDBRANCH   7   8
ENDBRANCH   6   7
ENDBRANCH   5   6
ENDBRANCH   4   5
ENDBRANCH   3   4
ENDBRANCH   2   3
ENDBRANCH   1   2
BRANCH   1  18
ATOM     18  C   UNL     1       7.709   5.029  -0.592  1.00  0.00     0.000 C 
BRANCH  18  19
ATOM     19  C   UNL     1       7.939   6.506  -0.960  1.00  0.00     0.000 C 
BRANCH  19  20
ATOM     20  C   UNL     1       7.046   6.967  -2.134  1.00  0.00     0.000 C 
BRANCH  20  21
ATOM     21  C   UNL     1       6.953   8.499  -2.285  1.00  0.00     0.000 C 
BRANCH  21  22
ATOM     22  C   UNL     1       5.603   9.110  -1.875  1.00  0.00     0.000 C 
BRANCH  22  23
ATOM     23  C   UNL     1       5.752  10.435  -1.112  1.00  0.00     0.000 C 
BRANCH  23  24
ATOM     24  C   UNL     1       7.163  11.014  -1.297  1.00  0.00    -0.000 C 
BRANCH  24  25
ATOM     25  C   UNL     1       7.949  11.083   0.022  1.00  0.00    -0.000 C 
BRANCH  25  26
ATOM     26  C   UNL     1       9.152  10.123   0.049  1.00  0.00    -0.000 C 
BRANCH  26  27
ATOM     27  C   UNL     1       9.601   9.779   1.478  1.00  0.00    -0.000 C 
BRANCH  27  28
ATOM     28  C   UNL     1       9.037   8.438   1.970  1.00  0.00    -0.000 C 
BRANCH  28  29
ATOM     29  C   UNL     1       9.373   8.209   3.451  1.00  0.00    -0.000 C 
BRANCH  29  30
ATOM     30  C   UNL     1       9.516   6.721   3.803  1.00  0.00    -0.000 C 
BRANCH  30  31
ATOM     31  C   UNL     1       9.359   5.804   2.583  1.00  0.00    -0.003 C 
ATOM     32  C   UNL     1      10.698   5.186   2.184  1.00  0.00     0.004 C 
ENDBRANCH  30  31
ENDBRANCH  29  30
ENDBRANCH  28  29
ENDBRANCH  27  28
ENDBRANCH  26  27
ENDBRANCH  25  26
ENDBRANCH  24  25
ENDBRANCH  23  24
ENDBRANCH  22  23
ENDBRANCH  21  22
ENDBRANCH  20  21
ENDBRANCH  19  20
ENDBRANCH  18  19
ENDBRANCH   1  18
TORSDOF 28
ENDMDL
MODEL 6
REMARK VINA RESULT:    -3.496      2.980     10.261
REMARK INTER + INTRA:         -13.751
REMARK INTER:                 -10.229
REMARK INTRA:                  -3.521
REMARK UNBOUND:                -4.531
REMARK SMILES CCCCCCCCCCCCCCCCCCCCCCCCCCCCCC(=O)[O-]
REMARK SMILES IDX 16 1 17 2 18 3 19 4 20 5 21 6 22 7 23 8 24 9 25 10 26 11
REMARK SMILES IDX 27 12 28 13 29 14 30 15 31 16 32 17 15 18 14 19 13 20 12 21
REMARK SMILES IDX 11 22 10 23 9 24 8 25 7 26 6 27 5 28 4 29 3 30 2 31 1 32
REMARK H PARENT
REMARK Flexibility Score: inf
ROOT
ATOM      1  C   UNL     1       9.258   7.672   2.317  1.00  0.00     0.000 C 
ENDROOT
BRANCH   1   2
ATOM      2  C   UNL     1       9.270   6.141   2.131  1.00  0.00     0.000 C 
BRANCH   2   3
ATOM      3  C   UNL     1      10.238   5.618   1.048  1.00  0.00     0.000 C 
BRANCH   3   4
ATOM      4  C   UNL     1       9.648   5.542  -0.371  1.00  0.00     0.000 C 
BRANCH   4   5
ATOM      5  C   UNL     1       8.190   5.058  -0.381  1.00  0.00     0.000 C 
BRANCH   5   6
ATOM      6  C   UNL     1       7.820   4.439  -1.737  1.00  0.00     0.000 C 
BRANCH   6   7
ATOM      7  C   UNL     1       7.038   5.410  -2.638  1.00  0.00     0.000 C 
BRANCH   7   8
ATOM      8  C   UNL     1       7.474   5.340  -4.109  1.00  0.00     0.000 C 
BRANCH   8   9
ATOM      9  C   UNL     1       8.923   5.816  -4.274  1.00  0.00     0.000 C 
BRANCH   9  10
ATOM     10  C   UNL     1       8.989   7.100  -5.109  1.00  0.00     0.000 C 
BRANCH  10  11
ATOM     11  C   UNL     1       8.643   8.330  -4.260  1.00  0.00     0.000 C 
BRANCH  11  12
ATOM     12  C   UNL     1       9.263   8.221  -2.858  1.00  0.00     0.000 C 
BRANCH  12  13
ATOM     13  C   UNL     1       8.709   9.269  -1.881  1.00  0.00     0.006 C 
BRANCH  13  14
ATOM     14  C   UNL     1       7.532  10.061  -2.463  1.00  0.00     0.053 C 
BRANCH  14  15
ATOM     15  C   UNL     1       6.275   9.760  -1.712  1.00  0.00     0.041 C 
ATOM     16  O   UNL     1       5.859  10.558  -0.831  1.00  0.00    -0.550 OA
ATOM     17  O   UNL     1       5.587   8.578  -1.951  1.00  0.00    -0.550 OA
ENDBRANCH  14  15
ENDBRANCH  13  14
ENDBRANCH  12  13
ENDBRANCH  11  12
ENDBRANCH  10  11
ENDBRANCH   9  10
ENDBRANCH   8   9
ENDBRANCH   7   8
ENDBRANCH   6   7
ENDBRANCH   5   6
ENDBRANCH   4   5
ENDBRANCH   3   4
ENDBRANCH   2   3
ENDBRANCH   1   2
BRANCH   1  18
ATOM     18  C   UNL     1       9.378   8.147   3.776  1.00  0.00     0.000 C 
BRANCH  18  19
ATOM     19  C   UNL     1       9.053   9.643   3.943  1.00  0.00     0.000 C 
BRANCH  19  20
ATOM     20  C   UNL     1      10.238  10.442   4.529  1.00  0.00     0.000 C 
BRANCH  20  21
ATOM     21  C   UNL     1      10.104  10.745   6.035  1.00  0.00     0.000 C 
BRANCH  21  22
ATOM     22  C   UNL     1      10.791   9.730   6.965  1.00  0.00     0.000 C 
BRANCH  22  23
ATOM     23  C   UNL     1       9.793   8.897   7.783  1.00  0.00     0.000 C 
BRANCH  23  24
ATOM     24  C   UNL     1       9.825   7.425   7.343  1.00  0.00    -0.000 C 
BRANCH  24  25
ATOM     25  C   UNL     1       8.573   6.651   7.786  1.00  0.00    -0.000 C 
BRANCH  25  26
ATOM     26  C   UNL     1       8.172   6.953   9.242  1.00  0.00    -0.000 C 
BRANCH  26  27
ATOM     27  C   UNL     1       6.679   6.701   9.506  1.00  0.00    -0.000 C 
BRANCH  27  28
ATOM     28  C   UNL     1       5.886   8.002   9.705  1.00  0.00    -0.000 C 
BRANCH  28  29
ATOM     29  C   UNL     1       6.829   9.209   9.824  1.00  0.00    -0.000 C 
BRANCH  29  30
ATOM     30  C   UNL     1       6.202  10.505   9.290  1.00  0.00    -0.000 C 
BRANCH  30  31
ATOM     31  C   UNL     1       5.525  10.320   7.926  1.00  0.00    -0.003 C 
ATOM     32  C   UNL     1       6.551  10.340   6.795  1.00  0.00     0.004 C 
ENDBRANCH  30  31
ENDBRANCH  29  30
ENDBRANCH  28  29
ENDBRANCH  27  28
ENDBRANCH  26  27
ENDBRANCH  25  26
ENDBRANCH  24  25
ENDBRANCH  23  24
ENDBRANCH  22  23
ENDBRANCH  21  22
ENDBRANCH  20  21
ENDBRANCH  19  20
ENDBRANCH  18  19
ENDBRANCH   1  18
TORSDOF 28
ENDMDL
MODEL 7
REMARK VINA RESULT:    -3.451     16.259     18.903
REMARK INTER + INTRA:         -13.630
REMARK INTER:                  -9.510
REMARK INTRA:                  -4.121
REMARK UNBOUND:                -4.531
REMARK SMILES CCCCCCCCCCCCCCCCCCCCCCCCCCCCCC(=O)[O-]
REMARK SMILES IDX 16 1 17 2 18 3 19 4 20 5 21 6 22 7 23 8 24 9 25 10 26 11
REMARK SMILES IDX 27 12 28 13 29 14 30 15 31 16 32 17 15 18 14 19 13 20 12 21
REMARK SMILES IDX 11 22 10 23 9 24 8 25 7 26 6 27 5 28 4 29 3 30 2 31 1 32
REMARK H PARENT
REMARK Flexibility Score: inf
ROOT
ATOM      1  C   UNL     1      -1.448  -4.246  -7.114  1.00  0.00     0.000 C 
ENDROOT
BRANCH   1   2
ATOM      2  C   UNL     1      -1.663  -3.300  -8.313  1.00  0.00     0.000 C 
BRANCH   2   3
ATOM      3  C   UNL     1      -0.576  -2.220  -8.501  1.00  0.00     0.000 C 
BRANCH   3   4
ATOM      4  C   UNL     1      -1.061  -0.915  -9.157  1.00  0.00     0.000 C 
BRANCH   4   5
ATOM      5  C   UNL     1      -2.317  -1.118 -10.018  1.00  0.00     0.000 C 
BRANCH   5   6
ATOM      6  C   UNL     1      -3.412  -0.105  -9.649  1.00  0.00     0.000 C 
BRANCH   6   7
ATOM      7  C   UNL     1      -2.873   1.330  -9.525  1.00  0.00     0.000 C 
BRANCH   7   8
ATOM      8  C   UNL     1      -3.741   2.216  -8.619  1.00  0.00     0.000 C 
BRANCH   8   9
ATOM      9  C   UNL     1      -5.195   1.727  -8.604  1.00  0.00     0.000 C 
BRANCH   9  10
ATOM     10  C   UNL     1      -5.759   1.723  -7.178  1.00  0.00     0.000 C 
BRANCH  10  11
ATOM     11  C   UNL     1      -7.207   2.224  -7.155  1.00  0.00     0.000 C 
BRANCH  11  12
ATOM     12  C   UNL     1      -7.994   1.685  -8.359  1.00  0.00     0.000 C 
BRANCH  12  13
ATOM     13  C   UNL     1      -9.114   0.715  -7.950  1.00  0.00     0.006 C 
BRANCH  13  14
ATOM     14  C   UNL     1      -9.125   0.420  -6.445  1.00  0.00     0.053 C 
BRANCH  14  15
ATOM     15  C   UNL     1      -8.614  -0.959  -6.178  1.00  0.00     0.041 C 
ATOM     16  O   UNL     1      -8.113  -1.640  -7.112  1.00  0.00    -0.550 OA
ATOM     17  O   UNL     1      -8.731  -1.511  -4.909  1.00  0.00    -0.550 OA
ENDBRANCH  14  15
ENDBRANCH  13  14
ENDBRANCH  12  13
ENDBRANCH  11  12
ENDBRANCH  10  11
ENDBRANCH   9  10
ENDBRANCH   8   9
ENDBRANCH   7   8
ENDBRANCH   6   7
ENDBRANCH   5   6
ENDBRANCH   4   5
ENDBRANCH   3   4
ENDBRANCH   2   3
ENDBRANCH   1   2
BRANCH   1  18
ATOM     18  C   UNL     1      -0.170  -3.978  -6.299  1.00  0.00     0.000 C 
BRANCH  18  19
ATOM     19  C   UNL     1       0.634  -5.259  -6.014  1.00  0.00     0.000 C 
BRANCH  19  20
ATOM     20  C   UNL     1       2.012  -5.259  -6.712  1.00  0.00     0.000 C 
BRANCH  20  21
ATOM     21  C   UNL     1       1.952  -4.908  -8.213  1.00  0.00     0.000 C 
BRANCH  21  22
ATOM     22  C   UNL     1       1.792  -6.112  -9.155  1.00  0.00     0.000 C 
BRANCH  22  23
ATOM     23  C   UNL     1       0.332  -6.368  -9.558  1.00  0.00     0.000 C 
BRANCH  23  24
ATOM     24  C   UNL     1      -0.284  -7.480  -8.696  1.00  0.00    -0.000 C 
BRANCH  24  25
ATOM     25  C   UNL     1      -1.814  -7.546  -8.824  1.00  0.00    -0.000 C 
BRANCH  25  26
ATOM     26  C   UNL     1      -2.367  -6.554  -9.863  1.00  0.00    -0.000 C 
BRANCH  26  27
ATOM     27  C   UNL     1      -3.890  -6.378  -9.759  1.00  0.00    -0.000 C 
BRANCH  27  28
ATOM     28  C   UNL     1      -4.352  -6.059  -8.330  1.00  0.00    -0.000 C 
BRANCH  28  29
ATOM     29  C   UNL     1      -5.557  -5.106  -8.340  1.00  0.00    -0.000 C 
BRANCH  29  30
ATOM     30  C   UNL     1      -5.322  -3.845  -7.494  1.00  0.00    -0.000 C 
BRANCH  30  31
ATOM     31  C   UNL     1      -5.605  -4.069  -6.003  1.00  0.00    -0.003 C 
ATOM     32  C   UNL     1      -6.855  -4.923  -5.803  1.00  0.00     0.004 C 
ENDBRANCH  30  31
ENDBRANCH  29  30
ENDBRANCH  28  29
ENDBRANCH  27  28
ENDBRANCH  26  27
ENDBRANCH  25  26
ENDBRANCH  24  25
ENDBRANCH  23  24
ENDBRANCH  22  23
ENDBRANCH  21  22
ENDBRANCH  20  21
ENDBRANCH  19  20
ENDBRANCH  18  19
ENDBRANCH   1  18
TORSDOF 28
ENDMDL
MODEL 8
REMARK VINA RESULT:    -3.404      1.970      2.590
REMARK INTER + INTRA:         -13.507
REMARK INTER:                 -10.300
REMARK INTRA:                  -3.208
REMARK UNBOUND:                -4.531
REMARK SMILES CCCCCCCCCCCCCCCCCCCCCCCCCCCCCC(=O)[O-]
REMARK SMILES IDX 16 1 17 2 18 3 19 4 20 5 21 6 22 7 23 8 24 9 25 10 26 11
REMARK SMILES IDX 27 12 28 13 29 14 30 15 31 16 32 17 15 18 14 19 13 20 12 21
REMARK SMILES IDX 11 22 10 23 9 24 8 25 7 26 6 27 5 28 4 29 3 30 2 31 1 32
REMARK H PARENT
REMARK Flexibility Score: inf
ROOT
ATOM      1  C   UNL     1       7.269   6.300  -1.503  1.00  0.00     0.000 C 
ENDROOT
BRANCH   1   2
ATOM      2  C   UNL     1       7.862   5.027  -2.141  1.00  0.00     0.000 C 
BRANCH   2   3
ATOM      3  C   UNL     1       8.926   4.300  -1.292  1.00  0.00     0.000 C 
BRANCH   3   4
ATOM      4  C   UNL     1      10.163   5.144  -0.935  1.00  0.00     0.000 C 
BRANCH   4   5
ATOM      5  C   UNL     1      10.401   5.232   0.580  1.00  0.00     0.000 C 
BRANCH   5   6
ATOM      6  C   UNL     1      10.355   6.689   1.065  1.00  0.00     0.000 C 
BRANCH   6   7
ATOM      7  C   UNL     1       9.382   6.892   2.238  1.00  0.00     0.000 C 
BRANCH   7   8
ATOM      8  C   UNL     1       9.328   5.684   3.184  1.00  0.00     0.000 C 
BRANCH   8   9
ATOM      9  C   UNL     1       9.584   6.111   4.635  1.00  0.00     0.000 C 
BRANCH   9  10
ATOM     10  C   UNL     1       9.425   7.627   4.798  1.00  0.00     0.000 C 
BRANCH  10  11
ATOM     11  C   UNL     1       9.426   8.028   6.278  1.00  0.00     0.000 C 
BRANCH  11  12
ATOM     12  C   UNL     1      10.155   6.977   7.130  1.00  0.00     0.000 C 
BRANCH  12  13
ATOM     13  C   UNL     1       9.410   6.649   8.434  1.00  0.00     0.006 C 
BRANCH  13  14
ATOM     14  C   UNL     1       8.213   7.575   8.683  1.00  0.00     0.053 C 
BRANCH  14  15
ATOM     15  C   UNL     1       6.989   6.776   8.998  1.00  0.00     0.041 C 
ATOM     16  O   UNL     1       6.049   7.292   9.658  1.00  0.00    -0.550 OA
ATOM     17  O   UNL     1       6.905   5.447   8.603  1.00  0.00    -0.550 OA
ENDBRANCH  14  15
ENDBRANCH  13  14
ENDBRANCH  12  13
ENDBRANCH  11  12
ENDBRANCH  10  11
ENDBRANCH   9  10
ENDBRANCH   8   9
ENDBRANCH   7   8
ENDBRANCH   6   7
ENDBRANCH   5   6
ENDBRANCH   4   5
ENDBRANCH   3   4
ENDBRANCH   2   3
ENDBRANCH   1   2
BRANCH   1  18
ATOM     18  C   UNL     1       7.831   7.622  -2.054  1.00  0.00     0.000 C 
BRANCH  18  19
ATOM     19  C   UNL     1       7.976   8.705  -0.970  1.00  0.00     0.000 C 
BRANCH  19  20
ATOM     20  C   UNL     1       7.275  10.026  -1.358  1.00  0.00     0.000 C 
BRANCH  20  21
ATOM     21  C   UNL     1       6.803  10.076  -2.825  1.00  0.00     0.000 C 
BRANCH  21  22
ATOM     22  C   UNL     1       7.553  11.080  -3.715  1.00  0.00     0.000 C 
BRANCH  22  23
ATOM     23  C   UNL     1       9.073  10.855  -3.723  1.00  0.00     0.000 C 
BRANCH  23  24
ATOM     24  C   UNL     1       9.454   9.747  -4.716  1.00  0.00    -0.000 C 
BRANCH  24  25
ATOM     25  C   UNL     1       8.517   9.699  -5.934  1.00  0.00    -0.000 C 
BRANCH  25  26
ATOM     26  C   UNL     1       8.443   8.299  -6.572  1.00  0.00    -0.000 C 
BRANCH  26  27
ATOM     27  C   UNL     1       8.417   7.174  -5.525  1.00  0.00    -0.000 C 
BRANCH  27  28
ATOM     28  C   UNL     1       7.907   5.844  -6.099  1.00  0.00    -0.000 C 
BRANCH  28  29
ATOM     29  C   UNL     1       7.422   6.018  -7.546  1.00  0.00    -0.000 C 
BRANCH  29  30
ATOM     30  C   UNL     1       8.484   5.617  -8.580  1.00  0.00    -0.000 C 
BRANCH  30  31
ATOM     31  C   UNL     1       9.554   4.683  -8.001  1.00  0.00    -0.003 C 
ATOM     32  C   UNL     1       9.403   3.266  -8.551  1.00  0.00     0.004 C 
ENDBRANCH  30  31
ENDBRANCH  29  30
ENDBRANCH  28  29
ENDBRANCH  27  28
ENDBRANCH  26  27
ENDBRANCH  25  26
ENDBRANCH  24  25
ENDBRANCH  23  24
ENDBRANCH  22  23
ENDBRANCH  21  22
ENDBRANCH  20  21
ENDBRANCH  19  20
ENDBRANCH  18  19
ENDBRANCH   1  18
TORSDOF 28
ENDMDL
MODEL 9
REMARK VINA RESULT:    -3.385      1.767      2.265
REMARK INTER + INTRA:         -13.458
REMARK INTER:                  -9.301
REMARK INTRA:                  -4.156
REMARK UNBOUND:                -4.531
REMARK SMILES CCCCCCCCCCCCCCCCCCCCCCCCCCCCCC(=O)[O-]
REMARK SMILES IDX 16 1 17 2 18 3 19 4 20 5 21 6 22 7 23 8 24 9 25 10 26 11
REMARK SMILES IDX 27 12 28 13 29 14 30 15 31 16 32 17 15 18 14 19 13 20 12 21
REMARK SMILES IDX 11 22 10 23 9 24 8 25 7 26 6 27 5 28 4 29 3 30 2 31 1 32
REMARK H PARENT
REMARK Flexibility Score: inf
ROOT
ATOM      1  C   UNL     1       6.886   7.374  -1.968  1.00  0.00     0.000 C 
ENDROOT
BRANCH   1   2
ATOM      2  C   UNL     1       7.320   5.969  -2.434  1.00  0.00     0.000 C 
BRANCH   2   3
ATOM      3  C   UNL     1       7.488   4.926  -1.309  1.00  0.00     0.000 C 
BRANCH   3   4
ATOM      4  C   UNL     1       8.933   4.719  -0.822  1.00  0.00     0.000 C 
BRANCH   4   5
ATOM      5  C   UNL     1       9.222   5.449   0.498  1.00  0.00     0.000 C 
BRANCH   5   6
ATOM      6  C   UNL     1      10.586   6.155   0.455  1.00  0.00     0.000 C 
BRANCH   6   7
ATOM      7  C   UNL     1      10.554   7.546   1.108  1.00  0.00     0.000 C 
BRANCH   7   8
ATOM      8  C   UNL     1       9.317   7.761   1.992  1.00  0.00     0.000 C 
BRANCH   8   9
ATOM      9  C   UNL     1       9.028   9.257   2.178  1.00  0.00     0.000 C 
BRANCH   9  10
ATOM     10  C   UNL     1       8.874   9.607   3.662  1.00  0.00     0.000 C 
BRANCH  10  11
ATOM     11  C   UNL     1       9.232   8.412   4.553  1.00  0.00     0.000 C 
BRANCH  11  12
ATOM     12  C   UNL     1       9.566   8.872   5.981  1.00  0.00     0.000 C 
BRANCH  12  13
ATOM     13  C   UNL     1      10.162   7.748   6.842  1.00  0.00     0.006 C 
BRANCH  13  14
ATOM     14  C   UNL     1       9.209   6.559   7.011  1.00  0.00     0.053 C 
BRANCH  14  15
ATOM     15  C   UNL     1       8.440   6.680   8.287  1.00  0.00     0.041 C 
ATOM     16  O   UNL     1       8.747   7.566   9.129  1.00  0.00    -0.550 OA
ATOM     17  O   UNL     1       7.414   5.788   8.569  1.00  0.00    -0.550 OA
ENDBRANCH  14  15
ENDBRANCH  13  14
ENDBRANCH  12  13
ENDBRANCH  11  12
ENDBRANCH  10  11
ENDBRANCH   9  10
ENDBRANCH   8   9
ENDBRANCH   7   8
ENDBRANCH   6   7
ENDBRANCH   5   6
ENDBRANCH   4   5
ENDBRANCH   3   4
ENDBRANCH   2   3
ENDBRANCH   1   2
BRANCH   1  18
ATOM     18  C   UNL     1       8.035   8.279  -1.487  1.00  0.00     0.000 C 
BRANCH  18  19
ATOM     19  C   UNL     1       7.580   9.725  -1.218  1.00  0.00     0.000 C 
BRANCH  19  20
ATOM     20  C   UNL     1       8.119  10.718  -2.272  1.00  0.00     0.000 C 
BRANCH  20  21
ATOM     21  C   UNL     1       7.329  10.714  -3.597  1.00  0.00     0.000 C 
BRANCH  21  22
ATOM     22  C   UNL     1       8.148  10.326  -4.839  1.00  0.00     0.000 C 
BRANCH  22  23
ATOM     23  C   UNL     1       9.507   9.701  -4.490  1.00  0.00     0.000 C 
BRANCH  23  24
ATOM     24  C   UNL     1       9.586   8.252  -4.994  1.00  0.00    -0.000 C 
BRANCH  24  25
ATOM     25  C   UNL     1      10.724   7.459  -4.332  1.00  0.00    -0.000 C 
BRANCH  25  26
ATOM     26  C   UNL     1      10.424   5.952  -4.243  1.00  0.00    -0.000 C 
BRANCH  26  27
ATOM     27  C   UNL     1       9.394   5.492  -5.287  1.00  0.00    -0.000 C 
BRANCH  27  28
ATOM     28  C   UNL     1      10.019   4.630  -6.394  1.00  0.00    -0.000 C 
BRANCH  28  29
ATOM     29  C   UNL     1       9.387   4.945  -7.759  1.00  0.00    -0.000 C 
BRANCH  29  30
ATOM     30  C   UNL     1       9.584   6.409  -8.179  1.00  0.00    -0.000 C 
BRANCH  30  31
ATOM     31  C   UNL     1       8.258   7.136  -8.439  1.00  0.00    -0.003 C 
ATOM     32  C   UNL     1       7.067   6.250  -8.083  1.00  0.00     0.004 C 
ENDBRANCH  30  31
ENDBRANCH  29  30
ENDBRANCH  28  29
ENDBRANCH  27  28
ENDBRANCH  26  27
ENDBRANCH  25  26
ENDBRANCH  24  25
ENDBRANCH  23  24
ENDBRANCH  22  23
ENDBRANCH  21  22
ENDBRANCH  20  21
ENDBRANCH  19  20
ENDBRANCH  18  19
ENDBRANCH   1  18
TORSDOF 28
ENDMDL
