MODEL 1
REMARK VINA RESULT:    -4.610      0.000      0.000
REMARK INTER + INTRA:          -7.789
REMARK INTER:                  -7.306
REMARK INTRA:                  -0.483
REMARK UNBOUND:                -0.483
REMARK SMILES CCCCCCCCCCCC(=O)[O-]
REMARK SMILES IDX 7 1 8 2 9 3 10 4 11 5 12 6 13 7 14 8 6 9 5 10 4 11 3 12 2 13
REMARK SMILES IDX 1 14
REMARK H PARENT
REMARK Flexibility Score: inf
ROOT
ATOM      1  C   UNL     1      -2.279   9.171  -5.185  1.00  0.00     0.000 C 
ENDROOT
BRANCH   1   2
ATOM      2  C   UNL     1      -2.746   9.264  -3.725  1.00  0.00     0.000 C 
BRANCH   2   3
ATOM      3  C   UNL     1      -4.252   9.552  -3.593  1.00  0.00     0.000 C 
BRANCH   3   4
ATOM      4  C   UNL     1      -5.047   9.476  -4.909  1.00  0.00     0.006 C 
BRANCH   4   5
ATOM      5  C   UNL     1      -6.249   8.527  -4.826  1.00  0.00     0.053 C 
BRANCH   5   6
ATOM      6  C   UNL     1      -5.850   7.142  -5.229  1.00  0.00     0.041 C 
ATOM      7  O   UNL     1      -6.526   6.151  -4.844  1.00  0.00    -0.550 OA
ATOM      8  O   UNL     1      -4.762   6.949  -6.069  1.00  0.00    -0.550 OA
ENDBRANCH   5   6
ENDBRANCH   4   5
ENDBRANCH   3   4
ENDBRANCH   2   3
ENDBRANCH   1   2
BRANCH   1   9
ATOM      9  C   UNL     1      -0.869   8.573  -5.275  1.00  0.00     0.000 C 
BRANCH   9  10
ATOM     10  C   UNL     1      -0.191   8.959  -6.594  1.00  0.00    -0.000 C 
BRANCH  10  11
ATOM     11  C   UNL     1       1.134   8.207  -6.772  1.00  0.00    -0.000 C 
BRANCH  11  12
ATOM     12  C   UNL     1       1.784   8.548  -8.117  1.00  0.00    -0.000 C 
BRANCH  12  13
ATOM     13  C   UNL     1       2.941   7.591  -8.429  1.00  0.00    -0.003 C 
ATOM     14  C   UNL     1       3.066   6.510  -7.359  1.00  0.00     0.004 C 
ENDBRANCH  12  13
ENDBRANCH  11  12
ENDBRANCH  10  11
ENDBRANCH   9  10
ENDBRANCH   1   9
TORSDOF 10
ENDMDL
MODEL 2
REMARK VINA RESULT:    -4.603      1.142      1.830
REMARK INTER + INTRA:          -7.777
REMARK INTER:                  -7.158
REMARK INTRA:                  -0.619
REMARK UNBOUND:                -0.483
REMARK SMILES CCCCCCCCCCCC(=O)[O-]
REMARK SMILES IDX 7 1 8 2 9 3 10 4 11 5 12 6 13 7 14 8 6 9 5 10 4 11 3 12 2 13
REMARK SMILES IDX 1 14
REMARK H PARENT
REMARK Flexibility Score: inf
ROOT
ATOM      1  C   UNL     1      -1.486   8.496  -5.499  1.00  0.00     0.000 C 
ENDROOT
BRANCH   1   2
ATOM      2  C   UNL     1      -1.572   9.371  -4.239  1.00  0.00     0.000 C 
BRANCH   2   3
ATOM      3  C   UNL     1      -2.825   9.083  -3.392  1.00  0.00     0.000 C 
BRANCH   3   4
ATOM      4  C   UNL     1      -3.953  10.122  -3.526  1.00  0.00     0.006 C 
BRANCH   4   5
ATOM      5  C   UNL     1      -5.267   9.514  -4.033  1.00  0.00     0.053 C 
BRANCH   5   6
ATOM      6  C   UNL     1      -5.115   9.049  -5.447  1.00  0.00     0.041 C 
ATOM      7  O   UNL     1      -4.773   9.860  -6.348  1.00  0.00    -0.550 OA
ATOM      8  O   UNL     1      -5.304   7.710  -5.763  1.00  0.00    -0.550 OA
ENDBRANCH   5   6
ENDBRANCH   4   5
ENDBRANCH   3   4
ENDBRANCH   2   3
ENDBRANCH   1   2
BRANCH   1   9
ATOM      9  C   UNL     1      -0.026   8.261  -5.906  1.00  0.00     0.000 C 
BRANCH   9  10
ATOM     10  C   UNL     1       0.366   9.155  -7.088  1.00  0.00    -0.000 C 
BRANCH  10  11
ATOM     11  C   UNL     1       1.565   8.572  -7.845  1.00  0.00    -0.000 C 
BRANCH  11  12
ATOM     12  C   UNL     1       2.229   7.448  -7.043  1.00  0.00    -0.000 C 
BRANCH  12  13
ATOM     13  C   UNL     1       3.233   6.673  -7.905  1.00  0.00    -0.003 C 
ATOM     14  C   UNL     1       3.890   7.582  -8.939  1.00  0.00     0.004 C 
ENDBRANCH  12  13
ENDBRANCH  11  12
ENDBRANCH  10  11
ENDBRANCH   9  10
ENDBRANCH   1   9
TORSDOF 10
ENDMDL
MODEL 3
REMARK VINA RESULT:    -4.556      0.988      1.910
REMARK INTER + INTRA:          -7.702
REMARK INTER:                  -7.022
REMARK INTRA:                  -0.680
REMARK UNBOUND:                -0.483
REMARK SMILES CCCCCCCCCCCC(=O)[O-]
REMARK SMILES IDX 7 1 8 2 9 3 10 4 11 5 12 6 13 7 14 8 6 9 5 10 4 11 3 12 2 13
REMARK SMILES IDX 1 14
REMARK H PARENT
REMARK Flexibility Score: inf
ROOT
ATOM      1  C   UNL     1      -3.057   9.072  -3.338  1.00  0.00     0.000 C 
ENDROOT
BRANCH   1   2
ATOM      2  C   UNL     1      -4.281  10.000  -3.293  1.00  0.00     0.000 C 
BRANCH   2   3
ATOM      3  C   UNL     1      -5.082  10.003  -4.607  1.00  0.00     0.000 C 
BRANCH   3   4
ATOM      4  C   UNL     1      -5.987   8.775  -4.820  1.00  0.00     0.006 C 
BRANCH   4   5
ATOM      5  C   UNL     1      -5.705   8.048  -6.141  1.00  0.00     0.053 C 
BRANCH   5   6
ATOM      6  C   UNL     1      -6.126   6.615  -6.047  1.00  0.00     0.041 C 
ATOM      7  O   UNL     1      -6.048   5.864  -7.056  1.00  0.00    -0.550 OA
ATOM      8  O   UNL     1      -6.559   6.095  -4.834  1.00  0.00    -0.550 OA
ENDBRANCH   5   6
ENDBRANCH   4   5
ENDBRANCH   3   4
ENDBRANCH   2   3
ENDBRANCH   1   2
BRANCH   1   9
ATOM      9  C   UNL     1      -2.118   9.456  -4.488  1.00  0.00     0.000 C 
BRANCH   9  10
ATOM     10  C   UNL     1      -1.931   8.285  -5.460  1.00  0.00    -0.000 C 
BRANCH  10  11
ATOM     11  C   UNL     1      -1.200   8.736  -6.730  1.00  0.00    -0.000 C 
BRANCH  11  12
ATOM     12  C   UNL     1       0.307   8.862  -6.483  1.00  0.00    -0.000 C 
BRANCH  12  13
ATOM     13  C   UNL     1       1.082   8.887  -7.806  1.00  0.00    -0.003 C 
ATOM     14  C   UNL     1       2.213   7.863  -7.803  1.00  0.00     0.004 C 
ENDBRANCH  12  13
ENDBRANCH  11  12
ENDBRANCH  10  11
ENDBRANCH   9  10
ENDBRANCH   1   9
TORSDOF 10
ENDMDL
MODEL 4
REMARK VINA RESULT:    -4.409      3.454      7.285
REMARK INTER + INTRA:          -7.469
REMARK INTER:                  -6.991
REMARK INTRA:                  -0.478
REMARK UNBOUND:                -0.483
REMARK SMILES CCCCCCCCCCCC(=O)[O-]
REMARK SMILES IDX 7 1 8 2 9 3 10 4 11 5 12 6 13 7 14 8 6 9 5 10 4 11 3 12 2 13
REMARK SMILES IDX 1 14
REMARK H PARENT
REMARK Flexibility Score: inf
ROOT
ATOM      1  C   UNL     1      -1.331   8.534  -4.883  1.00  0.00     0.000 C 
ENDROOT
BRANCH   1   2
ATOM      2  C   UNL     1      -0.684   9.673  -5.687  1.00  0.00     0.000 C 
BRANCH   2   3
ATOM      3  C   UNL     1      -0.105   9.204  -7.034  1.00  0.00     0.000 C 
BRANCH   3   4
ATOM      4  C   UNL     1       1.194   8.384  -6.934  1.00  0.00     0.006 C 
BRANCH   4   5
ATOM      5  C   UNL     1       1.901   8.219  -8.285  1.00  0.00     0.053 C 
BRANCH   5   6
ATOM      6  C   UNL     1       3.088   7.319  -8.146  1.00  0.00     0.041 C 
ATOM      7  O   UNL     1       3.031   6.303  -7.403  1.00  0.00    -0.550 OA
ATOM      8  O   UNL     1       4.243   7.573  -8.875  1.00  0.00    -0.550 OA
ENDBRANCH   5   6
ENDBRANCH   4   5
ENDBRANCH   3   4
ENDBRANCH   2   3
ENDBRANCH   1   2
BRANCH   1   9
ATOM      9  C   UNL     1      -2.130   9.085  -3.696  1.00  0.00     0.000 C 
BRANCH   9  10
ATOM     10  C   UNL     1      -3.158  10.124  -4.158  1.00  0.00    -0.000 C 
BRANCH  10  11
ATOM     11  C   UNL     1      -4.553   9.801  -3.610  1.00  0.00    -0.000 C 
BRANCH  11  12
ATOM     12  C   UNL     1      -5.499   9.366  -4.733  1.00  0.00    -0.000 C 
BRANCH  12  13
ATOM     13  C   UNL     1      -5.241   7.911  -5.140  1.00  0.00    -0.003 C 
ATOM     14  C   UNL     1      -6.527   7.091  -5.107  1.00  0.00     0.004 C 
ENDBRANCH  12  13
ENDBRANCH  11  12
ENDBRANCH  10  11
ENDBRANCH   9  10
ENDBRANCH   1   9
TORSDOF 10
ENDMDL
MODEL 5
REMARK VINA RESULT:    -4.253      2.981      3.890
REMARK INTER + INTRA:          -7.222
REMARK INTER:                  -5.819
REMARK INTRA:                  -1.403
REMARK UNBOUND:                -0.483
REMARK SMILES CCCCCCCCCCCC(=O)[O-]
REMARK SMILES IDX 7 1 8 2 9 3 10 4 11 5 12 6 13 7 14 8 6 9 5 10 4 11 3 12 2 13
REMARK SMILES IDX 1 14
REMARK H PARENT
REMARK Flexibility Score: inf
ROOT
ATOM      1  C   UNL     1      -4.798   9.581  -3.647  1.00  0.00     0.000 C 
ENDROOT
BRANCH   1   2
ATOM      2  C   UNL     1      -5.318  10.123  -4.987  1.00  0.00     0.000 C 
BRANCH   2   3
ATOM      3  C   UNL     1      -6.277   9.151  -5.697  1.00  0.00     0.000 C 
BRANCH   3   4
ATOM      4  C   UNL     1      -6.914   8.085  -4.787  1.00  0.00     0.006 C 
BRANCH   4   5
ATOM      5  C   UNL     1      -6.558   6.653  -5.206  1.00  0.00     0.053 C 
BRANCH   5   6
ATOM      6  C   UNL     1      -7.713   6.012  -5.909  1.00  0.00     0.041 C 
ATOM      7  O   UNL     1      -8.891   6.220  -5.513  1.00  0.00    -0.550 OA
ATOM      8  O   UNL     1      -7.494   5.225  -7.032  1.00  0.00    -0.550 OA
ENDBRANCH   5   6
ENDBRANCH   4   5
ENDBRANCH   3   4
ENDBRANCH   2   3
ENDBRANCH   1   2
BRANCH   1   9
ATOM      9  C   UNL     1      -3.276   9.399  -3.680  1.00  0.00     0.000 C 
BRANCH   9  10
ATOM     10  C   UNL     1      -2.724   9.635  -5.091  1.00  0.00    -0.000 C 
BRANCH  10  11
ATOM     11  C   UNL     1      -2.035   8.377  -5.631  1.00  0.00    -0.000 C 
BRANCH  11  12
ATOM     12  C   UNL     1      -3.065   7.334  -6.079  1.00  0.00    -0.000 C 
BRANCH  12  13
ATOM     13  C   UNL     1      -3.442   7.530  -7.552  1.00  0.00    -0.003 C 
ATOM     14  C   UNL     1      -4.200   6.322  -8.094  1.00  0.00     0.004 C 
ENDBRANCH  12  13
ENDBRANCH  11  12
ENDBRANCH  10  11
ENDBRANCH   9  10
ENDBRANCH   1   9
TORSDOF 10
ENDMDL
MODEL 6
REMARK VINA RESULT:    -4.218      3.053      5.726
REMARK INTER + INTRA:          -7.166
REMARK INTER:                  -6.357
REMARK INTRA:                  -0.809
REMARK UNBOUND:                -0.483
REMARK SMILES CCCCCCCCCCCC(=O)[O-]
REMARK SMILES IDX 7 1 8 2 9 3 10 4 11 5 12 6 13 7 14 8 6 9 5 10 4 11 3 12 2 13
REMARK SMILES IDX 1 14
REMARK H PARENT
REMARK Flexibility Score: inf
ROOT
ATOM      1  C   UNL     1      -5.003   8.712  -4.998  1.00  0.00     0.000 C 
ENDROOT
BRANCH   1   2
ATOM      2  C   UNL     1      -5.159   9.876  -4.007  1.00  0.00     0.000 C 
BRANCH   2   3
ATOM      3  C   UNL     1      -3.900  10.113  -3.154  1.00  0.00     0.000 C 
BRANCH   3   4
ATOM      4  C   UNL     1      -2.770   9.088  -3.364  1.00  0.00     0.006 C 
BRANCH   4   5
ATOM      5  C   UNL     1      -1.628   9.629  -4.234  1.00  0.00     0.053 C 
BRANCH   5   6
ATOM      6  C   UNL     1      -1.048   8.534  -5.073  1.00  0.00     0.041 C 
ATOM      7  O   UNL     1      -0.073   7.859  -4.649  1.00  0.00    -0.550 OA
ATOM      8  O   UNL     1      -1.616   8.225  -6.303  1.00  0.00    -0.550 OA
ENDBRANCH   5   6
ENDBRANCH   4   5
ENDBRANCH   3   4
ENDBRANCH   2   3
ENDBRANCH   1   2
BRANCH   1   9
ATOM      9  C   UNL     1      -6.245   8.575  -5.886  1.00  0.00     0.000 C 
BRANCH   9  10
ATOM     10  C   UNL     1      -7.084   7.359  -5.477  1.00  0.00    -0.000 C 
BRANCH  10  11
ATOM     11  C   UNL     1      -6.531   6.073  -6.103  1.00  0.00    -0.000 C 
BRANCH  11  12
ATOM     12  C   UNL     1      -6.346   6.233  -7.616  1.00  0.00    -0.000 C 
BRANCH  12  13
ATOM     13  C   UNL     1      -4.959   5.750  -8.056  1.00  0.00    -0.003 C 
ATOM     14  C   UNL     1      -3.988   5.713  -6.879  1.00  0.00     0.004 C 
ENDBRANCH  12  13
ENDBRANCH  11  12
ENDBRANCH  10  11
ENDBRANCH   9  10
ENDBRANCH   1   9
TORSDOF 10
ENDMDL
MODEL 7
REMARK VINA RESULT:    -4.208      3.184      6.379
REMARK INTER + INTRA:          -7.152
REMARK INTER:                  -6.432
REMARK INTRA:                  -0.720
REMARK UNBOUND:                -0.483
REMARK SMILES CCCCCCCCCCCC(=O)[O-]
REMARK SMILES IDX 7 1 8 2 9 3 10 4 11 5 12 6 13 7 14 8 6 9 5 10 4 11 3 12 2 13
REMARK SMILES IDX 1 14
REMARK H PARENT
REMARK Flexibility Score: inf
ROOT
ATOM      1  C   UNL     1      -3.057   9.105  -3.339  1.00  0.00     0.000 C 
ENDROOT
BRANCH   1   2
ATOM      2  C   UNL     1      -1.877   9.697  -4.125  1.00  0.00     0.000 C 
BRANCH   2   3
ATOM      3  C   UNL     1      -1.087   8.637  -4.913  1.00  0.00     0.000 C 
BRANCH   3   4
ATOM      4  C   UNL     1      -0.287   9.180  -6.111  1.00  0.00     0.006 C 
BRANCH   4   5
ATOM      5  C   UNL     1       0.844   8.240  -6.548  1.00  0.00     0.053 C 
BRANCH   5   6
ATOM      6  C   UNL     1       1.475   8.735  -7.811  1.00  0.00     0.041 C 
ATOM      7  O   UNL     1       0.915   9.637  -8.489  1.00  0.00    -0.550 OA
ATOM      8  O   UNL     1       2.707   8.237  -8.215  1.00  0.00    -0.550 OA
ENDBRANCH   5   6
ENDBRANCH   4   5
ENDBRANCH   3   4
ENDBRANCH   2   3
ENDBRANCH   1   2
BRANCH   1   9
ATOM      9  C   UNL     1      -4.276  10.034  -3.395  1.00  0.00     0.000 C 
BRANCH   9  10
ATOM     10  C   UNL     1      -5.017   9.890  -4.730  1.00  0.00    -0.000 C 
BRANCH  10  11
ATOM     11  C   UNL     1      -5.912   8.645  -4.731  1.00  0.00    -0.000 C 
BRANCH  11  12
ATOM     12  C   UNL     1      -5.679   7.800  -5.988  1.00  0.00    -0.000 C 
BRANCH  12  13
ATOM     13  C   UNL     1      -4.218   7.346  -6.084  1.00  0.00    -0.003 C 
ATOM     14  C   UNL     1      -4.109   5.971  -6.735  1.00  0.00     0.004 C 
ENDBRANCH  12  13
ENDBRANCH  11  12
ENDBRANCH  10  11
ENDBRANCH   9  10
ENDBRANCH   1   9
TORSDOF 10
ENDMDL
MODEL 8
REMARK VINA RESULT:    -4.196      2.798      3.698
REMARK INTER + INTRA:          -7.132
REMARK INTER:                  -5.912
REMARK INTRA:                  -1.220
REMARK UNBOUND:                -0.483
REMARK SMILES CCCCCCCCCCCC(=O)[O-]
REMARK SMILES IDX 7 1 8 2 9 3 10 4 11 5 12 6 13 7 14 8 6 9 5 10 4 11 3 12 2 13
REMARK SMILES IDX 1 14
REMARK H PARENT
REMARK Flexibility Score: inf
ROOT
ATOM      1  C   UNL     1      -2.977   9.015  -3.297  1.00  0.00     0.000 C 
ENDROOT
BRANCH   1   2
ATOM      2  C   UNL     1      -4.117  10.044  -3.256  1.00  0.00     0.000 C 
BRANCH   2   3
ATOM      3  C   UNL     1      -4.916  10.109  -4.569  1.00  0.00     0.000 C 
BRANCH   3   4
ATOM      4  C   UNL     1      -5.944   8.979  -4.762  1.00  0.00     0.006 C 
BRANCH   4   5
ATOM      5  C   UNL     1      -6.962   9.280  -5.869  1.00  0.00     0.053 C 
BRANCH   5   6
ATOM      6  C   UNL     1      -8.280   8.645  -5.553  1.00  0.00     0.041 C 
ATOM      7  O   UNL     1      -9.341   9.320  -5.620  1.00  0.00    -0.550 OA
ATOM      8  O   UNL     1      -8.342   7.295  -5.234  1.00  0.00    -0.550 OA
ENDBRANCH   5   6
ENDBRANCH   4   5
ENDBRANCH   3   4
ENDBRANCH   2   3
ENDBRANCH   1   2
BRANCH   1   9
ATOM      9  C   UNL     1      -1.881   9.448  -4.279  1.00  0.00     0.000 C 
BRANCH   9  10
ATOM     10  C   UNL     1      -1.572   8.333  -5.286  1.00  0.00    -0.000 C 
BRANCH  10  11
ATOM     11  C   UNL     1      -1.879   8.785  -6.718  1.00  0.00    -0.000 C 
BRANCH  11  12
ATOM     12  C   UNL     1      -3.129   8.084  -7.261  1.00  0.00    -0.000 C 
BRANCH  12  13
ATOM     13  C   UNL     1      -3.471   6.843  -6.427  1.00  0.00    -0.003 C 
ATOM     14  C   UNL     1      -4.122   5.763  -7.286  1.00  0.00     0.004 C 
ENDBRANCH  12  13
ENDBRANCH  11  12
ENDBRANCH  10  11
ENDBRANCH   9  10
ENDBRANCH   1   9
TORSDOF 10
ENDMDL
