MODEL 1
REMARK VINA RESULT:     4.617      0.000      0.000
REMARK INTER + INTRA:           5.293
REMARK INTER:                   5.427
REMARK INTRA:                  -0.134
REMARK UNBOUND:                -0.134
REMARK SMILES O=c1c(O)c(-c2ccc(O)cc2)oc2cc(O)cc(O)c12
REMARK SMILES IDX 5 1 3 2 2 3 1 4 21 5 19 6 18 7 16 8 15 9 14 10 13 11 6 12
REMARK SMILES IDX 7 13 8 14 9 15 12 16 11 17 10 18 4 20 20 22 17 24
REMARK H PARENT 10 19 4 21 20 23 17 25
REMARK Flexibility Score: inf
ROOT
ATOM      1  C   UNL     1     -30.869  -0.555 -24.255  1.00  0.00     0.180 A 
ATOM      2  C   UNL     1     -31.160   0.732 -24.738  1.00  0.00     0.208 A 
ATOM      3  C   UNL     1     -31.544   0.886 -26.080  1.00  0.00     0.238 A 
ATOM      4  O   UNL     1     -31.856   2.033 -26.491  1.00  0.00    -0.285 OA
ATOM      5  C   UNL     1     -31.616  -0.247 -26.926  1.00  0.00     0.111 A 
ATOM      6  C   UNL     1     -31.954  -0.203 -28.312  1.00  0.00     0.134 A 
ATOM      7  C   UNL     1     -32.123  -1.399 -29.021  1.00  0.00     0.093 A 
ATOM      8  C   UNL     1     -31.900  -2.636 -28.409  1.00  0.00     0.123 A 
ATOM      9  C   UNL     1     -31.512  -2.687 -27.073  1.00  0.00     0.094 A 
ATOM     10  C   UNL     1     -31.371  -1.512 -26.329  1.00  0.00     0.146 A 
ATOM     11  O   UNL     1     -31.009  -1.605 -25.056  1.00  0.00    -0.452 OA
ENDROOT
BRANCH   1  12
ATOM     12  C   UNL     1     -30.434  -0.795 -22.860  1.00  0.00     0.021 A 
ATOM     13  C   UNL     1     -29.153  -1.298 -22.568  1.00  0.00     0.016 A 
ATOM     14  C   UNL     1     -28.772  -1.539 -21.245  1.00  0.00     0.047 A 
ATOM     15  C   UNL     1     -29.670  -1.292 -20.198  1.00  0.00     0.115 A 
ATOM     16  C   UNL     1     -31.335  -0.570 -21.806  1.00  0.00     0.016 A 
ATOM     17  C   UNL     1     -30.951  -0.811 -20.483  1.00  0.00     0.047 A 
BRANCH  15  18
ATOM     18  O   UNL     1     -29.301  -1.528 -18.875  1.00  0.00    -0.508 OA
ATOM     19  H   UNL     1     -29.567  -2.379 -18.396  1.00  0.00     0.293 HD
ENDBRANCH  15  18
ENDBRANCH   1  12
BRANCH   2  20
ATOM     20  O   UNL     1     -31.104   1.834 -23.879  1.00  0.00    -0.502 OA
ATOM     21  H   UNL     1     -31.058   1.737 -22.872  1.00  0.00     0.293 HD
ENDBRANCH   2  20
BRANCH   6  22
ATOM     22  O   UNL     1     -32.108   0.981 -29.041  1.00  0.00    -0.507 OA
ATOM     23  H   UNL     1     -32.437   1.031 -29.992  1.00  0.00     0.293 HD
ENDBRANCH   6  22
BRANCH   8  24
ATOM     24  O   UNL     1     -32.055  -3.821 -29.124  1.00  0.00    -0.508 OA
ATOM     25  H   UNL     1     -32.029  -4.724 -28.664  1.00  0.00     0.293 HD
ENDBRANCH   8  24
TORSDOF 5
ENDMDL
