MODEL 1
REMARK VINA RESULT:    -7.040      0.000      0.000
REMARK INTER + INTRA:          -8.594
REMARK INTER:                  -8.481
REMARK INTRA:                  -0.113
REMARK UNBOUND:                -0.113
REMARK SMILES O=c1c(O)c(-c2ccc(O)c(O)c2)oc2cc(O)cc(O)c12
REMARK SMILES IDX 5 1 3 2 2 3 1 4 22 5 20 6 19 7 17 8 16 9 15 10 14 11 6 12
REMARK SMILES IDX 7 13 8 14 9 15 13 16 11 17 10 18 12 20 4 22 21 24 18 26
REMARK H PARENT 10 19 12 21 4 23 21 25 18 27
REMARK Flexibility Score: inf
ROOT
ATOM      1  C   UNL     1      15.259  20.644 -12.269  1.00  0.00     0.180 A 
ATOM      2  C   UNL     1      16.349  20.773 -11.388  1.00  0.00     0.208 A 
ATOM      3  C   UNL     1      17.601  21.140 -11.905  1.00  0.00     0.238 A 
ATOM      4  O   UNL     1      18.587  21.247 -11.126  1.00  0.00    -0.285 OA
ATOM      5  C   UNL     1      17.738  21.390 -13.286  1.00  0.00     0.111 A 
ATOM      6  C   UNL     1      18.963  21.767 -13.887  1.00  0.00     0.134 A 
ATOM      7  C   UNL     1      19.015  22.007 -15.268  1.00  0.00     0.093 A 
ATOM      8  C   UNL     1      17.871  21.879 -16.058  1.00  0.00     0.123 A 
ATOM      9  C   UNL     1      16.658  21.506 -15.470  1.00  0.00     0.094 A 
ATOM     10  C   UNL     1      16.585  21.260 -14.096  1.00  0.00     0.146 A 
ATOM     11  O   UNL     1      15.422  20.902 -13.564  1.00  0.00    -0.452 OA
ENDROOT
BRANCH   1  12
ATOM     12  C   UNL     1      13.912  20.243 -11.803  1.00  0.00     0.025 A 
ATOM     13  C   UNL     1      13.224  21.060 -10.892  1.00  0.00     0.016 A 
ATOM     14  C   UNL     1      11.944  20.711 -10.455  1.00  0.00     0.051 A 
ATOM     15  C   UNL     1      11.326  19.549 -10.933  1.00  0.00     0.157 A 
ATOM     16  C   UNL     1      13.280  19.087 -12.297  1.00  0.00     0.062 A 
ATOM     17  C   UNL     1      11.997  18.736 -11.862  1.00  0.00     0.158 A 
BRANCH  15  18
ATOM     18  O   UNL     1      10.050  19.201 -10.493  1.00  0.00    -0.504 OA
ATOM     19  H   UNL     1       9.272  19.118 -11.137  1.00  0.00     0.293 HD
ENDBRANCH  15  18
BRANCH  17  20
ATOM     20  O   UNL     1      11.403  17.580 -12.368  1.00  0.00    -0.504 OA
ATOM     21  H   UNL     1      10.399  17.490 -12.468  1.00  0.00     0.293 HD
ENDBRANCH  17  20
ENDBRANCH   1  12
BRANCH   2  22
ATOM     22  O   UNL     1      16.175  20.567 -10.016  1.00  0.00    -0.502 OA
ATOM     23  H   UNL     1      16.520  19.740  -9.544  1.00  0.00     0.293 HD
ENDBRANCH   2  22
BRANCH   6  24
ATOM     24  O   UNL     1      20.125  21.905 -13.125  1.00  0.00    -0.507 OA
ATOM     25  H   UNL     1      20.099  21.920 -12.112  1.00  0.00     0.293 HD
ENDBRANCH   6  24
BRANCH   8  26
ATOM     26  O   UNL     1      17.950  22.125 -17.427  1.00  0.00    -0.508 OA
ATOM     27  H   UNL     1      17.217  22.621 -17.919  1.00  0.00     0.293 HD
ENDBRANCH   8  26
TORSDOF 6
ENDMDL
MODEL 2
REMARK VINA RESULT:    -6.768      1.830      7.678
REMARK INTER + INTRA:          -8.265
REMARK INTER:                  -7.981
REMARK INTRA:                  -0.285
REMARK UNBOUND:                -0.113
REMARK SMILES O=c1c(O)c(-c2ccc(O)c(O)c2)oc2cc(O)cc(O)c12
REMARK SMILES IDX 5 1 3 2 2 3 1 4 22 5 20 6 19 7 17 8 16 9 15 10 14 11 6 12
REMARK SMILES IDX 7 13 8 14 9 15 13 16 11 17 10 18 12 20 4 22 21 24 18 26
REMARK H PARENT 10 19 12 21 4 23 21 25 18 27
REMARK Flexibility Score: inf
ROOT
ATOM      1  C   UNL     1      13.523  19.940 -11.506  1.00  0.00     0.180 A 
ATOM      2  C   UNL     1      12.975  18.743 -12.004  1.00  0.00     0.208 A 
ATOM      3  C   UNL     1      11.712  18.333 -11.548  1.00  0.00     0.238 A 
ATOM      4  O   UNL     1      11.216  17.257 -11.979  1.00  0.00    -0.285 OA
ATOM      5  C   UNL     1      11.013  19.133 -10.620  1.00  0.00     0.111 A 
ATOM      6  C   UNL     1       9.736  18.793 -10.114  1.00  0.00     0.134 A 
ATOM      7  C   UNL     1       9.101  19.647  -9.200  1.00  0.00     0.093 A 
ATOM      8  C   UNL     1       9.715  20.831  -8.784  1.00  0.00     0.123 A 
ATOM      9  C   UNL     1      10.978  21.171  -9.281  1.00  0.00     0.094 A 
ATOM     10  C   UNL     1      11.628  20.332 -10.191  1.00  0.00     0.146 A 
ATOM     11  O   UNL     1      12.828  20.676 -10.643  1.00  0.00    -0.452 OA
ENDROOT
BRANCH   1  12
ATOM     12  C   UNL     1      14.856  20.430 -11.924  1.00  0.00     0.025 A 
ATOM     13  C   UNL     1      14.997  21.083 -13.159  1.00  0.00     0.016 A 
ATOM     14  C   UNL     1      16.242  21.571 -13.563  1.00  0.00     0.051 A 
ATOM     15  C   UNL     1      17.361  21.426 -12.734  1.00  0.00     0.157 A 
ATOM     16  C   UNL     1      15.979  20.304 -11.085  1.00  0.00     0.062 A 
ATOM     17  C   UNL     1      17.227  20.794 -11.487  1.00  0.00     0.158 A 
BRANCH  15  18
ATOM     18  O   UNL     1      18.603  21.912 -13.142  1.00  0.00    -0.504 OA
ATOM     19  H   UNL     1      19.362  21.286 -13.389  1.00  0.00     0.293 HD
ENDBRANCH  15  18
BRANCH  17  20
ATOM     20  O   UNL     1      18.319  20.647 -10.633  1.00  0.00    -0.504 OA
ATOM     21  H   UNL     1      18.450  19.819 -10.064  1.00  0.00     0.293 HD
ENDBRANCH  17  20
ENDBRANCH   1  12
BRANCH   2  22
ATOM     22  O   UNL     1      13.667  17.994 -12.960  1.00  0.00    -0.502 OA
ATOM     23  H   UNL     1      14.272  17.222 -12.708  1.00  0.00     0.293 HD
ENDBRANCH   2  22
BRANCH   6  24
ATOM     24  O   UNL     1       9.094  17.618 -10.510  1.00  0.00    -0.507 OA
ATOM     25  H   UNL     1       8.088  17.573 -10.623  1.00  0.00     0.293 HD
ENDBRANCH   6  24
BRANCH   8  26
ATOM     26  O   UNL     1       9.062  21.662  -7.877  1.00  0.00    -0.508 OA
ATOM     27  H   UNL     1       9.481  21.911  -6.989  1.00  0.00     0.293 HD
ENDBRANCH   8  26
TORSDOF 6
ENDMDL
MODEL 3
REMARK VINA RESULT:    -6.566      1.922      7.505
REMARK INTER + INTRA:          -8.023
REMARK INTER:                  -7.759
REMARK INTRA:                  -0.264
REMARK UNBOUND:                -0.113
REMARK SMILES O=c1c(O)c(-c2ccc(O)c(O)c2)oc2cc(O)cc(O)c12
REMARK SMILES IDX 5 1 3 2 2 3 1 4 22 5 20 6 19 7 17 8 16 9 15 10 14 11 6 12
REMARK SMILES IDX 7 13 8 14 9 15 13 16 11 17 10 18 12 20 4 22 21 24 18 26
REMARK H PARENT 10 19 12 21 4 23 21 25 18 27
REMARK Flexibility Score: inf
ROOT
ATOM      1  C   UNL     1      13.196  20.081 -11.255  1.00  0.00     0.180 A 
ATOM      2  C   UNL     1      12.424  20.883 -10.394  1.00  0.00     0.208 A 
ATOM      3  C   UNL     1      11.184  20.401  -9.948  1.00  0.00     0.238 A 
ATOM      4  O   UNL     1      10.479  21.116  -9.184  1.00  0.00    -0.285 OA
ATOM      5  C   UNL     1      10.746  19.123 -10.353  1.00  0.00     0.111 A 
ATOM      6  C   UNL     1       9.511  18.563  -9.946  1.00  0.00     0.134 A 
ATOM      7  C   UNL     1       9.151  17.280 -10.385  1.00  0.00     0.093 A 
ATOM      8  C   UNL     1       9.999  16.548 -11.219  1.00  0.00     0.123 A 
ATOM      9  C   UNL     1      11.220  17.097 -11.625  1.00  0.00     0.094 A 
ATOM     10  C   UNL     1      11.596  18.375 -11.200  1.00  0.00     0.146 A 
ATOM     11  O   UNL     1      12.758  18.874 -11.605  1.00  0.00    -0.452 OA
ENDROOT
BRANCH   1  12
ATOM     12  C   UNL     1      14.506  20.526 -11.784  1.00  0.00     0.025 A 
ATOM     13  C   UNL     1      15.635  20.490 -10.951  1.00  0.00     0.016 A 
ATOM     14  C   UNL     1      16.885  20.886 -11.435  1.00  0.00     0.051 A 
ATOM     15  C   UNL     1      17.026  21.310 -12.762  1.00  0.00     0.157 A 
ATOM     16  C   UNL     1      14.655  20.933 -13.122  1.00  0.00     0.062 A 
ATOM     17  C   UNL     1      15.907  21.329 -13.610  1.00  0.00     0.158 A 
BRANCH  15  18
ATOM     18  O   UNL     1      18.273  21.707 -13.242  1.00  0.00    -0.504 OA
ATOM     19  H   UNL     1      18.696  22.584 -12.957  1.00  0.00     0.293 HD
ENDBRANCH  15  18
BRANCH  17  20
ATOM     20  O   UNL     1      16.017  21.732 -14.941  1.00  0.00    -0.504 OA
ATOM     21  H   UNL     1      16.856  22.168 -15.303  1.00  0.00     0.293 HD
ENDBRANCH  17  20
ENDBRANCH   1  12
BRANCH   2  22
ATOM     22  O   UNL     1      12.903  22.125  -9.969  1.00  0.00    -0.502 OA
ATOM     23  H   UNL     1      12.941  22.386  -8.990  1.00  0.00     0.293 HD
ENDBRANCH   2  22
BRANCH   6  24
ATOM     24  O   UNL     1       8.642  19.268  -9.111  1.00  0.00    -0.507 OA
ATOM     25  H   UNL     1       8.866  19.449  -8.139  1.00  0.00     0.293 HD
ENDBRANCH   6  24
BRANCH   8  26
ATOM     26  O   UNL     1       9.618  15.276 -11.640  1.00  0.00    -0.508 OA
ATOM     27  H   UNL     1       9.113  15.133 -12.505  1.00  0.00     0.293 HD
ENDBRANCH   8  26
TORSDOF 6
ENDMDL
MODEL 4
REMARK VINA RESULT:    -6.421      2.094      3.492
REMARK INTER + INTRA:          -7.848
REMARK INTER:                  -7.524
REMARK INTRA:                  -0.325
REMARK UNBOUND:                -0.113
REMARK SMILES O=c1c(O)c(-c2ccc(O)c(O)c2)oc2cc(O)cc(O)c12
REMARK SMILES IDX 5 1 3 2 2 3 1 4 22 5 20 6 19 7 17 8 16 9 15 10 14 11 6 12
REMARK SMILES IDX 7 13 8 14 9 15 13 16 11 17 10 18 12 20 4 22 21 24 18 26
REMARK H PARENT 10 19 12 21 4 23 21 25 18 27
REMARK Flexibility Score: inf
ROOT
ATOM      1  C   UNL     1      12.956  19.845 -10.360  1.00  0.00     0.180 A 
ATOM      2  C   UNL     1      13.840  19.866  -9.264  1.00  0.00     0.208 A 
ATOM      3  C   UNL     1      15.175  20.241  -9.476  1.00  0.00     0.238 A 
ATOM      4  O   UNL     1      15.978  20.253  -8.503  1.00  0.00    -0.285 OA
ATOM      5  C   UNL     1      15.599  20.606 -10.771  1.00  0.00     0.111 A 
ATOM      6  C   UNL     1      16.927  20.999 -11.068  1.00  0.00     0.134 A 
ATOM      7  C   UNL     1      17.268  21.357 -12.381  1.00  0.00     0.093 A 
ATOM      8  C   UNL     1      16.312  21.330 -13.399  1.00  0.00     0.123 A 
ATOM      9  C   UNL     1      14.999  20.941 -13.110  1.00  0.00     0.094 A 
ATOM     10  C   UNL     1      14.640  20.579 -11.809  1.00  0.00     0.146 A 
ATOM     11  O   UNL     1      13.388  20.209 -11.564  1.00  0.00    -0.452 OA
ENDROOT
BRANCH   1  12
ATOM     12  C   UNL     1      11.538  19.442 -10.220  1.00  0.00     0.025 A 
ATOM     13  C   UNL     1      11.188  18.089 -10.353  1.00  0.00     0.016 A 
ATOM     14  C   UNL     1       9.859  17.684 -10.205  1.00  0.00     0.051 A 
ATOM     15  C   UNL     1       8.863  18.623  -9.908  1.00  0.00     0.157 A 
ATOM     16  C   UNL     1      10.539  20.379  -9.901  1.00  0.00     0.062 A 
ATOM     17  C   UNL     1       9.206  19.976  -9.751  1.00  0.00     0.158 A 
BRANCH  15  18
ATOM     18  O   UNL     1       7.537  18.216  -9.763  1.00  0.00    -0.504 OA
ATOM     19  H   UNL     1       6.996  18.457  -8.941  1.00  0.00     0.293 HD
ENDBRANCH  15  18
BRANCH  17  20
ATOM     20  O   UNL     1       8.241  20.932  -9.440  1.00  0.00    -0.504 OA
ATOM     21  H   UNL     1       7.547  21.235 -10.113  1.00  0.00     0.293 HD
ENDBRANCH  17  20
ENDBRANCH   1  12
BRANCH   2  22
ATOM     22  O   UNL     1      13.382  19.547  -7.983  1.00  0.00    -0.502 OA
ATOM     23  H   UNL     1      13.247  18.591  -7.677  1.00  0.00     0.293 HD
ENDBRANCH   2  22
BRANCH   6  24
ATOM     24  O   UNL     1      17.905  21.038 -10.073  1.00  0.00    -0.507 OA
ATOM     25  H   UNL     1      18.888  20.916 -10.287  1.00  0.00     0.293 HD
ENDBRANCH   6  24
BRANCH   8  26
ATOM     26  O   UNL     1      16.677  21.691 -14.694  1.00  0.00    -0.508 OA
ATOM     27  H   UNL     1      17.639  21.645 -15.006  1.00  0.00     0.293 HD
ENDBRANCH   8  26
TORSDOF 6
ENDMDL
MODEL 5
REMARK VINA RESULT:    -6.364      1.582      3.346
REMARK INTER + INTRA:          -7.778
REMARK INTER:                  -7.610
REMARK INTRA:                  -0.168
REMARK UNBOUND:                -0.113
REMARK SMILES O=c1c(O)c(-c2ccc(O)c(O)c2)oc2cc(O)cc(O)c12
REMARK SMILES IDX 5 1 3 2 2 3 1 4 22 5 20 6 19 7 17 8 16 9 15 10 14 11 6 12
REMARK SMILES IDX 7 13 8 14 9 15 13 16 11 17 10 18 12 20 4 22 21 24 18 26
REMARK H PARENT 10 19 12 21 4 23 21 25 18 27
REMARK Flexibility Score: inf
ROOT
ATOM      1  C   UNL     1      15.877  20.759 -11.946  1.00  0.00     0.180 A 
ATOM      2  C   UNL     1      16.318  21.184 -13.213  1.00  0.00     0.208 A 
ATOM      3  C   UNL     1      17.674  21.503 -13.388  1.00  0.00     0.238 A 
ATOM      4  O   UNL     1      18.078  21.895 -14.517  1.00  0.00    -0.285 OA
ATOM      5  C   UNL     1      18.565  21.373 -12.303  1.00  0.00     0.111 A 
ATOM      6  C   UNL     1      19.947  21.671 -12.397  1.00  0.00     0.134 A 
ATOM      7  C   UNL     1      20.770  21.507 -11.274  1.00  0.00     0.093 A 
ATOM      8  C   UNL     1      20.244  21.053 -10.063  1.00  0.00     0.123 A 
ATOM      9  C   UNL     1      18.879  20.759  -9.964  1.00  0.00     0.094 A 
ATOM     10  C   UNL     1      18.041  20.917 -11.072  1.00  0.00     0.146 A 
ATOM     11  O   UNL     1      16.749  20.636 -10.949  1.00  0.00    -0.452 OA
ENDROOT
BRANCH   1  12
ATOM     12  C   UNL     1      14.460  20.424 -11.677  1.00  0.00     0.025 A 
ATOM     13  C   UNL     1      13.707  21.242 -10.819  1.00  0.00     0.016 A 
ATOM     14  C   UNL     1      12.363  20.955 -10.567  1.00  0.00     0.051 A 
ATOM     15  C   UNL     1      11.747  19.858 -11.181  1.00  0.00     0.157 A 
ATOM     16  C   UNL     1      13.833  19.334 -12.308  1.00  0.00     0.062 A 
ATOM     17  C   UNL     1      12.485  19.046 -12.059  1.00  0.00     0.158 A 
BRANCH  15  18
ATOM     18  O   UNL     1      10.407  19.573 -10.926  1.00  0.00    -0.504 OA
ATOM     19  H   UNL     1       9.838  20.175 -10.341  1.00  0.00     0.293 HD
ENDBRANCH  15  18
BRANCH  17  20
ATOM     20  O   UNL     1      11.897  17.955 -12.697  1.00  0.00    -0.504 OA
ATOM     21  H   UNL     1      11.068  17.501 -12.333  1.00  0.00     0.293 HD
ENDBRANCH  17  20
ENDBRANCH   1  12
BRANCH   2  22
ATOM     22  O   UNL     1      15.423  21.257 -14.284  1.00  0.00    -0.502 OA
ATOM     23  H   UNL     1      15.713  21.532 -15.215  1.00  0.00     0.293 HD
ENDBRANCH   2  22
BRANCH   6  24
ATOM     24  O   UNL     1      20.504  22.125 -13.594  1.00  0.00    -0.507 OA
ATOM     25  H   UNL     1      20.304  21.675 -14.480  1.00  0.00     0.293 HD
ENDBRANCH   6  24
BRANCH   8  26
ATOM     26  O   UNL     1      21.084  20.898  -8.963  1.00  0.00    -0.508 OA
ATOM     27  H   UNL     1      20.862  20.255  -8.213  1.00  0.00     0.293 HD
ENDBRANCH   8  26
TORSDOF 6
ENDMDL
MODEL 6
REMARK VINA RESULT:    -6.141      1.419      6.852
REMARK INTER + INTRA:          -7.510
REMARK INTER:                  -7.543
REMARK INTRA:                   0.033
REMARK UNBOUND:                -0.113
REMARK SMILES O=c1c(O)c(-c2ccc(O)c(O)c2)oc2cc(O)cc(O)c12
REMARK SMILES IDX 5 1 3 2 2 3 1 4 22 5 20 6 19 7 17 8 16 9 15 10 14 11 6 12
REMARK SMILES IDX 7 13 8 14 9 15 13 16 11 17 10 18 12 20 4 22 21 24 18 26
REMARK H PARENT 10 19 12 21 4 23 21 25 18 27
REMARK Flexibility Score: inf
ROOT
ATOM      1  C   UNL     1      15.117  20.680 -12.102  1.00  0.00     0.180 A 
ATOM      2  C   UNL     1      15.108  21.240 -10.811  1.00  0.00     0.208 A 
ATOM      3  C   UNL     1      14.090  20.873  -9.918  1.00  0.00     0.238 A 
ATOM      4  O   UNL     1      14.066  21.377  -8.762  1.00  0.00    -0.285 OA
ATOM      5  C   UNL     1      13.112  19.940 -10.322  1.00  0.00     0.111 A 
ATOM      6  C   UNL     1      12.055  19.514  -9.482  1.00  0.00     0.134 A 
ATOM      7  C   UNL     1      11.127  18.575  -9.955  1.00  0.00     0.093 A 
ATOM      8  C   UNL     1      11.234  18.054 -11.247  1.00  0.00     0.123 A 
ATOM      9  C   UNL     1      12.277  18.472 -12.081  1.00  0.00     0.094 A 
ATOM     10  C   UNL     1      13.210  19.408 -11.629  1.00  0.00     0.146 A 
ATOM     11  O   UNL     1      14.187  19.792 -12.443  1.00  0.00    -0.452 OA
ENDROOT
BRANCH   1  12
ATOM     12  C   UNL     1      16.146  21.032 -13.107  1.00  0.00     0.025 A 
ATOM     13  C   UNL     1      15.748  21.438 -14.391  1.00  0.00     0.016 A 
ATOM     14  C   UNL     1      16.701  21.794 -15.347  1.00  0.00     0.051 A 
ATOM     15  C   UNL     1      18.065  21.765 -15.031  1.00  0.00     0.157 A 
ATOM     16  C   UNL     1      17.516  21.023 -12.786  1.00  0.00     0.062 A 
ATOM     17  C   UNL     1      18.473  21.382 -13.743  1.00  0.00     0.158 A 
BRANCH  15  18
ATOM     18  O   UNL     1      19.015  22.119 -15.989  1.00  0.00    -0.504 OA
ATOM     19  H   UNL     1      19.790  21.507 -16.218  1.00  0.00     0.293 HD
ENDBRANCH  15  18
BRANCH  17  20
ATOM     20  O   UNL     1      19.823  21.356 -13.392  1.00  0.00    -0.504 OA
ATOM     21  H   UNL     1      20.526  20.940 -13.990  1.00  0.00     0.293 HD
ENDBRANCH  17  20
ENDBRANCH   1  12
BRANCH   2  22
ATOM     22  O   UNL     1      16.117  22.125 -10.419  1.00  0.00    -0.502 OA
ATOM     23  H   UNL     1      16.935  21.821  -9.905  1.00  0.00     0.293 HD
ENDBRANCH   2  22
BRANCH   6  24
ATOM     24  O   UNL     1      11.921  20.014  -8.186  1.00  0.00    -0.507 OA
ATOM     25  H   UNL     1      11.395  19.518  -7.475  1.00  0.00     0.293 HD
ENDBRANCH   6  24
BRANCH   8  26
ATOM     26  O   UNL     1      10.300  17.121 -11.692  1.00  0.00    -0.508 OA
ATOM     27  H   UNL     1      10.531  16.436 -12.401  1.00  0.00     0.293 HD
ENDBRANCH   8  26
TORSDOF 6
ENDMDL
MODEL 7
REMARK VINA RESULT:    -6.052      2.934      5.231
REMARK INTER + INTRA:          -7.404
REMARK INTER:                  -7.079
REMARK INTRA:                  -0.325
REMARK UNBOUND:                -0.113
REMARK SMILES O=c1c(O)c(-c2ccc(O)c(O)c2)oc2cc(O)cc(O)c12
REMARK SMILES IDX 5 1 3 2 2 3 1 4 22 5 20 6 19 7 17 8 16 9 15 10 14 11 6 12
REMARK SMILES IDX 7 13 8 14 9 15 13 16 11 17 10 18 12 20 4 22 21 24 18 26
REMARK H PARENT 10 19 12 21 4 23 21 25 18 27
REMARK Flexibility Score: inf
ROOT
ATOM      1  C   UNL     1      12.013  19.110 -10.536  1.00  0.00     0.180 A 
ATOM      2  C   UNL     1      12.508  19.033 -11.852  1.00  0.00     0.208 A 
ATOM      3  C   UNL     1      13.754  19.609 -12.142  1.00  0.00     0.238 A 
ATOM      4  O   UNL     1      14.203  19.556 -13.320  1.00  0.00    -0.285 OA
ATOM      5  C   UNL     1      14.491  20.233 -11.113  1.00  0.00     0.111 A 
ATOM      6  C   UNL     1      15.755  20.834 -11.322  1.00  0.00     0.134 A 
ATOM      7  C   UNL     1      16.429  21.427 -10.244  1.00  0.00     0.093 A 
ATOM      8  C   UNL     1      15.867  21.430  -8.966  1.00  0.00     0.123 A 
ATOM      9  C   UNL     1      14.617  20.837  -8.754  1.00  0.00     0.094 A 
ATOM     10  C   UNL     1      13.929  20.244  -9.816  1.00  0.00     0.146 A 
ATOM     11  O   UNL     1      12.741  19.693  -9.589  1.00  0.00    -0.452 OA
ENDROOT
BRANCH   1  12
ATOM     12  C   UNL     1      10.699  18.544 -10.155  1.00  0.00     0.025 A 
ATOM     13  C   UNL     1      10.617  17.204  -9.743  1.00  0.00     0.016 A 
ATOM     14  C   UNL     1       9.390  16.655  -9.360  1.00  0.00     0.051 A 
ATOM     15  C   UNL     1       8.231  17.441  -9.368  1.00  0.00     0.157 A 
ATOM     16  C   UNL     1       9.536  19.336 -10.143  1.00  0.00     0.062 A 
ATOM     17  C   UNL     1       8.306  18.788  -9.758  1.00  0.00     0.158 A 
BRANCH  15  18
ATOM     18  O   UNL     1       7.008  16.890  -8.988  1.00  0.00    -0.504 OA
ATOM     19  H   UNL     1       6.892  15.890  -8.866  1.00  0.00     0.293 HD
ENDBRANCH  15  18
BRANCH  17  20
ATOM     20  O   UNL     1       7.172  19.600  -9.763  1.00  0.00    -0.504 OA
ATOM     21  H   UNL     1       7.174  20.530  -9.362  1.00  0.00     0.293 HD
ENDBRANCH  17  20
ENDBRANCH   1  12
BRANCH   2  22
ATOM     22  O   UNL     1      11.781  18.367 -12.842  1.00  0.00    -0.502 OA
ATOM     23  H   UNL     1      11.625  17.366 -12.819  1.00  0.00     0.293 HD
ENDBRANCH   2  22
BRANCH   6  24
ATOM     24  O   UNL     1      16.345  20.847 -12.587  1.00  0.00    -0.507 OA
ATOM     25  H   UNL     1      16.819  20.033 -12.962  1.00  0.00     0.293 HD
ENDBRANCH   6  24
BRANCH   8  26
ATOM     26  O   UNL     1      16.558  22.023  -7.912  1.00  0.00    -0.508 OA
ATOM     27  H   UNL     1      16.074  22.402  -7.107  1.00  0.00     0.293 HD
ENDBRANCH   8  26
TORSDOF 6
ENDMDL
MODEL 8
REMARK VINA RESULT:    -5.481      1.152      6.574
REMARK INTER + INTRA:          -6.715
REMARK INTER:                  -7.018
REMARK INTRA:                   0.303
REMARK UNBOUND:                -0.113
REMARK SMILES O=c1c(O)c(-c2ccc(O)c(O)c2)oc2cc(O)cc(O)c12
REMARK SMILES IDX 5 1 3 2 2 3 1 4 22 5 20 6 19 7 17 8 16 9 15 10 14 11 6 12
REMARK SMILES IDX 7 13 8 14 9 15 13 16 11 17 10 18 12 20 4 22 21 24 18 26
REMARK H PARENT 10 19 12 21 4 23 21 25 18 27
REMARK Flexibility Score: inf
ROOT
ATOM      1  C   UNL     1      16.554  21.129 -12.973  1.00  0.00     0.180 A 
ATOM      2  C   UNL     1      17.017  21.460 -11.685  1.00  0.00     0.208 A 
ATOM      3  C   UNL     1      16.195  21.195 -10.579  1.00  0.00     0.238 A 
ATOM      4  O   UNL     1      16.595  21.497  -9.422  1.00  0.00    -0.285 OA
ATOM      5  C   UNL     1      14.938  20.586 -10.776  1.00  0.00     0.111 A 
ATOM      6  C   UNL     1      14.051  20.282  -9.714  1.00  0.00     0.134 A 
ATOM      7  C   UNL     1      12.821  19.668  -9.992  1.00  0.00     0.093 A 
ATOM      8  C   UNL     1      12.460  19.352 -11.303  1.00  0.00     0.123 A 
ATOM      9  C   UNL     1      13.332  19.651 -12.356  1.00  0.00     0.094 A 
ATOM     10  C   UNL     1      14.562  20.265 -12.101  1.00  0.00     0.146 A 
ATOM     11  O   UNL     1      15.368  20.544 -13.119  1.00  0.00    -0.452 OA
ENDROOT
BRANCH   1  12
ATOM     12  C   UNL     1      17.353  21.396 -14.190  1.00  0.00     0.025 A 
ATOM     13  C   UNL     1      18.755  21.343 -14.122  1.00  0.00     0.016 A 
ATOM     14  C   UNL     1      19.528  21.571 -15.263  1.00  0.00     0.051 A 
ATOM     15  C   UNL     1      18.913  21.841 -16.491  1.00  0.00     0.157 A 
ATOM     16  C   UNL     1      16.738  21.647 -15.430  1.00  0.00     0.062 A 
ATOM     17  C   UNL     1      17.511  21.874 -16.576  1.00  0.00     0.158 A 
BRANCH  15  18
ATOM     18  O   UNL     1      19.687  22.070 -17.628  1.00  0.00    -0.504 OA
ATOM     19  H   UNL     1      19.286  22.037 -18.558  1.00  0.00     0.293 HD
ENDBRANCH  15  18
BRANCH  17  20
ATOM     20  O   UNL     1      16.868  22.125 -17.787  1.00  0.00    -0.504 OA
ATOM     21  H   UNL     1      17.267  22.732 -18.493  1.00  0.00     0.293 HD
ENDBRANCH  17  20
ENDBRANCH   1  12
BRANCH   2  22
ATOM     22  O   UNL     1      18.287  22.017 -11.514  1.00  0.00    -0.502 OA
ATOM     23  H   UNL     1      19.059  21.495 -11.117  1.00  0.00     0.293 HD
ENDBRANCH   2  22
BRANCH   6  24
ATOM     24  O   UNL     1      14.382  20.583  -8.392  1.00  0.00    -0.507 OA
ATOM     25  H   UNL     1      14.284  21.520  -8.018  1.00  0.00     0.293 HD
ENDBRANCH   6  24
BRANCH   8  26
ATOM     26  O   UNL     1      11.233  18.741 -11.551  1.00  0.00    -0.508 OA
ATOM     27  H   UNL     1      10.684  18.332 -10.805  1.00  0.00     0.293 HD
ENDBRANCH   8  26
TORSDOF 6
ENDMDL
