MODEL 1
REMARK VINA RESULT:    -5.897      0.000      0.000
REMARK INTER + INTRA:         -17.483
REMARK INTER:                 -15.550
REMARK INTRA:                  -1.934
REMARK UNBOUND:                -1.934
REMARK SMILES CCCCCCCCCCCCCCCCCCCCCCCCCCCCCC(=O)[O-]
REMARK SMILES IDX 16 1 17 2 18 3 19 4 20 5 21 6 22 7 23 8 24 9 25 10 26 11
REMARK SMILES IDX 27 12 28 13 29 14 30 15 31 16 32 17 15 18 14 19 13 20 12 21
REMARK SMILES IDX 11 22 10 23 9 24 8 25 7 26 6 27 5 28 4 29 3 30 2 31 1 32
REMARK H PARENT
REMARK Flexibility Score: inf
ROOT
ATOM      1  C   UNL     1      27.890  43.301  34.361  1.00  0.00     0.000 C 
ENDROOT
BRANCH   1   2
ATOM      2  C   UNL     1      26.993  43.841  35.488  1.00  0.00     0.000 C 
BRANCH   2   3
ATOM      3  C   UNL     1      25.765  42.955  35.747  1.00  0.00     0.000 C 
BRANCH   3   4
ATOM      4  C   UNL     1      24.543  43.803  36.115  1.00  0.00     0.000 C 
BRANCH   4   5
ATOM      5  C   UNL     1      23.353  43.470  35.207  1.00  0.00     0.000 C 
BRANCH   5   6
ATOM      6  C   UNL     1      22.193  44.454  35.432  1.00  0.00     0.000 C 
BRANCH   6   7
ATOM      7  C   UNL     1      22.475  45.456  36.562  1.00  0.00     0.000 C 
BRANCH   7   8
ATOM      8  C   UNL     1      22.119  46.920  36.236  1.00  0.00     0.000 C 
BRANCH   8   9
ATOM      9  C   UNL     1      21.559  47.126  34.812  1.00  0.00     0.000 C 
BRANCH   9  10
ATOM     10  C   UNL     1      20.093  47.593  34.816  1.00  0.00     0.000 C 
BRANCH  10  11
ATOM     11  C   UNL     1      19.548  47.859  33.403  1.00  0.00     0.000 C 
BRANCH  11  12
ATOM     12  C   UNL     1      19.401  46.583  32.543  1.00  0.00     0.000 C 
BRANCH  12  13
ATOM     13  C   UNL     1      18.957  45.350  33.354  1.00  0.00     0.006 C 
BRANCH  13  14
ATOM     14  C   UNL     1      17.607  44.772  32.895  1.00  0.00     0.053 C 
BRANCH  14  15
ATOM     15  C   UNL     1      16.522  45.803  32.912  1.00  0.00     0.041 C 
ATOM     16  O   UNL     1      16.136  46.301  34.001  1.00  0.00    -0.550 OA
ATOM     17  O   UNL     1      15.925  46.204  31.724  1.00  0.00    -0.550 OA
ENDBRANCH  14  15
ENDBRANCH  13  14
ENDBRANCH  12  13
ENDBRANCH  11  12
ENDBRANCH  10  11
ENDBRANCH   9  10
ENDBRANCH   8   9
ENDBRANCH   7   8
ENDBRANCH   6   7
ENDBRANCH   5   6
ENDBRANCH   4   5
ENDBRANCH   3   4
ENDBRANCH   2   3
ENDBRANCH   1   2
BRANCH   1  18
ATOM     18  C   UNL     1      27.716  41.802  34.051  1.00  0.00     0.000 C 
BRANCH  18  19
ATOM     19  C   UNL     1      27.677  41.506  32.542  1.00  0.00     0.000 C 
BRANCH  19  20
ATOM     20  C   UNL     1      28.064  40.052  32.217  1.00  0.00     0.000 C 
BRANCH  20  21
ATOM     21  C   UNL     1      28.237  39.191  33.480  1.00  0.00     0.000 C 
BRANCH  21  22
ATOM     22  C   UNL     1      27.317  37.955  33.492  1.00  0.00     0.000 C 
BRANCH  22  23
ATOM     23  C   UNL     1      27.076  37.304  32.118  1.00  0.00     0.000 C 
BRANCH  23  24
ATOM     24  C   UNL     1      27.841  35.991  31.866  1.00  0.00    -0.000 C 
BRANCH  24  25
ATOM     25  C   UNL     1      28.316  35.805  30.409  1.00  0.00    -0.000 C 
BRANCH  25  26
ATOM     26  C   UNL     1      27.946  34.425  29.832  1.00  0.00    -0.000 C 
BRANCH  26  27
ATOM     27  C   UNL     1      27.000  33.635  30.749  1.00  0.00    -0.000 C 
BRANCH  27  28
ATOM     28  C   UNL     1      25.563  33.568  30.204  1.00  0.00    -0.000 C 
BRANCH  28  29
ATOM     29  C   UNL     1      25.414  32.590  29.029  1.00  0.00    -0.000 C 
BRANCH  29  30
ATOM     30  C   UNL     1      23.971  32.519  28.497  1.00  0.00    -0.000 C 
BRANCH  30  31
ATOM     31  C   UNL     1      23.125  31.467  29.232  1.00  0.00    -0.003 C 
ATOM     32  C   UNL     1      21.622  31.692  29.060  1.00  0.00     0.004 C 
ENDBRANCH  30  31
ENDBRANCH  29  30
ENDBRANCH  28  29
ENDBRANCH  27  28
ENDBRANCH  26  27
ENDBRANCH  25  26
ENDBRANCH  24  25
ENDBRANCH  23  24
ENDBRANCH  22  23
ENDBRANCH  21  22
ENDBRANCH  20  21
ENDBRANCH  19  20
ENDBRANCH  18  19
ENDBRANCH   1  18
TORSDOF 28
ENDMDL
MODEL 2
REMARK VINA RESULT:    -5.818      4.546     12.502
REMARK INTER + INTRA:         -17.276
REMARK INTER:                 -14.246
REMARK INTRA:                  -3.030
REMARK UNBOUND:                -1.934
REMARK SMILES CCCCCCCCCCCCCCCCCCCCCCCCCCCCCC(=O)[O-]
REMARK SMILES IDX 16 1 17 2 18 3 19 4 20 5 21 6 22 7 23 8 24 9 25 10 26 11
REMARK SMILES IDX 27 12 28 13 29 14 30 15 31 16 32 17 15 18 14 19 13 20 12 21
REMARK SMILES IDX 11 22 10 23 9 24 8 25 7 26 6 27 5 28 4 29 3 30 2 31 1 32
REMARK H PARENT
REMARK Flexibility Score: inf
ROOT
ATOM      1  C   UNL     1      23.246  43.945  35.339  1.00  0.00     0.000 C 
ENDROOT
BRANCH   1   2
ATOM      2  C   UNL     1      24.529  43.846  36.183  1.00  0.00     0.000 C 
BRANCH   2   3
ATOM      3  C   UNL     1      25.585  42.925  35.553  1.00  0.00     0.000 C 
BRANCH   3   4
ATOM      4  C   UNL     1      26.931  43.647  35.416  1.00  0.00     0.000 C 
BRANCH   4   5
ATOM      5  C   UNL     1      27.836  42.928  34.408  1.00  0.00     0.000 C 
BRANCH   5   6
ATOM      6  C   UNL     1      27.146  41.677  33.840  1.00  0.00     0.000 C 
BRANCH   6   7
ATOM      7  C   UNL     1      27.813  41.165  32.553  1.00  0.00     0.000 C 
BRANCH   7   8
ATOM      8  C   UNL     1      28.179  39.668  32.564  1.00  0.00     0.000 C 
BRANCH   8   9
ATOM      9  C   UNL     1      27.229  38.796  33.415  1.00  0.00     0.000 C 
BRANCH   9  10
ATOM     10  C   UNL     1      27.510  37.292  33.260  1.00  0.00     0.000 C 
BRANCH  10  11
ATOM     11  C   UNL     1      27.043  36.735  31.905  1.00  0.00     0.000 C 
BRANCH  11  12
ATOM     12  C   UNL     1      28.198  36.456  30.916  1.00  0.00     0.000 C 
BRANCH  12  13
ATOM     13  C   UNL     1      27.784  35.553  29.736  1.00  0.00     0.006 C 
BRANCH  13  14
ATOM     14  C   UNL     1      28.198  34.082  29.920  1.00  0.00     0.053 C 
BRANCH  14  15
ATOM     15  C   UNL     1      27.272  33.353  30.842  1.00  0.00     0.041 C 
ATOM     16  O   UNL     1      27.686  32.926  31.951  1.00  0.00    -0.550 OA
ATOM     17  O   UNL     1      25.953  33.128  30.469  1.00  0.00    -0.550 OA
ENDBRANCH  14  15
ENDBRANCH  13  14
ENDBRANCH  12  13
ENDBRANCH  11  12
ENDBRANCH  10  11
ENDBRANCH   9  10
ENDBRANCH   8   9
ENDBRANCH   7   8
ENDBRANCH   6   7
ENDBRANCH   5   6
ENDBRANCH   4   5
ENDBRANCH   3   4
ENDBRANCH   2   3
ENDBRANCH   1   2
BRANCH   1  18
ATOM     18  C   UNL     1      22.174  44.902  35.892  1.00  0.00     0.000 C 
BRANCH  18  19
ATOM     19  C   UNL     1      22.684  45.756  37.066  1.00  0.00     0.000 C 
BRANCH  19  20
ATOM     20  C   UNL     1      22.005  47.135  37.130  1.00  0.00     0.000 C 
BRANCH  20  21
ATOM     21  C   UNL     1      21.047  47.378  35.950  1.00  0.00     0.000 C 
BRANCH  21  22
ATOM     22  C   UNL     1      19.578  47.517  36.390  1.00  0.00     0.000 C 
BRANCH  22  23
ATOM     23  C   UNL     1      19.152  46.600  37.552  1.00  0.00     0.000 C 
BRANCH  23  24
ATOM     24  C   UNL     1      17.882  45.765  37.302  1.00  0.00    -0.000 C 
BRANCH  24  25
ATOM     25  C   UNL     1      18.156  44.326  36.816  1.00  0.00    -0.000 C 
BRANCH  25  26
ATOM     26  C   UNL     1      18.625  44.270  35.350  1.00  0.00    -0.000 C 
BRANCH  26  27
ATOM     27  C   UNL     1      17.510  44.637  34.358  1.00  0.00    -0.000 C 
BRANCH  27  28
ATOM     28  C   UNL     1      18.049  45.282  33.070  1.00  0.00    -0.000 C 
BRANCH  28  29
ATOM     29  C   UNL     1      19.579  45.430  33.070  1.00  0.00    -0.000 C 
BRANCH  29  30
ATOM     30  C   UNL     1      20.042  46.790  32.517  1.00  0.00    -0.000 C 
BRANCH  30  31
ATOM     31  C   UNL     1      18.866  47.724  32.190  1.00  0.00    -0.003 C 
ATOM     32  C   UNL     1      18.759  48.902  33.160  1.00  0.00     0.004 C 
ENDBRANCH  30  31
ENDBRANCH  29  30
ENDBRANCH  28  29
ENDBRANCH  27  28
ENDBRANCH  26  27
ENDBRANCH  25  26
ENDBRANCH  24  25
ENDBRANCH  23  24
ENDBRANCH  22  23
ENDBRANCH  21  22
ENDBRANCH  20  21
ENDBRANCH  19  20
ENDBRANCH  18  19
ENDBRANCH   1  18
TORSDOF 28
ENDMDL
MODEL 3
REMARK VINA RESULT:    -5.810      1.492      4.097
REMARK INTER + INTRA:         -17.253
REMARK INTER:                 -15.552
REMARK INTRA:                  -1.701
REMARK UNBOUND:                -1.934
REMARK SMILES CCCCCCCCCCCCCCCCCCCCCCCCCCCCCC(=O)[O-]
REMARK SMILES IDX 16 1 17 2 18 3 19 4 20 5 21 6 22 7 23 8 24 9 25 10 26 11
REMARK SMILES IDX 27 12 28 13 29 14 30 15 31 16 32 17 15 18 14 19 13 20 12 21
REMARK SMILES IDX 11 22 10 23 9 24 8 25 7 26 6 27 5 28 4 29 3 30 2 31 1 32
REMARK H PARENT
REMARK Flexibility Score: inf
ROOT
ATOM      1  C   UNL     1      28.194  39.104  33.781  1.00  0.00     0.000 C 
ENDROOT
BRANCH   1   2
ATOM      2  C   UNL     1      28.173  39.643  32.340  1.00  0.00     0.000 C 
BRANCH   2   3
ATOM      3  C   UNL     1      27.851  41.143  32.271  1.00  0.00     0.000 C 
BRANCH   3   4
ATOM      4  C   UNL     1      27.152  41.614  33.552  1.00  0.00     0.000 C 
BRANCH   4   5
ATOM      5  C   UNL     1      27.892  42.805  34.172  1.00  0.00     0.000 C 
BRANCH   5   6
ATOM      6  C   UNL     1      27.200  43.278  35.460  1.00  0.00     0.000 C 
BRANCH   6   7
ATOM      7  C   UNL     1      25.735  42.819  35.549  1.00  0.00     0.000 C 
BRANCH   7   8
ATOM      8  C   UNL     1      24.736  43.917  35.967  1.00  0.00     0.000 C 
BRANCH   8   9
ATOM      9  C   UNL     1      23.278  43.628  35.550  1.00  0.00     0.000 C 
BRANCH   9  10
ATOM     10  C   UNL     1      22.441  44.911  35.402  1.00  0.00     0.000 C 
BRANCH  10  11
ATOM     11  C   UNL     1      21.095  44.833  36.141  1.00  0.00     0.000 C 
BRANCH  11  12
ATOM     12  C   UNL     1      20.155  46.025  35.846  1.00  0.00     0.000 C 
BRANCH  12  13
ATOM     13  C   UNL     1      20.732  47.015  34.816  1.00  0.00     0.006 C 
BRANCH  13  14
ATOM     14  C   UNL     1      19.785  47.289  33.635  1.00  0.00     0.053 C 
BRANCH  14  15
ATOM     15  C   UNL     1      19.779  46.162  32.651  1.00  0.00     0.041 C 
ATOM     16  O   UNL     1      20.569  46.169  31.672  1.00  0.00    -0.550 OA
ATOM     17  O   UNL     1      18.887  45.108  32.805  1.00  0.00    -0.550 OA
ENDBRANCH  14  15
ENDBRANCH  13  14
ENDBRANCH  12  13
ENDBRANCH  11  12
ENDBRANCH  10  11
ENDBRANCH   9  10
ENDBRANCH   8   9
ENDBRANCH   7   8
ENDBRANCH   6   7
ENDBRANCH   5   6
ENDBRANCH   4   5
ENDBRANCH   3   4
ENDBRANCH   2   3
ENDBRANCH   1   2
BRANCH   1  18
ATOM     18  C   UNL     1      27.362  37.829  34.012  1.00  0.00     0.000 C 
BRANCH  18  19
ATOM     19  C   UNL     1      27.484  36.819  32.858  1.00  0.00     0.000 C 
BRANCH  19  20
ATOM     20  C   UNL     1      27.920  35.424  33.340  1.00  0.00     0.000 C 
BRANCH  20  21
ATOM     21  C   UNL     1      28.507  34.564  32.207  1.00  0.00     0.000 C 
BRANCH  21  22
ATOM     22  C   UNL     1      28.442  35.259  30.833  1.00  0.00     0.000 C 
BRANCH  22  23
ATOM     23  C   UNL     1      27.400  34.684  29.857  1.00  0.00     0.000 C 
BRANCH  23  24
ATOM     24  C   UNL     1      26.657  33.428  30.350  1.00  0.00    -0.000 C 
BRANCH  24  25
ATOM     25  C   UNL     1      25.188  33.340  29.883  1.00  0.00    -0.000 C 
BRANCH  25  26
ATOM     26  C   UNL     1      24.985  32.331  28.737  1.00  0.00    -0.000 C 
BRANCH  26  27
ATOM     27  C   UNL     1      23.834  31.350  29.010  1.00  0.00    -0.000 C 
BRANCH  27  28
ATOM     28  C   UNL     1      22.547  32.056  29.469  1.00  0.00    -0.000 C 
BRANCH  28  29
ATOM     29  C   UNL     1      21.384  31.881  28.481  1.00  0.00    -0.000 C 
BRANCH  29  30
ATOM     30  C   UNL     1      20.012  31.866  29.179  1.00  0.00    -0.000 C 
BRANCH  30  31
ATOM     31  C   UNL     1      19.238  30.562  28.928  1.00  0.00    -0.003 C 
ATOM     32  C   UNL     1      19.373  29.563  30.077  1.00  0.00     0.004 C 
ENDBRANCH  30  31
ENDBRANCH  29  30
ENDBRANCH  28  29
ENDBRANCH  27  28
ENDBRANCH  26  27
ENDBRANCH  25  26
ENDBRANCH  24  25
ENDBRANCH  23  24
ENDBRANCH  22  23
ENDBRANCH  21  22
ENDBRANCH  20  21
ENDBRANCH  19  20
ENDBRANCH  18  19
ENDBRANCH   1  18
TORSDOF 28
ENDMDL
MODEL 4
REMARK VINA RESULT:    -5.801      4.434     12.705
REMARK INTER + INTRA:         -17.231
REMARK INTER:                 -15.322
REMARK INTRA:                  -1.909
REMARK UNBOUND:                -1.934
REMARK SMILES CCCCCCCCCCCCCCCCCCCCCCCCCCCCCC(=O)[O-]
REMARK SMILES IDX 16 1 17 2 18 3 19 4 20 5 21 6 22 7 23 8 24 9 25 10 26 11
REMARK SMILES IDX 27 12 28 13 29 14 30 15 31 16 32 17 15 18 14 19 13 20 12 21
REMARK SMILES IDX 11 22 10 23 9 24 8 25 7 26 6 27 5 28 4 29 3 30 2 31 1 32
REMARK H PARENT
REMARK Flexibility Score: inf
ROOT
ATOM      1  C   UNL     1      24.283  43.731  36.205  1.00  0.00     0.000 C 
ENDROOT
BRANCH   1   2
ATOM      2  C   UNL     1      24.079  42.602  35.180  1.00  0.00     0.000 C 
BRANCH   2   3
ATOM      3  C   UNL     1      25.362  41.800  34.918  1.00  0.00     0.000 C 
BRANCH   3   4
ATOM      4  C   UNL     1      26.605  42.684  35.074  1.00  0.00     0.000 C 
BRANCH   4   5
ATOM      5  C   UNL     1      27.805  42.076  34.338  1.00  0.00     0.000 C 
BRANCH   5   6
ATOM      6  C   UNL     1      27.471  41.811  32.861  1.00  0.00     0.000 C 
BRANCH   6   7
ATOM      7  C   UNL     1      28.048  40.480  32.352  1.00  0.00     0.000 C 
BRANCH   7   8
ATOM      8  C   UNL     1      28.234  39.398  33.433  1.00  0.00     0.000 C 
BRANCH   8   9
ATOM      9  C   UNL     1      27.095  38.355  33.480  1.00  0.00     0.000 C 
BRANCH   9  10
ATOM     10  C   UNL     1      27.169  37.349  32.318  1.00  0.00     0.000 C 
BRANCH  10  11
ATOM     11  C   UNL     1      27.642  35.956  32.766  1.00  0.00     0.000 C 
BRANCH  11  12
ATOM     12  C   UNL     1      28.243  35.107  31.622  1.00  0.00     0.000 C 
BRANCH  12  13
ATOM     13  C   UNL     1      27.513  33.766  31.411  1.00  0.00     0.006 C 
BRANCH  13  14
ATOM     14  C   UNL     1      26.898  33.621  30.008  1.00  0.00     0.053 C 
BRANCH  14  15
ATOM     15  C   UNL     1      25.429  33.908  30.010  1.00  0.00     0.041 C 
ATOM     16  O   UNL     1      24.982  34.926  30.598  1.00  0.00    -0.550 OA
ATOM     17  O   UNL     1      24.550  33.040  29.375  1.00  0.00    -0.550 OA
ENDBRANCH  14  15
ENDBRANCH  13  14
ENDBRANCH  12  13
ENDBRANCH  11  12
ENDBRANCH  10  11
ENDBRANCH   9  10
ENDBRANCH   8   9
ENDBRANCH   7   8
ENDBRANCH   6   7
ENDBRANCH   5   6
ENDBRANCH   4   5
ENDBRANCH   3   4
ENDBRANCH   2   3
ENDBRANCH   1   2
BRANCH   1  18
ATOM     18  C   UNL     1      23.190  44.817  36.204  1.00  0.00     0.000 C 
BRANCH  18  19
ATOM     19  C   UNL     1      21.986  44.451  35.319  1.00  0.00     0.000 C 
BRANCH  19  20
ATOM     20  C   UNL     1      21.135  45.678  34.945  1.00  0.00     0.000 C 
BRANCH  20  21
ATOM     21  C   UNL     1      20.629  45.625  33.493  1.00  0.00     0.000 C 
BRANCH  21  22
ATOM     22  C   UNL     1      19.093  45.558  33.397  1.00  0.00     0.000 C 
BRANCH  22  23
ATOM     23  C   UNL     1      18.412  46.844  32.893  1.00  0.00     0.000 C 
BRANCH  23  24
ATOM     24  C   UNL     1      16.873  46.800  32.844  1.00  0.00    -0.000 C 
BRANCH  24  25
ATOM     25  C   UNL     1      16.275  45.390  33.032  1.00  0.00    -0.000 C 
BRANCH  25  26
ATOM     26  C   UNL     1      15.358  44.970  31.868  1.00  0.00    -0.000 C 
BRANCH  26  27
ATOM     27  C   UNL     1      15.137  46.101  30.852  1.00  0.00    -0.000 C 
BRANCH  27  28
ATOM     28  C   UNL     1      13.692  46.628  30.855  1.00  0.00    -0.000 C 
BRANCH  28  29
ATOM     29  C   UNL     1      12.760  45.827  29.933  1.00  0.00    -0.000 C 
BRANCH  29  30
ATOM     30  C   UNL     1      11.690  45.040  30.712  1.00  0.00    -0.000 C 
BRANCH  30  31
ATOM     31  C   UNL     1      11.346  43.699  30.047  1.00  0.00    -0.003 C 
ATOM     32  C   UNL     1      12.361  42.601  30.368  1.00  0.00     0.004 C 
ENDBRANCH  30  31
ENDBRANCH  29  30
ENDBRANCH  28  29
ENDBRANCH  27  28
ENDBRANCH  26  27
ENDBRANCH  25  26
ENDBRANCH  24  25
ENDBRANCH  23  24
ENDBRANCH  22  23
ENDBRANCH  21  22
ENDBRANCH  20  21
ENDBRANCH  19  20
ENDBRANCH  18  19
ENDBRANCH   1  18
TORSDOF 28
ENDMDL
MODEL 5
REMARK VINA RESULT:    -5.744      5.500     12.343
REMARK INTER + INTRA:         -17.079
REMARK INTER:                 -14.763
REMARK INTRA:                  -2.316
REMARK UNBOUND:                -1.934
REMARK SMILES CCCCCCCCCCCCCCCCCCCCCCCCCCCCCC(=O)[O-]
REMARK SMILES IDX 16 1 17 2 18 3 19 4 20 5 21 6 22 7 23 8 24 9 25 10 26 11
REMARK SMILES IDX 27 12 28 13 29 14 30 15 31 16 32 17 15 18 14 19 13 20 12 21
REMARK SMILES IDX 11 22 10 23 9 24 8 25 7 26 6 27 5 28 4 29 3 30 2 31 1 32
REMARK H PARENT
REMARK Flexibility Score: inf
ROOT
ATOM      1  C   UNL     1      23.258  30.702  29.172  1.00  0.00     0.000 C 
ENDROOT
BRANCH   1   2
ATOM      2  C   UNL     1      23.743  32.157  29.042  1.00  0.00     0.000 C 
BRANCH   2   3
ATOM      3  C   UNL     1      25.249  32.258  28.759  1.00  0.00     0.000 C 
BRANCH   3   4
ATOM      4  C   UNL     1      25.921  33.254  29.711  1.00  0.00     0.000 C 
BRANCH   4   5
ATOM      5  C   UNL     1      24.905  34.272  30.243  1.00  0.00     0.000 C 
BRANCH   5   6
ATOM      6  C   UNL     1      25.598  35.579  30.660  1.00  0.00     0.000 C 
BRANCH   6   7
ATOM      7  C   UNL     1      27.129  35.499  30.554  1.00  0.00     0.000 C 
BRANCH   7   8
ATOM      8  C   UNL     1      27.889  36.632  31.272  1.00  0.00     0.000 C 
BRANCH   8   9
ATOM      9  C   UNL     1      27.544  36.766  32.772  1.00  0.00     0.000 C 
BRANCH   9  10
ATOM     10  C   UNL     1      27.358  38.230  33.206  1.00  0.00     0.000 C 
BRANCH  10  11
ATOM     11  C   UNL     1      27.957  39.230  32.203  1.00  0.00     0.000 C 
BRANCH  11  12
ATOM     12  C   UNL     1      27.591  40.703  32.500  1.00  0.00     0.000 C 
BRANCH  12  13
ATOM     13  C   UNL     1      27.722  41.074  33.990  1.00  0.00     0.006 C 
BRANCH  13  14
ATOM     14  C   UNL     1      26.429  41.650  34.592  1.00  0.00     0.053 C 
BRANCH  14  15
ATOM     15  C   UNL     1      26.669  42.954  35.287  1.00  0.00     0.041 C 
ATOM     16  O   UNL     1      27.804  43.224  35.756  1.00  0.00    -0.550 OA
ATOM     17  O   UNL     1      25.631  43.865  35.432  1.00  0.00    -0.550 OA
ENDBRANCH  14  15
ENDBRANCH  13  14
ENDBRANCH  12  13
ENDBRANCH  11  12
ENDBRANCH  10  11
ENDBRANCH   9  10
ENDBRANCH   8   9
ENDBRANCH   7   8
ENDBRANCH   6   7
ENDBRANCH   5   6
ENDBRANCH   4   5
ENDBRANCH   3   4
ENDBRANCH   2   3
ENDBRANCH   1   2
BRANCH   1  18
ATOM     18  C   UNL     1      21.728  30.527  29.220  1.00  0.00     0.000 C 
BRANCH  18  19
ATOM     19  C   UNL     1      20.980  31.586  28.393  1.00  0.00     0.000 C 
BRANCH  19  20
ATOM     20  C   UNL     1      19.506  31.727  28.811  1.00  0.00     0.000 C 
BRANCH  20  21
ATOM     21  C   UNL     1      18.659  32.455  27.753  1.00  0.00     0.000 C 
BRANCH  21  22
ATOM     22  C   UNL     1      17.719  31.508  26.983  1.00  0.00     0.000 C 
BRANCH  22  23
ATOM     23  C   UNL     1      16.246  31.538  27.431  1.00  0.00     0.000 C 
BRANCH  23  24
ATOM     24  C   UNL     1      15.998  31.168  28.905  1.00  0.00    -0.000 C 
BRANCH  24  25
ATOM     25  C   UNL     1      14.534  30.798  29.226  1.00  0.00    -0.000 C 
BRANCH  25  26
ATOM     26  C   UNL     1      13.832  30.076  28.061  1.00  0.00    -0.000 C 
BRANCH  26  27
ATOM     27  C   UNL     1      12.550  30.792  27.607  1.00  0.00    -0.000 C 
BRANCH  27  28
ATOM     28  C   UNL     1      12.223  32.025  28.466  1.00  0.00    -0.000 C 
BRANCH  28  29
ATOM     29  C   UNL     1      11.767  33.232  27.632  1.00  0.00    -0.000 C 
BRANCH  29  30
ATOM     30  C   UNL     1      12.493  34.531  28.024  1.00  0.00    -0.000 C 
BRANCH  30  31
ATOM     31  C   UNL     1      14.015  34.433  27.841  1.00  0.00    -0.003 C 
ATOM     32  C   UNL     1      14.779  34.554  29.160  1.00  0.00     0.004 C 
ENDBRANCH  30  31
ENDBRANCH  29  30
ENDBRANCH  28  29
ENDBRANCH  27  28
ENDBRANCH  26  27
ENDBRANCH  25  26
ENDBRANCH  24  25
ENDBRANCH  23  24
ENDBRANCH  22  23
ENDBRANCH  21  22
ENDBRANCH  20  21
ENDBRANCH  19  20
ENDBRANCH  18  19
ENDBRANCH   1  18
TORSDOF 28
ENDMDL
MODEL 6
REMARK VINA RESULT:    -5.733      7.438     14.352
REMARK INTER + INTRA:         -17.051
REMARK INTER:                 -13.679
REMARK INTRA:                  -3.372
REMARK UNBOUND:                -1.934
REMARK SMILES CCCCCCCCCCCCCCCCCCCCCCCCCCCCCC(=O)[O-]
REMARK SMILES IDX 16 1 17 2 18 3 19 4 20 5 21 6 22 7 23 8 24 9 25 10 26 11
REMARK SMILES IDX 27 12 28 13 29 14 30 15 31 16 32 17 15 18 14 19 13 20 12 21
REMARK SMILES IDX 11 22 10 23 9 24 8 25 7 26 6 27 5 28 4 29 3 30 2 31 1 32
REMARK H PARENT
REMARK Flexibility Score: inf
ROOT
ATOM      1  C   UNL     1      19.869  32.999  27.204  1.00  0.00     0.000 C 
ENDROOT
BRANCH   1   2
ATOM      2  C   UNL     1      19.251  32.563  28.543  1.00  0.00     0.000 C 
BRANCH   2   3
ATOM      3  C   UNL     1      19.933  31.321  29.136  1.00  0.00     0.000 C 
BRANCH   3   4
ATOM      4  C   UNL     1      21.268  31.689  29.794  1.00  0.00     0.000 C 
BRANCH   4   5
ATOM      5  C   UNL     1      22.444  31.072  29.028  1.00  0.00     0.000 C 
BRANCH   5   6
ATOM      6  C   UNL     1      23.342  32.162  28.421  1.00  0.00     0.000 C 
BRANCH   6   7
ATOM      7  C   UNL     1      24.122  32.949  29.487  1.00  0.00     0.000 C 
BRANCH   7   8
ATOM      8  C   UNL     1      25.656  32.854  29.371  1.00  0.00     0.000 C 
BRANCH   8   9
ATOM      9  C   UNL     1      26.417  33.669  30.439  1.00  0.00     0.000 C 
BRANCH   9  10
ATOM     10  C   UNL     1      27.825  34.080  29.975  1.00  0.00     0.000 C 
BRANCH  10  11
ATOM     11  C   UNL     1      28.610  34.843  31.055  1.00  0.00     0.000 C 
BRANCH  11  12
ATOM     12  C   UNL     1      27.922  34.843  32.440  1.00  0.00     0.000 C 
BRANCH  12  13
ATOM     13  C   UNL     1      27.784  36.251  33.050  1.00  0.00     0.006 C 
BRANCH  13  14
ATOM     14  C   UNL     1      27.482  37.342  32.008  1.00  0.00     0.053 C 
BRANCH  14  15
ATOM     15  C   UNL     1      27.550  38.715  32.600  1.00  0.00     0.041 C 
ATOM     16  O   UNL     1      28.057  39.663  31.947  1.00  0.00    -0.550 OA
ATOM     17  O   UNL     1      27.069  38.943  33.882  1.00  0.00    -0.550 OA
ENDBRANCH  14  15
ENDBRANCH  13  14
ENDBRANCH  12  13
ENDBRANCH  11  12
ENDBRANCH  10  11
ENDBRANCH   9  10
ENDBRANCH   8   9
ENDBRANCH   7   8
ENDBRANCH   6   7
ENDBRANCH   5   6
ENDBRANCH   4   5
ENDBRANCH   3   4
ENDBRANCH   2   3
ENDBRANCH   1   2
BRANCH   1  18
ATOM     18  C   UNL     1      19.048  32.625  25.955  1.00  0.00     0.000 C 
BRANCH  18  19
ATOM     19  C   UNL     1      17.656  32.070  26.300  1.00  0.00     0.000 C 
BRANCH  19  20
ATOM     20  C   UNL     1      16.625  32.332  25.188  1.00  0.00     0.000 C 
BRANCH  20  21
ATOM     21  C   UNL     1      16.250  33.820  25.069  1.00  0.00     0.000 C 
BRANCH  21  22
ATOM     22  C   UNL     1      14.733  34.046  24.929  1.00  0.00     0.000 C 
BRANCH  22  23
ATOM     23  C   UNL     1      13.859  32.804  25.181  1.00  0.00     0.000 C 
BRANCH  23  24
ATOM     24  C   UNL     1      12.424  33.092  25.661  1.00  0.00    -0.000 C 
BRANCH  24  25
ATOM     25  C   UNL     1      11.620  31.831  26.043  1.00  0.00    -0.000 C 
BRANCH  25  26
ATOM     26  C   UNL     1      11.033  31.904  27.465  1.00  0.00    -0.000 C 
BRANCH  26  27
ATOM     27  C   UNL     1      12.099  31.711  28.555  1.00  0.00    -0.000 C 
BRANCH  27  28
ATOM     28  C   UNL     1      13.043  30.532  28.261  1.00  0.00    -0.000 C 
BRANCH  28  29
ATOM     29  C   UNL     1      14.513  30.961  28.130  1.00  0.00    -0.000 C 
BRANCH  29  30
ATOM     30  C   UNL     1      14.942  31.946  29.233  1.00  0.00    -0.000 C 
BRANCH  30  31
ATOM     31  C   UNL     1      15.517  33.252  28.664  1.00  0.00    -0.003 C 
ATOM     32  C   UNL     1      14.505  34.398  28.675  1.00  0.00     0.004 C 
ENDBRANCH  30  31
ENDBRANCH  29  30
ENDBRANCH  28  29
ENDBRANCH  27  28
ENDBRANCH  26  27
ENDBRANCH  25  26
ENDBRANCH  24  25
ENDBRANCH  23  24
ENDBRANCH  22  23
ENDBRANCH  21  22
ENDBRANCH  20  21
ENDBRANCH  19  20
ENDBRANCH  18  19
ENDBRANCH   1  18
TORSDOF 28
ENDMDL
MODEL 7
REMARK VINA RESULT:    -5.723      4.621     12.430
REMARK INTER + INTRA:         -17.025
REMARK INTER:                 -15.197
REMARK INTRA:                  -1.828
REMARK UNBOUND:                -1.934
REMARK SMILES CCCCCCCCCCCCCCCCCCCCCCCCCCCCCC(=O)[O-]
REMARK SMILES IDX 16 1 17 2 18 3 19 4 20 5 21 6 22 7 23 8 24 9 25 10 26 11
REMARK SMILES IDX 27 12 28 13 29 14 30 15 31 16 32 17 15 18 14 19 13 20 12 21
REMARK SMILES IDX 11 22 10 23 9 24 8 25 7 26 6 27 5 28 4 29 3 30 2 31 1 32
REMARK H PARENT
REMARK Flexibility Score: inf
ROOT
ATOM      1  C   UNL     1      27.857  42.584  33.440  1.00  0.00     0.000 C 
ENDROOT
BRANCH   1   2
ATOM      2  C   UNL     1      27.512  41.151  32.998  1.00  0.00     0.000 C 
BRANCH   2   3
ATOM      3  C   UNL     1      27.834  40.104  34.074  1.00  0.00     0.000 C 
BRANCH   3   4
ATOM      4  C   UNL     1      27.148  38.768  33.762  1.00  0.00     0.000 C 
BRANCH   4   5
ATOM      5  C   UNL     1      27.518  38.279  32.357  1.00  0.00     0.000 C 
BRANCH   5   6
ATOM      6  C   UNL     1      27.150  36.798  32.172  1.00  0.00     0.000 C 
BRANCH   6   7
ATOM      7  C   UNL     1      27.506  35.941  33.397  1.00  0.00     0.000 C 
BRANCH   7   8
ATOM      8  C   UNL     1      28.201  34.603  33.074  1.00  0.00     0.000 C 
BRANCH   8   9
ATOM      9  C   UNL     1      28.767  34.522  31.639  1.00  0.00     0.000 C 
BRANCH   9  10
ATOM     10  C   UNL     1      28.140  33.381  30.820  1.00  0.00     0.000 C 
BRANCH  10  11
ATOM     11  C   UNL     1      27.072  33.874  29.830  1.00  0.00     0.000 C 
BRANCH  11  12
ATOM     12  C   UNL     1      25.644  33.907  30.422  1.00  0.00     0.000 C 
BRANCH  12  13
ATOM     13  C   UNL     1      24.575  33.346  29.463  1.00  0.00     0.006 C 
BRANCH  13  14
ATOM     14  C   UNL     1      24.906  31.939  28.935  1.00  0.00     0.053 C 
BRANCH  14  15
ATOM     15  C   UNL     1      23.715  31.033  28.974  1.00  0.00     0.041 C 
ATOM     16  O   UNL     1      22.621  31.443  29.440  1.00  0.00    -0.550 OA
ATOM     17  O   UNL     1      23.820  29.728  28.510  1.00  0.00    -0.550 OA
ENDBRANCH  14  15
ENDBRANCH  13  14
ENDBRANCH  12  13
ENDBRANCH  11  12
ENDBRANCH  10  11
ENDBRANCH   9  10
ENDBRANCH   8   9
ENDBRANCH   7   8
ENDBRANCH   6   7
ENDBRANCH   5   6
ENDBRANCH   4   5
ENDBRANCH   3   4
ENDBRANCH   2   3
ENDBRANCH   1   2
BRANCH   1  18
ATOM     18  C   UNL     1      27.759  42.840  34.956  1.00  0.00     0.000 C 
BRANCH  18  19
ATOM     19  C   UNL     1      26.510  43.649  35.345  1.00  0.00     0.000 C 
BRANCH  19  20
ATOM     20  C   UNL     1      25.384  42.761  35.904  1.00  0.00     0.000 C 
BRANCH  20  21
ATOM     21  C   UNL     1      24.015  43.082  35.279  1.00  0.00     0.000 C 
BRANCH  21  22
ATOM     22  C   UNL     1      23.456  44.445  35.728  1.00  0.00     0.000 C 
BRANCH  22  23
ATOM     23  C   UNL     1      21.924  44.511  35.867  1.00  0.00     0.000 C 
BRANCH  23  24
ATOM     24  C   UNL     1      21.254  45.737  35.219  1.00  0.00    -0.000 C 
BRANCH  24  25
ATOM     25  C   UNL     1      20.054  45.395  34.310  1.00  0.00    -0.000 C 
BRANCH  25  26
ATOM     26  C   UNL     1      18.753  45.163  35.100  1.00  0.00    -0.000 C 
BRANCH  26  27
ATOM     27  C   UNL     1      17.829  44.135  34.429  1.00  0.00    -0.000 C 
BRANCH  27  28
ATOM     28  C   UNL     1      16.561  44.773  33.836  1.00  0.00    -0.000 C 
BRANCH  28  29
ATOM     29  C   UNL     1      16.420  44.529  32.326  1.00  0.00    -0.000 C 
BRANCH  29  30
ATOM     30  C   UNL     1      15.005  44.846  31.806  1.00  0.00    -0.000 C 
BRANCH  30  31
ATOM     31  C   UNL     1      14.142  43.586  31.645  1.00  0.00    -0.003 C 
ATOM     32  C   UNL     1      14.720  42.598  30.630  1.00  0.00     0.004 C 
ENDBRANCH  30  31
ENDBRANCH  29  30
ENDBRANCH  28  29
ENDBRANCH  27  28
ENDBRANCH  26  27
ENDBRANCH  25  26
ENDBRANCH  24  25
ENDBRANCH  23  24
ENDBRANCH  22  23
ENDBRANCH  21  22
ENDBRANCH  20  21
ENDBRANCH  19  20
ENDBRANCH  18  19
ENDBRANCH   1  18
TORSDOF 28
ENDMDL
MODEL 8
REMARK VINA RESULT:    -5.634      4.973     13.156
REMARK INTER + INTRA:         -16.790
REMARK INTER:                 -14.909
REMARK INTRA:                  -1.882
REMARK UNBOUND:                -1.934
REMARK SMILES CCCCCCCCCCCCCCCCCCCCCCCCCCCCCC(=O)[O-]
REMARK SMILES IDX 16 1 17 2 18 3 19 4 20 5 21 6 22 7 23 8 24 9 25 10 26 11
REMARK SMILES IDX 27 12 28 13 29 14 30 15 31 16 32 17 15 18 14 19 13 20 12 21
REMARK SMILES IDX 11 22 10 23 9 24 8 25 7 26 6 27 5 28 4 29 3 30 2 31 1 32
REMARK H PARENT
REMARK Flexibility Score: inf
ROOT
ATOM      1  C   UNL     1      22.060  45.009  35.294  1.00  0.00     0.000 C 
ENDROOT
BRANCH   1   2
ATOM      2  C   UNL     1      23.012  43.812  35.127  1.00  0.00     0.000 C 
BRANCH   2   3
ATOM      3  C   UNL     1      24.255  43.911  36.023  1.00  0.00     0.000 C 
BRANCH   3   4
ATOM      4  C   UNL     1      25.293  42.849  35.642  1.00  0.00     0.000 C 
BRANCH   4   5
ATOM      5  C   UNL     1      26.681  43.478  35.469  1.00  0.00     0.000 C 
BRANCH   5   6
ATOM      6  C   UNL     1      27.680  42.463  34.891  1.00  0.00     0.000 C 
BRANCH   6   7
ATOM      7  C   UNL     1      27.059  41.571  33.805  1.00  0.00     0.000 C 
BRANCH   7   8
ATOM      8  C   UNL     1      27.483  40.090  33.860  1.00  0.00     0.000 C 
BRANCH   8   9
ATOM      9  C   UNL     1      27.932  39.515  32.498  1.00  0.00     0.000 C 
BRANCH   9  10
ATOM     10  C   UNL     1      27.498  38.052  32.303  1.00  0.00     0.000 C 
BRANCH  10  11
ATOM     11  C   UNL     1      27.477  37.256  33.618  1.00  0.00     0.000 C 
BRANCH  11  12
ATOM     12  C   UNL     1      27.789  35.752  33.439  1.00  0.00     0.000 C 
BRANCH  12  13
ATOM     13  C   UNL     1      28.160  35.376  31.991  1.00  0.00     0.006 C 
BRANCH  13  14
ATOM     14  C   UNL     1      27.864  33.906  31.647  1.00  0.00     0.053 C 
BRANCH  14  15
ATOM     15  C   UNL     1      27.157  33.770  30.335  1.00  0.00     0.041 C 
ATOM     16  O   UNL     1      25.904  33.865  30.276  1.00  0.00    -0.550 OA
ATOM     17  O   UNL     1      27.883  33.522  29.177  1.00  0.00    -0.550 OA
ENDBRANCH  14  15
ENDBRANCH  13  14
ENDBRANCH  12  13
ENDBRANCH  11  12
ENDBRANCH  10  11
ENDBRANCH   9  10
ENDBRANCH   8   9
ENDBRANCH   7   8
ENDBRANCH   6   7
ENDBRANCH   5   6
ENDBRANCH   4   5
ENDBRANCH   3   4
ENDBRANCH   2   3
ENDBRANCH   1   2
BRANCH   1  18
ATOM     18  C   UNL     1      20.787  44.720  36.113  1.00  0.00     0.000 C 
BRANCH  18  19
ATOM     19  C   UNL     1      19.540  45.416  35.542  1.00  0.00     0.000 C 
BRANCH  19  20
ATOM     20  C   UNL     1      18.844  44.579  34.454  1.00  0.00     0.000 C 
BRANCH  20  21
ATOM     21  C   UNL     1      18.166  45.450  33.382  1.00  0.00     0.000 C 
BRANCH  21  22
ATOM     22  C   UNL     1      16.631  45.463  33.504  1.00  0.00     0.000 C 
BRANCH  22  23
ATOM     23  C   UNL     1      15.885  46.098  32.316  1.00  0.00     0.000 C 
BRANCH  23  24
ATOM     24  C   UNL     1      14.421  46.492  32.590  1.00  0.00    -0.000 C 
BRANCH  24  25
ATOM     25  C   UNL     1      13.705  47.138  31.385  1.00  0.00    -0.000 C 
BRANCH  25  26
ATOM     26  C   UNL     1      13.547  46.172  30.196  1.00  0.00    -0.000 C 
BRANCH  26  27
ATOM     27  C   UNL     1      12.088  46.037  29.733  1.00  0.00    -0.000 C 
BRANCH  27  28
ATOM     28  C   UNL     1      11.579  44.586  29.789  1.00  0.00    -0.000 C 
BRANCH  28  29
ATOM     29  C   UNL     1      11.306  44.103  31.222  1.00  0.00    -0.000 C 
BRANCH  29  30
ATOM     30  C   UNL     1      12.197  42.914  31.625  1.00  0.00    -0.000 C 
BRANCH  30  31
ATOM     31  C   UNL     1      13.182  42.514  30.515  1.00  0.00    -0.003 C 
ATOM     32  C   UNL     1      14.639  42.797  30.886  1.00  0.00     0.004 C 
ENDBRANCH  30  31
ENDBRANCH  29  30
ENDBRANCH  28  29
ENDBRANCH  27  28
ENDBRANCH  26  27
ENDBRANCH  25  26
ENDBRANCH  24  25
ENDBRANCH  23  24
ENDBRANCH  22  23
ENDBRANCH  21  22
ENDBRANCH  20  21
ENDBRANCH  19  20
ENDBRANCH  18  19
ENDBRANCH   1  18
TORSDOF 28
ENDMDL
MODEL 9
REMARK VINA RESULT:    -5.630     10.211     15.275
REMARK INTER + INTRA:         -16.779
REMARK INTER:                 -11.118
REMARK INTRA:                  -5.661
REMARK UNBOUND:                -1.934
REMARK SMILES CCCCCCCCCCCCCCCCCCCCCCCCCCCCCC(=O)[O-]
REMARK SMILES IDX 16 1 17 2 18 3 19 4 20 5 21 6 22 7 23 8 24 9 25 10 26 11
REMARK SMILES IDX 27 12 28 13 29 14 30 15 31 16 32 17 15 18 14 19 13 20 12 21
REMARK SMILES IDX 11 22 10 23 9 24 8 25 7 26 6 27 5 28 4 29 3 30 2 31 1 32
REMARK H PARENT
REMARK Flexibility Score: inf
ROOT
ATOM      1  C   UNL     1      18.408  32.264  28.753  1.00  0.00     0.000 C 
ENDROOT
BRANCH   1   2
ATOM      2  C   UNL     1      19.754  31.903  29.405  1.00  0.00     0.000 C 
BRANCH   2   3
ATOM      3  C   UNL     1      19.945  30.388  29.574  1.00  0.00     0.000 C 
BRANCH   3   4
ATOM      4  C   UNL     1      21.404  29.988  29.324  1.00  0.00     0.000 C 
BRANCH   4   5
ATOM      5  C   UNL     1      21.514  29.044  28.121  1.00  0.00     0.000 C 
BRANCH   5   6
ATOM      6  C   UNL     1      20.562  29.474  26.992  1.00  0.00     0.000 C 
BRANCH   6   7
ATOM      7  C   UNL     1      21.269  30.292  25.900  1.00  0.00     0.000 C 
BRANCH   7   8
ATOM      8  C   UNL     1      21.021  31.812  25.965  1.00  0.00     0.000 C 
BRANCH   8   9
ATOM      9  C   UNL     1      22.169  32.606  26.627  1.00  0.00     0.000 C 
BRANCH   9  10
ATOM     10  C   UNL     1      23.532  31.910  26.476  1.00  0.00     0.000 C 
BRANCH  10  11
ATOM     11  C   UNL     1      24.321  31.851  27.795  1.00  0.00     0.000 C 
BRANCH  11  12
ATOM     12  C   UNL     1      23.664  32.645  28.947  1.00  0.00     0.000 C 
BRANCH  12  13
ATOM     13  C   UNL     1      24.686  33.363  29.851  1.00  0.00     0.006 C 
BRANCH  13  14
ATOM     14  C   UNL     1      26.148  33.036  29.500  1.00  0.00     0.053 C 
BRANCH  14  15
ATOM     15  C   UNL     1      27.111  33.851  30.304  1.00  0.00     0.041 C 
ATOM     16  O   UNL     1      27.405  35.022  29.948  1.00  0.00    -0.550 OA
ATOM     17  O   UNL     1      27.700  33.311  31.440  1.00  0.00    -0.550 OA
ENDBRANCH  14  15
ENDBRANCH  13  14
ENDBRANCH  12  13
ENDBRANCH  11  12
ENDBRANCH  10  11
ENDBRANCH   9  10
ENDBRANCH   8   9
ENDBRANCH   7   8
ENDBRANCH   6   7
ENDBRANCH   5   6
ENDBRANCH   4   5
ENDBRANCH   3   4
ENDBRANCH   2   3
ENDBRANCH   1   2
BRANCH   1  18
ATOM     18  C   UNL     1      17.533  31.060  28.355  1.00  0.00     0.000 C 
BRANCH  18  19
ATOM     19  C   UNL     1      17.166  31.057  26.861  1.00  0.00     0.000 C 
BRANCH  19  20
ATOM     20  C   UNL     1      17.328  32.443  26.212  1.00  0.00     0.000 C 
BRANCH  20  21
ATOM     21  C   UNL     1      17.600  32.359  24.700  1.00  0.00     0.000 C 
BRANCH  21  22
ATOM     22  C   UNL     1      16.649  33.241  23.870  1.00  0.00     0.000 C 
BRANCH  22  23
ATOM     23  C   UNL     1      15.744  34.180  24.689  1.00  0.00     0.000 C 
BRANCH  23  24
ATOM     24  C   UNL     1      14.272  33.744  24.803  1.00  0.00    -0.000 C 
BRANCH  24  25
ATOM     25  C   UNL     1      13.943  32.429  24.064  1.00  0.00    -0.000 C 
BRANCH  25  26
ATOM     26  C   UNL     1      13.947  31.203  24.996  1.00  0.00    -0.000 C 
BRANCH  26  27
ATOM     27  C   UNL     1      12.969  31.352  26.173  1.00  0.00    -0.000 C 
BRANCH  27  28
ATOM     28  C   UNL     1      13.561  30.854  27.503  1.00  0.00    -0.000 C 
BRANCH  28  29
ATOM     29  C   UNL     1      13.750  31.979  28.531  1.00  0.00    -0.000 C 
BRANCH  29  30
ATOM     30  C   UNL     1      12.956  33.249  28.172  1.00  0.00    -0.000 C 
BRANCH  30  31
ATOM     31  C   UNL     1      13.742  34.536  28.463  1.00  0.00    -0.003 C 
ATOM     32  C   UNL     1      15.226  34.277  28.725  1.00  0.00     0.004 C 
ENDBRANCH  30  31
ENDBRANCH  29  30
ENDBRANCH  28  29
ENDBRANCH  27  28
ENDBRANCH  26  27
ENDBRANCH  25  26
ENDBRANCH  24  25
ENDBRANCH  23  24
ENDBRANCH  22  23
ENDBRANCH  21  22
ENDBRANCH  20  21
ENDBRANCH  19  20
ENDBRANCH  18  19
ENDBRANCH   1  18
TORSDOF 28
ENDMDL
