MODEL 1
REMARK VINA RESULT:    -4.270      0.000      0.000
REMARK INTER + INTRA:          -8.922
REMARK INTER:                  -7.765
REMARK INTRA:                  -1.158
REMARK UNBOUND:                -1.158
REMARK SMILES CCCCCCCCCCCCCCCC(=O)[O-]
REMARK SMILES IDX 9 1 10 2 11 3 12 4 13 5 14 6 15 7 16 8 17 9 18 10 8 11 7 12
REMARK SMILES IDX 6 13 5 14 4 15 3 16 2 17 1 18
REMARK H PARENT
REMARK Flexibility Score: inf
ROOT
ATOM      1  C   UNL     1     130.871 133.330 128.342  1.00  0.00     0.000 C 
ENDROOT
BRANCH   1   2
ATOM      2  C   UNL     1     131.141 134.279 129.523  1.00  0.00     0.000 C 
BRANCH   2   3
ATOM      3  C   UNL     1     129.882 134.791 130.251  1.00  0.00     0.000 C 
BRANCH   3   4
ATOM      4  C   UNL     1     129.658 136.311 130.176  1.00  0.00     0.000 C 
BRANCH   4   5
ATOM      5  C   UNL     1     130.967 137.112 130.237  1.00  0.00     0.000 C 
BRANCH   5   6
ATOM      6  C   UNL     1     131.131 137.793 131.604  1.00  0.00     0.006 C 
BRANCH   6   7
ATOM      7  C   UNL     1     132.527 137.567 132.200  1.00  0.00     0.053 C 
BRANCH   7   8
ATOM      8  C   UNL     1     132.886 136.114 132.243  1.00  0.00     0.041 C 
ATOM      9  O   UNL     1     132.225 135.319 132.962  1.00  0.00    -0.550 OA
ATOM     10  O   UNL     1     133.973 135.644 131.517  1.00  0.00    -0.550 OA
ENDBRANCH   7   8
ENDBRANCH   6   7
ENDBRANCH   5   6
ENDBRANCH   4   5
ENDBRANCH   3   4
ENDBRANCH   2   3
ENDBRANCH   1   2
BRANCH   1  11
ATOM     11  C   UNL     1     130.838 131.853 128.760  1.00  0.00     0.000 C 
BRANCH  11  12
ATOM     12  C   UNL     1     129.465 131.232 128.474  1.00  0.00    -0.000 C 
BRANCH  12  13
ATOM     13  C   UNL     1     128.672 131.996 127.400  1.00  0.00    -0.000 C 
BRANCH  13  14
ATOM     14  C   UNL     1     128.291 131.130 126.180  1.00  0.00    -0.000 C 
BRANCH  14  15
ATOM     15  C   UNL     1     129.411 131.087 125.127  1.00  0.00    -0.000 C 
BRANCH  15  16
ATOM     16  C   UNL     1     128.902 130.678 123.735  1.00  0.00    -0.000 C 
BRANCH  16  17
ATOM     17  C   UNL     1     129.993 130.025 122.874  1.00  0.00    -0.003 C 
ATOM     18  C   UNL     1     131.354 130.661 123.139  1.00  0.00     0.004 C 
ENDBRANCH  16  17
ENDBRANCH  15  16
ENDBRANCH  14  15
ENDBRANCH  13  14
ENDBRANCH  12  13
ENDBRANCH  11  12
ENDBRANCH   1  11
TORSDOF 14
ENDMDL
MODEL 2
REMARK VINA RESULT:    -4.266     12.153     15.082
REMARK INTER + INTRA:          -8.915
REMARK INTER:                  -7.356
REMARK INTRA:                  -1.559
REMARK UNBOUND:                -1.158
REMARK SMILES CCCCCCCCCCCCCCCC(=O)[O-]
REMARK SMILES IDX 9 1 10 2 11 3 12 4 13 5 14 6 15 7 16 8 17 9 18 10 8 11 7 12
REMARK SMILES IDX 6 13 5 14 4 15 3 16 2 17 1 18
REMARK H PARENT
REMARK Flexibility Score: inf
ROOT
ATOM      1  C   UNL     1     123.735 118.562 131.307  1.00  0.00     0.000 C 
ENDROOT
BRANCH   1   2
ATOM      2  C   UNL     1     125.206 118.759 130.900  1.00  0.00     0.000 C 
BRANCH   2   3
ATOM      3  C   UNL     1     125.543 120.148 130.320  1.00  0.00     0.000 C 
BRANCH   3   4
ATOM      4  C   UNL     1     124.370 121.143 130.286  1.00  0.00     0.000 C 
BRANCH   4   5
ATOM      5  C   UNL     1     124.800 122.561 129.884  1.00  0.00     0.000 C 
BRANCH   5   6
ATOM      6  C   UNL     1     125.121 122.633 128.384  1.00  0.00     0.006 C 
BRANCH   6   7
ATOM      7  C   UNL     1     126.582 123.020 128.120  1.00  0.00     0.053 C 
BRANCH   7   8
ATOM      8  C   UNL     1     126.702 124.418 127.597  1.00  0.00     0.041 C 
ATOM      9  O   UNL     1     126.527 125.400 128.367  1.00  0.00    -0.550 OA
ATOM     10  O   UNL     1     126.971 124.638 126.252  1.00  0.00    -0.550 OA
ENDBRANCH   7   8
ENDBRANCH   6   7
ENDBRANCH   5   6
ENDBRANCH   4   5
ENDBRANCH   3   4
ENDBRANCH   2   3
ENDBRANCH   1   2
BRANCH   1  11
ATOM     11  C   UNL     1     123.581 117.975 132.718  1.00  0.00     0.000 C 
BRANCH  11  12
ATOM     12  C   UNL     1     122.435 118.659 133.476  1.00  0.00    -0.000 C 
BRANCH  12  13
ATOM     13  C   UNL     1     121.861 119.874 132.726  1.00  0.00    -0.000 C 
BRANCH  13  14
ATOM     14  C   UNL     1     122.066 121.211 133.470  1.00  0.00    -0.000 C 
BRANCH  14  15
ATOM     15  C   UNL     1     123.457 121.306 134.120  1.00  0.00    -0.000 C 
BRANCH  15  16
ATOM     16  C   UNL     1     124.258 122.524 133.633  1.00  0.00    -0.000 C 
BRANCH  16  17
ATOM     17  C   UNL     1     124.735 123.418 134.787  1.00  0.00    -0.003 C 
ATOM     18  C   UNL     1     125.588 124.572 134.272  1.00  0.00     0.004 C 
ENDBRANCH  16  17
ENDBRANCH  15  16
ENDBRANCH  14  15
ENDBRANCH  13  14
ENDBRANCH  12  13
ENDBRANCH  11  12
ENDBRANCH   1  11
TORSDOF 14
ENDMDL
MODEL 3
REMARK VINA RESULT:    -4.184      2.973      5.423
REMARK INTER + INTRA:          -8.767
REMARK INTER:                  -7.396
REMARK INTRA:                  -1.370
REMARK UNBOUND:                -1.158
REMARK SMILES CCCCCCCCCCCCCCCC(=O)[O-]
REMARK SMILES IDX 9 1 10 2 11 3 12 4 13 5 14 6 15 7 16 8 17 9 18 10 8 11 7 12
REMARK SMILES IDX 6 13 5 14 4 15 3 16 2 17 1 18
REMARK H PARENT
REMARK Flexibility Score: inf
ROOT
ATOM      1  C   UNL     1     131.477 137.802 131.952  1.00  0.00     0.000 C 
ENDROOT
BRANCH   1   2
ATOM      2  C   UNL     1     132.726 137.436 132.774  1.00  0.00     0.000 C 
BRANCH   2   3
ATOM      3  C   UNL     1     133.130 135.948 132.722  1.00  0.00     0.000 C 
BRANCH   3   4
ATOM      4  C   UNL     1     132.661 135.102 133.918  1.00  0.00     0.000 C 
BRANCH   4   5
ATOM      5  C   UNL     1     132.460 133.623 133.561  1.00  0.00     0.000 C 
BRANCH   5   6
ATOM      6  C   UNL     1     131.025 133.173 133.872  1.00  0.00     0.006 C 
BRANCH   6   7
ATOM      7  C   UNL     1     130.987 131.880 134.698  1.00  0.00     0.053 C 
BRANCH   7   8
ATOM      8  C   UNL     1     129.655 131.202 134.610  1.00  0.00     0.041 C 
ATOM      9  O   UNL     1     128.625 131.767 135.065  1.00  0.00    -0.550 OA
ATOM     10  O   UNL     1     129.556 129.930 134.059  1.00  0.00    -0.550 OA
ENDBRANCH   7   8
ENDBRANCH   6   7
ENDBRANCH   5   6
ENDBRANCH   4   5
ENDBRANCH   3   4
ENDBRANCH   2   3
ENDBRANCH   1   2
BRANCH   1  11
ATOM     11  C   UNL     1     131.336 136.958 130.677  1.00  0.00     0.000 C 
BRANCH  11  12
ATOM     12  C   UNL     1     130.076 136.084 130.734  1.00  0.00    -0.000 C 
BRANCH  12  13
ATOM     13  C   UNL     1     130.162 134.847 129.824  1.00  0.00    -0.000 C 
BRANCH  13  14
ATOM     14  C   UNL     1     131.273 133.855 130.233  1.00  0.00    -0.000 C 
BRANCH  14  15
ATOM     15  C   UNL     1     131.269 132.587 129.362  1.00  0.00    -0.000 C 
BRANCH  15  16
ATOM     16  C   UNL     1     130.326 132.701 128.153  1.00  0.00    -0.000 C 
BRANCH  16  17
ATOM     17  C   UNL     1     129.235 131.621 128.151  1.00  0.00    -0.003 C 
ATOM     18  C   UNL     1     128.713 131.372 126.739  1.00  0.00     0.004 C 
ENDBRANCH  16  17
ENDBRANCH  15  16
ENDBRANCH  14  15
ENDBRANCH  13  14
ENDBRANCH  12  13
ENDBRANCH  11  12
ENDBRANCH   1  11
TORSDOF 14
ENDMDL
MODEL 4
REMARK VINA RESULT:    -4.169      3.307      8.064
REMARK INTER + INTRA:          -8.738
REMARK INTER:                  -7.318
REMARK INTRA:                  -1.420
REMARK UNBOUND:                -1.158
REMARK SMILES CCCCCCCCCCCCCCCC(=O)[O-]
REMARK SMILES IDX 9 1 10 2 11 3 12 4 13 5 14 6 15 7 16 8 17 9 18 10 8 11 7 12
REMARK SMILES IDX 6 13 5 14 4 15 3 16 2 17 1 18
REMARK H PARENT
REMARK Flexibility Score: inf
ROOT
ATOM      1  C   UNL     1     131.078 137.322 130.635  1.00  0.00     0.000 C 
ENDROOT
BRANCH   1   2
ATOM      2  C   UNL     1     130.252 136.047 130.880  1.00  0.00     0.000 C 
BRANCH   2   3
ATOM      3  C   UNL     1     130.561 134.874 129.928  1.00  0.00     0.000 C 
BRANCH   3   4
ATOM      4  C   UNL     1     131.401 133.740 130.540  1.00  0.00     0.000 C 
BRANCH   4   5
ATOM      5  C   UNL     1     131.311 132.431 129.742  1.00  0.00     0.000 C 
BRANCH   5   6
ATOM      6  C   UNL     1     130.552 132.643 128.423  1.00  0.00     0.006 C 
BRANCH   6   7
ATOM      7  C   UNL     1     129.688 131.432 128.050  1.00  0.00     0.053 C 
BRANCH   7   8
ATOM      8  C   UNL     1     128.507 131.826 127.218  1.00  0.00     0.041 C 
ATOM      9  O   UNL     1     128.347 131.332 126.070  1.00  0.00    -0.550 OA
ATOM     10  O   UNL     1     127.601 132.766 127.695  1.00  0.00    -0.550 OA
ENDBRANCH   7   8
ENDBRANCH   6   7
ENDBRANCH   5   6
ENDBRANCH   4   5
ENDBRANCH   3   4
ENDBRANCH   2   3
ENDBRANCH   1   2
BRANCH   1  11
ATOM     11  C   UNL     1     131.723 137.870 131.916  1.00  0.00     0.000 C 
BRANCH  11  12
ATOM     12  C   UNL     1     132.485 136.767 132.662  1.00  0.00    -0.000 C 
BRANCH  12  13
ATOM     13  C   UNL     1     133.685 136.223 131.867  1.00  0.00    -0.000 C 
BRANCH  13  14
ATOM     14  C   UNL     1     134.879 135.811 132.755  1.00  0.00    -0.000 C 
BRANCH  14  15
ATOM     15  C   UNL     1     134.904 134.297 133.027  1.00  0.00    -0.000 C 
BRANCH  15  16
ATOM     16  C   UNL     1     134.259 133.925 134.371  1.00  0.00    -0.000 C 
BRANCH  16  17
ATOM     17  C   UNL     1     133.187 132.834 134.230  1.00  0.00    -0.003 C 
ATOM     18  C   UNL     1     131.795 133.445 134.103  1.00  0.00     0.004 C 
ENDBRANCH  16  17
ENDBRANCH  15  16
ENDBRANCH  14  15
ENDBRANCH  13  14
ENDBRANCH  12  13
ENDBRANCH  11  12
ENDBRANCH   1  11
TORSDOF 14
ENDMDL
MODEL 5
REMARK VINA RESULT:    -4.108      9.778     13.041
REMARK INTER + INTRA:          -8.628
REMARK INTER:                  -7.595
REMARK INTRA:                  -1.033
REMARK UNBOUND:                -1.158
REMARK SMILES CCCCCCCCCCCCCCCC(=O)[O-]
REMARK SMILES IDX 9 1 10 2 11 3 12 4 13 5 14 6 15 7 16 8 17 9 18 10 8 11 7 12
REMARK SMILES IDX 6 13 5 14 4 15 3 16 2 17 1 18
REMARK H PARENT
REMARK Flexibility Score: inf
ROOT
ATOM      1  C   UNL     1     124.899 123.037 134.554  1.00  0.00     0.000 C 
ENDROOT
BRANCH   1   2
ATOM      2  C   UNL     1     123.945 122.769 133.376  1.00  0.00     0.000 C 
BRANCH   2   3
ATOM      3  C   UNL     1     124.590 122.073 132.160  1.00  0.00     0.000 C 
BRANCH   3   4
ATOM      4  C   UNL     1     124.146 122.612 130.789  1.00  0.00     0.000 C 
BRANCH   4   5
ATOM      5  C   UNL     1     124.815 121.883 129.615  1.00  0.00     0.000 C 
BRANCH   5   6
ATOM      6  C   UNL     1     124.852 122.773 128.364  1.00  0.00     0.006 C 
BRANCH   6   7
ATOM      7  C   UNL     1     125.862 123.920 128.498  1.00  0.00     0.053 C 
BRANCH   7   8
ATOM      8  C   UNL     1     127.011 123.763 127.550  1.00  0.00     0.041 C 
ATOM      9  O   UNL     1     127.910 122.910 127.780  1.00  0.00    -0.550 OA
ATOM     10  O   UNL     1     127.109 124.581 126.432  1.00  0.00    -0.550 OA
ENDBRANCH   7   8
ENDBRANCH   6   7
ENDBRANCH   5   6
ENDBRANCH   4   5
ENDBRANCH   3   4
ENDBRANCH   2   3
ENDBRANCH   1   2
BRANCH   1  11
ATOM     11  C   UNL     1     125.768 124.286 134.344  1.00  0.00     0.000 C 
BRANCH  11  12
ATOM     12  C   UNL     1     127.034 124.226 135.209  1.00  0.00    -0.000 C 
BRANCH  12  13
ATOM     13  C   UNL     1     127.459 125.603 135.747  1.00  0.00    -0.000 C 
BRANCH  13  14
ATOM     14  C   UNL     1     126.299 126.620 135.826  1.00  0.00    -0.000 C 
BRANCH  14  15
ATOM     15  C   UNL     1     126.631 127.936 135.103  1.00  0.00    -0.000 C 
BRANCH  15  16
ATOM     16  C   UNL     1     127.610 127.739 133.934  1.00  0.00    -0.000 C 
BRANCH  16  17
ATOM     17  C   UNL     1     126.895 127.448 132.607  1.00  0.00    -0.003 C 
ATOM     18  C   UNL     1     127.787 127.787 131.417  1.00  0.00     0.004 C 
ENDBRANCH  16  17
ENDBRANCH  15  16
ENDBRANCH  14  15
ENDBRANCH  13  14
ENDBRANCH  12  13
ENDBRANCH  11  12
ENDBRANCH   1  11
TORSDOF 14
ENDMDL
MODEL 6
REMARK VINA RESULT:    -4.095     10.618     12.707
REMARK INTER + INTRA:          -8.604
REMARK INTER:                  -7.490
REMARK INTRA:                  -1.113
REMARK UNBOUND:                -1.158
REMARK SMILES CCCCCCCCCCCCCCCC(=O)[O-]
REMARK SMILES IDX 9 1 10 2 11 3 12 4 13 5 14 6 15 7 16 8 17 9 18 10 8 11 7 12
REMARK SMILES IDX 6 13 5 14 4 15 3 16 2 17 1 18
REMARK H PARENT
REMARK Flexibility Score: inf
ROOT
ATOM      1  C   UNL     1     122.786 120.888 133.342  1.00  0.00     0.000 C 
ENDROOT
BRANCH   1   2
ATOM      2  C   UNL     1     123.034 122.397 133.524  1.00  0.00     0.000 C 
BRANCH   2   3
ATOM      3  C   UNL     1     124.504 122.793 133.768  1.00  0.00     0.000 C 
BRANCH   3   4
ATOM      4  C   UNL     1     124.964 122.722 135.234  1.00  0.00     0.000 C 
BRANCH   4   5
ATOM      5  C   UNL     1     125.571 124.040 135.734  1.00  0.00     0.000 C 
BRANCH   5   6
ATOM      6  C   UNL     1     125.287 125.185 134.751  1.00  0.00     0.006 C 
BRANCH   6   7
ATOM      7  C   UNL     1     126.546 126.000 134.429  1.00  0.00     0.053 C 
BRANCH   7   8
ATOM      8  C   UNL     1     126.235 127.195 133.582  1.00  0.00     0.041 C 
ATOM      9  O   UNL     1     127.036 127.557 132.679  1.00  0.00    -0.550 OA
ATOM     10  O   UNL     1     125.079 127.930 133.812  1.00  0.00    -0.550 OA
ENDBRANCH   7   8
ENDBRANCH   6   7
ENDBRANCH   5   6
ENDBRANCH   4   5
ENDBRANCH   3   4
ENDBRANCH   2   3
ENDBRANCH   1   2
BRANCH   1  11
ATOM     11  C   UNL     1     122.796 120.456 131.869  1.00  0.00     0.000 C 
BRANCH  11  12
ATOM     12  C   UNL     1     123.866 119.386 131.617  1.00  0.00    -0.000 C 
BRANCH  12  13
ATOM     13  C   UNL     1     124.907 119.812 130.567  1.00  0.00    -0.000 C 
BRANCH  13  14
ATOM     14  C   UNL     1     125.102 121.341 130.477  1.00  0.00    -0.000 C 
BRANCH  14  15
ATOM     15  C   UNL     1     124.920 121.866 129.043  1.00  0.00    -0.000 C 
BRANCH  15  16
ATOM     16  C   UNL     1     125.016 123.398 128.955  1.00  0.00    -0.000 C 
BRANCH  16  17
ATOM     17  C   UNL     1     126.108 123.866 127.982  1.00  0.00    -0.003 C 
ATOM     18  C   UNL     1     126.531 125.301 128.282  1.00  0.00     0.004 C 
ENDBRANCH  16  17
ENDBRANCH  15  16
ENDBRANCH  14  15
ENDBRANCH  13  14
ENDBRANCH  12  13
ENDBRANCH  11  12
ENDBRANCH   1  11
TORSDOF 14
ENDMDL
MODEL 7
REMARK VINA RESULT:    -4.092      4.434      6.165
REMARK INTER + INTRA:          -8.598
REMARK INTER:                  -7.484
REMARK INTRA:                  -1.114
REMARK UNBOUND:                -1.158
REMARK SMILES CCCCCCCCCCCCCCCC(=O)[O-]
REMARK SMILES IDX 9 1 10 2 11 3 12 4 13 5 14 6 15 7 16 8 17 9 18 10 8 11 7 12
REMARK SMILES IDX 6 13 5 14 4 15 3 16 2 17 1 18
REMARK H PARENT
REMARK Flexibility Score: inf
ROOT
ATOM      1  C   UNL     1     131.402 133.168 132.816  1.00  0.00     0.000 C 
ENDROOT
BRANCH   1   2
ATOM      2  C   UNL     1     132.051 133.691 134.110  1.00  0.00     0.000 C 
BRANCH   2   3
ATOM      3  C   UNL     1     132.664 132.606 135.018  1.00  0.00     0.000 C 
BRANCH   3   4
ATOM      4  C   UNL     1     131.730 132.071 136.117  1.00  0.00     0.000 C 
BRANCH   4   5
ATOM      5  C   UNL     1     130.406 132.844 136.204  1.00  0.00     0.000 C 
BRANCH   5   6
ATOM      6  C   UNL     1     129.259 131.923 136.646  1.00  0.00     0.006 C 
BRANCH   6   7
ATOM      7  C   UNL     1     128.395 131.464 135.464  1.00  0.00     0.053 C 
BRANCH   7   8
ATOM      8  C   UNL     1     128.794 130.105 134.977  1.00  0.00     0.041 C 
ATOM      9  O   UNL     1     129.575 129.988 133.996  1.00  0.00    -0.550 OA
ATOM     10  O   UNL     1     128.275 128.968 135.584  1.00  0.00    -0.550 OA
ENDBRANCH   7   8
ENDBRANCH   6   7
ENDBRANCH   5   6
ENDBRANCH   4   5
ENDBRANCH   3   4
ENDBRANCH   2   3
ENDBRANCH   1   2
BRANCH   1  11
ATOM     11  C   UNL     1     132.154 133.608 131.552  1.00  0.00     0.000 C 
BRANCH  11  12
ATOM     12  C   UNL     1     131.317 134.598 130.730  1.00  0.00    -0.000 C 
BRANCH  12  13
ATOM     13  C   UNL     1     130.813 134.002 129.405  1.00  0.00    -0.000 C 
BRANCH  13  14
ATOM     14  C   UNL     1     131.357 132.585 129.118  1.00  0.00    -0.000 C 
BRANCH  14  15
ATOM     15  C   UNL     1     130.228 131.569 128.873  1.00  0.00    -0.000 C 
BRANCH  15  16
ATOM     16  C   UNL     1     129.423 131.872 127.600  1.00  0.00    -0.000 C 
BRANCH  16  17
ATOM     17  C   UNL     1     127.918 132.007 127.870  1.00  0.00    -0.003 C 
ATOM     18  C   UNL     1     127.504 133.472 127.954  1.00  0.00     0.004 C 
ENDBRANCH  16  17
ENDBRANCH  15  16
ENDBRANCH  14  15
ENDBRANCH  13  14
ENDBRANCH  12  13
ENDBRANCH  11  12
ENDBRANCH   1  11
TORSDOF 14
ENDMDL
MODEL 8
REMARK VINA RESULT:    -4.082     11.395     13.640
REMARK INTER + INTRA:          -8.580
REMARK INTER:                  -7.220
REMARK INTRA:                  -1.360
REMARK UNBOUND:                -1.158
REMARK SMILES CCCCCCCCCCCCCCCC(=O)[O-]
REMARK SMILES IDX 9 1 10 2 11 3 12 4 13 5 14 6 15 7 16 8 17 9 18 10 8 11 7 12
REMARK SMILES IDX 6 13 5 14 4 15 3 16 2 17 1 18
REMARK H PARENT
REMARK Flexibility Score: inf
ROOT
ATOM      1  C   UNL     1     122.922 119.478 131.945  1.00  0.00     0.000 C 
ENDROOT
BRANCH   1   2
ATOM      2  C   UNL     1     122.877 119.754 133.458  1.00  0.00     0.000 C 
BRANCH   2   3
ATOM      3  C   UNL     1     121.888 120.855 133.892  1.00  0.00     0.000 C 
BRANCH   3   4
ATOM      4  C   UNL     1     122.519 122.233 134.151  1.00  0.00     0.000 C 
BRANCH   4   5
ATOM      5  C   UNL     1     123.983 122.144 134.606  1.00  0.00     0.000 C 
BRANCH   5   6
ATOM      6  C   UNL     1     124.863 123.130 133.824  1.00  0.00     0.006 C 
BRANCH   6   7
ATOM      7  C   UNL     1     126.078 123.595 134.637  1.00  0.00     0.053 C 
BRANCH   7   8
ATOM      8  C   UNL     1     126.140 125.088 134.742  1.00  0.00     0.041 C 
ATOM      9  O   UNL     1     126.230 125.640 135.871  1.00  0.00    -0.550 OA
ATOM     10  O   UNL     1     126.063 125.871 133.597  1.00  0.00    -0.550 OA
ENDBRANCH   7   8
ENDBRANCH   6   7
ENDBRANCH   5   6
ENDBRANCH   4   5
ENDBRANCH   3   4
ENDBRANCH   2   3
ENDBRANCH   1   2
BRANCH   1  11
ATOM     11  C   UNL     1     124.234 118.817 131.499  1.00  0.00     0.000 C 
BRANCH  11  12
ATOM     12  C   UNL     1     124.883 119.603 130.352  1.00  0.00    -0.000 C 
BRANCH  12  13
ATOM     13  C   UNL     1     125.384 120.992 130.784  1.00  0.00    -0.000 C 
BRANCH  13  14
ATOM     14  C   UNL     1     124.591 122.158 130.154  1.00  0.00    -0.000 C 
BRANCH  14  15
ATOM     15  C   UNL     1     125.151 122.565 128.780  1.00  0.00    -0.000 C 
BRANCH  15  16
ATOM     16  C   UNL     1     125.500 124.060 128.701  1.00  0.00    -0.000 C 
BRANCH  16  17
ATOM     17  C   UNL     1     126.855 124.316 128.026  1.00  0.00    -0.003 C 
ATOM     18  C   UNL     1     127.671 123.031 127.929  1.00  0.00     0.004 C 
ENDBRANCH  16  17
ENDBRANCH  15  16
ENDBRANCH  14  15
ENDBRANCH  13  14
ENDBRANCH  12  13
ENDBRANCH  11  12
ENDBRANCH   1  11
TORSDOF 14
ENDMDL
MODEL 9
REMARK VINA RESULT:    -3.998     11.644     13.743
REMARK INTER + INTRA:          -8.428
REMARK INTER:                  -6.989
REMARK INTRA:                  -1.438
REMARK UNBOUND:                -1.158
REMARK SMILES CCCCCCCCCCCCCCCC(=O)[O-]
REMARK SMILES IDX 9 1 10 2 11 3 12 4 13 5 14 6 15 7 16 8 17 9 18 10 8 11 7 12
REMARK SMILES IDX 6 13 5 14 4 15 3 16 2 17 1 18
REMARK H PARENT
REMARK Flexibility Score: inf
ROOT
ATOM      1  C   UNL     1     122.122 120.018 132.219  1.00  0.00     0.000 C 
ENDROOT
BRANCH   1   2
ATOM      2  C   UNL     1     122.352 121.443 132.754  1.00  0.00     0.000 C 
BRANCH   2   3
ATOM      3  C   UNL     1     123.560 121.599 133.700  1.00  0.00     0.000 C 
BRANCH   3   4
ATOM      4  C   UNL     1     124.532 122.734 133.334  1.00  0.00     0.000 C 
BRANCH   4   5
ATOM      5  C   UNL     1     125.332 123.247 134.541  1.00  0.00     0.000 C 
BRANCH   5   6
ATOM      6  C   UNL     1     125.058 124.737 134.788  1.00  0.00     0.006 C 
BRANCH   6   7
ATOM      7  C   UNL     1     126.216 125.627 134.316  1.00  0.00     0.053 C 
BRANCH   7   8
ATOM      8  C   UNL     1     127.026 126.142 135.465  1.00  0.00     0.041 C 
ATOM      9  O   UNL     1     128.203 126.551 135.277  1.00  0.00    -0.550 OA
ATOM     10  O   UNL     1     126.496 126.138 136.749  1.00  0.00    -0.550 OA
ENDBRANCH   7   8
ENDBRANCH   6   7
ENDBRANCH   5   6
ENDBRANCH   4   5
ENDBRANCH   3   4
ENDBRANCH   2   3
ENDBRANCH   1   2
BRANCH   1  11
ATOM     11  C   UNL     1     123.154 119.011 132.746  1.00  0.00     0.000 C 
BRANCH  11  12
ATOM     12  C   UNL     1     123.625 118.071 131.629  1.00  0.00    -0.000 C 
BRANCH  12  13
ATOM     13  C   UNL     1     125.117 118.237 131.294  1.00  0.00    -0.000 C 
BRANCH  13  14
ATOM     14  C   UNL     1     125.378 119.141 130.070  1.00  0.00    -0.000 C 
BRANCH  14  15
ATOM     15  C   UNL     1     125.668 120.596 130.475  1.00  0.00    -0.000 C 
BRANCH  15  16
ATOM     16  C   UNL     1     124.617 121.582 129.937  1.00  0.00    -0.000 C 
BRANCH  16  17
ATOM     17  C   UNL     1     125.079 122.300 128.661  1.00  0.00    -0.003 C 
ATOM     18  C   UNL     1     125.260 123.794 128.907  1.00  0.00     0.004 C 
ENDBRANCH  16  17
ENDBRANCH  15  16
ENDBRANCH  14  15
ENDBRANCH  13  14
ENDBRANCH  12  13
ENDBRANCH  11  12
ENDBRANCH   1  11
TORSDOF 14
ENDMDL
