MODEL 1
REMARK VINA RESULT:   139.455      0.000      0.000
REMARK INTER + INTRA:         154.194
REMARK INTER:                 151.684
REMARK INTRA:                   2.511
REMARK UNBOUND:                 2.511
REMARK SMILES C[C@@H]1[C@H]2C3=CC[C@H]4[C@@]5(C)CC[C@@H](O)C(C)(C)[C@H]5CC[C@@]4(C)[C@]3(C)CC[C@]2(C(=O)[O-])CC[C@@H]1C
REMARK SMILES IDX 26 1 30 2 25 3 3 4 31 5 24 6 4 7 2 8 32 9 22 10 5 11 1 12
REMARK SMILES IDX 33 13 23 14 20 15 6 16 7 17 19 18 21 19 8 20 18 21 17 22
REMARK SMILES IDX 10 23 9 24 14 25 11 26 12 27 15 28 16 29 27 30 28 31 29 32
REMARK SMILES IDX 13 33
REMARK H PARENT 13 34
REMARK Flexibility Score: inf
ROOT
ATOM      1  C   UNL     1      17.011  95.512   8.291  1.00  0.00     0.017 C 
ATOM      2  C   UNL     1      16.062  94.292   8.155  1.00  0.00     0.014 C 
ATOM      3  C   UNL     1      17.761  95.793   6.963  1.00  0.00     0.014 C 
ATOM      4  C   UNL     1      16.095  96.766   8.532  1.00  0.00     0.030 C 
ATOM      5  C   UNL     1      15.212  94.100   9.435  1.00  0.00     0.004 C 
ATOM      6  C   UNL     1      18.699  97.040   7.038  1.00  0.00     0.013 C 
ATOM      7  C   UNL     1      16.749  98.119   8.154  1.00  0.00    -0.063 C 
ATOM      8  C   UNL     1      15.262  96.673   9.844  1.00  0.00    -0.003 C 
ATOM      9  C   UNL     1      14.396  95.359   9.848  1.00  0.00    -0.011 C 
ATOM     10  C   UNL     1      18.276  98.216   8.027  1.00  0.00    -0.006 C 
ATOM     11  C   UNL     1      15.951  98.995   7.510  1.00  0.00    -0.027 C 
ATOM     12  C   UNL     1      14.410  97.924  10.123  1.00  0.00     0.008 C 
ATOM     13  C   UNL     1      13.105  95.451   9.005  1.00  0.00     0.008 C 
ATOM     14  C   UNL     1      18.909  97.958   9.444  1.00  0.00     0.017 C 
ATOM     15  C   UNL     1      18.785  99.663   7.484  1.00  0.00    -0.020 C 
ATOM     16  C   UNL     1      16.409 100.168   6.715  1.00  0.00     0.032 C 
ATOM     17  C   UNL     1      17.903 100.150   6.278  1.00  0.00     0.006 C 
ATOM     18  C   UNL     1      18.695 100.787   8.587  1.00  0.00     0.008 C 
ATOM     19  C   UNL     1      20.285  99.478   7.071  1.00  0.00     0.012 C 
ATOM     20  C   UNL     1      18.391 101.538   5.601  1.00  0.00    -0.025 C 
ATOM     21  C   UNL     1      18.487 102.247   8.095  1.00  0.00     0.005 C 
ATOM     22  C   UNL     1      19.047 102.527   6.676  1.00  0.00     0.003 C 
ATOM     23  C   UNL     1      17.186 102.230   4.862  1.00  0.00     0.010 C 
ATOM     24  C   UNL     1      19.444 101.178   4.498  1.00  0.00     0.012 C 
ATOM     25  C   UNL     1      19.110 104.075   6.278  1.00  0.00    -0.006 C 
ATOM     26  C   UNL     1      17.446 103.659   4.386  1.00  0.00     0.033 C 
ATOM     27  C   UNL     1      17.814 104.558   5.568  1.00  0.00     0.120 C 
ATOM     28  C   UNL     1      19.351 104.995   7.509  1.00  0.00     0.014 C 
ATOM     29  C   UNL     1      20.335 104.341   5.352  1.00  0.00     0.014 C 
ENDROOT
BRANCH   1  30
ATOM     30  C   UNL     1      18.040  95.123   9.363  1.00  0.00     0.048 C 
ATOM     31  O   UNL     1      18.207  93.908   9.652  1.00  0.00    -0.550 OA
ATOM     32  O   UNL     1      18.717  96.065  10.124  1.00  0.00    -0.550 OA
ENDBRANCH   1  30
BRANCH  27  33
ATOM     33  O   UNL     1      16.744 104.604   6.482  1.00  0.00    -0.393 OA
ATOM     34  H   UNL     1      15.931 104.314   5.992  1.00  0.00     0.210 HD
ENDBRANCH  27  33
TORSDOF 2
ENDMDL
MODEL 2
REMARK VINA RESULT:   141.305     11.112     13.398
REMARK INTER + INTRA:         156.207
REMARK INTER:                 154.990
REMARK INTRA:                   1.217
REMARK UNBOUND:                 2.511
REMARK SMILES C[C@@H]1[C@H]2C3=CC[C@H]4[C@@]5(C)CC[C@@H](O)C(C)(C)[C@H]5CC[C@@]4(C)[C@]3(C)CC[C@]2(C(=O)[O-])CC[C@@H]1C
REMARK SMILES IDX 26 1 30 2 25 3 3 4 31 5 24 6 4 7 2 8 32 9 22 10 5 11 1 12
REMARK SMILES IDX 33 13 23 14 20 15 6 16 7 17 19 18 21 19 8 20 18 21 17 22
REMARK SMILES IDX 10 23 9 24 14 25 11 26 12 27 15 28 16 29 27 30 28 31 29 32
REMARK SMILES IDX 13 33
REMARK H PARENT 13 34
REMARK Flexibility Score: inf
ROOT
ATOM      1  C   UNL     1      12.656  97.006  -0.251  1.00  0.00     0.017 C 
ATOM      2  C   UNL     1      11.683  97.177   0.946  1.00  0.00     0.014 C 
ATOM      3  C   UNL     1      14.019  96.425   0.209  1.00  0.00     0.014 C 
ATOM      4  C   UNL     1      12.025  95.912  -1.186  1.00  0.00     0.030 C 
ATOM      5  C   UNL     1      10.280  97.622   0.466  1.00  0.00     0.004 C 
ATOM      6  C   UNL     1      15.018  96.196  -0.968  1.00  0.00     0.013 C 
ATOM      7  C   UNL     1      13.041  95.199  -2.113  1.00  0.00    -0.063 C 
ATOM      8  C   UNL     1      10.640  96.325  -1.765  1.00  0.00    -0.003 C 
ATOM      9  C   UNL     1       9.646  96.680  -0.598  1.00  0.00    -0.011 C 
ATOM     10  C   UNL     1      14.401  95.854  -2.397  1.00  0.00    -0.006 C 
ATOM     11  C   UNL     1      12.885  93.865  -2.238  1.00  0.00    -0.027 C 
ATOM     12  C   UNL     1      10.043  95.289  -2.734  1.00  0.00     0.008 C 
ATOM     13  C   UNL     1       9.018  95.449   0.093  1.00  0.00     0.008 C 
ATOM     14  C   UNL     1      14.151  97.189  -3.191  1.00  0.00     0.017 C 
ATOM     15  C   UNL     1      15.400  94.909  -3.267  1.00  0.00    -0.020 C 
ATOM     16  C   UNL     1      13.915  92.910  -2.734  1.00  0.00     0.032 C 
ATOM     17  C   UNL     1      15.380  93.432  -2.732  1.00  0.00     0.006 C 
ATOM     18  C   UNL     1      14.992  94.839  -4.789  1.00  0.00     0.008 C 
ATOM     19  C   UNL     1      16.825  95.551  -3.155  1.00  0.00     0.012 C 
ATOM     20  C   UNL     1      16.419  92.433  -3.471  1.00  0.00    -0.025 C 
ATOM     21  C   UNL     1      15.370  93.547  -5.565  1.00  0.00     0.005 C 
ATOM     22  C   UNL     1      16.620  92.814  -5.013  1.00  0.00     0.003 C 
ATOM     23  C   UNL     1      15.934  90.943  -3.319  1.00  0.00     0.010 C 
ATOM     24  C   UNL     1      17.788  92.535  -2.715  1.00  0.00     0.012 C 
ATOM     25  C   UNL     1      17.194  91.664  -5.965  1.00  0.00    -0.006 C 
ATOM     26  C   UNL     1      16.687  89.921  -4.169  1.00  0.00     0.033 C 
ATOM     27  C   UNL     1      16.574  90.273  -5.655  1.00  0.00     0.120 C 
ATOM     28  C   UNL     1      16.954  91.968  -7.473  1.00  0.00     0.014 C 
ATOM     29  C   UNL     1      18.744  91.581  -5.830  1.00  0.00     0.014 C 
ENDROOT
BRANCH   1  30
ATOM     30  C   UNL     1      12.887  98.419  -0.806  1.00  0.00     0.048 C 
ATOM     31  O   UNL     1      13.125  99.368  -0.011  1.00  0.00    -0.550 OA
ATOM     32  O   UNL     1      12.723  98.730  -2.148  1.00  0.00    -0.550 OA
ENDBRANCH   1  30
BRANCH  27  33
ATOM     33  O   UNL     1      15.224  90.240  -6.050  1.00  0.00    -0.393 OA
ATOM     34  H   UNL     1      14.729  89.731  -5.355  1.00  0.00     0.210 HD
ENDBRANCH  27  33
TORSDOF 2
ENDMDL
