MODEL 1
REMARK VINA RESULT:    -4.625      0.000      0.000
REMARK INTER + INTRA:         -13.281
REMARK INTER:                 -10.033
REMARK INTRA:                  -3.249
REMARK UNBOUND:                -3.249
REMARK SMILES CCCCCCCCCCCCCCCCCCCCCC(=O)[O-]
REMARK SMILES IDX 12 1 11 2 10 3 9 4 8 5 7 6 6 7 5 8 4 9 3 10 2 11 1 12 13 13
REMARK SMILES IDX 14 14 15 15 16 16 17 17 18 18 19 19 20 20 21 21 22 22 23 23
REMARK SMILES IDX 24 24
REMARK H PARENT
REMARK Flexibility Score: inf
ROOT
ATOM      1  C   UNL     1     -16.291  20.400 -17.401  1.00  0.00     0.000 C 
ENDROOT
BRANCH   1   2
ATOM      2  C   UNL     1     -15.565  21.721 -17.712  1.00  0.00     0.000 C 
BRANCH   2   3
ATOM      3  C   UNL     1     -14.191  21.823 -17.028  1.00  0.00     0.000 C 
BRANCH   3   4
ATOM      4  C   UNL     1     -13.034  21.453 -17.968  1.00  0.00    -0.000 C 
BRANCH   4   5
ATOM      5  C   UNL     1     -12.394  20.097 -17.618  1.00  0.00    -0.000 C 
BRANCH   5   6
ATOM      6  C   UNL     1     -12.580  19.054 -18.732  1.00  0.00    -0.000 C 
BRANCH   6   7
ATOM      7  C   UNL     1     -13.680  18.031 -18.403  1.00  0.00    -0.000 C 
BRANCH   7   8
ATOM      8  C   UNL     1     -13.421  17.275 -17.087  1.00  0.00    -0.000 C 
BRANCH   8   9
ATOM      9  C   UNL     1     -14.559  17.367 -16.055  1.00  0.00    -0.000 C 
BRANCH   9  10
ATOM     10  C   UNL     1     -14.365  18.517 -15.053  1.00  0.00    -0.000 C 
BRANCH  10  11
ATOM     11  C   UNL     1     -13.153  18.299 -14.135  1.00  0.00    -0.003 C 
ATOM     12  C   UNL     1     -12.165  19.464 -14.177  1.00  0.00     0.004 C 
ENDBRANCH  10  11
ENDBRANCH   9  10
ENDBRANCH   8   9
ENDBRANCH   7   8
ENDBRANCH   6   7
ENDBRANCH   5   6
ENDBRANCH   4   5
ENDBRANCH   3   4
ENDBRANCH   2   3
ENDBRANCH   1   2
BRANCH   1  13
ATOM     13  C   UNL     1     -17.090  19.799 -18.574  1.00  0.00     0.000 C 
BRANCH  13  14
ATOM     14  C   UNL     1     -18.026  18.630 -18.204  1.00  0.00     0.000 C 
BRANCH  14  15
ATOM     15  C   UNL     1     -17.926  18.155 -16.742  1.00  0.00     0.000 C 
BRANCH  15  16
ATOM     16  C   UNL     1     -19.276  18.041 -16.011  1.00  0.00     0.000 C 
BRANCH  16  17
ATOM     17  C   UNL     1     -19.265  17.029 -14.842  1.00  0.00     0.000 C 
BRANCH  17  18
ATOM     18  C   UNL     1     -18.556  17.549 -13.580  1.00  0.00     0.000 C 
BRANCH  18  19
ATOM     19  C   UNL     1     -17.224  16.824 -13.318  1.00  0.00     0.000 C 
BRANCH  19  20
ATOM     20  C   UNL     1     -17.049  15.567 -14.190  1.00  0.00     0.006 C 
BRANCH  20  21
ATOM     21  C   UNL     1     -16.807  14.274 -13.394  1.00  0.00     0.053 C 
BRANCH  21  22
ATOM     22  C   UNL     1     -16.797  13.066 -14.280  1.00  0.00     0.041 C 
ATOM     23  O   UNL     1     -16.814  13.197 -15.531  1.00  0.00    -0.550 OA
ATOM     24  O   UNL     1     -16.802  11.794 -13.721  1.00  0.00    -0.550 OA
ENDBRANCH  21  22
ENDBRANCH  20  21
ENDBRANCH  19  20
ENDBRANCH  18  19
ENDBRANCH  17  18
ENDBRANCH  16  17
ENDBRANCH  15  16
ENDBRANCH  14  15
ENDBRANCH  13  14
ENDBRANCH   1  13
TORSDOF 20
ENDMDL
MODEL 2
REMARK VINA RESULT:    -4.611      2.725      5.398
REMARK INTER + INTRA:         -13.250
REMARK INTER:                  -9.537
REMARK INTRA:                  -3.713
REMARK UNBOUND:                -3.249
REMARK SMILES CCCCCCCCCCCCCCCCCCCCCC(=O)[O-]
REMARK SMILES IDX 12 1 11 2 10 3 9 4 8 5 7 6 6 7 5 8 4 9 3 10 2 11 1 12 13 13
REMARK SMILES IDX 14 14 15 15 16 16 17 17 18 18 19 19 20 20 21 21 22 22 23 23
REMARK SMILES IDX 24 24
REMARK H PARENT
REMARK Flexibility Score: inf
ROOT
ATOM      1  C   UNL     1     -19.964  17.889 -15.987  1.00  0.00     0.000 C 
ENDROOT
BRANCH   1   2
ATOM      2  C   UNL     1     -20.019  17.126 -17.323  1.00  0.00     0.000 C 
BRANCH   2   3
ATOM      3  C   UNL     1     -19.096  15.896 -17.345  1.00  0.00     0.000 C 
BRANCH   3   4
ATOM      4  C   UNL     1     -18.245  15.818 -18.621  1.00  0.00    -0.000 C 
BRANCH   4   5
ATOM      5  C   UNL     1     -16.744  16.030 -18.350  1.00  0.00    -0.000 C 
BRANCH   5   6
ATOM      6  C   UNL     1     -16.480  17.203 -17.391  1.00  0.00    -0.000 C 
BRANCH   6   7
ATOM      7  C   UNL     1     -16.015  18.472 -18.126  1.00  0.00    -0.000 C 
BRANCH   7   8
ATOM      8  C   UNL     1     -17.179  19.414 -18.487  1.00  0.00    -0.000 C 
BRANCH   8   9
ATOM      9  C   UNL     1     -17.571  19.414 -19.976  1.00  0.00    -0.000 C 
BRANCH   9  10
ATOM     10  C   UNL     1     -19.078  19.201 -20.197  1.00  0.00    -0.000 C 
BRANCH  10  11
ATOM     11  C   UNL     1     -19.372  18.045 -21.164  1.00  0.00    -0.003 C 
ATOM     12  C   UNL     1     -18.110  17.494 -21.825  1.00  0.00     0.004 C 
ENDBRANCH  10  11
ENDBRANCH   9  10
ENDBRANCH   8   9
ENDBRANCH   7   8
ENDBRANCH   6   7
ENDBRANCH   5   6
ENDBRANCH   4   5
ENDBRANCH   3   4
ENDBRANCH   2   3
ENDBRANCH   1   2
BRANCH   1  13
ATOM     13  C   UNL     1     -19.580  17.037 -14.761  1.00  0.00     0.000 C 
BRANCH  13  14
ATOM     14  C   UNL     1     -19.370  17.824 -13.451  1.00  0.00     0.000 C 
BRANCH  14  15
ATOM     15  C   UNL     1     -18.023  17.571 -12.749  1.00  0.00     0.000 C 
BRANCH  15  16
ATOM     16  C   UNL     1     -16.844  17.291 -13.701  1.00  0.00     0.000 C 
BRANCH  16  17
ATOM     17  C   UNL     1     -15.895  16.177 -13.203  1.00  0.00     0.000 C 
BRANCH  17  18
ATOM     18  C   UNL     1     -15.666  15.056 -14.230  1.00  0.00     0.000 C 
BRANCH  18  19
ATOM     19  C   UNL     1     -16.977  14.362 -14.641  1.00  0.00     0.000 C 
BRANCH  19  20
ATOM     20  C   UNL     1     -16.804  13.439 -15.861  1.00  0.00     0.006 C 
BRANCH  20  21
ATOM     21  C   UNL     1     -17.264  11.990 -15.628  1.00  0.00     0.053 C 
BRANCH  21  22
ATOM     22  C   UNL     1     -18.203  11.524 -16.699  1.00  0.00     0.041 C 
ATOM     23  O   UNL     1     -18.976  12.340 -17.264  1.00  0.00    -0.550 OA
ATOM     24  O   UNL     1     -18.247  10.180 -17.048  1.00  0.00    -0.550 OA
ENDBRANCH  21  22
ENDBRANCH  20  21
ENDBRANCH  19  20
ENDBRANCH  18  19
ENDBRANCH  17  18
ENDBRANCH  16  17
ENDBRANCH  15  16
ENDBRANCH  14  15
ENDBRANCH  13  14
ENDBRANCH   1  13
TORSDOF 20
ENDMDL
MODEL 3
REMARK VINA RESULT:    -4.601      3.369      6.919
REMARK INTER + INTRA:         -13.229
REMARK INTER:                  -9.492
REMARK INTRA:                  -3.737
REMARK UNBOUND:                -3.249
REMARK SMILES CCCCCCCCCCCCCCCCCCCCCC(=O)[O-]
REMARK SMILES IDX 12 1 11 2 10 3 9 4 8 5 7 6 6 7 5 8 4 9 3 10 2 11 1 12 13 13
REMARK SMILES IDX 14 14 15 15 16 16 17 17 18 18 19 19 20 20 21 21 22 22 23 23
REMARK SMILES IDX 24 24
REMARK H PARENT
REMARK Flexibility Score: inf
ROOT
ATOM      1  C   UNL     1     -16.145  14.578 -14.891  1.00  0.00     0.000 C 
ENDROOT
BRANCH   1   2
ATOM      2  C   UNL     1     -16.678  14.228 -13.490  1.00  0.00     0.000 C 
BRANCH   2   3
ATOM      3  C   UNL     1     -16.700  15.439 -12.541  1.00  0.00     0.000 C 
BRANCH   3   4
ATOM      4  C   UNL     1     -16.117  16.706 -13.186  1.00  0.00    -0.000 C 
BRANCH   4   5
ATOM      5  C   UNL     1     -17.095  17.895 -13.150  1.00  0.00    -0.000 C 
BRANCH   5   6
ATOM      6  C   UNL     1     -18.532  17.465 -12.817  1.00  0.00    -0.000 C 
BRANCH   6   7
ATOM      7  C   UNL     1     -19.498  17.676 -13.996  1.00  0.00    -0.000 C 
BRANCH   7   8
ATOM      8  C   UNL     1     -19.090  16.884 -15.252  1.00  0.00    -0.000 C 
BRANCH   8   9
ATOM      9  C   UNL     1     -18.689  17.752 -16.459  1.00  0.00    -0.000 C 
BRANCH   9  10
ATOM     10  C   UNL     1     -17.324  17.360 -17.049  1.00  0.00    -0.000 C 
BRANCH  10  11
ATOM     11  C   UNL     1     -16.208  18.336 -16.646  1.00  0.00    -0.003 C 
ATOM     12  C   UNL     1     -14.834  17.670 -16.595  1.00  0.00     0.004 C 
ENDBRANCH  10  11
ENDBRANCH   9  10
ENDBRANCH   8   9
ENDBRANCH   7   8
ENDBRANCH   6   7
ENDBRANCH   5   6
ENDBRANCH   4   5
ENDBRANCH   3   4
ENDBRANCH   2   3
ENDBRANCH   1   2
BRANCH   1  13
ATOM     13  C   UNL     1     -16.863  13.873 -16.060  1.00  0.00     0.000 C 
BRANCH  13  14
ATOM     14  C   UNL     1     -16.597  12.359 -16.179  1.00  0.00     0.000 C 
BRANCH  14  15
ATOM     15  C   UNL     1     -15.252  11.887 -15.596  1.00  0.00     0.000 C 
BRANCH  15  16
ATOM     16  C   UNL     1     -14.102  11.805 -16.617  1.00  0.00     0.000 C 
BRANCH  16  17
ATOM     17  C   UNL     1     -12.989  12.852 -16.383  1.00  0.00     0.000 C 
BRANCH  17  18
ATOM     18  C   UNL     1     -13.222  14.178 -17.125  1.00  0.00     0.000 C 
BRANCH  18  19
ATOM     19  C   UNL     1     -13.988  13.983 -18.445  1.00  0.00     0.000 C 
BRANCH  19  20
ATOM     20  C   UNL     1     -13.965  15.237 -19.338  1.00  0.00     0.006 C 
BRANCH  20  21
ATOM     21  C   UNL     1     -15.357  15.770 -19.716  1.00  0.00     0.053 C 
BRANCH  21  22
ATOM     22  C   UNL     1     -15.422  16.191 -21.153  1.00  0.00     0.041 C 
ATOM     23  O   UNL     1     -14.498  15.879 -21.948  1.00  0.00    -0.550 OA
ATOM     24  O   UNL     1     -16.489  16.957 -21.604  1.00  0.00    -0.550 OA
ENDBRANCH  21  22
ENDBRANCH  20  21
ENDBRANCH  19  20
ENDBRANCH  18  19
ENDBRANCH  17  18
ENDBRANCH  16  17
ENDBRANCH  15  16
ENDBRANCH  14  15
ENDBRANCH  13  14
ENDBRANCH   1  13
TORSDOF 20
ENDMDL
MODEL 4
REMARK VINA RESULT:    -4.563      3.267      6.501
REMARK INTER + INTRA:         -13.146
REMARK INTER:                  -9.281
REMARK INTRA:                  -3.866
REMARK UNBOUND:                -3.249
REMARK SMILES CCCCCCCCCCCCCCCCCCCCCC(=O)[O-]
REMARK SMILES IDX 12 1 11 2 10 3 9 4 8 5 7 6 6 7 5 8 4 9 3 10 2 11 1 12 13 13
REMARK SMILES IDX 14 14 15 15 16 16 17 17 18 18 19 19 20 20 21 21 22 22 23 23
REMARK SMILES IDX 24 24
REMARK H PARENT
REMARK Flexibility Score: inf
ROOT
ATOM      1  C   UNL     1     -19.052  18.123 -17.174  1.00  0.00     0.000 C 
ENDROOT
BRANCH   1   2
ATOM      2  C   UNL     1     -19.884  17.341 -16.141  1.00  0.00     0.000 C 
BRANCH   2   3
ATOM      3  C   UNL     1     -19.058  16.902 -14.920  1.00  0.00     0.000 C 
BRANCH   3   4
ATOM      4  C   UNL     1     -17.638  17.490 -14.924  1.00  0.00    -0.000 C 
BRANCH   4   5
ATOM      5  C   UNL     1     -16.976  17.456 -13.535  1.00  0.00    -0.000 C 
BRANCH   5   6
ATOM      6  C   UNL     1     -16.817  16.026 -12.994  1.00  0.00    -0.000 C 
BRANCH   6   7
ATOM      7  C   UNL     1     -16.039  15.114 -13.960  1.00  0.00    -0.000 C 
BRANCH   7   8
ATOM      8  C   UNL     1     -16.662  13.712 -14.089  1.00  0.00    -0.000 C 
BRANCH   8   9
ATOM      9  C   UNL     1     -16.956  13.267 -15.533  1.00  0.00    -0.000 C 
BRANCH   9  10
ATOM     10  C   UNL     1     -16.666  14.367 -16.568  1.00  0.00    -0.000 C 
BRANCH  10  11
ATOM     11  C   UNL     1     -17.804  14.529 -17.587  1.00  0.00    -0.003 C 
ATOM     12  C   UNL     1     -18.925  13.510 -17.385  1.00  0.00     0.004 C 
ENDBRANCH  10  11
ENDBRANCH   9  10
ENDBRANCH   8   9
ENDBRANCH   7   8
ENDBRANCH   6   7
ENDBRANCH   5   6
ENDBRANCH   4   5
ENDBRANCH   3   4
ENDBRANCH   2   3
ENDBRANCH   1   2
BRANCH   1  13
ATOM     13  C   UNL     1     -19.375  17.808 -18.649  1.00  0.00     0.000 C 
BRANCH  13  14
ATOM     14  C   UNL     1     -19.007  18.917 -19.655  1.00  0.00     0.000 C 
BRANCH  14  15
ATOM     15  C   UNL     1     -17.553  18.882 -20.160  1.00  0.00     0.000 C 
BRANCH  15  16
ATOM     16  C   UNL     1     -17.135  17.557 -20.826  1.00  0.00     0.000 C 
BRANCH  16  17
ATOM     17  C   UNL     1     -16.103  16.749 -20.006  1.00  0.00     0.000 C 
BRANCH  17  18
ATOM     18  C   UNL     1     -15.120  17.627 -19.214  1.00  0.00     0.000 C 
BRANCH  18  19
ATOM     19  C   UNL     1     -15.219  17.391 -17.696  1.00  0.00     0.000 C 
BRANCH  19  20
ATOM     20  C   UNL     1     -14.839  18.637 -16.875  1.00  0.00     0.006 C 
BRANCH  20  21
ATOM     21  C   UNL     1     -15.720  19.867 -17.147  1.00  0.00     0.053 C 
BRANCH  21  22
ATOM     22  C   UNL     1     -14.908  21.121 -17.265  1.00  0.00     0.041 C 
ATOM     23  O   UNL     1     -13.808  21.222 -16.661  1.00  0.00    -0.550 OA
ATOM     24  O   UNL     1     -15.383  22.189 -18.015  1.00  0.00    -0.550 OA
ENDBRANCH  21  22
ENDBRANCH  20  21
ENDBRANCH  19  20
ENDBRANCH  18  19
ENDBRANCH  17  18
ENDBRANCH  16  17
ENDBRANCH  15  16
ENDBRANCH  14  15
ENDBRANCH  13  14
ENDBRANCH   1  13
TORSDOF 20
ENDMDL
MODEL 5
REMARK VINA RESULT:    -4.556      2.798      4.682
REMARK INTER + INTRA:         -13.131
REMARK INTER:                  -9.069
REMARK INTRA:                  -4.062
REMARK UNBOUND:                -3.249
REMARK SMILES CCCCCCCCCCCCCCCCCCCCCC(=O)[O-]
REMARK SMILES IDX 12 1 11 2 10 3 9 4 8 5 7 6 6 7 5 8 4 9 3 10 2 11 1 12 13 13
REMARK SMILES IDX 14 14 15 15 16 16 17 17 18 18 19 19 20 20 21 21 22 22 23 23
REMARK SMILES IDX 24 24
REMARK H PARENT
REMARK Flexibility Score: inf
ROOT
ATOM      1  C   UNL     1     -19.967  17.128 -17.842  1.00  0.00     0.000 C 
ENDROOT
BRANCH   1   2
ATOM      2  C   UNL     1     -19.418  17.285 -19.271  1.00  0.00     0.000 C 
BRANCH   2   3
ATOM      3  C   UNL     1     -18.912  18.708 -19.562  1.00  0.00     0.000 C 
BRANCH   3   4
ATOM      4  C   UNL     1     -17.715  18.725 -20.525  1.00  0.00    -0.000 C 
BRANCH   4   5
ATOM      5  C   UNL     1     -17.455  17.354 -21.176  1.00  0.00    -0.000 C 
BRANCH   5   6
ATOM      6  C   UNL     1     -15.999  16.891 -21.011  1.00  0.00    -0.000 C 
BRANCH   6   7
ATOM      7  C   UNL     1     -15.780  16.084 -19.719  1.00  0.00    -0.000 C 
BRANCH   7   8
ATOM      8  C   UNL     1     -14.577  16.584 -18.899  1.00  0.00    -0.000 C 
BRANCH   8   9
ATOM      9  C   UNL     1     -14.867  17.806 -18.008  1.00  0.00    -0.000 C 
BRANCH   9  10
ATOM     10  C   UNL     1     -16.223  17.714 -17.290  1.00  0.00    -0.000 C 
BRANCH  10  11
ATOM     11  C   UNL     1     -16.548  18.980 -16.483  1.00  0.00    -0.003 C 
ATOM     12  C   UNL     1     -16.453  20.254 -17.321  1.00  0.00     0.004 C 
ENDBRANCH  10  11
ENDBRANCH   9  10
ENDBRANCH   8   9
ENDBRANCH   7   8
ENDBRANCH   6   7
ENDBRANCH   5   6
ENDBRANCH   4   5
ENDBRANCH   3   4
ENDBRANCH   2   3
ENDBRANCH   1   2
BRANCH   1  13
ATOM     13  C   UNL     1     -19.423  15.915 -17.060  1.00  0.00     0.000 C 
BRANCH  13  14
ATOM     14  C   UNL     1     -18.631  14.892 -17.899  1.00  0.00     0.000 C 
BRANCH  14  15
ATOM     15  C   UNL     1     -18.690  13.442 -17.383  1.00  0.00     0.000 C 
BRANCH  15  16
ATOM     16  C   UNL     1     -17.455  12.995 -16.580  1.00  0.00     0.000 C 
BRANCH  16  17
ATOM     17  C   UNL     1     -16.227  13.916 -16.766  1.00  0.00     0.000 C 
BRANCH  17  18
ATOM     18  C   UNL     1     -15.777  14.616 -15.473  1.00  0.00     0.000 C 
BRANCH  18  19
ATOM     19  C   UNL     1     -16.963  14.972 -14.558  1.00  0.00     0.000 C 
BRANCH  19  20
ATOM     20  C   UNL     1     -16.521  15.650 -13.249  1.00  0.00     0.006 C 
BRANCH  20  21
ATOM     21  C   UNL     1     -16.646  17.183 -13.256  1.00  0.00     0.053 C 
BRANCH  21  22
ATOM     22  C   UNL     1     -18.059  17.629 -13.031  1.00  0.00     0.041 C 
ATOM     23  O   UNL     1     -18.441  17.968 -11.881  1.00  0.00    -0.550 OA
ATOM     24  O   UNL     1     -18.961  17.639 -14.087  1.00  0.00    -0.550 OA
ENDBRANCH  21  22
ENDBRANCH  20  21
ENDBRANCH  19  20
ENDBRANCH  18  19
ENDBRANCH  17  18
ENDBRANCH  16  17
ENDBRANCH  15  16
ENDBRANCH  14  15
ENDBRANCH  13  14
ENDBRANCH   1  13
TORSDOF 20
ENDMDL
MODEL 6
REMARK VINA RESULT:    -4.525     12.943     15.372
REMARK INTER + INTRA:         -13.064
REMARK INTER:                  -9.599
REMARK INTRA:                  -3.465
REMARK UNBOUND:                -3.249
REMARK SMILES CCCCCCCCCCCCCCCCCCCCCC(=O)[O-]
REMARK SMILES IDX 12 1 11 2 10 3 9 4 8 5 7 6 6 7 5 8 4 9 3 10 2 11 1 12 13 13
REMARK SMILES IDX 14 14 15 15 16 16 17 17 18 18 19 19 20 20 21 21 22 22 23 23
REMARK SMILES IDX 24 24
REMARK H PARENT
REMARK Flexibility Score: inf
ROOT
ATOM      1  C   UNL     1      -1.155  11.878 -11.585  1.00  0.00     0.000 C 
ENDROOT
BRANCH   1   2
ATOM      2  C   UNL     1      -0.671  12.972 -12.554  1.00  0.00     0.000 C 
BRANCH   2   3
ATOM      3  C   UNL     1      -0.337  14.293 -11.842  1.00  0.00     0.000 C 
BRANCH   3   4
ATOM      4  C   UNL     1      -1.038  15.502 -12.480  1.00  0.00    -0.000 C 
BRANCH   4   5
ATOM      5  C   UNL     1      -2.561  15.494 -12.257  1.00  0.00    -0.000 C 
BRANCH   5   6
ATOM      6  C   UNL     1      -3.341  15.928 -13.508  1.00  0.00    -0.000 C 
BRANCH   6   7
ATOM      7  C   UNL     1      -3.449  14.805 -14.554  1.00  0.00    -0.000 C 
BRANCH   7   8
ATOM      8  C   UNL     1      -4.029  13.502 -13.975  1.00  0.00    -0.000 C 
BRANCH   8   9
ATOM      9  C   UNL     1      -3.967  12.291 -14.923  1.00  0.00    -0.000 C 
BRANCH   9  10
ATOM     10  C   UNL     1      -3.578  10.988 -14.204  1.00  0.00    -0.000 C 
BRANCH  10  11
ATOM     11  C   UNL     1      -2.288  10.371 -14.764  1.00  0.00    -0.003 C 
ATOM     12  C   UNL     1      -2.255  10.361 -16.291  1.00  0.00     0.004 C 
ENDBRANCH  10  11
ENDBRANCH   9  10
ENDBRANCH   8   9
ENDBRANCH   7   8
ENDBRANCH   6   7
ENDBRANCH   5   6
ENDBRANCH   4   5
ENDBRANCH   3   4
ENDBRANCH   2   3
ENDBRANCH   1   2
BRANCH   1  13
ATOM     13  C   UNL     1      -0.909  12.171 -10.091  1.00  0.00     0.000 C 
BRANCH  13  14
ATOM     14  C   UNL     1      -0.195  11.050  -9.308  1.00  0.00     0.000 C 
BRANCH  14  15
ATOM     15  C   UNL     1      -1.107  10.212  -8.394  1.00  0.00     0.000 C 
BRANCH  15  16
ATOM     16  C   UNL     1      -2.548  10.741  -8.264  1.00  0.00     0.000 C 
BRANCH  16  17
ATOM     17  C   UNL     1      -3.609   9.813  -8.899  1.00  0.00     0.000 C 
BRANCH  17  18
ATOM     18  C   UNL     1      -4.263  10.397 -10.163  1.00  0.00     0.000 C 
BRANCH  18  19
ATOM     19  C   UNL     1      -5.113  11.644  -9.858  1.00  0.00     0.000 C 
BRANCH  19  20
ATOM     20  C   UNL     1      -4.552  12.920 -10.510  1.00  0.00     0.006 C 
BRANCH  20  21
ATOM     21  C   UNL     1      -4.953  14.223  -9.798  1.00  0.00     0.053 C 
BRANCH  21  22
ATOM     22  C   UNL     1      -4.988  14.059  -8.309  1.00  0.00     0.041 C 
ATOM     23  O   UNL     1      -6.089  14.038  -7.699  1.00  0.00    -0.550 OA
ATOM     24  O   UNL     1      -3.802  13.961  -7.593  1.00  0.00    -0.550 OA
ENDBRANCH  21  22
ENDBRANCH  20  21
ENDBRANCH  19  20
ENDBRANCH  18  19
ENDBRANCH  17  18
ENDBRANCH  16  17
ENDBRANCH  15  16
ENDBRANCH  14  15
ENDBRANCH  13  14
ENDBRANCH   1  13
TORSDOF 20
ENDMDL
MODEL 7
REMARK VINA RESULT:    -4.510     12.590     14.964
REMARK INTER + INTRA:         -13.031
REMARK INTER:                  -9.697
REMARK INTRA:                  -3.334
REMARK UNBOUND:                -3.249
REMARK SMILES CCCCCCCCCCCCCCCCCCCCCC(=O)[O-]
REMARK SMILES IDX 12 1 11 2 10 3 9 4 8 5 7 6 6 7 5 8 4 9 3 10 2 11 1 12 13 13
REMARK SMILES IDX 14 14 15 15 16 16 17 17 18 18 19 19 20 20 21 21 22 22 23 23
REMARK SMILES IDX 24 24
REMARK H PARENT
REMARK Flexibility Score: inf
ROOT
ATOM      1  C   UNL     1      -2.237  12.567  -9.683  1.00  0.00     0.000 C 
ENDROOT
BRANCH   1   2
ATOM      2  C   UNL     1      -0.812  13.043 -10.020  1.00  0.00     0.000 C 
BRANCH   2   3
ATOM      3  C   UNL     1      -0.290  12.467 -11.347  1.00  0.00     0.000 C 
BRANCH   3   4
ATOM      4  C   UNL     1      -0.417  13.458 -12.513  1.00  0.00    -0.000 C 
BRANCH   4   5
ATOM      5  C   UNL     1      -0.118  14.910 -12.095  1.00  0.00    -0.000 C 
BRANCH   5   6
ATOM      6  C   UNL     1      -1.252  15.876 -12.474  1.00  0.00    -0.000 C 
BRANCH   6   7
ATOM      7  C   UNL     1      -2.635  15.201 -12.448  1.00  0.00    -0.000 C 
BRANCH   7   8
ATOM      8  C   UNL     1      -3.307  15.163 -13.833  1.00  0.00    -0.000 C 
BRANCH   8   9
ATOM      9  C   UNL     1      -3.730  13.761 -14.306  1.00  0.00    -0.000 C 
BRANCH   9  10
ATOM     10  C   UNL     1      -3.900  12.764 -13.147  1.00  0.00    -0.000 C 
BRANCH  10  11
ATOM     11  C   UNL     1      -3.954  11.307 -13.628  1.00  0.00    -0.003 C 
ATOM     12  C   UNL     1      -2.698  10.518 -13.260  1.00  0.00     0.004 C 
ENDBRANCH  10  11
ENDBRANCH   9  10
ENDBRANCH   8   9
ENDBRANCH   7   8
ENDBRANCH   6   7
ENDBRANCH   5   6
ENDBRANCH   4   5
ENDBRANCH   3   4
ENDBRANCH   2   3
ENDBRANCH   1   2
BRANCH   1  13
ATOM     13  C   UNL     1      -2.314  11.291  -8.821  1.00  0.00     0.000 C 
BRANCH  13  14
ATOM     14  C   UNL     1      -2.553   9.982  -9.602  1.00  0.00     0.000 C 
BRANCH  14  15
ATOM     15  C   UNL     1      -3.843   9.228  -9.230  1.00  0.00     0.000 C 
BRANCH  15  16
ATOM     16  C   UNL     1      -5.004   9.409 -10.226  1.00  0.00     0.000 C 
BRANCH  16  17
ATOM     17  C   UNL     1      -5.505  10.868 -10.337  1.00  0.00     0.000 C 
BRANCH  17  18
ATOM     18  C   UNL     1      -7.006  11.029 -10.048  1.00  0.00     0.000 C 
BRANCH  18  19
ATOM     19  C   UNL     1      -7.329  12.369  -9.363  1.00  0.00     0.000 C 
BRANCH  19  20
ATOM     20  C   UNL     1      -6.069  13.196  -9.050  1.00  0.00     0.006 C 
BRANCH  20  21
ATOM     21  C   UNL     1      -6.341  14.493  -8.269  1.00  0.00     0.053 C 
BRANCH  21  22
ATOM     22  C   UNL     1      -5.428  14.637  -7.090  1.00  0.00     0.041 C 
ATOM     23  O   UNL     1      -5.803  15.273  -6.071  1.00  0.00    -0.550 OA
ATOM     24  O   UNL     1      -4.150  14.094  -7.130  1.00  0.00    -0.550 OA
ENDBRANCH  21  22
ENDBRANCH  20  21
ENDBRANCH  19  20
ENDBRANCH  18  19
ENDBRANCH  17  18
ENDBRANCH  16  17
ENDBRANCH  15  16
ENDBRANCH  14  15
ENDBRANCH  13  14
ENDBRANCH   1  13
TORSDOF 20
ENDMDL
MODEL 8
REMARK VINA RESULT:    -4.464      3.118      6.608
REMARK INTER + INTRA:         -12.932
REMARK INTER:                  -8.795
REMARK INTRA:                  -4.137
REMARK UNBOUND:                -3.249
REMARK SMILES CCCCCCCCCCCCCCCCCCCCCC(=O)[O-]
REMARK SMILES IDX 12 1 11 2 10 3 9 4 8 5 7 6 6 7 5 8 4 9 3 10 2 11 1 12 13 13
REMARK SMILES IDX 14 14 15 15 16 16 17 17 18 18 19 19 20 20 21 21 22 22 23 23
REMARK SMILES IDX 24 24
REMARK H PARENT
REMARK Flexibility Score: inf
ROOT
ATOM      1  C   UNL     1     -16.465  14.364 -17.256  1.00  0.00     0.000 C 
ENDROOT
BRANCH   1   2
ATOM      2  C   UNL     1     -17.544  15.257 -16.617  1.00  0.00     0.000 C 
BRANCH   2   3
ATOM      3  C   UNL     1     -17.415  15.346 -15.087  1.00  0.00     0.000 C 
BRANCH   3   4
ATOM      4  C   UNL     1     -17.971  16.661 -14.522  1.00  0.00    -0.000 C 
BRANCH   4   5
ATOM      5  C   UNL     1     -17.041  17.299 -13.474  1.00  0.00    -0.000 C 
BRANCH   5   6
ATOM      6  C   UNL     1     -15.679  16.591 -13.388  1.00  0.00    -0.000 C 
BRANCH   6   7
ATOM      7  C   UNL     1     -14.505  17.531 -13.712  1.00  0.00    -0.000 C 
BRANCH   7   8
ATOM      8  C   UNL     1     -13.741  17.116 -14.983  1.00  0.00    -0.000 C 
BRANCH   8   9
ATOM      9  C   UNL     1     -13.888  18.085 -16.170  1.00  0.00    -0.000 C 
BRANCH   9  10
ATOM     10  C   UNL     1     -15.216  17.908 -16.925  1.00  0.00    -0.000 C 
BRANCH  10  11
ATOM     11  C   UNL     1     -16.192  19.067 -16.678  1.00  0.00    -0.003 C 
ATOM     12  C   UNL     1     -15.989  20.226 -17.653  1.00  0.00     0.004 C 
ENDBRANCH  10  11
ENDBRANCH   9  10
ENDBRANCH   8   9
ENDBRANCH   7   8
ENDBRANCH   6   7
ENDBRANCH   5   6
ENDBRANCH   4   5
ENDBRANCH   3   4
ENDBRANCH   2   3
ENDBRANCH   1   2
BRANCH   1  13
ATOM     13  C   UNL     1     -15.284  14.002 -16.334  1.00  0.00     0.000 C 
BRANCH  13  14
ATOM     14  C   UNL     1     -13.893  14.036 -17.000  1.00  0.00     0.000 C 
BRANCH  14  15
ATOM     15  C   UNL     1     -13.906  14.285 -18.520  1.00  0.00     0.000 C 
BRANCH  15  16
ATOM     16  C   UNL     1     -13.005  15.442 -18.990  1.00  0.00     0.000 C 
BRANCH  16  17
ATOM     17  C   UNL     1     -13.728  16.461 -19.900  1.00  0.00     0.000 C 
BRANCH  17  18
ATOM     18  C   UNL     1     -14.349  15.834 -21.159  1.00  0.00     0.000 C 
BRANCH  18  19
ATOM     19  C   UNL     1     -15.753  16.391 -21.457  1.00  0.00     0.000 C 
BRANCH  19  20
ATOM     20  C   UNL     1     -16.474  16.894 -20.194  1.00  0.00     0.006 C 
BRANCH  20  21
ATOM     21  C   UNL     1     -17.466  18.042 -20.446  1.00  0.00     0.053 C 
BRANCH  21  22
ATOM     22  C   UNL     1     -18.836  17.534 -20.777  1.00  0.00     0.041 C 
ATOM     23  O   UNL     1     -19.236  17.517 -21.970  1.00  0.00    -0.550 OA
ATOM     24  O   UNL     1     -19.683  17.109 -19.761  1.00  0.00    -0.550 OA
ENDBRANCH  21  22
ENDBRANCH  20  21
ENDBRANCH  19  20
ENDBRANCH  18  19
ENDBRANCH  17  18
ENDBRANCH  16  17
ENDBRANCH  15  16
ENDBRANCH  14  15
ENDBRANCH  13  14
ENDBRANCH   1  13
TORSDOF 20
ENDMDL
MODEL 9
REMARK VINA RESULT:    -4.442     12.524     15.410
REMARK INTER + INTRA:         -12.884
REMARK INTER:                  -8.859
REMARK INTRA:                  -4.025
REMARK UNBOUND:                -3.249
REMARK SMILES CCCCCCCCCCCCCCCCCCCCCC(=O)[O-]
REMARK SMILES IDX 12 1 11 2 10 3 9 4 8 5 7 6 6 7 5 8 4 9 3 10 2 11 1 12 13 13
REMARK SMILES IDX 14 14 15 15 16 16 17 17 18 18 19 19 20 20 21 21 22 22 23 23
REMARK SMILES IDX 24 24
REMARK H PARENT
REMARK Flexibility Score: inf
ROOT
ATOM      1  C   UNL     1       0.055  11.868  -9.506  1.00  0.00     0.000 C 
ENDROOT
BRANCH   1   2
ATOM      2  C   UNL     1      -0.926  12.946 -10.001  1.00  0.00     0.000 C 
BRANCH   2   3
ATOM      3  C   UNL     1      -0.800  13.219 -11.509  1.00  0.00     0.000 C 
BRANCH   3   4
ATOM      4  C   UNL     1      -0.313  11.992 -12.294  1.00  0.00    -0.000 C 
BRANCH   4   5
ATOM      5  C   UNL     1      -1.260  11.608 -13.446  1.00  0.00    -0.000 C 
BRANCH   5   6
ATOM      6  C   UNL     1      -2.375  10.651 -12.996  1.00  0.00    -0.000 C 
BRANCH   6   7
ATOM      7  C   UNL     1      -3.769  11.111 -13.457  1.00  0.00    -0.000 C 
BRANCH   7   8
ATOM      8  C   UNL     1      -3.759  12.524 -14.070  1.00  0.00    -0.000 C 
BRANCH   8   9
ATOM      9  C   UNL     1      -4.695  13.533 -13.382  1.00  0.00    -0.000 C 
BRANCH   9  10
ATOM     10  C   UNL     1      -3.970  14.416 -12.354  1.00  0.00    -0.000 C 
BRANCH  10  11
ATOM     11  C   UNL     1      -4.722  15.724 -12.067  1.00  0.00    -0.003 C 
ATOM     12  C   UNL     1      -6.216  15.623 -12.372  1.00  0.00     0.004 C 
ENDBRANCH  10  11
ENDBRANCH   9  10
ENDBRANCH   8   9
ENDBRANCH   7   8
ENDBRANCH   6   7
ENDBRANCH   5   6
ENDBRANCH   4   5
ENDBRANCH   3   4
ENDBRANCH   2   3
ENDBRANCH   1   2
BRANCH   1  13
ATOM     13  C   UNL     1      -0.596  10.677  -8.773  1.00  0.00     0.000 C 
BRANCH  13  14
ATOM     14  C   UNL     1      -0.672   9.367  -9.584  1.00  0.00     0.000 C 
BRANCH  14  15
ATOM     15  C   UNL     1      -2.022   8.629  -9.503  1.00  0.00     0.000 C 
BRANCH  15  16
ATOM     16  C   UNL     1      -3.158   9.438  -8.851  1.00  0.00     0.000 C 
BRANCH  16  17
ATOM     17  C   UNL     1      -4.227   9.928  -9.855  1.00  0.00     0.000 C 
BRANCH  17  18
ATOM     18  C   UNL     1      -4.384  11.457  -9.894  1.00  0.00     0.000 C 
BRANCH  18  19
ATOM     19  C   UNL     1      -5.814  11.889 -10.264  1.00  0.00     0.000 C 
BRANCH  19  20
ATOM     20  C   UNL     1      -6.269  13.150  -9.509  1.00  0.00     0.006 C 
BRANCH  20  21
ATOM     21  C   UNL     1      -5.132  13.915  -8.811  1.00  0.00     0.053 C 
BRANCH  21  22
ATOM     22  C   UNL     1      -5.457  14.215  -7.379  1.00  0.00     0.041 C 
ATOM     23  O   UNL     1      -4.552  14.192  -6.505  1.00  0.00    -0.550 OA
ATOM     24  O   UNL     1      -6.767  14.489  -7.007  1.00  0.00    -0.550 OA
ENDBRANCH  21  22
ENDBRANCH  20  21
ENDBRANCH  19  20
ENDBRANCH  18  19
ENDBRANCH  17  18
ENDBRANCH  16  17
ENDBRANCH  15  16
ENDBRANCH  14  15
ENDBRANCH  13  14
ENDBRANCH   1  13
TORSDOF 20
ENDMDL
