MODEL 1
REMARK VINA RESULT:    -4.823      0.000      0.000
REMARK INTER + INTRA:         -11.672
REMARK INTER:                  -9.334
REMARK INTRA:                  -2.339
REMARK UNBOUND:                -2.339
REMARK SMILES CCCCCCCCCCCCCCCCCC(=O)[O-]
REMARK SMILES IDX 10 1 11 2 12 3 13 4 14 5 15 6 16 7 17 8 18 9 19 10 20 11
REMARK SMILES IDX 9 12 8 13 7 14 6 15 5 16 4 17 3 18 2 19 1 20
REMARK H PARENT
REMARK Flexibility Score: inf
ROOT
ATOM      1  C   UNL     1      61.477  29.796  14.057  1.00  0.00     0.000 C 
ENDROOT
BRANCH   1   2
ATOM      2  C   UNL     1      60.432  30.918  13.880  1.00  0.00     0.000 C 
BRANCH   2   3
ATOM      3  C   UNL     1      60.908  32.071  12.975  1.00  0.00     0.000 C 
BRANCH   3   4
ATOM      4  C   UNL     1      61.470  33.292  13.723  1.00  0.00     0.000 C 
BRANCH   4   5
ATOM      5  C   UNL     1      62.913  33.129  14.239  1.00  0.00     0.000 C 
BRANCH   5   6
ATOM      6  C   UNL     1      63.133  33.695  15.658  1.00  0.00     0.000 C 
BRANCH   6   7
ATOM      7  C   UNL     1      61.997  33.320  16.621  1.00  0.00     0.006 C 
BRANCH   7   8
ATOM      8  C   UNL     1      61.659  34.486  17.554  1.00  0.00     0.053 C 
BRANCH   8   9
ATOM      9  C   UNL     1      61.929  34.113  18.977  1.00  0.00     0.041 C 
ATOM     10  O   UNL     1      63.102  34.168  19.435  1.00  0.00    -0.550 OA
ATOM     11  O   UNL     1      60.880  33.752  19.813  1.00  0.00    -0.550 OA
ENDBRANCH   8   9
ENDBRANCH   7   8
ENDBRANCH   6   7
ENDBRANCH   5   6
ENDBRANCH   4   5
ENDBRANCH   3   4
ENDBRANCH   2   3
ENDBRANCH   1   2
BRANCH   1  12
ATOM     12  C   UNL     1      61.161  28.562  13.194  1.00  0.00     0.000 C 
BRANCH  12  13
ATOM     13  C   UNL     1      59.755  28.620  12.575  1.00  0.00    -0.000 C 
BRANCH  13  14
ATOM     14  C   UNL     1      59.786  28.942  11.070  1.00  0.00    -0.000 C 
BRANCH  14  15
ATOM     15  C   UNL     1      61.156  28.663  10.434  1.00  0.00    -0.000 C 
BRANCH  15  16
ATOM     16  C   UNL     1      61.637  29.816   9.539  1.00  0.00    -0.000 C 
BRANCH  16  17
ATOM     17  C   UNL     1      63.168  29.932   9.570  1.00  0.00    -0.000 C 
BRANCH  17  18
ATOM     18  C   UNL     1      63.774  29.438  10.893  1.00  0.00    -0.000 C 
BRANCH  18  19
ATOM     19  C   UNL     1      64.213  30.590  11.809  1.00  0.00    -0.003 C 
ATOM     20  C   UNL     1      64.310  31.900  11.033  1.00  0.00     0.004 C 
ENDBRANCH  18  19
ENDBRANCH  17  18
ENDBRANCH  16  17
ENDBRANCH  15  16
ENDBRANCH  14  15
ENDBRANCH  13  14
ENDBRANCH  12  13
ENDBRANCH   1  12
TORSDOF 16
ENDMDL
MODEL 2
REMARK VINA RESULT:    -4.809      1.548      2.442
REMARK INTER + INTRA:         -11.645
REMARK INTER:                  -9.100
REMARK INTRA:                  -2.545
REMARK UNBOUND:                -2.339
REMARK SMILES CCCCCCCCCCCCCCCCCC(=O)[O-]
REMARK SMILES IDX 10 1 11 2 12 3 13 4 14 5 15 6 16 7 17 8 18 9 19 10 20 11
REMARK SMILES IDX 9 12 8 13 7 14 6 15 5 16 4 17 3 18 2 19 1 20
REMARK H PARENT
REMARK Flexibility Score: inf
ROOT
ATOM      1  C   UNL     1      61.078  28.305  12.679  1.00  0.00     0.000 C 
ENDROOT
BRANCH   1   2
ATOM      2  C   UNL     1      61.885  29.042  13.770  1.00  0.00     0.000 C 
BRANCH   2   3
ATOM      3  C   UNL     1      63.093  29.826  13.222  1.00  0.00     0.000 C 
BRANCH   3   4
ATOM      4  C   UNL     1      63.137  31.311  13.624  1.00  0.00     0.000 C 
BRANCH   4   5
ATOM      5  C   UNL     1      62.350  32.257  12.697  1.00  0.00     0.000 C 
BRANCH   5   6
ATOM      6  C   UNL     1      60.918  32.557  13.187  1.00  0.00     0.000 C 
BRANCH   6   7
ATOM      7  C   UNL     1      60.815  32.574  14.720  1.00  0.00     0.006 C 
BRANCH   7   8
ATOM      8  C   UNL     1      61.050  33.983  15.272  1.00  0.00     0.053 C 
BRANCH   8   9
ATOM      9  C   UNL     1      61.887  33.929  16.510  1.00  0.00     0.041 C 
ATOM     10  O   UNL     1      62.918  33.207  16.546  1.00  0.00    -0.550 OA
ATOM     11  O   UNL     1      61.556  34.712  17.608  1.00  0.00    -0.550 OA
ENDBRANCH   8   9
ENDBRANCH   7   8
ENDBRANCH   6   7
ENDBRANCH   5   6
ENDBRANCH   4   5
ENDBRANCH   3   4
ENDBRANCH   2   3
ENDBRANCH   1   2
BRANCH   1  12
ATOM     12  C   UNL     1      59.996  29.200  12.047  1.00  0.00     0.000 C 
BRANCH  12  13
ATOM     13  C   UNL     1      60.408  29.739  10.668  1.00  0.00    -0.000 C 
BRANCH  13  14
ATOM     14  C   UNL     1      61.567  28.941  10.045  1.00  0.00    -0.000 C 
BRANCH  14  15
ATOM     15  C   UNL     1      62.523  29.825   9.230  1.00  0.00    -0.000 C 
BRANCH  15  16
ATOM     16  C   UNL     1      63.905  29.182   9.038  1.00  0.00    -0.000 C 
BRANCH  16  17
ATOM     17  C   UNL     1      65.016  30.241   9.094  1.00  0.00    -0.000 C 
BRANCH  17  18
ATOM     18  C   UNL     1      64.782  31.288  10.195  1.00  0.00    -0.000 C 
BRANCH  18  19
ATOM     19  C   UNL     1      65.915  32.320  10.280  1.00  0.00    -0.003 C 
ATOM     20  C   UNL     1      65.653  33.332  11.390  1.00  0.00     0.004 C 
ENDBRANCH  18  19
ENDBRANCH  17  18
ENDBRANCH  16  17
ENDBRANCH  15  16
ENDBRANCH  14  15
ENDBRANCH  13  14
ENDBRANCH  12  13
ENDBRANCH   1  12
TORSDOF 16
ENDMDL
MODEL 3
REMARK VINA RESULT:    -4.807      1.023      2.287
REMARK INTER + INTRA:         -11.642
REMARK INTER:                  -9.329
REMARK INTRA:                  -2.314
REMARK UNBOUND:                -2.339
REMARK SMILES CCCCCCCCCCCCCCCCCC(=O)[O-]
REMARK SMILES IDX 10 1 11 2 12 3 13 4 14 5 15 6 16 7 17 8 18 9 19 10 20 11
REMARK SMILES IDX 9 12 8 13 7 14 6 15 5 16 4 17 3 18 2 19 1 20
REMARK H PARENT
REMARK Flexibility Score: inf
ROOT
ATOM      1  C   UNL     1      60.548  28.789  12.405  1.00  0.00     0.000 C 
ENDROOT
BRANCH   1   2
ATOM      2  C   UNL     1      61.018  30.078  13.114  1.00  0.00     0.000 C 
BRANCH   2   3
ATOM      3  C   UNL     1      60.816  31.355  12.275  1.00  0.00     0.000 C 
BRANCH   3   4
ATOM      4  C   UNL     1      60.848  32.668  13.077  1.00  0.00     0.000 C 
BRANCH   4   5
ATOM      5  C   UNL     1      60.705  32.500  14.602  1.00  0.00     0.000 C 
BRANCH   5   6
ATOM      6  C   UNL     1      61.180  33.727  15.409  1.00  0.00     0.000 C 
BRANCH   6   7
ATOM      7  C   UNL     1      62.067  33.335  16.601  1.00  0.00     0.006 C 
BRANCH   7   8
ATOM      8  C   UNL     1      62.330  34.539  17.510  1.00  0.00     0.053 C 
BRANCH   8   9
ATOM      9  C   UNL     1      62.171  34.155  18.947  1.00  0.00     0.041 C 
ATOM     10  O   UNL     1      61.040  33.828  19.394  1.00  0.00    -0.550 OA
ATOM     11  O   UNL     1      63.281  34.110  19.781  1.00  0.00    -0.550 OA
ENDBRANCH   8   9
ENDBRANCH   7   8
ENDBRANCH   6   7
ENDBRANCH   5   6
ENDBRANCH   4   5
ENDBRANCH   3   4
ENDBRANCH   2   3
ENDBRANCH   1   2
BRANCH   1  12
ATOM     12  C   UNL     1      60.195  29.032  10.927  1.00  0.00     0.000 C 
BRANCH  12  13
ATOM     13  C   UNL     1      61.198  28.373   9.966  1.00  0.00    -0.000 C 
BRANCH  13  14
ATOM     14  C   UNL     1      62.132  29.395   9.295  1.00  0.00    -0.000 C 
BRANCH  14  15
ATOM     15  C   UNL     1      63.568  29.329   9.837  1.00  0.00    -0.000 C 
BRANCH  15  16
ATOM     16  C   UNL     1      64.128  30.714  10.196  1.00  0.00    -0.000 C 
BRANCH  16  17
ATOM     17  C   UNL     1      64.299  30.860  11.715  1.00  0.00    -0.000 C 
BRANCH  17  18
ATOM     18  C   UNL     1      64.510  32.319  12.151  1.00  0.00    -0.000 C 
BRANCH  18  19
ATOM     19  C   UNL     1      64.527  32.484  13.677  1.00  0.00    -0.003 C 
ATOM     20  C   UNL     1      64.765  33.939  14.069  1.00  0.00     0.004 C 
ENDBRANCH  18  19
ENDBRANCH  17  18
ENDBRANCH  16  17
ENDBRANCH  15  16
ENDBRANCH  14  15
ENDBRANCH  13  14
ENDBRANCH  12  13
ENDBRANCH   1  12
TORSDOF 16
ENDMDL
MODEL 4
REMARK VINA RESULT:    -4.797      3.352      6.403
REMARK INTER + INTRA:         -11.622
REMARK INTER:                  -9.261
REMARK INTRA:                  -2.361
REMARK UNBOUND:                -2.339
REMARK SMILES CCCCCCCCCCCCCCCCCC(=O)[O-]
REMARK SMILES IDX 10 1 11 2 12 3 13 4 14 5 15 6 16 7 17 8 18 9 19 10 20 11
REMARK SMILES IDX 9 12 8 13 7 14 6 15 5 16 4 17 3 18 2 19 1 20
REMARK H PARENT
REMARK Flexibility Score: inf
ROOT
ATOM      1  C   UNL     1      59.676  29.021  12.355  1.00  0.00     0.000 C 
ENDROOT
BRANCH   1   2
ATOM      2  C   UNL     1      60.191  29.774  11.110  1.00  0.00     0.000 C 
BRANCH   2   3
ATOM      3  C   UNL     1      60.140  28.939   9.815  1.00  0.00     0.000 C 
BRANCH   3   4
ATOM      4  C   UNL     1      61.513  28.542   9.247  1.00  0.00     0.000 C 
BRANCH   4   5
ATOM      5  C   UNL     1      62.582  29.650   9.299  1.00  0.00     0.000 C 
BRANCH   5   6
ATOM      6  C   UNL     1      64.028  29.116   9.370  1.00  0.00     0.000 C 
BRANCH   6   7
ATOM      7  C   UNL     1      65.068  30.193   9.021  1.00  0.00     0.006 C 
BRANCH   7   8
ATOM      8  C   UNL     1      64.595  31.579   9.469  1.00  0.00     0.053 C 
BRANCH   8   9
ATOM      9  C   UNL     1      65.747  32.386   9.979  1.00  0.00     0.041 C 
ATOM     10  O   UNL     1      66.801  32.487   9.297  1.00  0.00    -0.550 OA
ATOM     11  O   UNL     1      65.639  33.067  11.185  1.00  0.00    -0.550 OA
ENDBRANCH   8   9
ENDBRANCH   7   8
ENDBRANCH   6   7
ENDBRANCH   5   6
ENDBRANCH   4   5
ENDBRANCH   3   4
ENDBRANCH   2   3
ENDBRANCH   1   2
BRANCH   1  12
ATOM     12  C   UNL     1      60.803  28.273  13.091  1.00  0.00     0.000 C 
BRANCH  12  13
ATOM     13  C   UNL     1      61.863  29.225  13.668  1.00  0.00    -0.000 C 
BRANCH  13  14
ATOM     14  C   UNL     1      63.210  29.123  12.931  1.00  0.00    -0.000 C 
BRANCH  14  15
ATOM     15  C   UNL     1      64.018  30.429  12.992  1.00  0.00    -0.000 C 
BRANCH  15  16
ATOM     16  C   UNL     1      63.736  31.239  14.267  1.00  0.00    -0.000 C 
BRANCH  16  17
ATOM     17  C   UNL     1      63.376  32.692  13.925  1.00  0.00    -0.000 C 
BRANCH  17  18
ATOM     18  C   UNL     1      62.363  33.299  14.909  1.00  0.00    -0.000 C 
BRANCH  18  19
ATOM     19  C   UNL     1      60.918  33.212  14.398  1.00  0.00    -0.003 C 
ATOM     20  C   UNL     1      60.881  32.845  12.918  1.00  0.00     0.004 C 
ENDBRANCH  18  19
ENDBRANCH  17  18
ENDBRANCH  16  17
ENDBRANCH  15  16
ENDBRANCH  14  15
ENDBRANCH  13  14
ENDBRANCH  12  13
ENDBRANCH   1  12
TORSDOF 16
ENDMDL
MODEL 5
REMARK VINA RESULT:    -4.793      2.197      2.868
REMARK INTER + INTRA:         -11.615
REMARK INTER:                  -9.100
REMARK INTRA:                  -2.515
REMARK UNBOUND:                -2.339
REMARK SMILES CCCCCCCCCCCCCCCCCC(=O)[O-]
REMARK SMILES IDX 10 1 11 2 12 3 13 4 14 5 15 6 16 7 17 8 18 9 19 10 20 11
REMARK SMILES IDX 9 12 8 13 7 14 6 15 5 16 4 17 3 18 2 19 1 20
REMARK H PARENT
REMARK Flexibility Score: inf
ROOT
ATOM      1  C   UNL     1      61.457  28.959  13.373  1.00  0.00     0.000 C 
ENDROOT
BRANCH   1   2
ATOM      2  C   UNL     1      62.540  29.855  12.733  1.00  0.00     0.000 C 
BRANCH   2   3
ATOM      3  C   UNL     1      63.912  29.761  13.429  1.00  0.00     0.000 C 
BRANCH   3   4
ATOM      4  C   UNL     1      64.236  30.926  14.381  1.00  0.00     0.000 C 
BRANCH   4   5
ATOM      5  C   UNL     1      64.718  32.215  13.687  1.00  0.00     0.000 C 
BRANCH   5   6
ATOM      6  C   UNL     1      63.779  33.421  13.895  1.00  0.00     0.000 C 
BRANCH   6   7
ATOM      7  C   UNL     1      62.848  33.237  15.103  1.00  0.00     0.006 C 
BRANCH   7   8
ATOM      8  C   UNL     1      61.386  33.470  14.711  1.00  0.00     0.053 C 
BRANCH   8   9
ATOM      9  C   UNL     1      60.578  32.233  14.945  1.00  0.00     0.041 C 
ATOM     10  O   UNL     1      59.610  31.956  14.188  1.00  0.00    -0.550 OA
ATOM     11  O   UNL     1      60.924  31.359  15.969  1.00  0.00    -0.550 OA
ENDBRANCH   8   9
ENDBRANCH   7   8
ENDBRANCH   6   7
ENDBRANCH   5   6
ENDBRANCH   4   5
ENDBRANCH   3   4
ENDBRANCH   2   3
ENDBRANCH   1   2
BRANCH   1  12
ATOM     12  C   UNL     1      60.241  28.764  12.450  1.00  0.00     0.000 C 
BRANCH  12  13
ATOM     13  C   UNL     1      60.308  29.645  11.192  1.00  0.00    -0.000 C 
BRANCH  13  14
ATOM     14  C   UNL     1      60.005  28.859   9.905  1.00  0.00    -0.000 C 
BRANCH  14  15
ATOM     15  C   UNL     1      61.278  28.446   9.151  1.00  0.00    -0.000 C 
BRANCH  15  16
ATOM     16  C   UNL     1      62.310  29.582   9.067  1.00  0.00    -0.000 C 
BRANCH  16  17
ATOM     17  C   UNL     1      63.732  29.049   9.295  1.00  0.00    -0.000 C 
BRANCH  17  18
ATOM     18  C   UNL     1      64.804  30.141   9.159  1.00  0.00    -0.000 C 
BRANCH  18  19
ATOM     19  C   UNL     1      64.507  31.374  10.025  1.00  0.00    -0.003 C 
ATOM     20  C   UNL     1      65.686  32.342  10.024  1.00  0.00     0.004 C 
ENDBRANCH  18  19
ENDBRANCH  17  18
ENDBRANCH  16  17
ENDBRANCH  15  16
ENDBRANCH  14  15
ENDBRANCH  13  14
ENDBRANCH  12  13
ENDBRANCH   1  12
TORSDOF 16
ENDMDL
MODEL 6
REMARK VINA RESULT:    -4.749      3.807      6.659
REMARK INTER + INTRA:         -11.530
REMARK INTER:                  -9.123
REMARK INTRA:                  -2.407
REMARK UNBOUND:                -2.339
REMARK SMILES CCCCCCCCCCCCCCCCCC(=O)[O-]
REMARK SMILES IDX 10 1 11 2 12 3 13 4 14 5 15 6 16 7 17 8 18 9 19 10 20 11
REMARK SMILES IDX 9 12 8 13 7 14 6 15 5 16 4 17 3 18 2 19 1 20
REMARK H PARENT
REMARK Flexibility Score: inf
ROOT
ATOM      1  C   UNL     1      64.095  29.676  13.539  1.00  0.00     0.000 C 
ENDROOT
BRANCH   1   2
ATOM      2  C   UNL     1      64.053  31.107  14.117  1.00  0.00     0.000 C 
BRANCH   2   3
ATOM      3  C   UNL     1      64.733  32.158  13.219  1.00  0.00     0.000 C 
BRANCH   3   4
ATOM      4  C   UNL     1      64.088  32.342  11.834  1.00  0.00     0.000 C 
BRANCH   4   5
ATOM      5  C   UNL     1      65.067  32.267  10.647  1.00  0.00     0.000 C 
BRANCH   5   6
ATOM      6  C   UNL     1      64.625  31.291   9.537  1.00  0.00     0.000 C 
BRANCH   6   7
ATOM      7  C   UNL     1      63.962  30.025  10.101  1.00  0.00     0.006 C 
BRANCH   7   8
ATOM      8  C   UNL     1      63.260  29.232   8.995  1.00  0.00     0.053 C 
BRANCH   8   9
ATOM      9  C   UNL     1      61.815  29.034   9.328  1.00  0.00     0.041 C 
ATOM     10  O   UNL     1      61.267  27.918   9.130  1.00  0.00    -0.550 OA
ATOM     11  O   UNL     1      61.087  30.067   9.904  1.00  0.00    -0.550 OA
ENDBRANCH   8   9
ENDBRANCH   7   8
ENDBRANCH   6   7
ENDBRANCH   5   6
ENDBRANCH   4   5
ENDBRANCH   3   4
ENDBRANCH   2   3
ENDBRANCH   1   2
BRANCH   1  12
ATOM     12  C   UNL     1      62.687  29.083  13.346  1.00  0.00     0.000 C 
BRANCH  12  13
ATOM     13  C   UNL     1      61.613  29.847  14.135  1.00  0.00    -0.000 C 
BRANCH  13  14
ATOM     14  C   UNL     1      60.645  30.618  13.221  1.00  0.00    -0.000 C 
BRANCH  14  15
ATOM     15  C   UNL     1      60.076  31.878  13.890  1.00  0.00    -0.000 C 
BRANCH  15  16
ATOM     16  C   UNL     1      60.984  33.104  13.710  1.00  0.00    -0.000 C 
BRANCH  16  17
ATOM     17  C   UNL     1      61.117  33.887  15.024  1.00  0.00    -0.000 C 
BRANCH  17  18
ATOM     18  C   UNL     1      61.677  33.030  16.171  1.00  0.00    -0.000 C 
BRANCH  18  19
ATOM     19  C   UNL     1      62.713  33.781  17.019  1.00  0.00    -0.003 C 
ATOM     20  C   UNL     1      63.855  34.304  16.152  1.00  0.00     0.004 C 
ENDBRANCH  18  19
ENDBRANCH  17  18
ENDBRANCH  16  17
ENDBRANCH  15  16
ENDBRANCH  14  15
ENDBRANCH  13  14
ENDBRANCH  12  13
ENDBRANCH   1  12
TORSDOF 16
ENDMDL
MODEL 7
REMARK VINA RESULT:    -4.746      3.034      6.568
REMARK INTER + INTRA:         -11.525
REMARK INTER:                  -9.050
REMARK INTRA:                  -2.475
REMARK UNBOUND:                -2.339
REMARK SMILES CCCCCCCCCCCCCCCCCC(=O)[O-]
REMARK SMILES IDX 10 1 11 2 12 3 13 4 14 5 15 6 16 7 17 8 18 9 19 10 20 11
REMARK SMILES IDX 9 12 8 13 7 14 6 15 5 16 4 17 3 18 2 19 1 20
REMARK H PARENT
REMARK Flexibility Score: inf
ROOT
ATOM      1  C   UNL     1      64.587  32.730  12.213  1.00  0.00     0.000 C 
ENDROOT
BRANCH   1   2
ATOM      2  C   UNL     1      65.029  32.558  10.743  1.00  0.00     0.000 C 
BRANCH   2   3
ATOM      3  C   UNL     1      65.490  31.128  10.398  1.00  0.00     0.000 C 
BRANCH   3   4
ATOM      4  C   UNL     1      64.919  30.562   9.087  1.00  0.00     0.000 C 
BRANCH   4   5
ATOM      5  C   UNL     1      63.976  29.356   9.258  1.00  0.00     0.000 C 
BRANCH   5   6
ATOM      6  C   UNL     1      62.550  29.740   9.705  1.00  0.00     0.000 C 
BRANCH   6   7
ATOM      7  C   UNL     1      62.098  28.963  10.952  1.00  0.00     0.006 C 
BRANCH   7   8
ATOM      8  C   UNL     1      60.587  29.092  11.162  1.00  0.00     0.053 C 
BRANCH   8   9
ATOM      9  C   UNL     1      60.191  28.514  12.484  1.00  0.00     0.041 C 
ATOM     10  O   UNL     1      61.041  28.404  13.407  1.00  0.00    -0.550 OA
ATOM     11  O   UNL     1      58.872  28.144  12.715  1.00  0.00    -0.550 OA
ENDBRANCH   8   9
ENDBRANCH   7   8
ENDBRANCH   6   7
ENDBRANCH   5   6
ENDBRANCH   4   5
ENDBRANCH   3   4
ENDBRANCH   2   3
ENDBRANCH   1   2
BRANCH   1  12
ATOM     12  C   UNL     1      64.308  31.381  12.900  1.00  0.00     0.000 C 
BRANCH  12  13
ATOM     13  C   UNL     1      62.886  31.296  13.478  1.00  0.00    -0.000 C 
BRANCH  13  14
ATOM     14  C   UNL     1      61.914  32.277  12.799  1.00  0.00    -0.000 C 
BRANCH  14  15
ATOM     15  C   UNL     1      60.506  32.231  13.410  1.00  0.00    -0.000 C 
BRANCH  15  16
ATOM     16  C   UNL     1      60.503  32.550  14.914  1.00  0.00    -0.000 C 
BRANCH  16  17
ATOM     17  C   UNL     1      61.200  33.890  15.191  1.00  0.00    -0.000 C 
BRANCH  17  18
ATOM     18  C   UNL     1      61.605  34.054  16.665  1.00  0.00    -0.000 C 
BRANCH  18  19
ATOM     19  C   UNL     1      63.112  33.870  16.888  1.00  0.00    -0.003 C 
ATOM     20  C   UNL     1      63.888  34.084  15.592  1.00  0.00     0.004 C 
ENDBRANCH  18  19
ENDBRANCH  17  18
ENDBRANCH  16  17
ENDBRANCH  15  16
ENDBRANCH  14  15
ENDBRANCH  13  14
ENDBRANCH  12  13
ENDBRANCH   1  12
TORSDOF 16
ENDMDL
MODEL 8
REMARK VINA RESULT:    -4.736      3.094      6.414
REMARK INTER + INTRA:         -11.504
REMARK INTER:                  -8.740
REMARK INTRA:                  -2.764
REMARK UNBOUND:                -2.339
REMARK SMILES CCCCCCCCCCCCCCCCCC(=O)[O-]
REMARK SMILES IDX 10 1 11 2 12 3 13 4 14 5 15 6 16 7 17 8 18 9 19 10 20 11
REMARK SMILES IDX 9 12 8 13 7 14 6 15 5 16 4 17 3 18 2 19 1 20
REMARK H PARENT
REMARK Flexibility Score: inf
ROOT
ATOM      1  C   UNL     1      62.422  32.284  12.480  1.00  0.00     0.000 C 
ENDROOT
BRANCH   1   2
ATOM      2  C   UNL     1      63.116  31.078  13.149  1.00  0.00     0.000 C 
BRANCH   2   3
ATOM      3  C   UNL     1      64.343  30.560  12.374  1.00  0.00     0.000 C 
BRANCH   3   4
ATOM      4  C   UNL     1      64.279  30.764  10.850  1.00  0.00     0.000 C 
BRANCH   4   5
ATOM      5  C   UNL     1      63.691  29.578  10.061  1.00  0.00     0.000 C 
BRANCH   5   6
ATOM      6  C   UNL     1      62.171  29.686   9.820  1.00  0.00     0.000 C 
BRANCH   6   7
ATOM      7  C   UNL     1      61.383  28.585  10.547  1.00  0.00     0.006 C 
BRANCH   7   8
ATOM      8  C   UNL     1      60.137  29.159  11.227  1.00  0.00     0.053 C 
BRANCH   8   9
ATOM      9  C   UNL     1      59.932  28.524  12.566  1.00  0.00     0.041 C 
ATOM     10  O   UNL     1      60.862  28.521  13.414  1.00  0.00    -0.550 OA
ATOM     11  O   UNL     1      58.697  27.979  12.896  1.00  0.00    -0.550 OA
ENDBRANCH   8   9
ENDBRANCH   7   8
ENDBRANCH   6   7
ENDBRANCH   5   6
ENDBRANCH   4   5
ENDBRANCH   3   4
ENDBRANCH   2   3
ENDBRANCH   1   2
BRANCH   1  12
ATOM     12  C   UNL     1      60.940  32.401  12.879  1.00  0.00     0.000 C 
BRANCH  12  13
ATOM     13  C   UNL     1      60.748  32.532  14.399  1.00  0.00    -0.000 C 
BRANCH  13  14
ATOM     14  C   UNL     1      61.038  33.954  14.909  1.00  0.00    -0.000 C 
BRANCH  14  15
ATOM     15  C   UNL     1      61.775  33.960  16.257  1.00  0.00    -0.000 C 
BRANCH  15  16
ATOM     16  C   UNL     1      62.967  32.990  16.283  1.00  0.00    -0.000 C 
BRANCH  16  17
ATOM     17  C   UNL     1      64.298  33.756  16.280  1.00  0.00    -0.000 C 
BRANCH  17  18
ATOM     18  C   UNL     1      65.246  33.295  15.162  1.00  0.00    -0.000 C 
BRANCH  18  19
ATOM     19  C   UNL     1      65.195  34.210  13.929  1.00  0.00    -0.003 C 
ATOM     20  C   UNL     1      66.208  33.769  12.878  1.00  0.00     0.004 C 
ENDBRANCH  18  19
ENDBRANCH  17  18
ENDBRANCH  16  17
ENDBRANCH  15  16
ENDBRANCH  14  15
ENDBRANCH  13  14
ENDBRANCH  12  13
ENDBRANCH   1  12
TORSDOF 16
ENDMDL
MODEL 9
REMARK VINA RESULT:    -4.682      1.432      3.514
REMARK INTER + INTRA:         -11.400
REMARK INTER:                  -8.674
REMARK INTRA:                  -2.726
REMARK UNBOUND:                -2.339
REMARK SMILES CCCCCCCCCCCCCCCCCC(=O)[O-]
REMARK SMILES IDX 10 1 11 2 12 3 13 4 14 5 15 6 16 7 17 8 18 9 19 10 20 11
REMARK SMILES IDX 9 12 8 13 7 14 6 15 5 16 4 17 3 18 2 19 1 20
REMARK H PARENT
REMARK Flexibility Score: inf
ROOT
ATOM      1  C   UNL     1      63.746  29.376   9.964  1.00  0.00     0.000 C 
ENDROOT
BRANCH   1   2
ATOM      2  C   UNL     1      63.807  30.903  10.187  1.00  0.00     0.000 C 
BRANCH   2   3
ATOM      3  C   UNL     1      64.392  31.306  11.555  1.00  0.00     0.000 C 
BRANCH   3   4
ATOM      4  C   UNL     1      65.354  32.506  11.520  1.00  0.00     0.000 C 
BRANCH   4   5
ATOM      5  C   UNL     1      65.170  33.518  12.667  1.00  0.00     0.000 C 
BRANCH   5   6
ATOM      6  C   UNL     1      64.634  32.890  13.971  1.00  0.00     0.000 C 
BRANCH   6   7
ATOM      7  C   UNL     1      64.274  33.947  15.026  1.00  0.00     0.006 C 
BRANCH   7   8
ATOM      8  C   UNL     1      63.606  33.303  16.244  1.00  0.00     0.053 C 
BRANCH   8   9
ATOM      9  C   UNL     1      62.572  34.218  16.819  1.00  0.00     0.041 C 
ATOM     10  O   UNL     1      62.859  34.969  17.788  1.00  0.00    -0.550 OA
ATOM     11  O   UNL     1      61.305  34.280  16.252  1.00  0.00    -0.550 OA
ENDBRANCH   8   9
ENDBRANCH   7   8
ENDBRANCH   6   7
ENDBRANCH   5   6
ENDBRANCH   4   5
ENDBRANCH   3   4
ENDBRANCH   2   3
ENDBRANCH   1   2
BRANCH   1  12
ATOM     12  C   UNL     1      62.338  28.901   9.563  1.00  0.00     0.000 C 
BRANCH  12  13
ATOM     13  C   UNL     1      61.308  30.042   9.563  1.00  0.00    -0.000 C 
BRANCH  13  14
ATOM     14  C   UNL     1      60.279  29.908  10.699  1.00  0.00    -0.000 C 
BRANCH  14  15
ATOM     15  C   UNL     1      60.478  28.631  11.530  1.00  0.00    -0.000 C 
BRANCH  15  16
ATOM     16  C   UNL     1      60.505  28.907  13.041  1.00  0.00    -0.000 C 
BRANCH  16  17
ATOM     17  C   UNL     1      61.844  29.531  13.461  1.00  0.00    -0.000 C 
BRANCH  17  18
ATOM     18  C   UNL     1      61.671  30.721  14.418  1.00  0.00    -0.000 C 
BRANCH  18  19
ATOM     19  C   UNL     1      60.581  31.698  13.955  1.00  0.00    -0.003 C 
ATOM     20  C   UNL     1      61.134  32.694  12.940  1.00  0.00     0.004 C 
ENDBRANCH  18  19
ENDBRANCH  17  18
ENDBRANCH  16  17
ENDBRANCH  15  16
ENDBRANCH  14  15
ENDBRANCH  13  14
ENDBRANCH  12  13
ENDBRANCH   1  12
TORSDOF 16
ENDMDL
