MODEL 1
REMARK VINA RESULT:     2.347      0.000      0.000
REMARK INTER + INTRA:           3.348
REMARK INTER:                   3.719
REMARK INTRA:                  -0.371
REMARK UNBOUND:                -0.371
REMARK SMILES CCCCCCCCCCCC(=O)[O-]
REMARK SMILES IDX 7 1 8 2 9 3 10 4 11 5 12 6 13 7 14 8 6 9 5 10 4 11 3 12 2 13
REMARK SMILES IDX 1 14
REMARK H PARENT
REMARK Flexibility Score: inf
ROOT
ATOM      1  C   UNL     1      10.746  -2.396 -16.685  1.00  0.00     0.000 C 
ENDROOT
BRANCH   1   2
ATOM      2  C   UNL     1      11.120  -3.874 -16.492  1.00  0.00     0.000 C 
BRANCH   2   3
ATOM      3  C   UNL     1      11.278  -4.622 -17.825  1.00  0.00     0.000 C 
BRANCH   3   4
ATOM      4  C   UNL     1      12.177  -5.864 -17.704  1.00  0.00     0.006 C 
BRANCH   4   5
ATOM      5  C   UNL     1      12.993  -6.116 -18.980  1.00  0.00     0.053 C 
BRANCH   5   6
ATOM      6  C   UNL     1      14.400  -6.524 -18.668  1.00  0.00     0.041 C 
ATOM      7  O   UNL     1      15.351  -6.119 -19.386  1.00  0.00    -0.550 OA
ATOM      8  O   UNL     1      14.665  -7.324 -17.563  1.00  0.00    -0.550 OA
ENDBRANCH   5   6
ENDBRANCH   4   5
ENDBRANCH   3   4
ENDBRANCH   2   3
ENDBRANCH   1   2
BRANCH   1   9
ATOM      9  C   UNL     1      11.849  -1.476 -16.139  1.00  0.00     0.000 C 
BRANCH   9  10
ATOM     10  C   UNL     1      12.300  -0.415 -17.159  1.00  0.00    -0.000 C 
BRANCH  10  11
ATOM     11  C   UNL     1      12.626   0.968 -16.559  1.00  0.00    -0.000 C 
BRANCH  11  12
ATOM     12  C   UNL     1      13.709   1.768 -17.308  1.00  0.00    -0.000 C 
BRANCH  12  13
ATOM     13  C   UNL     1      14.050   1.239 -18.711  1.00  0.00    -0.003 C 
ATOM     14  C   UNL     1      15.385   0.497 -18.760  1.00  0.00     0.004 C 
ENDBRANCH  12  13
ENDBRANCH  11  12
ENDBRANCH  10  11
ENDBRANCH   9  10
ENDBRANCH   1   9
TORSDOF 10
ENDMDL
MODEL 2
REMARK VINA RESULT:     2.824      2.793      6.462
REMARK INTER + INTRA:           4.103
REMARK INTER:                   4.393
REMARK INTRA:                  -0.289
REMARK UNBOUND:                -0.371
REMARK SMILES CCCCCCCCCCCC(=O)[O-]
REMARK SMILES IDX 7 1 8 2 9 3 10 4 11 5 12 6 13 7 14 8 6 9 5 10 4 11 3 12 2 13
REMARK SMILES IDX 1 14
REMARK H PARENT
REMARK Flexibility Score: inf
ROOT
ATOM      1  C   UNL     1      10.737  -2.316 -16.717  1.00  0.00     0.000 C 
ENDROOT
BRANCH   1   2
ATOM      2  C   UNL     1      11.725  -1.325 -16.081  1.00  0.00     0.000 C 
BRANCH   2   3
ATOM      3  C   UNL     1      12.405  -0.419 -17.119  1.00  0.00     0.000 C 
BRANCH   3   4
ATOM      4  C   UNL     1      12.545   1.034 -16.635  1.00  0.00     0.006 C 
BRANCH   4   5
ATOM      5  C   UNL     1      13.875   1.665 -17.072  1.00  0.00     0.053 C 
BRANCH   5   6
ATOM      6  C   UNL     1      14.253   1.258 -18.462  1.00  0.00     0.041 C 
ATOM      7  O   UNL     1      13.715   1.817 -19.454  1.00  0.00    -0.550 OA
ATOM      8  O   UNL     1      15.225   0.286 -18.665  1.00  0.00    -0.550 OA
ENDBRANCH   5   6
ENDBRANCH   4   5
ENDBRANCH   3   4
ENDBRANCH   2   3
ENDBRANCH   1   2
BRANCH   1   9
ATOM      9  C   UNL     1      11.154  -3.766 -16.429  1.00  0.00     0.000 C 
BRANCH   9  10
ATOM     10  C   UNL     1      11.219  -4.632 -17.700  1.00  0.00    -0.000 C 
BRANCH  10  11
ATOM     11  C   UNL     1      12.252  -5.777 -17.656  1.00  0.00    -0.000 C 
BRANCH  11  12
ATOM     12  C   UNL     1      12.926  -6.104 -19.002  1.00  0.00    -0.000 C 
BRANCH  12  13
ATOM     13  C   UNL     1      14.447  -6.322 -18.927  1.00  0.00    -0.003 C 
ATOM     14  C   UNL     1      14.841  -7.434 -17.955  1.00  0.00     0.004 C 
ENDBRANCH  12  13
ENDBRANCH  11  12
ENDBRANCH  10  11
ENDBRANCH   9  10
ENDBRANCH   1   9
TORSDOF 10
ENDMDL
MODEL 3
REMARK VINA RESULT:     4.871      1.069      1.961
REMARK INTER + INTRA:           7.348
REMARK INTER:                   7.505
REMARK INTRA:                  -0.157
REMARK UNBOUND:                -0.371
REMARK SMILES CCCCCCCCCCCC(=O)[O-]
REMARK SMILES IDX 7 1 8 2 9 3 10 4 11 5 12 6 13 7 14 8 6 9 5 10 4 11 3 12 2 13
REMARK SMILES IDX 1 14
REMARK H PARENT
REMARK Flexibility Score: inf
ROOT
ATOM      1  C   UNL     1      10.810  -4.637 -16.844  1.00  0.00     0.000 C 
ENDROOT
BRANCH   1   2
ATOM      2  C   UNL     1      11.677  -4.720 -18.109  1.00  0.00     0.000 C 
BRANCH   2   3
ATOM      3  C   UNL     1      12.606  -5.945 -18.110  1.00  0.00     0.000 C 
BRANCH   3   4
ATOM      4  C   UNL     1      13.591  -5.941 -19.291  1.00  0.00     0.006 C 
BRANCH   4   5
ATOM      5  C   UNL     1      14.986  -6.436 -18.885  1.00  0.00     0.053 C 
BRANCH   5   6
ATOM      6  C   UNL     1      14.913  -7.506 -17.840  1.00  0.00     0.041 C 
ATOM      7  O   UNL     1      14.917  -8.720 -18.175  1.00  0.00    -0.550 OA
ATOM      8  O   UNL     1      14.876  -7.164 -16.493  1.00  0.00    -0.550 OA
ENDBRANCH   5   6
ENDBRANCH   4   5
ENDBRANCH   3   4
ENDBRANCH   2   3
ENDBRANCH   1   2
BRANCH   1   9
ATOM      9  C   UNL     1      11.188  -3.410 -16.001  1.00  0.00     0.000 C 
BRANCH   9  10
ATOM     10  C   UNL     1      11.076  -2.090 -16.783  1.00  0.00    -0.000 C 
BRANCH  10  11
ATOM     11  C   UNL     1      12.208  -1.077 -16.519  1.00  0.00    -0.000 C 
BRANCH  11  12
ATOM     12  C   UNL     1      12.217   0.154 -17.446  1.00  0.00    -0.000 C 
BRANCH  12  13
ATOM     13  C   UNL     1      13.429   1.085 -17.272  1.00  0.00    -0.003 C 
ATOM     14  C   UNL     1      14.535   0.820 -18.294  1.00  0.00     0.004 C 
ENDBRANCH  12  13
ENDBRANCH  11  12
ENDBRANCH  10  11
ENDBRANCH   9  10
ENDBRANCH   1   9
TORSDOF 10
ENDMDL
