MODEL 1
REMARK VINA RESULT:     0.893      0.000      0.000
REMARK INTER + INTRA:           1.253
REMARK INTER:                   0.972
REMARK INTRA:                   0.281
REMARK UNBOUND:                 0.281
REMARK SMILES C[C@@H]1[C@H](C)CC[C@]2(C(=O)[O-])CC[C@@]3(C)C(=CC[C@H]4[C@@]5(C)CC[C@H](O)C(C)(C)[C@H]5CC[C@@]43C)[C@@H]12
REMARK SMILES IDX 7 1 6 2 11 3 33 4 5 5 12 6 15 7 2 8 3 9 13 10 16 11 1 12
REMARK SMILES IDX 4 13 14 14 31 15 17 16 18 17 30 18 32 19 19 20 29 21 28 22
REMARK SMILES IDX 21 23 20 24 25 25 22 26 23 27 26 28 27 29 8 30 9 31 10 32
REMARK SMILES IDX 24 33
REMARK H PARENT 24 34
REMARK Flexibility Score: inf
ROOT
ATOM      1  C   UNL     1       8.176  27.782  25.258  1.00  0.00     0.017 C 
ATOM      2  C   UNL     1       9.209  26.739  24.703  1.00  0.00     0.014 C 
ATOM      3  C   UNL     1       8.632  28.201  26.704  1.00  0.00     0.014 C 
ATOM      4  C   UNL     1       6.758  27.110  25.268  1.00  0.00     0.030 C 
ATOM      5  C   UNL     1       8.721  25.873  23.521  1.00  0.00     0.004 C 
ATOM      6  C   UNL     1       7.560  28.047  27.798  1.00  0.00     0.013 C 
ATOM      7  C   UNL     1       5.720  27.937  26.073  1.00  0.00    -0.063 C 
ATOM      8  C   UNL     1       6.297  26.618  23.836  1.00  0.00    -0.003 C 
ATOM      9  C   UNL     1       7.480  26.448  22.830  1.00  0.00    -0.011 C 
ATOM     10  C   UNL     1       6.148  28.589  27.400  1.00  0.00    -0.006 C 
ATOM     11  C   UNL     1       4.406  27.954  25.727  1.00  0.00    -0.027 C 
ATOM     12  C   UNL     1       5.461  25.319  23.974  1.00  0.00     0.008 C 
ATOM     13  C   UNL     1       7.124  25.629  21.578  1.00  0.00     0.008 C 
ATOM     14  C   UNL     1       6.290  30.125  27.133  1.00  0.00     0.017 C 
ATOM     15  C   UNL     1       5.053  28.265  28.540  1.00  0.00    -0.020 C 
ATOM     16  C   UNL     1       3.275  28.103  26.711  1.00  0.00     0.032 C 
ATOM     17  C   UNL     1       3.650  28.758  28.064  1.00  0.00     0.006 C 
ATOM     18  C   UNL     1       5.358  29.028  29.855  1.00  0.00     0.008 C 
ATOM     19  C   UNL     1       5.023  26.725  28.809  1.00  0.00     0.012 C 
ATOM     20  C   UNL     1       2.441  28.822  29.137  1.00  0.00    -0.025 C 
ATOM     21  C   UNL     1       4.408  28.637  30.973  1.00  0.00     0.005 C 
ATOM     22  C   UNL     1       2.909  28.929  30.674  1.00  0.00     0.003 C 
ATOM     23  C   UNL     1       1.431  27.644  28.963  1.00  0.00     0.010 C 
ATOM     24  C   UNL     1       1.650  30.124  28.756  1.00  0.00     0.012 C 
ATOM     25  C   UNL     1       1.975  28.201  31.750  1.00  0.00    -0.006 C 
ATOM     26  C   UNL     1       0.224  27.655  29.928  1.00  0.00     0.033 C 
ATOM     27  C   UNL     1       0.481  28.260  31.328  1.00  0.00     0.120 C 
ATOM     28  C   UNL     1       2.110  28.919  33.123  1.00  0.00     0.014 C 
ATOM     29  C   UNL     1       2.347  26.705  32.001  1.00  0.00     0.014 C 
ENDROOT
BRANCH   1  30
ATOM     30  C   UNL     1       8.191  29.034  24.383  1.00  0.00     0.048 C 
ATOM     31  O   UNL     1       9.286  29.563  24.053  1.00  0.00    -0.550 OA
ATOM     32  O   UNL     1       7.009  29.644  23.975  1.00  0.00    -0.550 OA
ENDBRANCH   1  30
BRANCH  27  33
ATOM     33  O   UNL     1       0.003  29.581  31.399  1.00  0.00    -0.393 OA
ATOM     34  H   UNL     1       0.229  30.022  30.539  1.00  0.00     0.210 HD
ENDBRANCH  27  33
TORSDOF 2
ENDMDL
MODEL 2
REMARK VINA RESULT:     1.231      2.052      4.068
REMARK INTER + INTRA:           1.621
REMARK INTER:                   0.749
REMARK INTRA:                   0.872
REMARK UNBOUND:                 0.281
REMARK SMILES C[C@@H]1[C@H](C)CC[C@]2(C(=O)[O-])CC[C@@]3(C)C(=CC[C@H]4[C@@]5(C)CC[C@H](O)C(C)(C)[C@H]5CC[C@@]43C)[C@@H]12
REMARK SMILES IDX 7 1 6 2 11 3 33 4 5 5 12 6 15 7 2 8 3 9 13 10 16 11 1 12
REMARK SMILES IDX 4 13 14 14 31 15 17 16 18 17 30 18 32 19 19 20 29 21 28 22
REMARK SMILES IDX 21 23 20 24 25 25 22 26 23 27 26 28 27 29 8 30 9 31 10 32
REMARK SMILES IDX 24 33
REMARK H PARENT 24 34
REMARK Flexibility Score: inf
ROOT
ATOM      1  C   UNL     1       8.741  28.476  24.600  1.00  0.00     0.017 C 
ATOM      2  C   UNL     1       9.444  29.516  23.657  1.00  0.00     0.014 C 
ATOM      3  C   UNL     1       7.204  28.472  24.265  1.00  0.00     0.014 C 
ATOM      4  C   UNL     1       9.012  28.900  26.086  1.00  0.00     0.030 C 
ATOM      5  C   UNL     1      10.836  30.004  24.114  1.00  0.00     0.004 C 
ATOM      6  C   UNL     1       6.273  28.699  25.470  1.00  0.00     0.013 C 
ATOM      7  C   UNL     1       8.121  28.124  27.092  1.00  0.00    -0.063 C 
ATOM      8  C   UNL     1      10.554  28.977  26.437  1.00  0.00    -0.003 C 
ATOM      9  C   UNL     1      11.469  29.099  25.176  1.00  0.00    -0.011 C 
ATOM     10  C   UNL     1       6.645  27.865  26.740  1.00  0.00    -0.006 C 
ATOM     11  C   UNL     1       8.560  27.823  28.341  1.00  0.00    -0.027 C 
ATOM     12  C   UNL     1      10.803  30.125  27.448  1.00  0.00     0.008 C 
ATOM     13  C   UNL     1      12.907  29.547  25.489  1.00  0.00     0.008 C 
ATOM     14  C   UNL     1       6.520  26.351  26.363  1.00  0.00     0.017 C 
ATOM     15  C   UNL     1       5.711  28.262  27.995  1.00  0.00    -0.020 C 
ATOM     16  C   UNL     1       7.666  27.724  29.551  1.00  0.00     0.032 C 
ATOM     17  C   UNL     1       6.169  27.460  29.254  1.00  0.00     0.006 C 
ATOM     18  C   UNL     1       4.230  27.874  27.748  1.00  0.00     0.008 C 
ATOM     19  C   UNL     1       5.825  29.798  28.262  1.00  0.00     0.012 C 
ATOM     20  C   UNL     1       5.217  27.450  30.561  1.00  0.00    -0.025 C 
ATOM     21  C   UNL     1       3.322  28.353  28.867  1.00  0.00     0.005 C 
ATOM     22  C   UNL     1       3.666  27.769  30.268  1.00  0.00     0.003 C 
ATOM     23  C   UNL     1       5.752  28.384  31.691  1.00  0.00     0.010 C 
ATOM     24  C   UNL     1       5.336  25.987  31.120  1.00  0.00     0.012 C 
ATOM     25  C   UNL     1       2.879  28.565  31.411  1.00  0.00    -0.006 C 
ATOM     26  C   UNL     1       4.917  28.401  32.992  1.00  0.00     0.033 C 
ATOM     27  C   UNL     1       3.396  28.177  32.823  1.00  0.00     0.120 C 
ATOM     28  C   UNL     1       1.367  28.206  31.344  1.00  0.00     0.014 C 
ATOM     29  C   UNL     1       2.966  30.118  31.274  1.00  0.00     0.014 C 
ENDROOT
BRANCH   1  30
ATOM     30  C   UNL     1       9.284  27.077  24.314  1.00  0.00     0.048 C 
ATOM     31  O   UNL     1       8.684  26.316  23.509  1.00  0.00    -0.550 OA
ATOM     32  O   UNL     1      10.415  26.595  24.966  1.00  0.00    -0.550 OA
ENDBRANCH   1  30
BRANCH  27  33
ATOM     33  O   UNL     1       3.049  26.848  33.125  1.00  0.00    -0.393 OA
ATOM     34  H   UNL     1       3.756  26.264  32.743  1.00  0.00     0.210 HD
ENDBRANCH  27  33
TORSDOF 2
ENDMDL
MODEL 3
REMARK VINA RESULT:     1.524      2.656      4.772
REMARK INTER + INTRA:           1.939
REMARK INTER:                   0.715
REMARK INTRA:                   1.225
REMARK UNBOUND:                 0.281
REMARK SMILES C[C@@H]1[C@H](C)CC[C@]2(C(=O)[O-])CC[C@@]3(C)C(=CC[C@H]4[C@@]5(C)CC[C@H](O)C(C)(C)[C@H]5CC[C@@]43C)[C@@H]12
REMARK SMILES IDX 7 1 6 2 11 3 33 4 5 5 12 6 15 7 2 8 3 9 13 10 16 11 1 12
REMARK SMILES IDX 4 13 14 14 31 15 17 16 18 17 30 18 32 19 19 20 29 21 28 22
REMARK SMILES IDX 21 23 20 24 25 25 22 26 23 27 26 28 27 29 8 30 9 31 10 32
REMARK SMILES IDX 24 33
REMARK H PARENT 24 34
REMARK Flexibility Score: inf
ROOT
ATOM      1  C   UNL     1      10.267  28.342  25.033  1.00  0.00     0.017 C 
ATOM      2  C   UNL     1      11.194  29.357  24.274  1.00  0.00     0.014 C 
ATOM      3  C   UNL     1       8.779  28.627  24.610  1.00  0.00     0.014 C 
ATOM      4  C   UNL     1      10.482  28.541  26.574  1.00  0.00     0.030 C 
ATOM      5  C   UNL     1      12.604  29.556  24.870  1.00  0.00     0.004 C 
ATOM      6  C   UNL     1       7.802  28.861  25.776  1.00  0.00     0.013 C 
ATOM      7  C   UNL     1       9.405  27.808  27.419  1.00  0.00    -0.063 C 
ATOM      8  C   UNL     1      11.985  28.325  27.023  1.00  0.00    -0.003 C 
ATOM      9  C   UNL     1      13.004  28.443  25.844  1.00  0.00    -0.011 C 
ATOM     10  C   UNL     1       7.940  27.835  26.949  1.00  0.00    -0.006 C 
ATOM     11  C   UNL     1       9.693  27.296  28.643  1.00  0.00    -0.027 C 
ATOM     12  C   UNL     1      12.327  29.291  28.185  1.00  0.00     0.008 C 
ATOM     13  C   UNL     1      14.465  28.612  26.296  1.00  0.00     0.008 C 
ATOM     14  C   UNL     1       7.613  26.416  26.376  1.00  0.00     0.017 C 
ATOM     15  C   UNL     1       6.983  28.230  28.187  1.00  0.00    -0.020 C 
ATOM     16  C   UNL     1       8.702  27.203  29.775  1.00  0.00     0.032 C 
ATOM     17  C   UNL     1       7.211  27.222  29.359  1.00  0.00     0.006 C 
ATOM     18  C   UNL     1       5.483  28.119  27.806  1.00  0.00     0.008 C 
ATOM     19  C   UNL     1       7.310  29.685  28.654  1.00  0.00     0.012 C 
ATOM     20  C   UNL     1       6.168  27.215  30.595  1.00  0.00    -0.025 C 
ATOM     21  C   UNL     1       4.575  28.606  28.920  1.00  0.00     0.005 C 
ATOM     22  C   UNL     1       4.713  27.814  30.254  1.00  0.00     0.003 C 
ATOM     23  C   UNL     1       6.751  27.912  31.865  1.00  0.00     0.010 C 
ATOM     24  C   UNL     1       6.017  25.698  30.969  1.00  0.00     0.012 C 
ATOM     25  C   UNL     1       3.970  28.589  31.440  1.00  0.00    -0.006 C 
ATOM     26  C   UNL     1       5.828  27.913  33.105  1.00  0.00     0.033 C 
ATOM     27  C   UNL     1       4.309  27.960  32.820  1.00  0.00     0.120 C 
ATOM     28  C   UNL     1       2.431  28.491  31.238  1.00  0.00     0.014 C 
ATOM     29  C   UNL     1       4.306  30.112  31.507  1.00  0.00     0.014 C 
ENDROOT
BRANCH   1  30
ATOM     30  C   UNL     1      10.609  26.916  24.603  1.00  0.00     0.048 C 
ATOM     31  O   UNL     1       9.741  26.199  24.039  1.00  0.00    -0.550 OA
ATOM     32  O   UNL     1      11.859  26.363  24.868  1.00  0.00    -0.550 OA
ENDBRANCH   1  30
BRANCH  27  33
ATOM     33  O   UNL     1       3.738  26.679  32.928  1.00  0.00    -0.393 OA
ATOM     34  H   UNL     1       3.283  26.633  33.810  1.00  0.00     0.210 HD
ENDBRANCH  27  33
TORSDOF 2
ENDMDL
MODEL 4
REMARK VINA RESULT:     1.878      2.909      8.567
REMARK INTER + INTRA:           2.324
REMARK INTER:                   1.677
REMARK INTRA:                   0.647
REMARK UNBOUND:                 0.281
REMARK SMILES C[C@@H]1[C@H](C)CC[C@]2(C(=O)[O-])CC[C@@]3(C)C(=CC[C@H]4[C@@]5(C)CC[C@H](O)C(C)(C)[C@H]5CC[C@@]43C)[C@@H]12
REMARK SMILES IDX 7 1 6 2 11 3 33 4 5 5 12 6 15 7 2 8 3 9 13 10 16 11 1 12
REMARK SMILES IDX 4 13 14 14 31 15 17 16 18 17 30 18 32 19 19 20 29 21 28 22
REMARK SMILES IDX 21 23 20 24 25 25 22 26 23 27 26 28 27 29 8 30 9 31 10 32
REMARK SMILES IDX 24 33
REMARK H PARENT 24 34
REMARK Flexibility Score: inf
ROOT
ATOM      1  C   UNL     1       5.345  28.717  30.641  1.00  0.00     0.017 C 
ATOM      2  C   UNL     1       4.238  29.752  31.047  1.00  0.00     0.014 C 
ATOM      3  C   UNL     1       6.686  29.128  31.354  1.00  0.00     0.014 C 
ATOM      4  C   UNL     1       5.488  28.740  29.078  1.00  0.00     0.030 C 
ATOM      5  C   UNL     1       2.999  29.808  30.126  1.00  0.00     0.004 C 
ATOM      6  C   UNL     1       7.899  29.291  30.422  1.00  0.00     0.013 C 
ATOM      7  C   UNL     1       6.753  27.984  28.591  1.00  0.00    -0.063 C 
ATOM      8  C   UNL     1       4.138  28.394  28.328  1.00  0.00    -0.003 C 
ATOM      9  C   UNL     1       2.870  28.578  29.222  1.00  0.00    -0.011 C 
ATOM     10  C   UNL     1       8.068  28.141  29.374  1.00  0.00    -0.006 C 
ATOM     11  C   UNL     1       6.772  27.330  27.400  1.00  0.00    -0.027 C 
ATOM     12  C   UNL     1       4.045  29.212  27.014  1.00  0.00     0.008 C 
ATOM     13  C   UNL     1       1.550  28.617  28.434  1.00  0.00     0.008 C 
ATOM     14  C   UNL     1       8.295  26.811  30.167  1.00  0.00     0.017 C 
ATOM     15  C   UNL     1       9.274  28.456  28.350  1.00  0.00    -0.020 C 
ATOM     16  C   UNL     1       8.001  27.174  26.542  1.00  0.00     0.032 C 
ATOM     17  C   UNL     1       9.354  27.320  27.281  1.00  0.00     0.006 C 
ATOM     18  C   UNL     1      10.647  28.470  29.072  1.00  0.00     0.008 C 
ATOM     19  C   UNL     1       9.021  29.834  27.656  1.00  0.00     0.012 C 
ATOM     20  C   UNL     1      10.655  27.240  26.323  1.00  0.00    -0.025 C 
ATOM     21  C   UNL     1      11.774  28.887  28.144  1.00  0.00     0.005 C 
ATOM     22  C   UNL     1      11.973  27.952  26.915  1.00  0.00     0.003 C 
ATOM     23  C   UNL     1      10.363  27.766  24.883  1.00  0.00     0.010 C 
ATOM     24  C   UNL     1      10.935  25.703  26.171  1.00  0.00     0.012 C 
ATOM     25  C   UNL     1      12.947  28.638  25.847  1.00  0.00    -0.006 C 
ATOM     26  C   UNL     1      11.547  27.687  23.893  1.00  0.00     0.033 C 
ATOM     27  C   UNL     1      12.957  27.849  24.509  1.00  0.00     0.120 C 
ATOM     28  C   UNL     1      14.400  28.648  26.403  1.00  0.00     0.014 C 
ATOM     29  C   UNL     1      12.591  30.124  25.530  1.00  0.00     0.014 C 
ENDROOT
BRANCH   1  30
ATOM     30  C   UNL     1       4.956  27.328  31.142  1.00  0.00     0.048 C 
ATOM     31  O   UNL     1       4.049  27.197  32.006  1.00  0.00    -0.550 OA
ATOM     32  O   UNL     1       5.621  26.188  30.700  1.00  0.00    -0.550 OA
ENDBRANCH   1  30
BRANCH  27  33
ATOM     33  O   UNL     1      13.575  26.598  24.681  1.00  0.00    -0.393 OA
ATOM     34  H   UNL     1      12.924  26.009  25.146  1.00  0.00     0.210 HD
ENDBRANCH  27  33
TORSDOF 2
ENDMDL
MODEL 5
REMARK VINA RESULT:     2.008      2.097      8.256
REMARK INTER + INTRA:           2.465
REMARK INTER:                   1.370
REMARK INTRA:                   1.096
REMARK UNBOUND:                 0.281
REMARK SMILES C[C@@H]1[C@H](C)CC[C@]2(C(=O)[O-])CC[C@@]3(C)C(=CC[C@H]4[C@@]5(C)CC[C@H](O)C(C)(C)[C@H]5CC[C@@]43C)[C@@H]12
REMARK SMILES IDX 7 1 6 2 11 3 33 4 5 5 12 6 15 7 2 8 3 9 13 10 16 11 1 12
REMARK SMILES IDX 4 13 14 14 31 15 17 16 18 17 30 18 32 19 19 20 29 21 28 22
REMARK SMILES IDX 21 23 20 24 25 25 22 26 23 27 26 28 27 29 8 30 9 31 10 32
REMARK SMILES IDX 24 33
REMARK H PARENT 24 34
REMARK Flexibility Score: inf
ROOT
ATOM      1  C   UNL     1       2.888  28.142  32.260  1.00  0.00     0.017 C 
ATOM      2  C   UNL     1       2.020  29.123  33.125  1.00  0.00     0.014 C 
ATOM      3  C   UNL     1       4.315  28.045  32.912  1.00  0.00     0.014 C 
ATOM      4  C   UNL     1       2.954  28.707  30.797  1.00  0.00     0.030 C 
ATOM      5  C   UNL     1       0.771  29.708  32.430  1.00  0.00     0.004 C 
ATOM      6  C   UNL     1       5.490  28.338  31.962  1.00  0.00     0.013 C 
ATOM      7  C   UNL     1       4.025  27.986  29.935  1.00  0.00    -0.063 C 
ATOM      8  C   UNL     1       1.527  28.879  30.134  1.00  0.00    -0.003 C 
ATOM      9  C   UNL     1       0.364  28.928  31.177  1.00  0.00    -0.011 C 
ATOM     10  C   UNL     1       5.384  27.635  30.568  1.00  0.00    -0.006 C 
ATOM     11  C   UNL     1       3.860  27.815  28.598  1.00  0.00    -0.027 C 
ATOM     12  C   UNL     1       1.528  30.121  29.207  1.00  0.00     0.008 C 
ATOM     13  C   UNL     1      -0.962  29.461  30.608  1.00  0.00     0.008 C 
ATOM     14  C   UNL     1       5.391  26.090  30.817  1.00  0.00     0.017 C 
ATOM     15  C   UNL     1       6.575  28.102  29.585  1.00  0.00    -0.020 C 
ATOM     16  C   UNL     1       4.992  27.786  27.603  1.00  0.00     0.032 C 
ATOM     17  C   UNL     1       6.383  27.434  28.186  1.00  0.00     0.006 C 
ATOM     18  C   UNL     1       7.959  27.632  30.104  1.00  0.00     0.008 C 
ATOM     19  C   UNL     1       6.556  29.659  29.447  1.00  0.00     0.012 C 
ATOM     20  C   UNL     1       7.595  27.500  27.117  1.00  0.00    -0.025 C 
ATOM     21  C   UNL     1       9.097  28.170  29.255  1.00  0.00     0.005 C 
ATOM     22  C   UNL     1       9.053  27.726  27.764  1.00  0.00     0.003 C 
ATOM     23  C   UNL     1       7.337  28.551  25.993  1.00  0.00     0.010 C 
ATOM     24  C   UNL     1       7.567  26.099  26.409  1.00  0.00     0.012 C 
ATOM     25  C   UNL     1      10.085  28.587  26.896  1.00  0.00    -0.006 C 
ATOM     26  C   UNL     1       8.434  28.648  24.909  1.00  0.00     0.033 C 
ATOM     27  C   UNL     1       9.877  28.347  25.376  1.00  0.00     0.120 C 
ATOM     28  C   UNL     1      11.539  28.160  27.250  1.00  0.00     0.014 C 
ATOM     29  C   UNL     1      10.005  30.123  27.159  1.00  0.00     0.014 C 
ENDROOT
BRANCH   1  30
ATOM     30  C   UNL     1       2.265  26.747  32.288  1.00  0.00     0.048 C 
ATOM     31  O   UNL     1       1.235  26.499  31.607  1.00  0.00    -0.550 OA
ATOM     32  O   UNL     1       2.785  25.742  33.098  1.00  0.00    -0.550 OA
ENDBRANCH   1  30
BRANCH  27  33
ATOM     33  O   UNL     1      10.253  27.036  25.030  1.00  0.00    -0.393 OA
ATOM     34  H   UNL     1       9.785  26.422  25.654  1.00  0.00     0.210 HD
ENDBRANCH  27  33
TORSDOF 2
ENDMDL
MODEL 6
REMARK VINA RESULT:     2.139      0.946      1.005
REMARK INTER + INTRA:           2.608
REMARK INTER:                   2.324
REMARK INTRA:                   0.284
REMARK UNBOUND:                 0.281
REMARK SMILES C[C@@H]1[C@H](C)CC[C@]2(C(=O)[O-])CC[C@@]3(C)C(=CC[C@H]4[C@@]5(C)CC[C@H](O)C(C)(C)[C@H]5CC[C@@]43C)[C@@H]12
REMARK SMILES IDX 7 1 6 2 11 3 33 4 5 5 12 6 15 7 2 8 3 9 13 10 16 11 1 12
REMARK SMILES IDX 4 13 14 14 31 15 17 16 18 17 30 18 32 19 19 20 29 21 28 22
REMARK SMILES IDX 21 23 20 24 25 25 22 26 23 27 26 28 27 29 8 30 9 31 10 32
REMARK SMILES IDX 24 33
REMARK H PARENT 24 34
REMARK Flexibility Score: inf
ROOT
ATOM      1  C   UNL     1       9.245  27.841  25.683  1.00  0.00     0.017 C 
ATOM      2  C   UNL     1      10.287  26.810  25.120  1.00  0.00     0.014 C 
ATOM      3  C   UNL     1       9.597  28.119  27.190  1.00  0.00     0.014 C 
ATOM      4  C   UNL     1       7.811  27.225  25.524  1.00  0.00     0.030 C 
ATOM      5  C   UNL     1       9.868  26.066  23.833  1.00  0.00     0.004 C 
ATOM      6  C   UNL     1       8.437  27.914  28.181  1.00  0.00     0.013 C 
ATOM      7  C   UNL     1       6.738  28.019  26.315  1.00  0.00    -0.063 C 
ATOM      8  C   UNL     1       7.451  26.872  24.024  1.00  0.00    -0.003 C 
ATOM      9  C   UNL     1       8.706  26.744  23.101  1.00  0.00    -0.011 C 
ATOM     10  C   UNL     1       7.078  28.541  27.723  1.00  0.00    -0.006 C 
ATOM     11  C   UNL     1       5.457  28.114  25.872  1.00  0.00    -0.027 C 
ATOM     12  C   UNL     1       6.568  25.599  23.983  1.00  0.00     0.008 C 
ATOM     13  C   UNL     1       8.425  26.047  21.759  1.00  0.00     0.008 C 
ATOM     14  C   UNL     1       7.289  30.087  27.604  1.00  0.00     0.017 C 
ATOM     15  C   UNL     1       5.887  28.163  28.743  1.00  0.00    -0.020 C 
ATOM     16  C   UNL     1       4.256  28.223  26.776  1.00  0.00     0.032 C 
ATOM     17  C   UNL     1       4.542  28.747  28.205  1.00  0.00     0.006 C 
ATOM     18  C   UNL     1       6.108  28.801  30.140  1.00  0.00     0.008 C 
ATOM     19  C   UNL     1       5.787  26.608  28.874  1.00  0.00     0.012 C 
ATOM     20  C   UNL     1       3.253  28.766  29.183  1.00  0.00    -0.025 C 
ATOM     21  C   UNL     1       5.061  28.352  31.143  1.00  0.00     0.005 C 
ATOM     22  C   UNL     1       3.600  28.725  30.756  1.00  0.00     0.003 C 
ATOM     23  C   UNL     1       2.225  27.646  28.831  1.00  0.00     0.010 C 
ATOM     24  C   UNL     1       2.536  30.124  28.857  1.00  0.00     0.012 C 
ATOM     25  C   UNL     1       2.561  27.944  31.689  1.00  0.00    -0.006 C 
ATOM     26  C   UNL     1       0.945  27.621  29.696  1.00  0.00     0.033 C 
ATOM     27  C   UNL     1       1.108  28.095  31.160  1.00  0.00     0.120 C 
ATOM     28  C   UNL     1       2.607  28.539  33.125  1.00  0.00     0.014 C 
ATOM     29  C   UNL     1       2.865  26.420  31.836  1.00  0.00     0.014 C 
ENDROOT
BRANCH   1  30
ATOM     30  C   UNL     1       9.370  29.161  24.923  1.00  0.00     0.048 C 
ATOM     31  O   UNL     1      10.499  29.697  24.764  1.00  0.00    -0.550 OA
ATOM     32  O   UNL     1       8.246  29.823  24.438  1.00  0.00    -0.550 OA
ENDBRANCH   1  30
BRANCH  27  33
ATOM     33  O   UNL     1       0.667  29.423  31.308  1.00  0.00    -0.393 OA
ATOM     34  H   UNL     1       0.121  29.461  32.137  1.00  0.00     0.210 HD
ENDBRANCH  27  33
TORSDOF 2
ENDMDL
MODEL 7
REMARK VINA RESULT:     2.371      2.358      3.399
REMARK INTER + INTRA:           2.860
REMARK INTER:                   2.381
REMARK INTRA:                   0.479
REMARK UNBOUND:                 0.281
REMARK SMILES C[C@@H]1[C@H](C)CC[C@]2(C(=O)[O-])CC[C@@]3(C)C(=CC[C@H]4[C@@]5(C)CC[C@H](O)C(C)(C)[C@H]5CC[C@@]43C)[C@@H]12
REMARK SMILES IDX 7 1 6 2 11 3 33 4 5 5 12 6 15 7 2 8 3 9 13 10 16 11 1 12
REMARK SMILES IDX 4 13 14 14 31 15 17 16 18 17 30 18 32 19 19 20 29 21 28 22
REMARK SMILES IDX 21 23 20 24 25 25 22 26 23 27 26 28 27 29 8 30 9 31 10 32
REMARK SMILES IDX 24 33
REMARK H PARENT 24 34
REMARK Flexibility Score: inf
ROOT
ATOM      1  C   UNL     1       7.874  26.961  23.220  1.00  0.00     0.017 C 
ATOM      2  C   UNL     1       8.198  25.848  22.162  1.00  0.00     0.014 C 
ATOM      3  C   UNL     1       9.178  27.241  24.053  1.00  0.00     0.014 C 
ATOM      4  C   UNL     1       6.703  26.446  24.129  1.00  0.00     0.030 C 
ATOM      5  C   UNL     1       6.979  25.112  21.564  1.00  0.00     0.004 C 
ATOM      6  C   UNL     1       9.014  27.137  25.580  1.00  0.00     0.013 C 
ATOM      7  C   UNL     1       6.503  27.329  25.390  1.00  0.00    -0.063 C 
ATOM      8  C   UNL     1       5.394  26.093  23.312  1.00  0.00    -0.003 C 
ATOM      9  C   UNL     1       5.661  25.858  21.790  1.00  0.00    -0.011 C 
ATOM     10  C   UNL     1       7.740  27.851  26.142  1.00  0.00    -0.006 C 
ATOM     11  C   UNL     1       5.275  27.508  25.942  1.00  0.00    -0.027 C 
ATOM     12  C   UNL     1       4.677  24.886  23.968  1.00  0.00     0.008 C 
ATOM     13  C   UNL     1       4.505  25.159  21.054  1.00  0.00     0.008 C 
ATOM     14  C   UNL     1       7.871  29.376  25.814  1.00  0.00     0.017 C 
ATOM     15  C   UNL     1       7.566  27.578  27.723  1.00  0.00    -0.020 C 
ATOM     16  C   UNL     1       5.033  27.718  27.414  1.00  0.00     0.032 C 
ATOM     17  C   UNL     1       6.245  28.246  28.221  1.00  0.00     0.006 C 
ATOM     18  C   UNL     1       8.714  28.224  28.542  1.00  0.00     0.008 C 
ATOM     19  C   UNL     1       7.524  26.037  27.984  1.00  0.00     0.012 C 
ATOM     20  C   UNL     1       5.988  28.376  29.812  1.00  0.00    -0.025 C 
ATOM     21  C   UNL     1       8.630  27.870  30.016  1.00  0.00     0.005 C 
ATOM     22  C   UNL     1       7.321  28.338  30.716  1.00  0.00     0.003 C 
ATOM     23  C   UNL     1       4.958  27.325  30.333  1.00  0.00     0.010 C 
ATOM     24  C   UNL     1       5.299  29.776  29.984  1.00  0.00     0.012 C 
ATOM     25  C   UNL     1       7.182  27.651  32.154  1.00  0.00    -0.006 C 
ATOM     26  C   UNL     1       4.628  27.408  31.841  1.00  0.00     0.033 C 
ATOM     27  C   UNL     1       5.773  27.896  32.759  1.00  0.00     0.120 C 
ATOM     28  C   UNL     1       8.230  28.267  33.125  1.00  0.00     0.014 C 
ATOM     29  C   UNL     1       7.445  26.112  32.147  1.00  0.00     0.014 C 
ENDROOT
BRANCH   1  30
ATOM     30  C   UNL     1       7.492  28.254  22.502  1.00  0.00     0.048 C 
ATOM     31  O   UNL     1       7.881  28.463  21.323  1.00  0.00    -0.550 OA
ATOM     32  O   UNL     1       6.755  29.246  23.144  1.00  0.00    -0.550 OA
ENDBRANCH   1  30
BRANCH  27  33
ATOM     33  O   UNL     1       5.608  29.254  33.087  1.00  0.00    -0.393 OA
ATOM     34  H   UNL     1       6.509  29.672  33.070  1.00  0.00     0.210 HD
ENDBRANCH  27  33
TORSDOF 2
ENDMDL
