MODEL 1
REMARK VINA RESULT:    -4.795      0.000      0.000
REMARK INTER + INTRA:          -8.375
REMARK INTER:                  -7.598
REMARK INTRA:                  -0.777
REMARK UNBOUND:                -0.777
REMARK SMILES CCCCCCCCCCCC(=O)[O-]
REMARK SMILES IDX 7 1 8 2 9 3 10 4 11 5 12 6 13 7 14 8 6 9 5 10 4 11 3 12 2 13
REMARK SMILES IDX 1 14
REMARK H PARENT
REMARK Flexibility Score: inf
ROOT
ATOM      1  C   UNL     1      46.132  25.247   2.254  1.00  0.00     0.000 C 
ENDROOT
BRANCH   1   2
ATOM      2  C   UNL     1      47.558  25.160   2.815  1.00  0.00     0.000 C 
BRANCH   2   3
ATOM      3  C   UNL     1      47.596  24.318   4.095  1.00  0.00     0.000 C 
BRANCH   3   4
ATOM      4  C   UNL     1      48.374  23.012   3.873  1.00  0.00     0.006 C 
BRANCH   4   5
ATOM      5  C   UNL     1      47.544  21.959   3.128  1.00  0.00     0.053 C 
BRANCH   5   6
ATOM      6  C   UNL     1      47.950  20.566   3.500  1.00  0.00     0.041 C 
ATOM      7  O   UNL     1      48.882  20.378   4.326  1.00  0.00    -0.550 OA
ATOM      8  O   UNL     1      47.323  19.476   2.910  1.00  0.00    -0.550 OA
ENDBRANCH   5   6
ENDBRANCH   4   5
ENDBRANCH   3   4
ENDBRANCH   2   3
ENDBRANCH   1   2
BRANCH   1   9
ATOM      9  C   UNL     1      45.457  26.561   2.672  1.00  0.00     0.000 C 
BRANCH   9  10
ATOM     10  C   UNL     1      44.140  26.335   3.433  1.00  0.00    -0.000 C 
BRANCH  10  11
ATOM     11  C   UNL     1      44.075  27.122   4.750  1.00  0.00    -0.000 C 
BRANCH  11  12
ATOM     12  C   UNL     1      45.364  26.941   5.562  1.00  0.00    -0.000 C 
BRANCH  12  13
ATOM     13  C   UNL     1      45.060  26.392   6.960  1.00  0.00    -0.003 C 
ATOM     14  C   UNL     1      43.584  26.562   7.310  1.00  0.00     0.004 C 
ENDBRANCH  12  13
ENDBRANCH  11  12
ENDBRANCH  10  11
ENDBRANCH   9  10
ENDBRANCH   1   9
TORSDOF 10
ENDMDL
MODEL 2
REMARK VINA RESULT:    -4.666     15.098     16.824
REMARK INTER + INTRA:          -8.171
REMARK INTER:                  -7.256
REMARK INTRA:                  -0.915
REMARK UNBOUND:                -0.777
REMARK SMILES CCCCCCCCCCCC(=O)[O-]
REMARK SMILES IDX 7 1 8 2 9 3 10 4 11 5 12 6 13 7 14 8 6 9 5 10 4 11 3 12 2 13
REMARK SMILES IDX 1 14
REMARK H PARENT
REMARK Flexibility Score: inf
ROOT
ATOM      1  C   UNL     1      42.766  22.459  21.445  1.00  0.00     0.000 C 
ENDROOT
BRANCH   1   2
ATOM      2  C   UNL     1      42.000  23.165  20.320  1.00  0.00     0.000 C 
BRANCH   2   3
ATOM      3  C   UNL     1      42.645  22.892  18.957  1.00  0.00     0.000 C 
BRANCH   3   4
ATOM      4  C   UNL     1      41.604  22.392  17.944  1.00  0.00     0.006 C 
BRANCH   4   5
ATOM      5  C   UNL     1      40.287  23.172  18.030  1.00  0.00     0.053 C 
BRANCH   5   6
ATOM      6  C   UNL     1      39.189  22.496  17.268  1.00  0.00     0.041 C 
ATOM      7  O   UNL     1      39.354  21.329  16.823  1.00  0.00    -0.550 OA
ATOM      8  O   UNL     1      37.997  23.165  17.020  1.00  0.00    -0.550 OA
ENDBRANCH   5   6
ENDBRANCH   4   5
ENDBRANCH   3   4
ENDBRANCH   2   3
ENDBRANCH   1   2
BRANCH   1   9
ATOM      9  C   UNL     1      43.472  21.199  20.923  1.00  0.00     0.000 C 
BRANCH   9  10
ATOM     10  C   UNL     1      44.737  20.853  21.724  1.00  0.00    -0.000 C 
BRANCH  10  11
ATOM     11  C   UNL     1      45.704  22.041  21.846  1.00  0.00    -0.000 C 
BRANCH  11  12
ATOM     12  C   UNL     1      46.760  22.004  20.734  1.00  0.00    -0.000 C 
BRANCH  12  13
ATOM     13  C   UNL     1      47.052  23.414  20.207  1.00  0.00    -0.003 C 
ATOM     14  C   UNL     1      46.106  23.783  19.068  1.00  0.00     0.004 C 
ENDBRANCH  12  13
ENDBRANCH  11  12
ENDBRANCH  10  11
ENDBRANCH   9  10
ENDBRANCH   1   9
TORSDOF 10
ENDMDL
MODEL 3
REMARK VINA RESULT:    -4.598     14.905     16.420
REMARK INTER + INTRA:          -8.063
REMARK INTER:                  -7.395
REMARK INTRA:                  -0.668
REMARK UNBOUND:                -0.777
REMARK SMILES CCCCCCCCCCCC(=O)[O-]
REMARK SMILES IDX 7 1 8 2 9 3 10 4 11 5 12 6 13 7 14 8 6 9 5 10 4 11 3 12 2 13
REMARK SMILES IDX 1 14
REMARK H PARENT
REMARK Flexibility Score: inf
ROOT
ATOM      1  C   UNL     1      42.345  23.375  19.926  1.00  0.00     0.000 C 
ENDROOT
BRANCH   1   2
ATOM      2  C   UNL     1      42.720  23.020  21.371  1.00  0.00     0.000 C 
BRANCH   2   3
ATOM      3  C   UNL     1      43.506  21.706  21.429  1.00  0.00     0.000 C 
BRANCH   3   4
ATOM      4  C   UNL     1      44.928  21.937  21.964  1.00  0.00     0.006 C 
BRANCH   4   5
ATOM      5  C   UNL     1      46.004  21.449  20.987  1.00  0.00     0.053 C 
BRANCH   5   6
ATOM      6  C   UNL     1      46.686  22.589  20.295  1.00  0.00     0.041 C 
ATOM      7  O   UNL     1      46.063  23.275  19.442  1.00  0.00    -0.550 OA
ATOM      8  O   UNL     1      48.018  22.874  20.568  1.00  0.00    -0.550 OA
ENDBRANCH   5   6
ENDBRANCH   4   5
ENDBRANCH   3   4
ENDBRANCH   2   3
ENDBRANCH   1   2
BRANCH   1   9
ATOM      9  C   UNL     1      42.536  22.168  18.996  1.00  0.00     0.000 C 
BRANCH   9  10
ATOM     10  C   UNL     1      41.852  22.357  17.632  1.00  0.00    -0.000 C 
BRANCH  10  11
ATOM     11  C   UNL     1      40.432  22.929  17.756  1.00  0.00    -0.000 C 
BRANCH  11  12
ATOM     12  C   UNL     1      39.402  21.978  17.134  1.00  0.00    -0.000 C 
BRANCH  12  13
ATOM     13  C   UNL     1      38.177  22.750  16.628  1.00  0.00    -0.003 C 
ATOM     14  C   UNL     1      37.022  22.663  17.622  1.00  0.00     0.004 C 
ENDBRANCH  12  13
ENDBRANCH  11  12
ENDBRANCH  10  11
ENDBRANCH   9  10
ENDBRANCH   1   9
TORSDOF 10
ENDMDL
MODEL 4
REMARK VINA RESULT:    -4.594     10.743     13.100
REMARK INTER + INTRA:          -8.057
REMARK INTER:                  -6.740
REMARK INTRA:                  -1.317
REMARK UNBOUND:                -0.777
REMARK SMILES CCCCCCCCCCCC(=O)[O-]
REMARK SMILES IDX 7 1 8 2 9 3 10 4 11 5 12 6 13 7 14 8 6 9 5 10 4 11 3 12 2 13
REMARK SMILES IDX 1 14
REMARK H PARENT
REMARK Flexibility Score: inf
ROOT
ATOM      1  C   UNL     1      45.546  29.974  15.069  1.00  0.00     0.000 C 
ENDROOT
BRANCH   1   2
ATOM      2  C   UNL     1      44.284  29.632  14.265  1.00  0.00     0.000 C 
BRANCH   2   3
ATOM      3  C   UNL     1      44.144  30.546  13.044  1.00  0.00     0.000 C 
BRANCH   3   4
ATOM      4  C   UNL     1      45.319  31.530  12.953  1.00  0.00     0.006 C 
BRANCH   4   5
ATOM      5  C   UNL     1      45.287  32.358  11.662  1.00  0.00     0.053 C 
BRANCH   5   6
ATOM      6  C   UNL     1      46.552  32.209  10.874  1.00  0.00     0.041 C 
ATOM      7  O   UNL     1      47.060  33.208  10.299  1.00  0.00    -0.550 OA
ATOM      8  O   UNL     1      47.152  30.963  10.747  1.00  0.00    -0.550 OA
ENDBRANCH   5   6
ENDBRANCH   4   5
ENDBRANCH   3   4
ENDBRANCH   2   3
ENDBRANCH   1   2
BRANCH   1   9
ATOM      9  C   UNL     1      45.240  30.033  16.572  1.00  0.00     0.000 C 
BRANCH   9  10
ATOM     10  C   UNL     1      44.232  31.138  16.929  1.00  0.00    -0.000 C 
BRANCH  10  11
ATOM     11  C   UNL     1      44.831  32.548  16.808  1.00  0.00    -0.000 C 
BRANCH  11  12
ATOM     12  C   UNL     1      44.036  33.397  15.810  1.00  0.00    -0.000 C 
BRANCH  12  13
ATOM     13  C   UNL     1      42.667  32.770  15.523  1.00  0.00    -0.003 C 
ATOM     14  C   UNL     1      41.534  33.707  15.935  1.00  0.00     0.004 C 
ENDBRANCH  12  13
ENDBRANCH  11  12
ENDBRANCH  10  11
ENDBRANCH   9  10
ENDBRANCH   1   9
TORSDOF 10
ENDMDL
MODEL 5
REMARK VINA RESULT:    -4.571      2.631      2.986
REMARK INTER + INTRA:          -8.020
REMARK INTER:                  -7.307
REMARK INTRA:                  -0.713
REMARK UNBOUND:                -0.777
REMARK SMILES CCCCCCCCCCCC(=O)[O-]
REMARK SMILES IDX 7 1 8 2 9 3 10 4 11 5 12 6 13 7 14 8 6 9 5 10 4 11 3 12 2 13
REMARK SMILES IDX 1 14
REMARK H PARENT
REMARK Flexibility Score: inf
ROOT
ATOM      1  C   UNL     1      46.091  24.729   2.062  1.00  0.00     0.000 C 
ENDROOT
BRANCH   1   2
ATOM      2  C   UNL     1      47.483  24.217   2.454  1.00  0.00     0.000 C 
BRANCH   2   3
ATOM      3  C   UNL     1      47.605  24.059   3.973  1.00  0.00     0.000 C 
BRANCH   3   4
ATOM      4  C   UNL     1      49.075  23.911   4.396  1.00  0.00     0.006 C 
BRANCH   4   5
ATOM      5  C   UNL     1      50.025  23.867   3.192  1.00  0.00     0.053 C 
BRANCH   5   6
ATOM      6  C   UNL     1      51.298  24.610   3.462  1.00  0.00     0.041 C 
ATOM      7  O   UNL     1      51.914  24.435   4.546  1.00  0.00    -0.550 OA
ATOM      8  O   UNL     1      51.785  25.518   2.531  1.00  0.00    -0.550 OA
ENDBRANCH   5   6
ENDBRANCH   4   5
ENDBRANCH   3   4
ENDBRANCH   2   3
ENDBRANCH   1   2
BRANCH   1   9
ATOM      9  C   UNL     1      45.800  26.087   2.718  1.00  0.00     0.000 C 
BRANCH   9  10
ATOM     10  C   UNL     1      44.302  26.312   2.977  1.00  0.00    -0.000 C 
BRANCH  10  11
ATOM     11  C   UNL     1      44.031  27.013   4.317  1.00  0.00    -0.000 C 
BRANCH  11  12
ATOM     12  C   UNL     1      45.261  26.943   5.231  1.00  0.00    -0.000 C 
BRANCH  12  13
ATOM     13  C   UNL     1      44.928  27.448   6.640  1.00  0.00    -0.003 C 
ATOM     14  C   UNL     1      43.698  26.740   7.203  1.00  0.00     0.004 C 
ENDBRANCH  12  13
ENDBRANCH  11  12
ENDBRANCH  10  11
ENDBRANCH   9  10
ENDBRANCH   1   9
TORSDOF 10
ENDMDL
MODEL 6
REMARK VINA RESULT:    -4.570     15.437     16.959
REMARK INTER + INTRA:          -8.018
REMARK INTER:                  -6.925
REMARK INTRA:                  -1.093
REMARK UNBOUND:                -0.777
REMARK SMILES CCCCCCCCCCCC(=O)[O-]
REMARK SMILES IDX 7 1 8 2 9 3 10 4 11 5 12 6 13 7 14 8 6 9 5 10 4 11 3 12 2 13
REMARK SMILES IDX 1 14
REMARK H PARENT
REMARK Flexibility Score: inf
ROOT
ATOM      1  C   UNL     1      44.557  21.155  21.890  1.00  0.00     0.000 C 
ENDROOT
BRANCH   1   2
ATOM      2  C   UNL     1      43.316  21.284  20.996  1.00  0.00     0.000 C 
BRANCH   2   3
ATOM      3  C   UNL     1      42.799  22.725  20.975  1.00  0.00     0.000 C 
BRANCH   3   4
ATOM      4  C   UNL     1      42.306  23.115  19.573  1.00  0.00     0.006 C 
BRANCH   4   5
ATOM      5  C   UNL     1      40.928  23.789  19.606  1.00  0.00     0.053 C 
BRANCH   5   6
ATOM      6  C   UNL     1      40.130  23.483  18.377  1.00  0.00     0.041 C 
ATOM      7  O   UNL     1      40.462  22.525  17.629  1.00  0.00    -0.550 OA
ATOM      8  O   UNL     1      39.040  24.275  18.039  1.00  0.00    -0.550 OA
ENDBRANCH   5   6
ENDBRANCH   4   5
ENDBRANCH   3   4
ENDBRANCH   2   3
ENDBRANCH   1   2
BRANCH   1   9
ATOM      9  C   UNL     1      45.843  21.190  21.052  1.00  0.00     0.000 C 
BRANCH   9  10
ATOM     10  C   UNL     1      46.621  22.506  21.215  1.00  0.00    -0.000 C 
BRANCH  10  11
ATOM     11  C   UNL     1      47.082  23.092  19.872  1.00  0.00    -0.000 C 
BRANCH  11  12
ATOM     12  C   UNL     1      45.982  23.958  19.245  1.00  0.00    -0.000 C 
BRANCH  12  13
ATOM     13  C   UNL     1      45.917  25.334  19.918  1.00  0.00    -0.003 C 
ATOM     14  C   UNL     1      44.518  25.935  19.809  1.00  0.00     0.004 C 
ENDBRANCH  12  13
ENDBRANCH  11  12
ENDBRANCH  10  11
ENDBRANCH   9  10
ENDBRANCH   1   9
TORSDOF 10
ENDMDL
MODEL 7
REMARK VINA RESULT:    -4.475     15.175     16.088
REMARK INTER + INTRA:          -7.868
REMARK INTER:                  -7.208
REMARK INTRA:                  -0.660
REMARK UNBOUND:                -0.777
REMARK SMILES CCCCCCCCCCCC(=O)[O-]
REMARK SMILES IDX 7 1 8 2 9 3 10 4 11 5 12 6 13 7 14 8 6 9 5 10 4 11 3 12 2 13
REMARK SMILES IDX 1 14
REMARK H PARENT
REMARK Flexibility Score: inf
ROOT
ATOM      1  C   UNL     1      42.093  24.701  20.650  1.00  0.00     0.000 C 
ENDROOT
BRANCH   1   2
ATOM      2  C   UNL     1      43.573  24.312  20.540  1.00  0.00     0.000 C 
BRANCH   2   3
ATOM      3  C   UNL     1      44.428  25.511  20.117  1.00  0.00     0.000 C 
BRANCH   3   4
ATOM      4  C   UNL     1      45.840  25.064  19.706  1.00  0.00     0.006 C 
BRANCH   4   5
ATOM      5  C   UNL     1      45.882  23.593  19.274  1.00  0.00     0.053 C 
BRANCH   5   6
ATOM      6  C   UNL     1      46.754  22.774  20.175  1.00  0.00     0.041 C 
ATOM      7  O   UNL     1      46.325  21.692  20.657  1.00  0.00    -0.550 OA
ATOM      8  O   UNL     1      48.026  23.221  20.509  1.00  0.00    -0.550 OA
ENDBRANCH   5   6
ENDBRANCH   4   5
ENDBRANCH   3   4
ENDBRANCH   2   3
ENDBRANCH   1   2
BRANCH   1   9
ATOM      9  C   UNL     1      41.266  24.035  19.542  1.00  0.00     0.000 C 
BRANCH   9  10
ATOM     10  C   UNL     1      42.005  22.865  18.872  1.00  0.00    -0.000 C 
BRANCH  10  11
ATOM     11  C   UNL     1      41.279  22.343  17.622  1.00  0.00    -0.000 C 
BRANCH  11  12
ATOM     12  C   UNL     1      39.928  23.045  17.440  1.00  0.00    -0.000 C 
BRANCH  12  13
ATOM     13  C   UNL     1      38.848  22.051  16.997  1.00  0.00    -0.003 C 
ATOM     14  C   UNL     1      37.454  22.549  17.370  1.00  0.00     0.004 C 
ENDBRANCH  12  13
ENDBRANCH  11  12
ENDBRANCH  10  11
ENDBRANCH   9  10
ENDBRANCH   1   9
TORSDOF 10
ENDMDL
MODEL 8
REMARK VINA RESULT:    -4.461     11.584     13.916
REMARK INTER + INTRA:          -7.846
REMARK INTER:                  -6.461
REMARK INTRA:                  -1.385
REMARK UNBOUND:                -0.777
REMARK SMILES CCCCCCCCCCCC(=O)[O-]
REMARK SMILES IDX 7 1 8 2 9 3 10 4 11 5 12 6 13 7 14 8 6 9 5 10 4 11 3 12 2 13
REMARK SMILES IDX 1 14
REMARK H PARENT
REMARK Flexibility Score: inf
ROOT
ATOM      1  C   UNL     1      45.299  32.232  12.919  1.00  0.00     0.000 C 
ENDROOT
BRANCH   1   2
ATOM      2  C   UNL     1      46.476  31.904  13.847  1.00  0.00     0.000 C 
BRANCH   2   3
ATOM      3  C   UNL     1      46.616  32.956  14.952  1.00  0.00     0.000 C 
BRANCH   3   4
ATOM      4  C   UNL     1      45.362  33.839  15.036  1.00  0.00     0.006 C 
BRANCH   4   5
ATOM      5  C   UNL     1      44.544  33.569  16.305  1.00  0.00     0.053 C 
BRANCH   5   6
ATOM      6  C   UNL     1      43.244  32.892  15.995  1.00  0.00     0.041 C 
ATOM      7  O   UNL     1      43.214  31.652  15.775  1.00  0.00    -0.550 OA
ATOM      8  O   UNL     1      42.073  33.634  15.917  1.00  0.00    -0.550 OA
ENDBRANCH   5   6
ENDBRANCH   4   5
ENDBRANCH   3   4
ENDBRANCH   2   3
ENDBRANCH   1   2
BRANCH   1   9
ATOM      9  C   UNL     1      45.550  31.692  11.503  1.00  0.00     0.000 C 
BRANCH   9  10
ATOM     10  C   UNL     1      46.903  32.142  10.928  1.00  0.00    -0.000 C 
BRANCH  10  11
ATOM     11  C   UNL     1      46.874  33.586  10.404  1.00  0.00    -0.000 C 
BRANCH  11  12
ATOM     12  C   UNL     1      47.737  34.504  11.278  1.00  0.00    -0.000 C 
BRANCH  12  13
ATOM     13  C   UNL     1      46.875  35.550  11.993  1.00  0.00    -0.003 C 
ATOM     14  C   UNL     1      45.733  36.028  11.099  1.00  0.00     0.004 C 
ENDBRANCH  12  13
ENDBRANCH  11  12
ENDBRANCH  10  11
ENDBRANCH   9  10
ENDBRANCH   1   9
TORSDOF 10
ENDMDL
MODEL 9
REMARK VINA RESULT:    -4.371     11.245     13.628
REMARK INTER + INTRA:          -7.704
REMARK INTER:                  -6.213
REMARK INTRA:                  -1.491
REMARK UNBOUND:                -0.777
REMARK SMILES CCCCCCCCCCCC(=O)[O-]
REMARK SMILES IDX 7 1 8 2 9 3 10 4 11 5 12 6 13 7 14 8 6 9 5 10 4 11 3 12 2 13
REMARK SMILES IDX 1 14
REMARK H PARENT
REMARK Flexibility Score: inf
ROOT
ATOM      1  C   UNL     1      45.863  33.186  16.402  1.00  0.00     0.000 C 
ENDROOT
BRANCH   1   2
ATOM      2  C   UNL     1      46.298  34.489  15.719  1.00  0.00     0.000 C 
BRANCH   2   3
ATOM      3  C   UNL     1      46.128  34.398  14.199  1.00  0.00     0.000 C 
BRANCH   3   4
ATOM      4  C   UNL     1      46.207  32.941  13.721  1.00  0.00     0.006 C 
BRANCH   4   5
ATOM      5  C   UNL     1      45.676  32.767  12.292  1.00  0.00     0.053 C 
BRANCH   5   6
ATOM      6  C   UNL     1      46.761  32.367  11.341  1.00  0.00     0.041 C 
ATOM      7  O   UNL     1      47.570  31.453  11.652  1.00  0.00    -0.550 OA
ATOM      8  O   UNL     1      46.901  33.025  10.126  1.00  0.00    -0.550 OA
ENDBRANCH   5   6
ENDBRANCH   4   5
ENDBRANCH   3   4
ENDBRANCH   2   3
ENDBRANCH   1   2
BRANCH   1   9
ATOM      9  C   UNL     1      44.526  33.370  17.135  1.00  0.00     0.000 C 
BRANCH   9  10
ATOM     10  C   UNL     1      43.469  32.338  16.707  1.00  0.00    -0.000 C 
BRANCH  10  11
ATOM     11  C   UNL     1      42.832  32.670  15.349  1.00  0.00    -0.000 C 
BRANCH  11  12
ATOM     12  C   UNL     1      42.838  31.446  14.426  1.00  0.00    -0.000 C 
BRANCH  12  13
ATOM     13  C   UNL     1      43.689  30.317  15.017  1.00  0.00    -0.003 C 
ATOM     14  C   UNL     1      44.499  29.612  13.932  1.00  0.00     0.004 C 
ENDBRANCH  12  13
ENDBRANCH  11  12
ENDBRANCH  10  11
ENDBRANCH   9  10
ENDBRANCH   1   9
TORSDOF 10
ENDMDL
