MODEL 1
REMARK VINA RESULT:    -4.535      0.000      0.000
REMARK INTER + INTRA:          -7.082
REMARK INTER:                  -6.258
REMARK INTRA:                  -0.824
REMARK UNBOUND:                -0.824
REMARK SMILES CC[C@H](CC[C@H](C)[C@@H]1CC[C@H]2[C@H]3CC=C4C[C@H](O)CC[C@@]4(C)[C@@H]3CC[C@]21C)C(C)C
REMARK SMILES IDX 5 1 4 2 3 3 2 4 1 5 28 6 29 7 30 8 6 9 7 10 8 11 9 12 26 13
REMARK SMILES IDX 10 14 11 15 25 16 27 17 12 18 24 19 23 20 13 21 21 22 14 23
REMARK SMILES IDX 15 24 20 25 22 26 16 27 19 28 17 29 18 30
REMARK H PARENT 18 31
REMARK Flexibility Score: inf
ROOT
ATOM      1  C   UNL     1      35.134  19.536   4.858  1.00  0.00     0.004 C 
ENDROOT
BRANCH   1   2
ATOM      2  C   UNL     1      36.249  20.201   4.018  1.00  0.00     0.004 C 
BRANCH   2   3
ATOM      3  C   UNL     1      36.619  21.643   4.478  1.00  0.00    -0.009 C 
BRANCH   3   4
ATOM      4  C   UNL     1      35.533  22.673   4.051  1.00  0.00     0.000 C 
ATOM      5  C   UNL     1      36.114  23.913   3.368  1.00  0.00     0.004 C 
ENDBRANCH   3   4
BRANCH   3   6
ATOM      6  C   UNL     1      37.066  21.687   5.991  1.00  0.00    -0.014 C 
ATOM      7  C   UNL     1      37.919  22.903   6.396  1.00  0.00     0.007 C 
ATOM      8  C   UNL     1      37.780  20.391   6.406  1.00  0.00     0.007 C 
ENDBRANCH   3   6
ENDBRANCH   2   3
ENDBRANCH   1   2
BRANCH   1   9
ATOM      9  C   UNL     1      34.113  18.619   4.102  1.00  0.00    -0.011 C 
ATOM     10  C   UNL     1      34.749  17.879   2.910  1.00  0.00     0.008 C 
BRANCH   9  11
ATOM     11  C   UNL     1      32.726  19.255   3.711  1.00  0.00    -0.002 C 
ATOM     12  C   UNL     1      32.546  20.673   4.258  1.00  0.00     0.005 C 
ATOM     13  C   UNL     1      31.419  18.476   4.117  1.00  0.00    -0.026 C 
ATOM     14  C   UNL     1      31.621  20.573   5.463  1.00  0.00     0.005 C 
ATOM     15  C   UNL     1      30.890  19.216   5.386  1.00  0.00    -0.001 C 
ATOM     16  C   UNL     1      30.362  18.515   2.947  1.00  0.00     0.007 C 
ATOM     17  C   UNL     1      31.649  16.970   4.426  1.00  0.00     0.012 C 
ATOM     18  C   UNL     1      29.339  19.318   5.407  1.00  0.00     0.000 C 
ATOM     19  C   UNL     1      29.526  19.801   2.877  1.00  0.00     0.005 C 
ATOM     20  C   UNL     1      28.773  20.118   4.205  1.00  0.00     0.003 C 
ATOM     21  C   UNL     1      28.799  19.901   6.719  1.00  0.00     0.031 C 
ATOM     22  C   UNL     1      27.202  19.995   4.138  1.00  0.00    -0.008 C 
ATOM     23  C   UNL     1      27.304  20.077   6.678  1.00  0.00    -0.027 C 
ATOM     24  C   UNL     1      26.591  20.220   5.537  1.00  0.00    -0.065 C 
ATOM     25  C   UNL     1      26.649  21.100   3.179  1.00  0.00     0.014 C 
ATOM     26  C   UNL     1      26.764  18.592   3.633  1.00  0.00     0.016 C 
ATOM     27  C   UNL     1      25.099  20.467   5.640  1.00  0.00     0.063 C 
ATOM     28  C   UNL     1      25.124  21.281   3.251  1.00  0.00     0.033 C 
ATOM     29  C   UNL     1      24.665  21.584   4.686  1.00  0.00     0.118 C 
BRANCH  29  30
ATOM     30  O   UNL     1      23.267  21.702   4.729  1.00  0.00    -0.393 OA
ATOM     31  H   UNL     1      22.994  22.181   3.904  1.00  0.00     0.210 HD
ENDBRANCH  29  30
ENDBRANCH   9  11
ENDBRANCH   1   9
TORSDOF 7
ENDMDL
MODEL 2
REMARK VINA RESULT:    -4.430      1.046      1.981
REMARK INTER + INTRA:          -6.937
REMARK INTER:                  -6.143
REMARK INTRA:                  -0.795
REMARK UNBOUND:                -0.824
REMARK SMILES CC[C@H](CC[C@H](C)[C@@H]1CC[C@H]2[C@H]3CC=C4C[C@H](O)CC[C@@]4(C)[C@@H]3CC[C@]21C)C(C)C
REMARK SMILES IDX 5 1 4 2 3 3 2 4 1 5 28 6 29 7 30 8 6 9 7 10 8 11 9 12 26 13
REMARK SMILES IDX 10 14 11 15 25 16 27 17 12 18 24 19 23 20 13 21 21 22 14 23
REMARK SMILES IDX 15 24 20 25 22 26 16 27 19 28 17 29 18 30
REMARK H PARENT 18 31
REMARK Flexibility Score: inf
ROOT
ATOM      1  C   UNL     1      35.176  18.102   2.900  1.00  0.00     0.004 C 
ENDROOT
BRANCH   1   2
ATOM      2  C   UNL     1      36.271  18.371   3.959  1.00  0.00     0.004 C 
BRANCH   2   3
ATOM      3  C   UNL     1      36.010  19.630   4.839  1.00  0.00    -0.009 C 
BRANCH   3   4
ATOM      4  C   UNL     1      36.488  19.410   6.304  1.00  0.00     0.000 C 
ATOM      5  C   UNL     1      37.295  18.123   6.488  1.00  0.00     0.004 C 
ENDBRANCH   3   4
BRANCH   3   6
ATOM      6  C   UNL     1      36.499  20.956   4.138  1.00  0.00    -0.014 C 
ATOM      7  C   UNL     1      37.838  21.522   4.645  1.00  0.00     0.007 C 
ATOM      8  C   UNL     1      35.422  22.051   4.187  1.00  0.00     0.007 C 
ENDBRANCH   3   6
ENDBRANCH   2   3
ENDBRANCH   1   2
BRANCH   1   9
ATOM      9  C   UNL     1      33.868  17.388   3.383  1.00  0.00    -0.011 C 
ATOM     10  C   UNL     1      33.779  15.926   2.906  1.00  0.00     0.008 C 
BRANCH   9  11
ATOM     11  C   UNL     1      32.507  18.149   3.161  1.00  0.00    -0.002 C 
ATOM     12  C   UNL     1      32.604  19.644   3.474  1.00  0.00     0.005 C 
ATOM     13  C   UNL     1      31.240  17.635   3.943  1.00  0.00    -0.026 C 
ATOM     14  C   UNL     1      31.953  19.860   4.833  1.00  0.00     0.005 C 
ATOM     15  C   UNL     1      31.079  18.625   5.139  1.00  0.00    -0.001 C 
ATOM     16  C   UNL     1      29.968  17.648   3.011  1.00  0.00     0.007 C 
ATOM     17  C   UNL     1      31.365  16.175   4.462  1.00  0.00     0.012 C 
ATOM     18  C   UNL     1      29.589  18.950   5.441  1.00  0.00     0.000 C 
ATOM     19  C   UNL     1      29.282  19.015   2.878  1.00  0.00     0.005 C 
ATOM     20  C   UNL     1      28.870  19.633   4.249  1.00  0.00     0.003 C 
ATOM     21  C   UNL     1      29.409  19.794   6.709  1.00  0.00     0.031 C 
ATOM     22  C   UNL     1      27.316  19.727   4.509  1.00  0.00    -0.008 C 
ATOM     23  C   UNL     1      27.968  20.174   6.926  1.00  0.00    -0.027 C 
ATOM     24  C   UNL     1      27.047  20.244   5.937  1.00  0.00    -0.065 C 
ATOM     25  C   UNL     1      26.694  20.742   3.495  1.00  0.00     0.014 C 
ATOM     26  C   UNL     1      26.631  18.341   4.354  1.00  0.00     0.016 C 
ATOM     27  C   UNL     1      25.648  20.715   6.281  1.00  0.00     0.063 C 
ATOM     28  C   UNL     1      25.249  21.148   3.827  1.00  0.00     0.033 C 
ATOM     29  C   UNL     1      25.144  21.725   5.248  1.00  0.00     0.118 C 
BRANCH  29  30
ATOM     30  O   UNL     1      23.809  22.047   5.538  1.00  0.00    -0.393 OA
ATOM     31  H   UNL     1      23.544  22.768   4.910  1.00  0.00     0.210 HD
ENDBRANCH  29  30
ENDBRANCH   9  11
ENDBRANCH   1   9
TORSDOF 7
ENDMDL
MODEL 3
REMARK VINA RESULT:    -4.349      1.376      2.136
REMARK INTER + INTRA:          -6.826
REMARK INTER:                  -6.296
REMARK INTRA:                  -0.530
REMARK UNBOUND:                -0.824
REMARK SMILES CC[C@H](CC[C@H](C)[C@@H]1CC[C@H]2[C@H]3CC=C4C[C@H](O)CC[C@@]4(C)[C@@H]3CC[C@]21C)C(C)C
REMARK SMILES IDX 5 1 4 2 3 3 2 4 1 5 28 6 29 7 30 8 6 9 7 10 8 11 9 12 26 13
REMARK SMILES IDX 10 14 11 15 25 16 27 17 12 18 24 19 23 20 13 21 21 22 14 23
REMARK SMILES IDX 15 24 20 25 22 26 16 27 19 28 17 29 18 30
REMARK H PARENT 18 31
REMARK Flexibility Score: inf
ROOT
ATOM      1  C   UNL     1      35.379  19.140   3.370  1.00  0.00     0.004 C 
ENDROOT
BRANCH   1   2
ATOM      2  C   UNL     1      36.718  18.403   3.128  1.00  0.00     0.004 C 
BRANCH   2   3
ATOM      3  C   UNL     1      37.740  18.542   4.295  1.00  0.00    -0.009 C 
BRANCH   3   4
ATOM      4  C   UNL     1      37.353  19.703   5.256  1.00  0.00     0.000 C 
ATOM      5  C   UNL     1      38.056  21.022   4.923  1.00  0.00     0.004 C 
ENDBRANCH   3   4
BRANCH   3   6
ATOM      6  C   UNL     1      38.061  17.154   4.972  1.00  0.00    -0.014 C 
ATOM      7  C   UNL     1      37.390  15.928   4.325  1.00  0.00     0.007 C 
ATOM      8  C   UNL     1      37.756  17.176   6.478  1.00  0.00     0.007 C 
ENDBRANCH   3   6
ENDBRANCH   2   3
ENDBRANCH   1   2
BRANCH   1   9
ATOM      9  C   UNL     1      34.104  18.259   3.598  1.00  0.00    -0.011 C 
ATOM     10  C   UNL     1      34.198  16.887   2.905  1.00  0.00     0.008 C 
BRANCH   9  11
ATOM     11  C   UNL     1      32.705  18.937   3.346  1.00  0.00    -0.002 C 
ATOM     12  C   UNL     1      32.646  20.383   3.843  1.00  0.00     0.005 C 
ATOM     13  C   UNL     1      31.428  18.233   3.941  1.00  0.00    -0.026 C 
ATOM     14  C   UNL     1      31.871  20.375   5.153  1.00  0.00     0.005 C 
ATOM     15  C   UNL     1      31.086  19.049   5.228  1.00  0.00    -0.001 C 
ATOM     16  C   UNL     1      30.239  18.268   2.906  1.00  0.00     0.007 C 
ATOM     17  C   UNL     1      31.636  16.733   4.292  1.00  0.00     0.012 C 
ATOM     18  C   UNL     1      29.553  19.219   5.429  1.00  0.00     0.000 C 
ATOM     19  C   UNL     1      29.451  19.585   2.875  1.00  0.00     0.005 C 
ATOM     20  C   UNL     1      28.876  19.991   4.267  1.00  0.00     0.003 C 
ATOM     21  C   UNL     1      29.198  19.880   6.767  1.00  0.00     0.031 C 
ATOM     22  C   UNL     1      27.305  19.933   4.394  1.00  0.00    -0.008 C 
ATOM     23  C   UNL     1      27.717  20.119   6.896  1.00  0.00    -0.027 C 
ATOM     24  C   UNL     1      26.877  20.244   5.843  1.00  0.00    -0.065 C 
ATOM     25  C   UNL     1      26.682  21.018   3.456  1.00  0.00     0.014 C 
ATOM     26  C   UNL     1      26.757  18.530   4.012  1.00  0.00     0.016 C 
ATOM     27  C   UNL     1      25.419  20.559   6.111  1.00  0.00     0.063 C 
ATOM     28  C   UNL     1      25.185  21.268   3.701  1.00  0.00     0.033 C 
ATOM     29  C   UNL     1      24.915  21.652   5.164  1.00  0.00     0.118 C 
BRANCH  29  30
ATOM     30  O   UNL     1      23.538  21.832   5.368  1.00  0.00    -0.393 OA
ATOM     31  H   UNL     1      23.421  22.105   6.315  1.00  0.00     0.210 HD
ENDBRANCH  29  30
ENDBRANCH   9  11
ENDBRANCH   1   9
TORSDOF 7
ENDMDL
