MODEL 1
REMARK VINA RESULT:    -4.091      0.000      0.000
REMARK INTER + INTRA:          -8.268
REMARK INTER:                  -6.960
REMARK INTRA:                  -1.308
REMARK UNBOUND:                -1.308
REMARK SMILES CCCCCCCCCCCCCC(=O)[O-]
REMARK SMILES IDX 8 1 9 2 10 3 11 4 12 5 13 6 14 7 15 8 16 9 7 10 6 11 5 12
REMARK SMILES IDX 4 13 3 14 2 15 1 16
REMARK H PARENT
REMARK Flexibility Score: inf
ROOT
ATOM      1  C   UNL     1      23.044  -4.645  53.917  1.00  0.00     0.000 C 
ENDROOT
BRANCH   1   2
ATOM      2  C   UNL     1      23.633  -5.536  52.813  1.00  0.00     0.000 C 
BRANCH   2   3
ATOM      3  C   UNL     1      25.161  -5.416  52.704  1.00  0.00     0.000 C 
BRANCH   3   4
ATOM      4  C   UNL     1      25.882  -5.846  53.994  1.00  0.00     0.000 C 
BRANCH   4   5
ATOM      5  C   UNL     1      27.393  -6.074  53.774  1.00  0.00     0.006 C 
BRANCH   5   6
ATOM      6  C   UNL     1      27.777  -6.268  52.299  1.00  0.00     0.053 C 
BRANCH   6   7
ATOM      7  C   UNL     1      29.135  -6.876  52.140  1.00  0.00     0.041 C 
ATOM      8  O   UNL     1      29.668  -6.951  51.002  1.00  0.00    -0.550 OA
ATOM      9  O   UNL     1      29.822  -7.342  53.255  1.00  0.00    -0.550 OA
ENDBRANCH   6   7
ENDBRANCH   5   6
ENDBRANCH   4   5
ENDBRANCH   3   4
ENDBRANCH   2   3
ENDBRANCH   1   2
BRANCH   1  10
ATOM     10  C   UNL     1      23.253  -3.160  53.594  1.00  0.00     0.000 C 
BRANCH  10  11
ATOM     11  C   UNL     1      23.422  -2.335  54.879  1.00  0.00    -0.000 C 
BRANCH  11  12
ATOM     12  C   UNL     1      24.379  -2.989  55.892  1.00  0.00    -0.000 C 
BRANCH  12  13
ATOM     13  C   UNL     1      23.772  -3.268  57.280  1.00  0.00    -0.000 C 
BRANCH  13  14
ATOM     14  C   UNL     1      22.318  -2.781  57.407  1.00  0.00    -0.000 C 
BRANCH  14  15
ATOM     15  C   UNL     1      21.314  -3.943  57.477  1.00  0.00    -0.003 C 
ATOM     16  C   UNL     1      20.285  -3.906  56.347  1.00  0.00     0.004 C 
ENDBRANCH  14  15
ENDBRANCH  13  14
ENDBRANCH  12  13
ENDBRANCH  11  12
ENDBRANCH  10  11
ENDBRANCH   1  10
TORSDOF 12
ENDMDL
MODEL 2
REMARK VINA RESULT:    -4.046      4.068      7.540
REMARK INTER + INTRA:          -8.193
REMARK INTER:                  -7.191
REMARK INTRA:                  -1.001
REMARK UNBOUND:                -1.308
REMARK SMILES CCCCCCCCCCCCCC(=O)[O-]
REMARK SMILES IDX 8 1 9 2 10 3 11 4 12 5 13 6 14 7 15 8 16 9 7 10 6 11 5 12
REMARK SMILES IDX 4 13 3 14 2 15 1 16
REMARK H PARENT
REMARK Flexibility Score: inf
ROOT
ATOM      1  C   UNL     1      23.220  -2.734  54.145  1.00  0.00     0.000 C 
ENDROOT
BRANCH   1   2
ATOM      2  C   UNL     1      23.472  -2.091  55.517  1.00  0.00     0.000 C 
BRANCH   2   3
ATOM      3  C   UNL     1      24.010  -3.092  56.552  1.00  0.00     0.000 C 
BRANCH   3   4
ATOM      4  C   UNL     1      23.057  -3.279  57.746  1.00  0.00     0.000 C 
BRANCH   4   5
ATOM      5  C   UNL     1      21.981  -2.175  57.818  1.00  0.00     0.006 C 
BRANCH   5   6
ATOM      6  C   UNL     1      20.543  -2.717  57.829  1.00  0.00     0.053 C 
BRANCH   6   7
ATOM      7  C   UNL     1      20.002  -2.919  56.449  1.00  0.00     0.041 C 
ATOM      8  O   UNL     1      19.808  -1.931  55.692  1.00  0.00    -0.550 OA
ATOM      9  O   UNL     1      19.732  -4.202  55.989  1.00  0.00    -0.550 OA
ENDBRANCH   6   7
ENDBRANCH   5   6
ENDBRANCH   4   5
ENDBRANCH   3   4
ENDBRANCH   2   3
ENDBRANCH   1   2
BRANCH   1  10
ATOM     10  C   UNL     1      22.730  -4.179  54.298  1.00  0.00     0.000 C 
BRANCH  10  11
ATOM     11  C   UNL     1      23.527  -5.130  53.391  1.00  0.00    -0.000 C 
BRANCH  11  12
ATOM     12  C   UNL     1      25.047  -5.038  53.612  1.00  0.00    -0.000 C 
BRANCH  12  13
ATOM     13  C   UNL     1      25.880  -6.112  52.888  1.00  0.00    -0.000 C 
BRANCH  13  14
ATOM     14  C   UNL     1      27.327  -6.196  53.404  1.00  0.00    -0.000 C 
BRANCH  14  15
ATOM     15  C   UNL     1      28.358  -6.218  52.263  1.00  0.00    -0.003 C 
ATOM     16  C   UNL     1      29.629  -6.985  52.627  1.00  0.00     0.004 C 
ENDBRANCH  14  15
ENDBRANCH  13  14
ENDBRANCH  12  13
ENDBRANCH  11  12
ENDBRANCH  10  11
ENDBRANCH   1  10
TORSDOF 12
ENDMDL
MODEL 3
REMARK VINA RESULT:    -3.905      4.550      7.669
REMARK INTER + INTRA:          -7.953
REMARK INTER:                  -7.031
REMARK INTRA:                  -0.922
REMARK UNBOUND:                -1.308
REMARK SMILES CCCCCCCCCCCCCC(=O)[O-]
REMARK SMILES IDX 8 1 9 2 10 3 11 4 12 5 13 6 14 7 15 8 16 9 7 10 6 11 5 12
REMARK SMILES IDX 4 13 3 14 2 15 1 16
REMARK H PARENT
REMARK Flexibility Score: inf
ROOT
ATOM      1  C   UNL     1      21.745  -5.328  54.111  1.00  0.00     0.000 C 
ENDROOT
BRANCH   1   2
ATOM      2  C   UNL     1      22.110  -3.847  53.931  1.00  0.00     0.000 C 
BRANCH   2   3
ATOM      3  C   UNL     1      22.926  -3.289  55.109  1.00  0.00     0.000 C 
BRANCH   3   4
ATOM      4  C   UNL     1      23.110  -1.763  55.031  1.00  0.00     0.000 C 
BRANCH   4   5
ATOM      5  C   UNL     1      22.227  -1.012  56.050  1.00  0.00     0.006 C 
BRANCH   5   6
ATOM      6  C   UNL     1      20.720  -1.188  55.804  1.00  0.00     0.053 C 
BRANCH   6   7
ATOM      7  C   UNL     1      20.006  -1.714  57.009  1.00  0.00     0.041 C 
ATOM      8  O   UNL     1      20.420  -2.752  57.589  1.00  0.00    -0.550 OA
ATOM      9  O   UNL     1      18.894  -1.044  57.506  1.00  0.00    -0.550 OA
ENDBRANCH   6   7
ENDBRANCH   5   6
ENDBRANCH   4   5
ENDBRANCH   3   4
ENDBRANCH   2   3
ENDBRANCH   1   2
BRANCH   1  10
ATOM     10  C   UNL     1      22.698  -6.228  53.313  1.00  0.00     0.000 C 
BRANCH  10  11
ATOM     11  C   UNL     1      23.434  -5.426  52.228  1.00  0.00    -0.000 C 
BRANCH  11  12
ATOM     12  C   UNL     1      24.963  -5.571  52.306  1.00  0.00    -0.000 C 
BRANCH  12  13
ATOM     13  C   UNL     1      25.508  -6.035  53.670  1.00  0.00    -0.000 C 
BRANCH  13  14
ATOM     14  C   UNL     1      27.045  -6.003  53.744  1.00  0.00    -0.000 C 
BRANCH  14  15
ATOM     15  C   UNL     1      27.702  -6.128  52.359  1.00  0.00    -0.003 C 
ATOM     16  C   UNL     1      29.201  -6.422  52.439  1.00  0.00     0.004 C 
ENDBRANCH  14  15
ENDBRANCH  13  14
ENDBRANCH  12  13
ENDBRANCH  11  12
ENDBRANCH  10  11
ENDBRANCH   1  10
TORSDOF 12
ENDMDL
MODEL 4
REMARK VINA RESULT:    -3.888      3.185      6.817
REMARK INTER + INTRA:          -7.924
REMARK INTER:                  -7.015
REMARK INTRA:                  -0.909
REMARK UNBOUND:                -1.308
REMARK SMILES CCCCCCCCCCCCCC(=O)[O-]
REMARK SMILES IDX 8 1 9 2 10 3 11 4 12 5 13 6 14 7 15 8 16 9 7 10 6 11 5 12
REMARK SMILES IDX 4 13 3 14 2 15 1 16
REMARK H PARENT
REMARK Flexibility Score: inf
ROOT
ATOM      1  C   UNL     1      22.986  -4.422  53.410  1.00  0.00     0.000 C 
ENDROOT
BRANCH   1   2
ATOM      2  C   UNL     1      21.459  -4.399  53.249  1.00  0.00     0.000 C 
BRANCH   2   3
ATOM      3  C   UNL     1      20.719  -4.691  54.564  1.00  0.00     0.000 C 
BRANCH   3   4
ATOM      4  C   UNL     1      21.656  -4.689  55.784  1.00  0.00     0.000 C 
BRANCH   4   5
ATOM      5  C   UNL     1      21.200  -3.695  56.874  1.00  0.00     0.006 C 
BRANCH   5   6
ATOM      6  C   UNL     1      22.340  -2.826  57.429  1.00  0.00     0.053 C 
BRANCH   6   7
ATOM      7  C   UNL     1      23.249  -2.325  56.351  1.00  0.00     0.041 C 
ATOM      8  O   UNL     1      22.879  -1.389  55.594  1.00  0.00    -0.550 OA
ATOM      9  O   UNL     1      24.515  -2.877  56.197  1.00  0.00    -0.550 OA
ENDBRANCH   6   7
ENDBRANCH   5   6
ENDBRANCH   4   5
ENDBRANCH   3   4
ENDBRANCH   2   3
ENDBRANCH   1   2
BRANCH   1  10
ATOM     10  C   UNL     1      23.678  -4.619  52.055  1.00  0.00     0.000 C 
BRANCH  10  11
ATOM     11  C   UNL     1      24.883  -5.564  52.184  1.00  0.00    -0.000 C 
BRANCH  11  12
ATOM     12  C   UNL     1      25.332  -5.769  53.641  1.00  0.00    -0.000 C 
BRANCH  12  13
ATOM     13  C   UNL     1      26.827  -6.091  53.826  1.00  0.00    -0.000 C 
BRANCH  13  14
ATOM     14  C   UNL     1      27.623  -6.017  52.511  1.00  0.00    -0.000 C 
BRANCH  14  15
ATOM     15  C   UNL     1      29.007  -6.678  52.624  1.00  0.00    -0.003 C 
ATOM     16  C   UNL     1      29.466  -7.318  51.313  1.00  0.00     0.004 C 
ENDBRANCH  14  15
ENDBRANCH  13  14
ENDBRANCH  12  13
ENDBRANCH  11  12
ENDBRANCH  10  11
ENDBRANCH   1  10
TORSDOF 12
ENDMDL
MODEL 5
REMARK VINA RESULT:    -3.887      1.619      2.695
REMARK INTER + INTRA:          -7.921
REMARK INTER:                  -6.200
REMARK INTRA:                  -1.722
REMARK UNBOUND:                -1.308
REMARK SMILES CCCCCCCCCCCCCC(=O)[O-]
REMARK SMILES IDX 8 1 9 2 10 3 11 4 12 5 13 6 14 7 15 8 16 9 7 10 6 11 5 12
REMARK SMILES IDX 4 13 3 14 2 15 1 16
REMARK H PARENT
REMARK Flexibility Score: inf
ROOT
ATOM      1  C   UNL     1      23.255  -2.769  54.020  1.00  0.00     0.000 C 
ENDROOT
BRANCH   1   2
ATOM      2  C   UNL     1      21.838  -3.342  53.871  1.00  0.00     0.000 C 
BRANCH   2   3
ATOM      3  C   UNL     1      21.835  -4.834  53.501  1.00  0.00     0.000 C 
BRANCH   3   4
ATOM      4  C   UNL     1      23.057  -5.584  54.061  1.00  0.00     0.000 C 
BRANCH   4   5
ATOM      5  C   UNL     1      23.853  -6.314  52.959  1.00  0.00     0.006 C 
BRANCH   5   6
ATOM      6  C   UNL     1      25.015  -5.485  52.388  1.00  0.00     0.053 C 
BRANCH   6   7
ATOM      7  C   UNL     1      26.335  -5.881  52.969  1.00  0.00     0.041 C 
ATOM      8  O   UNL     1      27.272  -6.256  52.217  1.00  0.00    -0.550 OA
ATOM      9  O   UNL     1      26.539  -5.816  54.342  1.00  0.00    -0.550 OA
ENDBRANCH   6   7
ENDBRANCH   5   6
ENDBRANCH   4   5
ENDBRANCH   3   4
ENDBRANCH   2   3
ENDBRANCH   1   2
BRANCH   1  10
ATOM     10  C   UNL     1      23.405  -2.016  55.348  1.00  0.00     0.000 C 
BRANCH  10  11
ATOM     11  C   UNL     1      24.155  -2.869  56.383  1.00  0.00    -0.000 C 
BRANCH  11  12
ATOM     12  C   UNL     1      23.335  -3.124  57.660  1.00  0.00    -0.000 C 
BRANCH  12  13
ATOM     13  C   UNL     1      22.194  -4.149  57.512  1.00  0.00    -0.000 C 
BRANCH  13  14
ATOM     14  C   UNL     1      20.801  -3.497  57.506  1.00  0.00    -0.000 C 
BRANCH  14  15
ATOM     15  C   UNL     1      20.836  -2.030  57.966  1.00  0.00    -0.003 C 
ATOM     16  C   UNL     1      20.226  -1.073  56.941  1.00  0.00     0.004 C 
ENDBRANCH  14  15
ENDBRANCH  13  14
ENDBRANCH  12  13
ENDBRANCH  11  12
ENDBRANCH  10  11
ENDBRANCH   1  10
TORSDOF 12
ENDMDL
MODEL 6
REMARK VINA RESULT:    -3.806      3.340      4.122
REMARK INTER + INTRA:          -7.784
REMARK INTER:                  -6.249
REMARK INTRA:                  -1.535
REMARK UNBOUND:                -1.308
REMARK SMILES CCCCCCCCCCCCCC(=O)[O-]
REMARK SMILES IDX 8 1 9 2 10 3 11 4 12 5 13 6 14 7 15 8 16 9 7 10 6 11 5 12
REMARK SMILES IDX 4 13 3 14 2 15 1 16
REMARK H PARENT
REMARK Flexibility Score: inf
ROOT
ATOM      1  C   UNL     1      23.199  -2.782  53.859  1.00  0.00     0.000 C 
ENDROOT
BRANCH   1   2
ATOM      2  C   UNL     1      22.197  -3.925  54.081  1.00  0.00     0.000 C 
BRANCH   2   3
ATOM      3  C   UNL     1      22.737  -5.287  53.614  1.00  0.00     0.000 C 
BRANCH   3   4
ATOM      4  C   UNL     1      24.196  -5.211  53.131  1.00  0.00     0.000 C 
BRANCH   4   5
ATOM      5  C   UNL     1      24.327  -5.467  51.614  1.00  0.00     0.006 C 
BRANCH   5   6
ATOM      6  C   UNL     1      23.012  -5.272  50.842  1.00  0.00     0.053 C 
BRANCH   6   7
ATOM      7  C   UNL     1      23.015  -4.021  50.023  1.00  0.00     0.041 C 
ATOM      8  O   UNL     1      22.381  -3.972  48.937  1.00  0.00    -0.550 OA
ATOM      9  O   UNL     1      23.700  -2.898  50.471  1.00  0.00    -0.550 OA
ENDBRANCH   6   7
ENDBRANCH   5   6
ENDBRANCH   4   5
ENDBRANCH   3   4
ENDBRANCH   2   3
ENDBRANCH   1   2
BRANCH   1  10
ATOM     10  C   UNL     1      23.545  -2.092  55.185  1.00  0.00     0.000 C 
BRANCH  10  11
ATOM     11  C   UNL     1      24.233  -3.069  56.151  1.00  0.00    -0.000 C 
BRANCH  11  12
ATOM     12  C   UNL     1      23.590  -3.086  57.549  1.00  0.00    -0.000 C 
BRANCH  12  13
ATOM     13  C   UNL     1      22.353  -3.993  57.690  1.00  0.00    -0.000 C 
BRANCH  13  14
ATOM     14  C   UNL     1      21.028  -3.227  57.537  1.00  0.00    -0.000 C 
BRANCH  14  15
ATOM     15  C   UNL     1      21.141  -1.761  57.985  1.00  0.00    -0.003 C 
ATOM     16  C   UNL     1      20.602  -0.779  56.945  1.00  0.00     0.004 C 
ENDBRANCH  14  15
ENDBRANCH  13  14
ENDBRANCH  12  13
ENDBRANCH  11  12
ENDBRANCH  10  11
ENDBRANCH   1  10
TORSDOF 12
ENDMDL
MODEL 7
REMARK VINA RESULT:    -3.751      3.893      5.003
REMARK INTER + INTRA:          -7.689
REMARK INTER:                  -6.265
REMARK INTRA:                  -1.424
REMARK UNBOUND:                -1.308
REMARK SMILES CCCCCCCCCCCCCC(=O)[O-]
REMARK SMILES IDX 8 1 9 2 10 3 11 4 12 5 13 6 14 7 15 8 16 9 7 10 6 11 5 12
REMARK SMILES IDX 4 13 3 14 2 15 1 16
REMARK H PARENT
REMARK Flexibility Score: inf
ROOT
ATOM      1  C   UNL     1      23.660  -2.144  55.097  1.00  0.00     0.000 C 
ENDROOT
BRANCH   1   2
ATOM      2  C   UNL     1      23.113  -2.858  53.853  1.00  0.00     0.000 C 
BRANCH   2   3
ATOM      3  C   UNL     1      22.878  -4.360  54.085  1.00  0.00     0.000 C 
BRANCH   3   4
ATOM      4  C   UNL     1      23.686  -5.242  53.117  1.00  0.00     0.000 C 
BRANCH   4   5
ATOM      5  C   UNL     1      23.144  -6.686  53.047  1.00  0.00     0.006 C 
BRANCH   5   6
ATOM      6  C   UNL     1      21.919  -6.927  53.943  1.00  0.00     0.053 C 
BRANCH   6   7
ATOM      7  C   UNL     1      20.746  -7.448  53.175  1.00  0.00     0.041 C 
ATOM      8  O   UNL     1      19.682  -7.758  53.773  1.00  0.00    -0.550 OA
ATOM      9  O   UNL     1      20.820  -7.570  51.792  1.00  0.00    -0.550 OA
ENDBRANCH   6   7
ENDBRANCH   5   6
ENDBRANCH   4   5
ENDBRANCH   3   4
ENDBRANCH   2   3
ENDBRANCH   1   2
BRANCH   1  10
ATOM     10  C   UNL     1      24.335  -3.139  56.049  1.00  0.00     0.000 C 
BRANCH  10  11
ATOM     11  C   UNL     1      23.779  -3.002  57.475  1.00  0.00    -0.000 C 
BRANCH  11  12
ATOM     12  C   UNL     1      22.555  -3.898  57.732  1.00  0.00    -0.000 C 
BRANCH  12  13
ATOM     13  C   UNL     1      21.196  -3.271  57.364  1.00  0.00    -0.000 C 
BRANCH  13  14
ATOM     14  C   UNL     1      20.986  -1.884  57.996  1.00  0.00    -0.000 C 
BRANCH  14  15
ATOM     15  C   UNL     1      20.927  -0.763  56.946  1.00  0.00    -0.003 C 
ATOM     16  C   UNL     1      20.076  -1.131  55.731  1.00  0.00     0.004 C 
ENDBRANCH  14  15
ENDBRANCH  13  14
ENDBRANCH  12  13
ENDBRANCH  11  12
ENDBRANCH  10  11
ENDBRANCH   1  10
TORSDOF 12
ENDMDL
MODEL 8
REMARK VINA RESULT:    -3.731      2.746      4.349
REMARK INTER + INTRA:          -7.657
REMARK INTER:                  -5.656
REMARK INTRA:                  -2.000
REMARK UNBOUND:                -1.308
REMARK SMILES CCCCCCCCCCCCCC(=O)[O-]
REMARK SMILES IDX 8 1 9 2 10 3 11 4 12 5 13 6 14 7 15 8 16 9 7 10 6 11 5 12
REMARK SMILES IDX 4 13 3 14 2 15 1 16
REMARK H PARENT
REMARK Flexibility Score: inf
ROOT
ATOM      1  C   UNL     1      20.976  -4.478  57.163  1.00  0.00     0.000 C 
ENDROOT
BRANCH   1   2
ATOM      2  C   UNL     1      20.742  -5.893  56.616  1.00  0.00     0.000 C 
BRANCH   2   3
ATOM      3  C   UNL     1      21.131  -6.029  55.135  1.00  0.00     0.000 C 
BRANCH   3   4
ATOM      4  C   UNL     1      20.888  -4.735  54.338  1.00  0.00     0.000 C 
BRANCH   4   5
ATOM      5  C   UNL     1      21.967  -4.497  53.260  1.00  0.00     0.006 C 
BRANCH   5   6
ATOM      6  C   UNL     1      23.279  -5.253  53.527  1.00  0.00     0.053 C 
BRANCH   6   7
ATOM      7  C   UNL     1      24.065  -5.485  52.275  1.00  0.00     0.041 C 
ATOM      8  O   UNL     1      25.314  -5.637  52.329  1.00  0.00    -0.550 OA
ATOM      9  O   UNL     1      23.415  -5.557  51.049  1.00  0.00    -0.550 OA
ENDBRANCH   6   7
ENDBRANCH   5   6
ENDBRANCH   4   5
ENDBRANCH   3   4
ENDBRANCH   2   3
ENDBRANCH   1   2
BRANCH   1  10
ATOM     10  C   UNL     1      22.415  -4.317  57.671  1.00  0.00     0.000 C 
BRANCH  10  11
ATOM     11  C   UNL     1      22.897  -2.867  57.507  1.00  0.00    -0.000 C 
BRANCH  11  12
ATOM     12  C   UNL     1      23.410  -2.560  56.089  1.00  0.00    -0.000 C 
BRANCH  12  13
ATOM     13  C   UNL     1      22.725  -1.373  55.387  1.00  0.00    -0.000 C 
BRANCH  13  14
ATOM     14  C   UNL     1      21.488  -0.861  56.146  1.00  0.00    -0.000 C 
BRANCH  14  15
ATOM     15  C   UNL     1      20.170  -1.293  55.482  1.00  0.00    -0.003 C 
ATOM     16  C   UNL     1      19.011  -1.394  56.474  1.00  0.00     0.004 C 
ENDBRANCH  14  15
ENDBRANCH  13  14
ENDBRANCH  12  13
ENDBRANCH  11  12
ENDBRANCH  10  11
ENDBRANCH   1  10
TORSDOF 12
ENDMDL
MODEL 9
REMARK VINA RESULT:    -3.726     13.482     15.111
REMARK INTER + INTRA:          -7.648
REMARK INTER:                  -6.699
REMARK INTRA:                  -0.949
REMARK UNBOUND:                -1.308
REMARK SMILES CCCCCCCCCCCCCC(=O)[O-]
REMARK SMILES IDX 8 1 9 2 10 3 11 4 12 5 13 6 14 7 15 8 16 9 7 10 6 11 5 12
REMARK SMILES IDX 4 13 3 14 2 15 1 16
REMARK H PARENT
REMARK Flexibility Score: inf
ROOT
ATOM      1  C   UNL     1      19.056   3.468  41.054  1.00  0.00     0.000 C 
ENDROOT
BRANCH   1   2
ATOM      2  C   UNL     1      20.001   4.360  41.872  1.00  0.00     0.000 C 
BRANCH   2   3
ATOM      3  C   UNL     1      21.480   3.991  41.681  1.00  0.00     0.000 C 
BRANCH   3   4
ATOM      4  C   UNL     1      21.755   2.497  41.931  1.00  0.00     0.000 C 
BRANCH   4   5
ATOM      5  C   UNL     1      23.199   2.095  41.562  1.00  0.00     0.006 C 
BRANCH   5   6
ATOM      6  C   UNL     1      23.609   2.514  40.141  1.00  0.00     0.053 C 
BRANCH   6   7
ATOM      7  C   UNL     1      23.292   1.462  39.125  1.00  0.00     0.041 C 
ATOM      8  O   UNL     1      22.521   1.720  38.164  1.00  0.00    -0.550 OA
ATOM      9  O   UNL     1      23.867   0.201  39.227  1.00  0.00    -0.550 OA
ENDBRANCH   6   7
ENDBRANCH   5   6
ENDBRANCH   4   5
ENDBRANCH   3   4
ENDBRANCH   2   3
ENDBRANCH   1   2
BRANCH   1  10
ATOM     10  C   UNL     1      17.806   3.103  41.866  1.00  0.00     0.000 C 
BRANCH  10  11
ATOM     11  C   UNL     1      18.190   2.441  43.199  1.00  0.00    -0.000 C 
BRANCH  11  12
ATOM     12  C   UNL     1      17.341   1.198  43.520  1.00  0.00    -0.000 C 
BRANCH  12  13
ATOM     13  C   UNL     1      17.926  -0.139  43.030  1.00  0.00    -0.000 C 
BRANCH  13  14
ATOM     14  C   UNL     1      18.696  -0.894  44.127  1.00  0.00    -0.000 C 
BRANCH  14  15
ATOM     15  C   UNL     1      20.202  -0.987  43.831  1.00  0.00    -0.003 C 
ATOM     16  C   UNL     1      20.893  -2.101  44.618  1.00  0.00     0.004 C 
ENDBRANCH  14  15
ENDBRANCH  13  14
ENDBRANCH  12  13
ENDBRANCH  11  12
ENDBRANCH  10  11
ENDBRANCH   1  10
TORSDOF 12
ENDMDL
