MODEL 1
REMARK VINA RESULT:    -5.120      0.000      0.000
REMARK INTER + INTRA:          -6.445
REMARK INTER:                  -6.168
REMARK INTRA:                  -0.277
REMARK UNBOUND:                -0.277
REMARK SMILES O=c1c(O)c(-c2ccc(O)c(O)c2)oc2cc(O)cc(O)c12
REMARK SMILES IDX 5 1 3 2 2 3 1 4 22 5 20 6 19 7 17 8 16 9 15 10 14 11 6 12
REMARK SMILES IDX 7 13 8 14 9 15 13 16 11 17 10 18 12 20 4 22 21 24 18 26
REMARK H PARENT 10 19 12 21 4 23 21 25 18 27
REMARK Flexibility Score: inf
ROOT
ATOM      1  C   UNL     1       1.695   2.296   8.113  1.00  0.00     0.180 A 
ATOM      2  C   UNL     1       1.992   3.376   7.262  1.00  0.00     0.208 A 
ATOM      3  C   UNL     1       3.333   3.747   7.077  1.00  0.00     0.238 A 
ATOM      4  O   UNL     1       3.597   4.679   6.271  1.00  0.00    -0.285 OA
ATOM      5  C   UNL     1       4.359   3.048   7.757  1.00  0.00     0.111 A 
ATOM      6  C   UNL     1       5.748   3.365   7.675  1.00  0.00     0.134 A 
ATOM      7  C   UNL     1       6.686   2.524   8.287  1.00  0.00     0.093 A 
ATOM      8  C   UNL     1       6.280   1.415   9.033  1.00  0.00     0.123 A 
ATOM      9  C   UNL     1       4.923   1.131   9.168  1.00  0.00     0.094 A 
ATOM     10  C   UNL     1       3.966   1.930   8.539  1.00  0.00     0.146 A 
ATOM     11  O   UNL     1       2.683   1.619   8.685  1.00  0.00    -0.452 OA
ENDROOT
BRANCH   1  12
ATOM     12  C   UNL     1       0.305   1.861   8.377  1.00  0.00     0.025 A 
ATOM     13  C   UNL     1      -0.245   0.735   7.739  1.00  0.00     0.016 A 
ATOM     14  C   UNL     1      -1.567   0.358   7.986  1.00  0.00     0.051 A 
ATOM     15  C   UNL     1      -2.363   1.107   8.862  1.00  0.00     0.157 A 
ATOM     16  C   UNL     1      -0.506   2.621   9.237  1.00  0.00     0.062 A 
ATOM     17  C   UNL     1      -1.833   2.243   9.486  1.00  0.00     0.158 A 
BRANCH  15  18
ATOM     18  O   UNL     1      -3.683   0.735   9.111  1.00  0.00    -0.504 OA
ATOM     19  H   UNL     1      -4.401   1.423   9.303  1.00  0.00     0.293 HD
ENDBRANCH  15  18
BRANCH  17  20
ATOM     20  O   UNL     1      -2.630   2.992  10.350  1.00  0.00    -0.504 OA
ATOM     21  H   UNL     1      -3.372   2.565  10.891  1.00  0.00     0.293 HD
ENDBRANCH  17  20
ENDBRANCH   1  12
BRANCH   2  22
ATOM     22  O   UNL     1       0.966   4.038   6.582  1.00  0.00    -0.502 OA
ATOM     23  H   UNL     1       0.626   4.949   6.865  1.00  0.00     0.293 HD
ENDBRANCH   2  22
BRANCH   6  24
ATOM     24  O   UNL     1       6.253   4.500   7.033  1.00  0.00    -0.507 OA
ATOM     25  H   UNL     1       7.202   4.830   7.113  1.00  0.00     0.293 HD
ENDBRANCH   6  24
BRANCH   8  26
ATOM     26  O   UNL     1       7.219   0.592   9.652  1.00  0.00    -0.508 OA
ATOM     27  H   UNL     1       7.726  -0.116   9.134  1.00  0.00     0.293 HD
ENDBRANCH   8  26
TORSDOF 6
ENDMDL
MODEL 2
REMARK VINA RESULT:    -4.755      1.511      3.134
REMARK INTER + INTRA:          -6.005
REMARK INTER:                  -5.671
REMARK INTRA:                  -0.333
REMARK UNBOUND:                -0.277
REMARK SMILES O=c1c(O)c(-c2ccc(O)c(O)c2)oc2cc(O)cc(O)c12
REMARK SMILES IDX 5 1 3 2 2 3 1 4 22 5 20 6 19 7 17 8 16 9 15 10 14 11 6 12
REMARK SMILES IDX 7 13 8 14 9 15 13 16 11 17 10 18 12 20 4 22 21 24 18 26
REMARK H PARENT 10 19 12 21 4 23 21 25 18 27
REMARK Flexibility Score: inf
ROOT
ATOM      1  C   UNL     1       2.369   0.941   9.019  1.00  0.00     0.180 A 
ATOM      2  C   UNL     1       3.055  -0.120   9.637  1.00  0.00     0.208 A 
ATOM      3  C   UNL     1       4.458  -0.135   9.603  1.00  0.00     0.238 A 
ATOM      4  O   UNL     1       5.067  -1.058  10.205  1.00  0.00    -0.285 OA
ATOM      5  C   UNL     1       5.158   0.901   8.939  1.00  0.00     0.111 A 
ATOM      6  C   UNL     1       6.578   0.966   8.809  1.00  0.00     0.134 A 
ATOM      7  C   UNL     1       7.168   2.104   8.246  1.00  0.00     0.093 A 
ATOM      8  C   UNL     1       6.387   3.150   7.748  1.00  0.00     0.123 A 
ATOM      9  C   UNL     1       4.999   3.069   7.817  1.00  0.00     0.094 A 
ATOM     10  C   UNL     1       4.381   1.964   8.407  1.00  0.00     0.146 A 
ATOM     11  O   UNL     1       3.055   1.931   8.461  1.00  0.00    -0.452 OA
ENDROOT
BRANCH   1  12
ATOM     12  C   UNL     1       0.890   1.012   8.991  1.00  0.00     0.025 A 
ATOM     13  C   UNL     1       0.145   0.385   7.976  1.00  0.00     0.016 A 
ATOM     14  C   UNL     1      -1.248   0.487   7.957  1.00  0.00     0.051 A 
ATOM     15  C   UNL     1      -1.916   1.226   8.941  1.00  0.00     0.157 A 
ATOM     16  C   UNL     1       0.216   1.770   9.963  1.00  0.00     0.062 A 
ATOM     17  C   UNL     1      -1.183   1.872   9.945  1.00  0.00     0.158 A 
BRANCH  15  18
ATOM     18  O   UNL     1      -3.306   1.329   8.926  1.00  0.00    -0.504 OA
ATOM     19  H   UNL     1      -3.770   2.229   8.898  1.00  0.00     0.293 HD
ENDBRANCH  15  18
BRANCH  17  20
ATOM     20  O   UNL     1      -1.849   2.613  10.918  1.00  0.00    -0.504 OA
ATOM     21  H   UNL     1      -1.345   3.143  11.619  1.00  0.00     0.293 HD
ENDBRANCH  17  20
ENDBRANCH   1  12
BRANCH   2  22
ATOM     22  O   UNL     1       2.345  -1.121  10.306  1.00  0.00    -0.502 OA
ATOM     23  H   UNL     1       2.794  -1.943  10.690  1.00  0.00     0.293 HD
ENDBRANCH   2  22
BRANCH   6  24
ATOM     24  O   UNL     1       7.444  -0.064   9.189  1.00  0.00    -0.507 OA
ATOM     25  H   UNL     1       7.173  -1.028   9.305  1.00  0.00     0.293 HD
ENDBRANCH   6  24
BRANCH   8  26
ATOM     26  O   UNL     1       6.983   4.271   7.175  1.00  0.00    -0.508 OA
ATOM     27  H   UNL     1       7.432   4.228   6.267  1.00  0.00     0.293 HD
ENDBRANCH   8  26
TORSDOF 6
ENDMDL
MODEL 3
REMARK VINA RESULT:    -4.600      0.971      1.597
REMARK INTER + INTRA:          -5.819
REMARK INTER:                  -5.528
REMARK INTRA:                  -0.290
REMARK UNBOUND:                -0.277
REMARK SMILES O=c1c(O)c(-c2ccc(O)c(O)c2)oc2cc(O)cc(O)c12
REMARK SMILES IDX 5 1 3 2 2 3 1 4 22 5 20 6 19 7 17 8 16 9 15 10 14 11 6 12
REMARK SMILES IDX 7 13 8 14 9 15 13 16 11 17 10 18 12 20 4 22 21 24 18 26
REMARK H PARENT 10 19 12 21 4 23 21 25 18 27
REMARK Flexibility Score: inf
ROOT
ATOM      1  C   UNL     1       2.302   2.628   8.377  1.00  0.00     0.180 A 
ATOM      2  C   UNL     1       2.766   3.707   7.604  1.00  0.00     0.208 A 
ATOM      3  C   UNL     1       4.143   3.825   7.356  1.00  0.00     0.238 A 
ATOM      4  O   UNL     1       4.546   4.762   6.618  1.00  0.00    -0.285 OA
ATOM      5  C   UNL     1       5.041   2.874   7.899  1.00  0.00     0.111 A 
ATOM      6  C   UNL     1       6.459   2.920   7.745  1.00  0.00     0.134 A 
ATOM      7  C   UNL     1       7.238   1.855   8.214  1.00  0.00     0.093 A 
ATOM      8  C   UNL     1       6.657   0.778   8.889  1.00  0.00     0.123 A 
ATOM      9  C   UNL     1       5.280   0.754   9.095  1.00  0.00     0.094 A 
ATOM     10  C   UNL     1       4.471   1.784   8.607  1.00  0.00     0.146 A 
ATOM     11  O   UNL     1       3.163   1.717   8.817  1.00  0.00    -0.452 OA
ENDROOT
BRANCH   1  12
ATOM     12  C   UNL     1       0.869   2.450   8.701  1.00  0.00     0.025 A 
ATOM     13  C   UNL     1       0.238   3.230   9.687  1.00  0.00     0.016 A 
ATOM     14  C   UNL     1      -1.110   3.027   9.993  1.00  0.00     0.051 A 
ATOM     15  C   UNL     1      -1.843   2.036   9.329  1.00  0.00     0.157 A 
ATOM     16  C   UNL     1       0.133   1.443   8.055  1.00  0.00     0.062 A 
ATOM     17  C   UNL     1      -1.220   1.239   8.360  1.00  0.00     0.158 A 
BRANCH  15  18
ATOM     18  O   UNL     1      -3.189   1.831   9.630  1.00  0.00    -0.504 OA
ATOM     19  H   UNL     1      -3.490   1.585  10.566  1.00  0.00     0.293 HD
ENDBRANCH  15  18
BRANCH  17  20
ATOM     20  O   UNL     1      -1.950   0.248   7.707  1.00  0.00    -0.504 OA
ATOM     21  H   UNL     1      -2.931   0.369   7.488  1.00  0.00     0.293 HD
ENDBRANCH  17  20
ENDBRANCH   1  12
BRANCH   2  22
ATOM     22  O   UNL     1       1.861   4.621   7.059  1.00  0.00    -0.502 OA
ATOM     23  H   UNL     1       2.156   5.418   6.508  1.00  0.00     0.293 HD
ENDBRANCH   2  22
BRANCH   6  24
ATOM     24  O   UNL     1       7.148   3.992   7.170  1.00  0.00    -0.507 OA
ATOM     25  H   UNL     1       6.788   4.930   7.094  1.00  0.00     0.293 HD
ENDBRANCH   6  24
BRANCH   8  26
ATOM     26  O   UNL     1       7.442  -0.270   9.365  1.00  0.00    -0.508 OA
ATOM     27  H   UNL     1       8.189  -0.668   8.809  1.00  0.00     0.293 HD
ENDBRANCH   8  26
TORSDOF 6
ENDMDL
MODEL 4
REMARK VINA RESULT:    -4.600      8.444     11.408
REMARK INTER + INTRA:          -5.818
REMARK INTER:                  -5.492
REMARK INTRA:                  -0.326
REMARK UNBOUND:                -0.277
REMARK SMILES O=c1c(O)c(-c2ccc(O)c(O)c2)oc2cc(O)cc(O)c12
REMARK SMILES IDX 5 1 3 2 2 3 1 4 22 5 20 6 19 7 17 8 16 9 15 10 14 11 6 12
REMARK SMILES IDX 7 13 8 14 9 15 13 16 11 17 10 18 12 20 4 22 21 24 18 26
REMARK H PARENT 10 19 12 21 4 23 21 25 18 27
REMARK Flexibility Score: inf
ROOT
ATOM      1  C   UNL     1      -4.059   6.555   2.806  1.00  0.00     0.180 A 
ATOM      2  C   UNL     1      -3.237   6.638   3.944  1.00  0.00     0.208 A 
ATOM      3  C   UNL     1      -3.831   6.613   5.216  1.00  0.00     0.238 A 
ATOM      4  O   UNL     1      -3.086   6.633   6.231  1.00  0.00    -0.285 OA
ATOM      5  C   UNL     1      -5.239   6.524   5.335  1.00  0.00     0.111 A 
ATOM      6  C   UNL     1      -5.949   6.532   6.573  1.00  0.00     0.134 A 
ATOM      7  C   UNL     1      -7.331   6.306   6.577  1.00  0.00     0.093 A 
ATOM      8  C   UNL     1      -8.037   6.138   5.383  1.00  0.00     0.123 A 
ATOM      9  C   UNL     1      -7.361   6.188   4.167  1.00  0.00     0.094 A 
ATOM     10  C   UNL     1      -5.977   6.375   4.132  1.00  0.00     0.146 A 
ATOM     11  O   UNL     1      -5.370   6.406   2.952  1.00  0.00    -0.452 OA
ENDROOT
BRANCH   1  12
ATOM     12  C   UNL     1      -3.509   6.599   1.432  1.00  0.00     0.025 A 
ATOM     13  C   UNL     1      -3.226   7.821   0.795  1.00  0.00     0.016 A 
ATOM     14  C   UNL     1      -2.730   7.838  -0.511  1.00  0.00     0.051 A 
ATOM     15  C   UNL     1      -2.522   6.639  -1.203  1.00  0.00     0.157 A 
ATOM     16  C   UNL     1      -3.319   5.401   0.724  1.00  0.00     0.062 A 
ATOM     17  C   UNL     1      -2.821   5.418  -0.587  1.00  0.00     0.158 A 
BRANCH  15  18
ATOM     18  O   UNL     1      -2.027   6.652  -2.506  1.00  0.00    -0.504 OA
ATOM     19  H   UNL     1      -1.713   5.803  -2.962  1.00  0.00     0.293 HD
ENDBRANCH  15  18
BRANCH  17  20
ATOM     20  O   UNL     1      -2.621   4.226  -1.281  1.00  0.00    -0.504 OA
ATOM     21  H   UNL     1      -2.786   4.159  -2.278  1.00  0.00     0.293 HD
ENDBRANCH  17  20
ENDBRANCH   1  12
BRANCH   2  22
ATOM     22  O   UNL     1      -1.848   6.703   3.804  1.00  0.00    -0.502 OA
ATOM     23  H   UNL     1      -1.387   7.440   3.285  1.00  0.00     0.293 HD
ENDBRANCH   2  22
BRANCH   6  24
ATOM     24  O   UNL     1      -5.354   6.783   7.812  1.00  0.00    -0.507 OA
ATOM     25  H   UNL     1      -4.935   6.079   8.402  1.00  0.00     0.293 HD
ENDBRANCH   6  24
BRANCH   8  26
ATOM     26  O   UNL     1      -9.415   5.929   5.396  1.00  0.00    -0.508 OA
ATOM     27  H   UNL     1      -9.945   5.835   4.537  1.00  0.00     0.293 HD
ENDBRANCH   8  26
TORSDOF 6
ENDMDL
MODEL 5
REMARK VINA RESULT:    -4.566      2.284      6.820
REMARK INTER + INTRA:          -5.777
REMARK INTER:                  -5.455
REMARK INTRA:                  -0.322
REMARK UNBOUND:                -0.277
REMARK SMILES O=c1c(O)c(-c2ccc(O)c(O)c2)oc2cc(O)cc(O)c12
REMARK SMILES IDX 5 1 3 2 2 3 1 4 22 5 20 6 19 7 17 8 16 9 15 10 14 11 6 12
REMARK SMILES IDX 7 13 8 14 9 15 13 16 11 17 10 18 12 20 4 22 21 24 18 26
REMARK H PARENT 10 19 12 21 4 23 21 25 18 27
REMARK Flexibility Score: inf
ROOT
ATOM      1  C   UNL     1       3.446   1.841   8.793  1.00  0.00     0.180 A 
ATOM      2  C   UNL     1       2.379   2.669   8.399  1.00  0.00     0.208 A 
ATOM      3  C   UNL     1       1.105   2.104   8.233  1.00  0.00     0.238 A 
ATOM      4  O   UNL     1       0.142   2.859   7.935  1.00  0.00    -0.285 OA
ATOM      5  C   UNL     1       0.915   0.716   8.445  1.00  0.00     0.111 A 
ATOM      6  C   UNL     1      -0.324   0.031   8.267  1.00  0.00     0.134 A 
ATOM      7  C   UNL     1      -0.426  -1.317   8.632  1.00  0.00     0.093 A 
ATOM      8  C   UNL     1       0.684  -2.021   9.106  1.00  0.00     0.123 A 
ATOM      9  C   UNL     1       1.912  -1.376   9.228  1.00  0.00     0.094 A 
ATOM     10  C   UNL     1       2.037  -0.022   8.907  1.00  0.00     0.146 A 
ATOM     11  O   UNL     1       3.223   0.557   9.046  1.00  0.00    -0.452 OA
ENDROOT
BRANCH   1  12
ATOM     12  C   UNL     1       4.822   2.359   8.963  1.00  0.00     0.025 A 
ATOM     13  C   UNL     1       5.251   2.911  10.184  1.00  0.00     0.016 A 
ATOM     14  C   UNL     1       6.548   3.416  10.314  1.00  0.00     0.051 A 
ATOM     15  C   UNL     1       7.429   3.389   9.225  1.00  0.00     0.157 A 
ATOM     16  C   UNL     1       5.704   2.355   7.869  1.00  0.00     0.062 A 
ATOM     17  C   UNL     1       7.005   2.860   7.999  1.00  0.00     0.158 A 
BRANCH  15  18
ATOM     18  O   UNL     1       8.723   3.890   9.351  1.00  0.00    -0.504 OA
ATOM     19  H   UNL     1       9.533   3.284   9.300  1.00  0.00     0.293 HD
ENDBRANCH  15  18
BRANCH  17  20
ATOM     20  O   UNL     1       7.881   2.842   6.915  1.00  0.00    -0.504 OA
ATOM     21  H   UNL     1       8.391   3.670   6.632  1.00  0.00     0.293 HD
ENDBRANCH  17  20
ENDBRANCH   1  12
BRANCH   2  22
ATOM     22  O   UNL     1       2.583   4.039   8.217  1.00  0.00    -0.502 OA
ATOM     23  H   UNL     1       3.377   4.408   7.709  1.00  0.00     0.293 HD
ENDBRANCH   2  22
BRANCH   6  24
ATOM     24  O   UNL     1      -1.466   0.617   7.714  1.00  0.00    -0.507 OA
ATOM     25  H   UNL     1      -1.871   0.360   6.826  1.00  0.00     0.293 HD
ENDBRANCH   6  24
BRANCH   8  26
ATOM     26  O   UNL     1       0.577  -3.366   9.452  1.00  0.00    -0.508 OA
ATOM     27  H   UNL     1       1.300  -3.835   9.986  1.00  0.00     0.293 HD
ENDBRANCH   8  26
TORSDOF 6
ENDMDL
MODEL 6
REMARK VINA RESULT:    -4.536      2.884      4.975
REMARK INTER + INTRA:          -5.741
REMARK INTER:                  -5.458
REMARK INTRA:                  -0.284
REMARK UNBOUND:                -0.277
REMARK SMILES O=c1c(O)c(-c2ccc(O)c(O)c2)oc2cc(O)cc(O)c12
REMARK SMILES IDX 5 1 3 2 2 3 1 4 22 5 20 6 19 7 17 8 16 9 15 10 14 11 6 12
REMARK SMILES IDX 7 13 8 14 9 15 13 16 11 17 10 18 12 20 4 22 21 24 18 26
REMARK H PARENT 10 19 12 21 4 23 21 25 18 27
REMARK Flexibility Score: inf
ROOT
ATOM      1  C   UNL     1       1.121   2.238   8.390  1.00  0.00     0.180 A 
ATOM      2  C   UNL     1       2.404   2.172   8.962  1.00  0.00     0.208 A 
ATOM      3  C   UNL     1       2.930   0.918   9.313  1.00  0.00     0.238 A 
ATOM      4  O   UNL     1       4.100   0.861   9.774  1.00  0.00    -0.285 OA
ATOM      5  C   UNL     1       2.160  -0.252   9.105  1.00  0.00     0.111 A 
ATOM      6  C   UNL     1       2.578  -1.570   9.461  1.00  0.00     0.134 A 
ATOM      7  C   UNL     1       1.791  -2.667   9.088  1.00  0.00     0.093 A 
ATOM      8  C   UNL     1       0.571  -2.489   8.432  1.00  0.00     0.123 A 
ATOM      9  C   UNL     1       0.127  -1.203   8.133  1.00  0.00     0.094 A 
ATOM     10  C   UNL     1       0.907  -0.090   8.458  1.00  0.00     0.146 A 
ATOM     11  O   UNL     1       0.452   1.117   8.147  1.00  0.00    -0.452 OA
ENDROOT
BRANCH   1  12
ATOM     12  C   UNL     1       0.490   3.524   8.017  1.00  0.00     0.025 A 
ATOM     13  C   UNL     1       0.853   4.204   6.841  1.00  0.00     0.016 A 
ATOM     14  C   UNL     1       0.261   5.429   6.522  1.00  0.00     0.051 A 
ATOM     15  C   UNL     1      -0.690   5.998   7.378  1.00  0.00     0.157 A 
ATOM     16  C   UNL     1      -0.449   4.110   8.882  1.00  0.00     0.062 A 
ATOM     17  C   UNL     1      -1.044   5.339   8.562  1.00  0.00     0.158 A 
BRANCH  15  18
ATOM     18  O   UNL     1      -1.283   7.219   7.063  1.00  0.00    -0.504 OA
ATOM     19  H   UNL     1      -0.742   7.991   6.692  1.00  0.00     0.293 HD
ENDBRANCH  15  18
BRANCH  17  20
ATOM     20  O   UNL     1      -1.984   5.911   9.416  1.00  0.00    -0.504 OA
ATOM     21  H   UNL     1      -2.210   5.495  10.312  1.00  0.00     0.293 HD
ENDBRANCH  17  20
ENDBRANCH   1  12
BRANCH   2  22
ATOM     22  O   UNL     1       3.155   3.337   9.138  1.00  0.00    -0.502 OA
ATOM     23  H   UNL     1       3.943   3.571   8.546  1.00  0.00     0.293 HD
ENDBRANCH   2  22
BRANCH   6  24
ATOM     24  O   UNL     1       3.732  -1.850  10.197  1.00  0.00    -0.507 OA
ATOM     25  H   UNL     1       3.850  -2.653  10.796  1.00  0.00     0.293 HD
ENDBRANCH   6  24
BRANCH   8  26
ATOM     26  O   UNL     1      -0.213  -3.585   8.079  1.00  0.00    -0.508 OA
ATOM     27  H   UNL     1      -0.872  -3.997   8.730  1.00  0.00     0.293 HD
ENDBRANCH   8  26
TORSDOF 6
ENDMDL
MODEL 7
REMARK VINA RESULT:    -4.518      1.222      2.957
REMARK INTER + INTRA:          -5.720
REMARK INTER:                  -5.454
REMARK INTRA:                  -0.266
REMARK UNBOUND:                -0.277
REMARK SMILES O=c1c(O)c(-c2ccc(O)c(O)c2)oc2cc(O)cc(O)c12
REMARK SMILES IDX 5 1 3 2 2 3 1 4 22 5 20 6 19 7 17 8 16 9 15 10 14 11 6 12
REMARK SMILES IDX 7 13 8 14 9 15 13 16 11 17 10 18 12 20 4 22 21 24 18 26
REMARK H PARENT 10 19 12 21 4 23 21 25 18 27
REMARK Flexibility Score: inf
ROOT
ATOM      1  C   UNL     1       1.599   2.109   8.338  1.00  0.00     0.180 A 
ATOM      2  C   UNL     1       2.672   1.391   8.897  1.00  0.00     0.208 A 
ATOM      3  C   UNL     1       3.980   1.866   8.709  1.00  0.00     0.238 A 
ATOM      4  O   UNL     1       4.931   1.250   9.258  1.00  0.00    -0.285 OA
ATOM      5  C   UNL     1       4.202   3.041   7.951  1.00  0.00     0.111 A 
ATOM      6  C   UNL     1       5.488   3.589   7.664  1.00  0.00     0.134 A 
ATOM      7  C   UNL     1       5.581   4.827   7.016  1.00  0.00     0.093 A 
ATOM      8  C   UNL     1       4.437   5.504   6.587  1.00  0.00     0.123 A 
ATOM      9  C   UNL     1       3.180   4.948   6.810  1.00  0.00     0.094 A 
ATOM     10  C   UNL     1       3.052   3.733   7.487  1.00  0.00     0.146 A 
ATOM     11  O   UNL     1       1.835   3.242   7.688  1.00  0.00    -0.452 OA
ENDROOT
BRANCH   1  12
ATOM     12  C   UNL     1       0.196   1.658   8.471  1.00  0.00     0.025 A 
ATOM     13  C   UNL     1      -0.290   0.552   7.753  1.00  0.00     0.016 A 
ATOM     14  C   UNL     1      -1.626   0.160   7.877  1.00  0.00     0.051 A 
ATOM     15  C   UNL     1      -2.497   0.874   8.709  1.00  0.00     0.157 A 
ATOM     16  C   UNL     1      -0.689   2.383   9.288  1.00  0.00     0.062 A 
ATOM     17  C   UNL     1      -2.029   1.990   9.414  1.00  0.00     0.158 A 
BRANCH  15  18
ATOM     18  O   UNL     1      -3.829   0.486   8.837  1.00  0.00    -0.504 OA
ATOM     19  H   UNL     1      -4.448   0.444   8.035  1.00  0.00     0.293 HD
ENDBRANCH  15  18
BRANCH  17  20
ATOM     20  O   UNL     1      -2.899   2.704  10.235  1.00  0.00    -0.504 OA
ATOM     21  H   UNL     1      -3.306   2.289  11.065  1.00  0.00     0.293 HD
ENDBRANCH  17  20
ENDBRANCH   1  12
BRANCH   2  22
ATOM     22  O   UNL     1       2.429   0.247   9.660  1.00  0.00    -0.502 OA
ATOM     23  H   UNL     1       1.674  -0.396   9.453  1.00  0.00     0.293 HD
ENDBRANCH   2  22
BRANCH   6  24
ATOM     24  O   UNL     1       6.694   2.950   7.966  1.00  0.00    -0.507 OA
ATOM     25  H   UNL     1       7.384   2.675   7.285  1.00  0.00     0.293 HD
ENDBRANCH   6  24
BRANCH   8  26
ATOM     26  O   UNL     1       4.540   6.728   5.929  1.00  0.00    -0.508 OA
ATOM     27  H   UNL     1       5.021   7.516   6.347  1.00  0.00     0.293 HD
ENDBRANCH   8  26
TORSDOF 6
ENDMDL
MODEL 8
REMARK VINA RESULT:    -4.450      9.026     10.236
REMARK INTER + INTRA:          -5.638
REMARK INTER:                  -5.389
REMARK INTRA:                  -0.249
REMARK UNBOUND:                -0.277
REMARK SMILES O=c1c(O)c(-c2ccc(O)c(O)c2)oc2cc(O)cc(O)c12
REMARK SMILES IDX 5 1 3 2 2 3 1 4 22 5 20 6 19 7 17 8 16 9 15 10 14 11 6 12
REMARK SMILES IDX 7 13 8 14 9 15 13 16 11 17 10 18 12 20 4 22 21 24 18 26
REMARK H PARENT 10 19 12 21 4 23 21 25 18 27
REMARK Flexibility Score: inf
ROOT
ATOM      1  C   UNL     1      -4.246   7.013   3.057  1.00  0.00     0.180 A 
ATOM      2  C   UNL     1      -3.907   8.346   2.764  1.00  0.00     0.208 A 
ATOM      3  C   UNL     1      -3.271   8.636   1.547  1.00  0.00     0.238 A 
ATOM      4  O   UNL     1      -3.020   9.838   1.267  1.00  0.00    -0.285 OA
ATOM      5  C   UNL     1      -2.965   7.588   0.644  1.00  0.00     0.111 A 
ATOM      6  C   UNL     1      -2.286   7.763  -0.599  1.00  0.00     0.134 A 
ATOM      7  C   UNL     1      -2.154   6.675  -1.471  1.00  0.00     0.093 A 
ATOM      8  C   UNL     1      -2.617   5.406  -1.116  1.00  0.00     0.123 A 
ATOM      9  C   UNL     1      -3.228   5.214   0.120  1.00  0.00     0.094 A 
ATOM     10  C   UNL     1      -3.408   6.287   0.997  1.00  0.00     0.146 A 
ATOM     11  O   UNL     1      -4.004   6.062   2.161  1.00  0.00    -0.452 OA
ENDROOT
BRANCH   1  12
ATOM     12  C   UNL     1      -4.895   6.626   4.329  1.00  0.00     0.025 A 
ATOM     13  C   UNL     1      -4.193   6.653   5.548  1.00  0.00     0.016 A 
ATOM     14  C   UNL     1      -4.820   6.261   6.733  1.00  0.00     0.051 A 
ATOM     15  C   UNL     1      -6.151   5.823   6.717  1.00  0.00     0.157 A 
ATOM     16  C   UNL     1      -6.222   6.166   4.317  1.00  0.00     0.062 A 
ATOM     17  C   UNL     1      -6.853   5.772   5.506  1.00  0.00     0.158 A 
BRANCH  15  18
ATOM     18  O   UNL     1      -6.780   5.432   7.897  1.00  0.00    -0.504 OA
ATOM     19  H   UNL     1      -6.394   5.663   8.805  1.00  0.00     0.293 HD
ENDBRANCH  15  18
BRANCH  17  20
ATOM     20  O   UNL     1      -8.174   5.329   5.492  1.00  0.00    -0.504 OA
ATOM     21  H   UNL     1      -8.528   4.695   6.197  1.00  0.00     0.293 HD
ENDBRANCH  17  20
ENDBRANCH   1  12
BRANCH   2  22
ATOM     22  O   UNL     1      -4.238   9.367   3.659  1.00  0.00    -0.502 OA
ATOM     23  H   UNL     1      -3.772  10.267   3.655  1.00  0.00     0.293 HD
ENDBRANCH   2  22
BRANCH   6  24
ATOM     24  O   UNL     1      -1.704   8.966  -1.008  1.00  0.00    -0.507 OA
ATOM     25  H   UNL     1      -1.068   9.061  -1.785  1.00  0.00     0.293 HD
ENDBRANCH   6  24
BRANCH   8  26
ATOM     26  O   UNL     1      -2.467   4.326  -1.984  1.00  0.00    -0.508 OA
ATOM     27  H   UNL     1      -2.568   4.434  -2.986  1.00  0.00     0.293 HD
ENDBRANCH   8  26
TORSDOF 6
ENDMDL
MODEL 9
REMARK VINA RESULT:    -4.353      1.827      6.671
REMARK INTER + INTRA:          -5.521
REMARK INTER:                  -5.344
REMARK INTRA:                  -0.176
REMARK UNBOUND:                -0.277
REMARK SMILES O=c1c(O)c(-c2ccc(O)c(O)c2)oc2cc(O)cc(O)c12
REMARK SMILES IDX 5 1 3 2 2 3 1 4 22 5 20 6 19 7 17 8 16 9 15 10 14 11 6 12
REMARK SMILES IDX 7 13 8 14 9 15 13 16 11 17 10 18 12 20 4 22 21 24 18 26
REMARK H PARENT 10 19 12 21 4 23 21 25 18 27
REMARK Flexibility Score: inf
ROOT
ATOM      1  C   UNL     1       1.329   2.277   8.319  1.00  0.00     0.180 A 
ATOM      2  C   UNL     1       0.154   2.931   8.732  1.00  0.00     0.208 A 
ATOM      3  C   UNL     1      -0.980   2.163   9.042  1.00  0.00     0.238 A 
ATOM      4  O   UNL     1      -2.011   2.750   9.464  1.00  0.00    -0.285 OA
ATOM      5  C   UNL     1      -0.932   0.753   8.917  1.00  0.00     0.111 A 
ATOM      6  C   UNL     1      -2.033  -0.120   9.166  1.00  0.00     0.134 A 
ATOM      7  C   UNL     1      -1.835  -1.506   9.139  1.00  0.00     0.093 A 
ATOM      8  C   UNL     1      -0.591  -2.050   8.808  1.00  0.00     0.123 A 
ATOM      9  C   UNL     1       0.474  -1.205   8.506  1.00  0.00     0.094 A 
ATOM     10  C   UNL     1       0.318   0.182   8.561  1.00  0.00     0.146 A 
ATOM     11  O   UNL     1       1.361   0.951   8.276  1.00  0.00    -0.452 OA
ENDROOT
BRANCH   1  12
ATOM     12  C   UNL     1       2.555   3.020   7.952  1.00  0.00     0.025 A 
ATOM     13  C   UNL     1       2.576   3.908   6.862  1.00  0.00     0.016 A 
ATOM     14  C   UNL     1       3.753   4.579   6.520  1.00  0.00     0.051 A 
ATOM     15  C   UNL     1       4.927   4.364   7.253  1.00  0.00     0.157 A 
ATOM     16  C   UNL     1       3.742   2.792   8.669  1.00  0.00     0.062 A 
ATOM     17  C   UNL     1       4.923   3.466   8.327  1.00  0.00     0.158 A 
BRANCH  15  18
ATOM     18  O   UNL     1       6.103   5.032   6.915  1.00  0.00    -0.504 OA
ATOM     19  H   UNL     1       6.544   5.683   7.554  1.00  0.00     0.293 HD
ENDBRANCH  15  18
BRANCH  17  20
ATOM     20  O   UNL     1       6.095   3.248   9.050  1.00  0.00    -0.504 OA
ATOM     21  H   UNL     1       6.633   4.016   9.433  1.00  0.00     0.293 HD
ENDBRANCH  17  20
ENDBRANCH   1  12
BRANCH   2  22
ATOM     22  O   UNL     1       0.135   4.321   8.870  1.00  0.00    -0.502 OA
ATOM     23  H   UNL     1       0.372   4.786   9.738  1.00  0.00     0.293 HD
ENDBRANCH   2  22
BRANCH   6  24
ATOM     24  O   UNL     1      -3.337   0.319   9.414  1.00  0.00    -0.507 OA
ATOM     25  H   UNL     1      -4.171  -0.150   9.097  1.00  0.00     0.293 HD
ENDBRANCH   6  24
BRANCH   8  26
ATOM     26  O   UNL     1      -0.407  -3.430   8.768  1.00  0.00    -0.508 OA
ATOM     27  H   UNL     1       0.348  -3.849   8.237  1.00  0.00     0.293 HD
ENDBRANCH   8  26
TORSDOF 6
ENDMDL
