MODEL 1
REMARK VINA RESULT:    -4.098      0.000      0.000
REMARK INTER + INTRA:          -6.849
REMARK INTER:                  -6.493
REMARK INTRA:                  -0.355
REMARK UNBOUND:                -0.355
REMARK SMILES CCCCCCCCCCCC(=O)[O-]
REMARK SMILES IDX 7 1 8 2 9 3 10 4 11 5 12 6 13 7 14 8 6 9 5 10 4 11 3 12 2 13
REMARK SMILES IDX 1 14
REMARK H PARENT
REMARK Flexibility Score: inf
ROOT
ATOM      1  C   UNL     1     121.043  72.550   2.946  1.00  0.00     0.000 C 
ENDROOT
BRANCH   1   2
ATOM      2  C   UNL     1     120.062  71.670   3.740  1.00  0.00     0.000 C 
BRANCH   2   3
ATOM      3  C   UNL     1     120.687  71.097   5.023  1.00  0.00     0.000 C 
BRANCH   3   4
ATOM      4  C   UNL     1     120.232  71.844   6.289  1.00  0.00     0.006 C 
BRANCH   4   5
ATOM      5  C   UNL     1     121.030  71.419   7.529  1.00  0.00     0.053 C 
BRANCH   5   6
ATOM      6  C   UNL     1     120.759  72.316   8.699  1.00  0.00     0.041 C 
ATOM      7  O   UNL     1     120.467  71.825   9.820  1.00  0.00    -0.550 OA
ATOM      8  O   UNL     1     120.801  73.696   8.541  1.00  0.00    -0.550 OA
ENDBRANCH   5   6
ENDBRANCH   4   5
ENDBRANCH   3   4
ENDBRANCH   2   3
ENDBRANCH   1   2
BRANCH   1   9
ATOM      9  C   UNL     1     120.667  72.656   1.458  1.00  0.00     0.000 C 
BRANCH   9  10
ATOM     10  C   UNL     1     120.017  71.373   0.917  1.00  0.00    -0.000 C 
BRANCH  10  11
ATOM     11  C   UNL     1     121.061  70.474   0.237  1.00  0.00    -0.000 C 
BRANCH  11  12
ATOM     12  C   UNL     1     120.431  69.414  -0.685  1.00  0.00    -0.000 C 
BRANCH  12  13
ATOM     13  C   UNL     1     120.687  67.955  -0.266  1.00  0.00    -0.003 C 
ATOM     14  C   UNL     1     120.283  66.945  -1.338  1.00  0.00     0.004 C 
ENDBRANCH  12  13
ENDBRANCH  11  12
ENDBRANCH  10  11
ENDBRANCH   9  10
ENDBRANCH   1   9
TORSDOF 10
ENDMDL
MODEL 2
REMARK VINA RESULT:    -3.930      4.044      7.751
REMARK INTER + INTRA:          -6.583
REMARK INTER:                  -6.171
REMARK INTRA:                  -0.412
REMARK UNBOUND:                -0.355
REMARK SMILES CCCCCCCCCCCC(=O)[O-]
REMARK SMILES IDX 7 1 8 2 9 3 10 4 11 5 12 6 13 7 14 8 6 9 5 10 4 11 3 12 2 13
REMARK SMILES IDX 1 14
REMARK H PARENT
REMARK Flexibility Score: inf
ROOT
ATOM      1  C   UNL     1     121.326  72.377   2.909  1.00  0.00     0.000 C 
ENDROOT
BRANCH   1   2
ATOM      2  C   UNL     1     120.646  72.674   1.560  1.00  0.00     0.000 C 
BRANCH   2   3
ATOM      3  C   UNL     1     120.035  71.417   0.918  1.00  0.00     0.000 C 
BRANCH   3   4
ATOM      4  C   UNL     1     121.097  70.492   0.298  1.00  0.00     0.006 C 
BRANCH   4   5
ATOM      5  C   UNL     1     120.503  69.564  -0.769  1.00  0.00     0.053 C 
BRANCH   5   6
ATOM      6  C   UNL     1     120.424  68.145  -0.292  1.00  0.00     0.041 C 
ATOM      7  O   UNL     1     120.500  67.194  -1.113  1.00  0.00    -0.550 OA
ATOM      8  O   UNL     1     120.238  67.876   1.058  1.00  0.00    -0.550 OA
ENDBRANCH   5   6
ENDBRANCH   4   5
ENDBRANCH   3   4
ENDBRANCH   2   3
ENDBRANCH   1   2
BRANCH   1   9
ATOM      9  C   UNL     1     120.330  72.365   4.080  1.00  0.00     0.000 C 
BRANCH   9  10
ATOM     10  C   UNL     1     120.405  71.073   4.910  1.00  0.00    -0.000 C 
BRANCH  10  11
ATOM     11  C   UNL     1     119.885  71.308   6.337  1.00  0.00    -0.000 C 
BRANCH  11  12
ATOM     12  C   UNL     1     121.017  71.499   7.363  1.00  0.00    -0.000 C 
BRANCH  12  13
ATOM     13  C   UNL     1     120.701  72.487   8.500  1.00  0.00    -0.003 C 
ATOM     14  C   UNL     1     120.301  71.794   9.801  1.00  0.00     0.004 C 
ENDBRANCH  12  13
ENDBRANCH  11  12
ENDBRANCH  10  11
ENDBRANCH   9  10
ENDBRANCH   1   9
TORSDOF 10
ENDMDL
MODEL 3
REMARK VINA RESULT:    -3.875      7.405     10.863
REMARK INTER + INTRA:          -6.495
REMARK INTER:                  -6.111
REMARK INTRA:                  -0.384
REMARK UNBOUND:                -0.355
REMARK SMILES CCCCCCCCCCCC(=O)[O-]
REMARK SMILES IDX 7 1 8 2 9 3 10 4 11 5 12 6 13 7 14 8 6 9 5 10 4 11 3 12 2 13
REMARK SMILES IDX 1 14
REMARK H PARENT
REMARK Flexibility Score: inf
ROOT
ATOM      1  C   UNL     1     120.117  69.435  -2.454  1.00  0.00     0.000 C 
ENDROOT
BRANCH   1   2
ATOM      2  C   UNL     1     119.919  68.887  -3.878  1.00  0.00     0.000 C 
BRANCH   2   3
ATOM      3  C   UNL     1     120.417  69.859  -4.961  1.00  0.00     0.000 C 
BRANCH   3   4
ATOM      4  C   UNL     1     120.403  69.238  -6.368  1.00  0.00     0.006 C 
BRANCH   4   5
ATOM      5  C   UNL     1     120.410  67.704  -6.324  1.00  0.00     0.053 C 
BRANCH   5   6
ATOM      6  C   UNL     1     121.256  67.120  -7.414  1.00  0.00     0.041 C 
ATOM      7  O   UNL     1     121.885  67.874  -8.202  1.00  0.00    -0.550 OA
ATOM      8  O   UNL     1     121.327  65.742  -7.576  1.00  0.00    -0.550 OA
ENDBRANCH   5   6
ENDBRANCH   4   5
ENDBRANCH   3   4
ENDBRANCH   2   3
ENDBRANCH   1   2
BRANCH   1   9
ATOM      9  C   UNL     1     120.369  68.322  -1.424  1.00  0.00     0.000 C 
BRANCH   9  10
ATOM     10  C   UNL     1     120.463  68.854   0.015  1.00  0.00    -0.000 C 
BRANCH  10  11
ATOM     11  C   UNL     1     120.929  70.319   0.028  1.00  0.00    -0.000 C 
BRANCH  11  12
ATOM     12  C   UNL     1     120.373  71.113   1.224  1.00  0.00    -0.000 C 
BRANCH  12  13
ATOM     13  C   UNL     1     120.897  72.555   1.344  1.00  0.00    -0.003 C 
ATOM     14  C   UNL     1     121.062  73.014   2.792  1.00  0.00     0.004 C 
ENDBRANCH  12  13
ENDBRANCH  11  12
ENDBRANCH  10  11
ENDBRANCH   9  10
ENDBRANCH   1   9
TORSDOF 10
ENDMDL
MODEL 4
REMARK VINA RESULT:    -3.791      3.297      4.980
REMARK INTER + INTRA:          -6.362
REMARK INTER:                  -6.115
REMARK INTRA:                  -0.247
REMARK UNBOUND:                -0.355
REMARK SMILES CCCCCCCCCCCC(=O)[O-]
REMARK SMILES IDX 7 1 8 2 9 3 10 4 11 5 12 6 13 7 14 8 6 9 5 10 4 11 3 12 2 13
REMARK SMILES IDX 1 14
REMARK H PARENT
REMARK Flexibility Score: inf
ROOT
ATOM      1  C   UNL     1     121.118  68.828  -0.408  1.00  0.00     0.000 C 
ENDROOT
BRANCH   1   2
ATOM      2  C   UNL     1     121.162  70.356  -0.233  1.00  0.00     0.000 C 
BRANCH   2   3
ATOM      3  C   UNL     1     119.876  70.915   0.400  1.00  0.00     0.000 C 
BRANCH   3   4
ATOM      4  C   UNL     1     119.875  70.806   1.935  1.00  0.00     0.006 C 
BRANCH   4   5
ATOM      5  C   UNL     1     120.834  71.811   2.587  1.00  0.00     0.053 C 
BRANCH   5   6
ATOM      6  C   UNL     1     120.835  71.689   4.080  1.00  0.00     0.041 C 
ATOM      7  O   UNL     1     120.230  72.537   4.787  1.00  0.00    -0.550 OA
ATOM      8  O   UNL     1     121.531  70.654   4.692  1.00  0.00    -0.550 OA
ENDBRANCH   5   6
ENDBRANCH   4   5
ENDBRANCH   3   4
ENDBRANCH   2   3
ENDBRANCH   1   2
BRANCH   1   9
ATOM      9  C   UNL     1     120.323  68.400  -1.652  1.00  0.00     0.000 C 
BRANCH   9  10
ATOM     10  C   UNL     1     120.081  69.560  -2.631  1.00  0.00    -0.000 C 
BRANCH  10  11
ATOM     11  C   UNL     1     120.057  69.057  -4.083  1.00  0.00    -0.000 C 
BRANCH  11  12
ATOM     12  C   UNL     1     120.523  70.121  -5.093  1.00  0.00    -0.000 C 
BRANCH  12  13
ATOM     13  C   UNL     1     119.915  69.988  -6.501  1.00  0.00    -0.003 C 
ATOM     14  C   UNL     1     119.979  68.563  -7.049  1.00  0.00     0.004 C 
ENDBRANCH  12  13
ENDBRANCH  11  12
ENDBRANCH  10  11
ENDBRANCH   9  10
ENDBRANCH   1   9
TORSDOF 10
ENDMDL
MODEL 5
REMARK VINA RESULT:    -3.654      3.601      5.583
REMARK INTER + INTRA:          -6.145
REMARK INTER:                  -5.846
REMARK INTRA:                  -0.299
REMARK UNBOUND:                -0.355
REMARK SMILES CCCCCCCCCCCC(=O)[O-]
REMARK SMILES IDX 7 1 8 2 9 3 10 4 11 5 12 6 13 7 14 8 6 9 5 10 4 11 3 12 2 13
REMARK SMILES IDX 1 14
REMARK H PARENT
REMARK Flexibility Score: inf
ROOT
ATOM      1  C   UNL     1     120.297  69.037  -1.923  1.00  0.00     0.000 C 
ENDROOT
BRANCH   1   2
ATOM      2  C   UNL     1     119.920  70.008  -0.791  1.00  0.00     0.000 C 
BRANCH   2   3
ATOM      3  C   UNL     1     121.071  70.229   0.206  1.00  0.00     0.000 C 
BRANCH   3   4
ATOM      4  C   UNL     1     120.855  71.465   1.096  1.00  0.00     0.006 C 
BRANCH   4   5
ATOM      5  C   UNL     1     119.937  71.165   2.288  1.00  0.00     0.053 C 
BRANCH   5   6
ATOM      6  C   UNL     1     120.525  71.650   3.579  1.00  0.00     0.041 C 
ATOM      7  O   UNL     1     121.397  70.966   4.175  1.00  0.00    -0.550 OA
ATOM      8  O   UNL     1     120.086  72.845   4.136  1.00  0.00    -0.550 OA
ENDBRANCH   5   6
ENDBRANCH   4   5
ENDBRANCH   3   4
ENDBRANCH   2   3
ENDBRANCH   1   2
BRANCH   1   9
ATOM      9  C   UNL     1     119.908  69.572  -3.312  1.00  0.00     0.000 C 
BRANCH   9  10
ATOM     10  C   UNL     1     119.875  68.471  -4.384  1.00  0.00    -0.000 C 
BRANCH  10  11
ATOM     11  C   UNL     1     120.543  68.951  -5.682  1.00  0.00    -0.000 C 
BRANCH  11  12
ATOM     12  C   UNL     1     120.821  67.805  -6.672  1.00  0.00    -0.000 C 
BRANCH  12  13
ATOM     13  C   UNL     1     121.399  66.527  -6.039  1.00  0.00    -0.003 C 
ATOM     14  C   UNL     1     121.093  65.267  -6.846  1.00  0.00     0.004 C 
ENDBRANCH  12  13
ENDBRANCH  11  12
ENDBRANCH  10  11
ENDBRANCH   9  10
ENDBRANCH   1   9
TORSDOF 10
ENDMDL
MODEL 6
REMARK VINA RESULT:    -3.631      5.412      8.511
REMARK INTER + INTRA:          -6.108
REMARK INTER:                  -5.667
REMARK INTRA:                  -0.441
REMARK UNBOUND:                -0.355
REMARK SMILES CCCCCCCCCCCC(=O)[O-]
REMARK SMILES IDX 7 1 8 2 9 3 10 4 11 5 12 6 13 7 14 8 6 9 5 10 4 11 3 12 2 13
REMARK SMILES IDX 1 14
REMARK H PARENT
REMARK Flexibility Score: inf
ROOT
ATOM      1  C   UNL     1     120.259  70.990   1.078  1.00  0.00     0.000 C 
ENDROOT
BRANCH   1   2
ATOM      2  C   UNL     1     121.109  70.279   0.011  1.00  0.00     0.000 C 
BRANCH   2   3
ATOM      3  C   UNL     1     120.738  68.795  -0.148  1.00  0.00     0.000 C 
BRANCH   3   4
ATOM      4  C   UNL     1     120.112  68.484  -1.518  1.00  0.00     0.006 C 
BRANCH   4   5
ATOM      5  C   UNL     1     120.042  69.725  -2.418  1.00  0.00     0.053 C 
BRANCH   5   6
ATOM      6  C   UNL     1     120.067  69.361  -3.871  1.00  0.00     0.041 C 
ATOM      7  O   UNL     1     120.246  68.165  -4.223  1.00  0.00    -0.550 OA
ATOM      8  O   UNL     1     119.922  70.348  -4.837  1.00  0.00    -0.550 OA
ENDBRANCH   5   6
ENDBRANCH   4   5
ENDBRANCH   3   4
ENDBRANCH   2   3
ENDBRANCH   1   2
BRANCH   1   9
ATOM      9  C   UNL     1     120.946  72.246   1.638  1.00  0.00     0.000 C 
BRANCH   9  10
ATOM     10  C   UNL     1     120.577  72.521   3.105  1.00  0.00    -0.000 C 
BRANCH  10  11
ATOM     11  C   UNL     1     120.163  71.225   3.818  1.00  0.00    -0.000 C 
BRANCH  11  12
ATOM     12  C   UNL     1     120.871  71.033   5.171  1.00  0.00    -0.000 C 
BRANCH  12  13
ATOM     13  C   UNL     1     120.207  71.754   6.359  1.00  0.00    -0.003 C 
ATOM     14  C   UNL     1     120.404  71.026   7.687  1.00  0.00     0.004 C 
ENDBRANCH  12  13
ENDBRANCH  11  12
ENDBRANCH  10  11
ENDBRANCH   9  10
ENDBRANCH   1   9
TORSDOF 10
ENDMDL
MODEL 7
REMARK VINA RESULT:    -3.460      1.096      1.518
REMARK INTER + INTRA:          -5.838
REMARK INTER:                  -5.430
REMARK INTRA:                  -0.408
REMARK UNBOUND:                -0.355
REMARK SMILES CCCCCCCCCCCC(=O)[O-]
REMARK SMILES IDX 7 1 8 2 9 3 10 4 11 5 12 6 13 7 14 8 6 9 5 10 4 11 3 12 2 13
REMARK SMILES IDX 1 14
REMARK H PARENT
REMARK Flexibility Score: inf
ROOT
ATOM      1  C   UNL     1     120.499  71.267   2.391  1.00  0.00     0.000 C 
ENDROOT
BRANCH   1   2
ATOM      2  C   UNL     1     120.337  72.707   2.911  1.00  0.00     0.000 C 
BRANCH   2   3
ATOM      3  C   UNL     1     119.885  72.757   4.380  1.00  0.00     0.000 C 
BRANCH   3   4
ATOM      4  C   UNL     1     120.019  71.398   5.089  1.00  0.00     0.006 C 
BRANCH   4   5
ATOM      5  C   UNL     1     121.068  71.431   6.209  1.00  0.00     0.053 C 
BRANCH   5   6
ATOM      6  C   UNL     1     120.442  71.670   7.549  1.00  0.00     0.041 C 
ATOM      7  O   UNL     1     119.893  70.723   8.171  1.00  0.00    -0.550 OA
ATOM      8  O   UNL     1     120.441  72.947   8.097  1.00  0.00    -0.550 OA
ENDBRANCH   5   6
ENDBRANCH   4   5
ENDBRANCH   3   4
ENDBRANCH   2   3
ENDBRANCH   1   2
BRANCH   1   9
ATOM      9  C   UNL     1     120.854  71.218   0.896  1.00  0.00     0.000 C 
BRANCH   9  10
ATOM     10  C   UNL     1     119.950  70.261   0.102  1.00  0.00    -0.000 C 
BRANCH  10  11
ATOM     11  C   UNL     1     120.760  69.485  -0.948  1.00  0.00    -0.000 C 
BRANCH  11  12
ATOM     12  C   UNL     1     121.113  68.056  -0.496  1.00  0.00    -0.000 C 
BRANCH  12  13
ATOM     13  C   UNL     1     120.171  66.959  -1.025  1.00  0.00    -0.003 C 
ATOM     14  C   UNL     1     120.145  65.715  -0.139  1.00  0.00     0.004 C 
ENDBRANCH  12  13
ENDBRANCH  11  12
ENDBRANCH  10  11
ENDBRANCH   9  10
ENDBRANCH   1   9
TORSDOF 10
ENDMDL
MODEL 8
REMARK VINA RESULT:    -3.428      2.516      3.383
REMARK INTER + INTRA:          -5.788
REMARK INTER:                  -5.268
REMARK INTRA:                  -0.520
REMARK UNBOUND:                -0.355
REMARK SMILES CCCCCCCCCCCC(=O)[O-]
REMARK SMILES IDX 7 1 8 2 9 3 10 4 11 5 12 6 13 7 14 8 6 9 5 10 4 11 3 12 2 13
REMARK SMILES IDX 1 14
REMARK H PARENT
REMARK Flexibility Score: inf
ROOT
ATOM      1  C   UNL     1     120.651  71.154   1.084  1.00  0.00     0.000 C 
ENDROOT
BRANCH   1   2
ATOM      2  C   UNL     1     121.362  72.518   1.047  1.00  0.00     0.000 C 
BRANCH   2   3
ATOM      3  C   UNL     1     120.941  73.435   2.208  1.00  0.00     0.000 C 
BRANCH   3   4
ATOM      4  C   UNL     1     119.876  72.794   3.114  1.00  0.00     0.006 C 
BRANCH   4   5
ATOM      5  C   UNL     1     120.412  72.506   4.522  1.00  0.00     0.053 C 
BRANCH   5   6
ATOM      6  C   UNL     1     120.912  71.099   4.649  1.00  0.00     0.041 C 
ATOM      7  O   UNL     1     120.109  70.132   4.593  1.00  0.00    -0.550 OA
ATOM      8  O   UNL     1     122.265  70.859   4.858  1.00  0.00    -0.550 OA
ENDBRANCH   5   6
ENDBRANCH   4   5
ENDBRANCH   3   4
ENDBRANCH   2   3
ENDBRANCH   1   2
BRANCH   1   9
ATOM      9  C   UNL     1     119.968  70.810  -0.250  1.00  0.00     0.000 C 
BRANCH   9  10
ATOM     10  C   UNL     1     120.605  69.599  -0.949  1.00  0.00    -0.000 C 
BRANCH  10  11
ATOM     11  C   UNL     1     119.915  68.294  -0.523  1.00  0.00    -0.000 C 
BRANCH  11  12
ATOM     12  C   UNL     1     120.160  67.137  -1.509  1.00  0.00    -0.000 C 
BRANCH  12  13
ATOM     13  C   UNL     1     119.875  65.733  -0.945  1.00  0.00    -0.003 C 
ATOM     14  C   UNL     1     119.882  65.689   0.582  1.00  0.00     0.004 C 
ENDBRANCH  12  13
ENDBRANCH  11  12
ENDBRANCH  10  11
ENDBRANCH   9  10
ENDBRANCH   1   9
TORSDOF 10
ENDMDL
MODEL 9
REMARK VINA RESULT:    -3.409      2.786      5.162
REMARK INTER + INTRA:          -5.757
REMARK INTER:                  -5.312
REMARK INTRA:                  -0.445
REMARK UNBOUND:                -0.355
REMARK SMILES CCCCCCCCCCCC(=O)[O-]
REMARK SMILES IDX 7 1 8 2 9 3 10 4 11 5 12 6 13 7 14 8 6 9 5 10 4 11 3 12 2 13
REMARK SMILES IDX 1 14
REMARK H PARENT
REMARK Flexibility Score: inf
ROOT
ATOM      1  C   UNL     1     121.347  68.903  -0.259  1.00  0.00     0.000 C 
ENDROOT
BRANCH   1   2
ATOM      2  C   UNL     1     120.500  69.979  -0.962  1.00  0.00     0.000 C 
BRANCH   2   3
ATOM      3  C   UNL     1     119.875  70.977   0.027  1.00  0.00     0.000 C 
BRANCH   3   4
ATOM      4  C   UNL     1     120.707  71.141   1.311  1.00  0.00     0.006 C 
BRANCH   4   5
ATOM      5  C   UNL     1     120.161  72.253   2.216  1.00  0.00     0.053 C 
BRANCH   5   6
ATOM      6  C   UNL     1     120.506  72.017   3.655  1.00  0.00     0.041 C 
ATOM      7  O   UNL     1     120.160  72.849   4.535  1.00  0.00    -0.550 OA
ATOM      8  O   UNL     1     121.235  70.892   4.020  1.00  0.00    -0.550 OA
ENDBRANCH   5   6
ENDBRANCH   4   5
ENDBRANCH   3   4
ENDBRANCH   2   3
ENDBRANCH   1   2
BRANCH   1   9
ATOM      9  C   UNL     1     121.029  67.484  -0.757  1.00  0.00     0.000 C 
BRANCH   9  10
ATOM     10  C   UNL     1     119.883  67.457  -1.781  1.00  0.00    -0.000 C 
BRANCH  10  11
ATOM     11  C   UNL     1     120.101  66.345  -2.819  1.00  0.00    -0.000 C 
BRANCH  11  12
ATOM     12  C   UNL     1     120.210  66.882  -4.258  1.00  0.00    -0.000 C 
BRANCH  12  13
ATOM     13  C   UNL     1     120.249  65.799  -5.352  1.00  0.00    -0.003 C 
ATOM     14  C   UNL     1     121.063  66.214  -6.576  1.00  0.00     0.004 C 
ENDBRANCH  12  13
ENDBRANCH  11  12
ENDBRANCH  10  11
ENDBRANCH   9  10
ENDBRANCH   1   9
TORSDOF 10
ENDMDL
