MODEL 1
REMARK VINA RESULT:    -4.749      0.000      0.000
REMARK INTER + INTRA:          -4.749
REMARK INTER:                  -4.749
REMARK INTRA:                   0.000
REMARK UNBOUND:                 0.000
REMARK SMILES C=C1CC[C@H]2C[C@@H]1C2(C)C
REMARK SMILES IDX 9 1 8 2 5 3 4 4 3 5 2 6 1 7 7 8 6 9 10 10
REMARK H PARENT
REMARK Flexibility Score: inf
ROOT
ATOM      1  C   UNL     1     -47.022 -49.716  31.372  1.00  0.00     0.012 C 
ATOM      2  C   UNL     1     -46.462 -50.135  32.759  1.00  0.00    -0.026 C 
ATOM      3  C   UNL     1     -46.618 -51.609  33.209  1.00  0.00    -0.004 C 
ATOM      4  C   UNL     1     -46.460 -52.586  31.999  1.00  0.00     0.008 C 
ATOM      5  C   UNL     1     -45.148 -52.313  31.170  1.00  0.00     0.031 C 
ATOM      6  C   UNL     1     -44.414 -51.047  31.636  1.00  0.00    -0.074 C 
ATOM      7  C   UNL     1     -43.357 -50.569  30.970  1.00  0.00     0.008 C 
ATOM      8  C   UNL     1     -44.939 -50.365  32.896  1.00  0.00     0.021 C 
ATOM      9  C   UNL     1     -45.236 -51.512  33.876  1.00  0.00     0.012 C 
ATOM     10  C   UNL     1     -46.998 -49.144  33.822  1.00  0.00     0.012 C 
ENDROOT
TORSDOF 0
ENDMDL
MODEL 2
REMARK VINA RESULT:    -4.636     14.351     15.552
REMARK INTER + INTRA:          -4.636
REMARK INTER:                  -4.636
REMARK INTRA:                   0.000
REMARK UNBOUND:                 0.000
REMARK SMILES C=C1CC[C@H]2C[C@@H]1C2(C)C
REMARK SMILES IDX 9 1 8 2 5 3 4 4 3 5 2 6 1 7 7 8 6 9 10 10
REMARK H PARENT
REMARK Flexibility Score: inf
ROOT
ATOM      1  C   UNL     1     -50.532 -50.396  18.113  1.00  0.00     0.012 C 
ATOM      2  C   UNL     1     -49.170 -49.651  18.158  1.00  0.00    -0.026 C 
ATOM      3  C   UNL     1     -47.881 -50.474  18.411  1.00  0.00    -0.004 C 
ATOM      4  C   UNL     1     -47.961 -51.871  17.716  1.00  0.00     0.008 C 
ATOM      5  C   UNL     1     -48.356 -51.767  16.194  1.00  0.00     0.031 C 
ATOM      6  C   UNL     1     -48.736 -50.336  15.785  1.00  0.00    -0.074 C 
ATOM      7  C   UNL     1     -49.234 -50.066  14.573  1.00  0.00     0.008 C 
ATOM      8  C   UNL     1     -48.515 -49.237  16.820  1.00  0.00     0.021 C 
ATOM      9  C   UNL     1     -47.141 -49.542  17.438  1.00  0.00     0.012 C 
ATOM     10  C   UNL     1     -49.297 -48.458  19.137  1.00  0.00     0.012 C 
ENDROOT
TORSDOF 0
ENDMDL
MODEL 3
REMARK VINA RESULT:    -4.615      0.984      3.272
REMARK INTER + INTRA:          -4.615
REMARK INTER:                  -4.615
REMARK INTRA:                   0.000
REMARK UNBOUND:                 0.000
REMARK SMILES C=C1CC[C@H]2C[C@@H]1C2(C)C
REMARK SMILES IDX 9 1 8 2 5 3 4 4 3 5 2 6 1 7 7 8 6 9 10 10
REMARK H PARENT
REMARK Flexibility Score: inf
ROOT
ATOM      1  C   UNL     1     -43.569 -51.585  33.279  1.00  0.00     0.012 C 
ATOM      2  C   UNL     1     -43.960 -50.990  31.898  1.00  0.00    -0.026 C 
ATOM      3  C   UNL     1     -44.898 -51.808  30.975  1.00  0.00    -0.004 C 
ATOM      4  C   UNL     1     -45.978 -52.572  31.808  1.00  0.00     0.008 C 
ATOM      5  C   UNL     1     -46.744 -51.630  32.813  1.00  0.00     0.031 C 
ATOM      6  C   UNL     1     -46.140 -50.219  32.867  1.00  0.00    -0.074 C 
ATOM      7  C   UNL     1     -46.559 -49.316  33.760  1.00  0.00     0.008 C 
ATOM      8  C   UNL     1     -45.048 -49.892  31.854  1.00  0.00     0.021 C 
ATOM      9  C   UNL     1     -45.545 -50.487  30.526  1.00  0.00     0.012 C 
ATOM     10  C   UNL     1     -42.665 -50.555  31.169  1.00  0.00     0.012 C 
ENDROOT
TORSDOF 0
ENDMDL
MODEL 4
REMARK VINA RESULT:    -4.559     14.256     15.636
REMARK INTER + INTRA:          -4.559
REMARK INTER:                  -4.559
REMARK INTRA:                   0.000
REMARK UNBOUND:                 0.000
REMARK SMILES C=C1CC[C@H]2C[C@@H]1C2(C)C
REMARK SMILES IDX 9 1 8 2 5 3 4 4 3 5 2 6 1 7 7 8 6 9 10 10
REMARK H PARENT
REMARK Flexibility Score: inf
ROOT
ATOM      1  C   UNL     1     -47.046 -49.066  18.219  1.00  0.00     0.012 C 
ATOM      2  C   UNL     1     -47.752 -49.436  16.885  1.00  0.00    -0.026 C 
ATOM      3  C   UNL     1     -47.652 -50.894  16.369  1.00  0.00    -0.004 C 
ATOM      4  C   UNL     1     -47.686 -51.912  17.555  1.00  0.00     0.008 C 
ATOM      5  C   UNL     1     -48.902 -51.667  18.527  1.00  0.00     0.031 C 
ATOM      6  C   UNL     1     -49.675 -50.384  18.184  1.00  0.00    -0.074 C 
ATOM      7  C   UNL     1     -50.653 -49.929  18.975  1.00  0.00     0.008 C 
ATOM      8  C   UNL     1     -49.282 -49.659  16.901  1.00  0.00     0.021 C 
ATOM      9  C   UNL     1     -49.096 -50.771  15.856  1.00  0.00     0.012 C 
ATOM     10  C   UNL     1     -47.326 -48.409  15.806  1.00  0.00     0.012 C 
ENDROOT
TORSDOF 0
ENDMDL
MODEL 5
REMARK VINA RESULT:    -4.332      4.865      7.464
REMARK INTER + INTRA:          -4.332
REMARK INTER:                  -4.332
REMARK INTRA:                   0.000
REMARK UNBOUND:                 0.000
REMARK SMILES C=C1CC[C@H]2C[C@@H]1C2(C)C
REMARK SMILES IDX 9 1 8 2 5 3 4 4 3 5 2 6 1 7 7 8 6 9 10 10
REMARK H PARENT
REMARK Flexibility Score: inf
ROOT
ATOM      1  C   UNL     1     -40.157 -49.377  27.788  1.00  0.00     0.012 C 
ATOM      2  C   UNL     1     -40.642 -47.902  27.741  1.00  0.00    -0.026 C 
ATOM      3  C   UNL     1     -41.266 -47.366  26.427  1.00  0.00    -0.004 C 
ATOM      4  C   UNL     1     -42.118 -48.469  25.720  1.00  0.00     0.008 C 
ATOM      5  C   UNL     1     -43.164 -49.140  26.690  1.00  0.00     0.031 C 
ATOM      6  C   UNL     1     -42.992 -48.678  28.145  1.00  0.00    -0.074 C 
ATOM      7  C   UNL     1     -43.690 -49.236  29.140  1.00  0.00     0.008 C 
ATOM      8  C   UNL     1     -41.995 -47.552  28.402  1.00  0.00     0.021 C 
ATOM      9  C   UNL     1     -42.243 -46.536  27.276  1.00  0.00     0.012 C 
ATOM     10  C   UNL     1     -39.495 -46.994  28.249  1.00  0.00     0.012 C 
ENDROOT
TORSDOF 0
ENDMDL
MODEL 6
REMARK VINA RESULT:    -4.300     10.818     12.519
REMARK INTER + INTRA:          -4.300
REMARK INTER:                  -4.300
REMARK INTRA:                   0.000
REMARK UNBOUND:                 0.000
REMARK SMILES C=C1CC[C@H]2C[C@@H]1C2(C)C
REMARK SMILES IDX 9 1 8 2 5 3 4 4 3 5 2 6 1 7 7 8 6 9 10 10
REMARK H PARENT
REMARK Flexibility Score: inf
ROOT
ATOM      1  C   UNL     1     -53.977 -49.085  21.884  1.00  0.00     0.012 C 
ATOM      2  C   UNL     1     -53.543 -47.656  22.311  1.00  0.00    -0.026 C 
ATOM      3  C   UNL     1     -52.908 -47.458  23.711  1.00  0.00    -0.004 C 
ATOM      4  C   UNL     1     -52.003 -48.674  24.093  1.00  0.00     0.008 C 
ATOM      5  C   UNL     1     -50.957 -49.027  22.969  1.00  0.00     0.031 C 
ATOM      6  C   UNL     1     -51.178 -48.208  21.688  1.00  0.00    -0.074 C 
ATOM      7  C   UNL     1     -50.483 -48.459  20.573  1.00  0.00     0.008 C 
ATOM      8  C   UNL     1     -52.217 -47.093  21.747  1.00  0.00     0.021 C 
ATOM      9  C   UNL     1     -51.979 -46.398  23.097  1.00  0.00     0.012 C 
ATOM     10  C   UNL     1     -54.731 -46.692  22.072  1.00  0.00     0.012 C 
ENDROOT
TORSDOF 0
ENDMDL
MODEL 7
REMARK VINA RESULT:    -4.170      5.191      7.047
REMARK INTER + INTRA:          -4.170
REMARK INTER:                  -4.170
REMARK INTRA:                   0.000
REMARK UNBOUND:                 0.000
REMARK SMILES C=C1CC[C@H]2C[C@@H]1C2(C)C
REMARK SMILES IDX 9 1 8 2 5 3 4 4 3 5 2 6 1 7 7 8 6 9 10 10
REMARK H PARENT
REMARK Flexibility Score: inf
ROOT
ATOM      1  C   UNL     1     -41.807 -46.194  27.681  1.00  0.00     0.012 C 
ATOM      2  C   UNL     1     -40.984 -47.467  28.019  1.00  0.00    -0.026 C 
ATOM      3  C   UNL     1     -41.527 -48.439  29.097  1.00  0.00    -0.004 C 
ATOM      4  C   UNL     1     -43.086 -48.536  29.031  1.00  0.00     0.008 C 
ATOM      5  C   UNL     1     -43.611 -48.846  27.578  1.00  0.00     0.031 C 
ATOM      6  C   UNL     1     -42.487 -48.813  26.531  1.00  0.00    -0.074 C 
ATOM      7  C   UNL     1     -42.750 -48.913  25.223  1.00  0.00     0.008 C 
ATOM      8  C   UNL     1     -41.060 -48.669  27.049  1.00  0.00     0.021 C 
ATOM      9  C   UNL     1     -40.980 -49.609  28.264  1.00  0.00     0.012 C 
ATOM     10  C   UNL     1     -39.522 -47.043  28.305  1.00  0.00     0.012 C 
ENDROOT
TORSDOF 0
ENDMDL
MODEL 8
REMARK VINA RESULT:    -4.143      5.137      7.309
REMARK INTER + INTRA:          -4.143
REMARK INTER:                  -4.143
REMARK INTRA:                   0.000
REMARK UNBOUND:                 0.000
REMARK SMILES C=C1CC[C@H]2C[C@@H]1C2(C)C
REMARK SMILES IDX 9 1 8 2 5 3 4 4 3 5 2 6 1 7 7 8 6 9 10 10
REMARK H PARENT
REMARK Flexibility Score: inf
ROOT
ATOM      1  C   UNL     1     -43.075 -48.515  29.139  1.00  0.00     0.012 C 
ATOM      2  C   UNL     1     -42.880 -48.717  27.611  1.00  0.00    -0.026 C 
ATOM      3  C   UNL     1     -42.900 -47.472  26.688  1.00  0.00    -0.004 C 
ATOM      4  C   UNL     1     -42.226 -46.246  27.385  1.00  0.00     0.008 C 
ATOM      5  C   UNL     1     -40.798 -46.586  27.958  1.00  0.00     0.031 C 
ATOM      6  C   UNL     1     -40.466 -48.082  27.852  1.00  0.00    -0.074 C 
ATOM      7  C   UNL     1     -39.362 -48.592  28.408  1.00  0.00     0.008 C 
ATOM      8  C   UNL     1     -41.448 -48.957  27.079  1.00  0.00     0.021 C 
ATOM      9  C   UNL     1     -41.813 -48.139  25.829  1.00  0.00     0.012 C 
ATOM     10  C   UNL     1     -43.868 -49.809  27.132  1.00  0.00     0.012 C 
ENDROOT
TORSDOF 0
ENDMDL
MODEL 9
REMARK VINA RESULT:    -4.122      3.882      5.703
REMARK INTER + INTRA:          -4.122
REMARK INTER:                  -4.122
REMARK INTRA:                   0.000
REMARK UNBOUND:                 0.000
REMARK SMILES C=C1CC[C@H]2C[C@@H]1C2(C)C
REMARK SMILES IDX 9 1 8 2 5 3 4 4 3 5 2 6 1 7 7 8 6 9 10 10
REMARK H PARENT
REMARK Flexibility Score: inf
ROOT
ATOM      1  C   UNL     1     -43.997 -47.032  28.472  1.00  0.00     0.012 C 
ATOM      2  C   UNL     1     -43.608 -48.443  28.995  1.00  0.00    -0.026 C 
ATOM      3  C   UNL     1     -43.738 -49.653  28.037  1.00  0.00    -0.004 C 
ATOM      4  C   UNL     1     -43.361 -49.254  26.573  1.00  0.00     0.008 C 
ATOM      5  C   UNL     1     -41.966 -48.526  26.486  1.00  0.00     0.031 C 
ATOM      6  C   UNL     1     -41.377 -48.224  27.872  1.00  0.00    -0.074 C 
ATOM      7  C   UNL     1     -40.269 -47.489  28.013  1.00  0.00     0.008 C 
ATOM      8  C   UNL     1     -42.107 -48.806  29.078  1.00  0.00     0.021 C 
ATOM      9  C   UNL     1     -42.468 -50.243  28.671  1.00  0.00     0.012 C 
ATOM     10  C   UNL     1     -44.340 -48.685  30.338  1.00  0.00     0.012 C 
ENDROOT
TORSDOF 0
ENDMDL
