MODEL 1
REMARK VINA RESULT:    -6.391      0.000      0.000
REMARK INTER + INTRA:          -7.959
REMARK INTER:                  -7.699
REMARK INTRA:                  -0.260
REMARK UNBOUND:                -0.260
REMARK SMILES O=c1c(O)c(-c2ccc(O)c(O)c2)oc2cc(O)cc(O)c12
REMARK SMILES IDX 5 1 3 2 2 3 1 4 22 5 20 6 19 7 17 8 16 9 15 10 14 11 6 12
REMARK SMILES IDX 7 13 8 14 9 15 13 16 11 17 10 18 12 20 4 22 21 24 18 26
REMARK H PARENT 10 19 12 21 4 23 21 25 18 27
REMARK Flexibility Score: inf
ROOT
ATOM      1  C   UNL     1      18.557  -1.868 -17.224  1.00  0.00     0.180 A 
ATOM      2  C   UNL     1      17.846  -1.129 -16.258  1.00  0.00     0.208 A 
ATOM      3  C   UNL     1      17.152  -1.819 -15.251  1.00  0.00     0.238 A 
ATOM      4  O   UNL     1      16.523  -1.167 -14.374  1.00  0.00    -0.285 OA
ATOM      5  C   UNL     1      17.163  -3.229 -15.237  1.00  0.00     0.111 A 
ATOM      6  C   UNL     1      16.487  -3.998 -14.261  1.00  0.00     0.134 A 
ATOM      7  C   UNL     1      16.537  -5.399 -14.321  1.00  0.00     0.093 A 
ATOM      8  C   UNL     1      17.250  -6.043 -15.340  1.00  0.00     0.123 A 
ATOM      9  C   UNL     1      17.918  -5.288 -16.304  1.00  0.00     0.094 A 
ATOM     10  C   UNL     1      17.881  -3.891 -16.260  1.00  0.00     0.146 A 
ATOM     11  O   UNL     1      18.531  -3.198 -17.188  1.00  0.00    -0.452 OA
ENDROOT
BRANCH   1  12
ATOM     12  C   UNL     1      19.327  -1.213 -18.305  1.00  0.00     0.025 A 
ATOM     13  C   UNL     1      18.836  -1.152 -19.620  1.00  0.00     0.016 A 
ATOM     14  C   UNL     1      19.568  -0.507 -20.619  1.00  0.00     0.051 A 
ATOM     15  C   UNL     1      20.797   0.098 -20.317  1.00  0.00     0.157 A 
ATOM     16  C   UNL     1      20.548  -0.588 -18.003  1.00  0.00     0.062 A 
ATOM     17  C   UNL     1      21.285   0.059 -19.000  1.00  0.00     0.158 A 
BRANCH  15  18
ATOM     18  O   UNL     1      21.526   0.739 -21.316  1.00  0.00    -0.504 OA
ATOM     19  H   UNL     1      22.523   0.592 -21.423  1.00  0.00     0.293 HD
ENDBRANCH  15  18
BRANCH  17  20
ATOM     20  O   UNL     1      22.500   0.657 -18.665  1.00  0.00    -0.504 OA
ATOM     21  H   UNL     1      22.598   1.259 -17.856  1.00  0.00     0.293 HD
ENDBRANCH  17  20
ENDBRANCH   1  12
BRANCH   2  22
ATOM     22  O   UNL     1      17.811   0.266 -16.322  1.00  0.00    -0.502 OA
ATOM     23  H   UNL     1      16.946   0.790 -16.273  1.00  0.00     0.293 HD
ENDBRANCH   2  22
BRANCH   6  24
ATOM     24  O   UNL     1      15.767  -3.385 -13.233  1.00  0.00    -0.507 OA
ATOM     25  H   UNL     1      14.760  -3.284 -13.275  1.00  0.00     0.293 HD
ENDBRANCH   6  24
BRANCH   8  26
ATOM     26  O   UNL     1      17.299  -7.434 -15.401  1.00  0.00    -0.508 OA
ATOM     27  H   UNL     1      16.472  -8.000 -15.253  1.00  0.00     0.293 HD
ENDBRANCH   8  26
TORSDOF 6
ENDMDL
MODEL 2
REMARK VINA RESULT:    -6.295     11.639     14.886
REMARK INTER + INTRA:          -7.843
REMARK INTER:                  -7.664
REMARK INTRA:                  -0.180
REMARK UNBOUND:                -0.260
REMARK SMILES O=c1c(O)c(-c2ccc(O)c(O)c2)oc2cc(O)cc(O)c12
REMARK SMILES IDX 5 1 3 2 2 3 1 4 22 5 20 6 19 7 17 8 16 9 15 10 14 11 6 12
REMARK SMILES IDX 7 13 8 14 9 15 13 16 11 17 10 18 12 20 4 22 21 24 18 26
REMARK H PARENT 10 19 12 21 4 23 21 25 18 27
REMARK Flexibility Score: inf
ROOT
ATOM      1  C   UNL     1       9.361  -7.260  -8.367  1.00  0.00     0.180 A 
ATOM      2  C   UNL     1      10.701  -7.337  -8.794  1.00  0.00     0.208 A 
ATOM      3  C   UNL     1      10.971  -7.719 -10.117  1.00  0.00     0.238 A 
ATOM      4  O   UNL     1      12.166  -7.780 -10.513  1.00  0.00    -0.285 OA
ATOM      5  C   UNL     1       9.903  -8.036 -10.983  1.00  0.00     0.111 A 
ATOM      6  C   UNL     1      10.091  -8.433 -12.328  1.00  0.00     0.134 A 
ATOM      7  C   UNL     1       8.976  -8.741 -13.123  1.00  0.00     0.093 A 
ATOM      8  C   UNL     1       7.682  -8.661 -12.598  1.00  0.00     0.123 A 
ATOM      9  C   UNL     1       7.493  -8.269 -11.272  1.00  0.00     0.094 A 
ATOM     10  C   UNL     1       8.590  -7.957 -10.464  1.00  0.00     0.146 A 
ATOM     11  O   UNL     1       8.381  -7.581  -9.207  1.00  0.00    -0.452 OA
ENDROOT
BRANCH   1  12
ATOM     12  C   UNL     1       8.995  -6.847  -6.993  1.00  0.00     0.025 A 
ATOM     13  C   UNL     1       9.295  -5.562  -6.510  1.00  0.00     0.016 A 
ATOM     14  C   UNL     1       8.918  -5.186  -5.219  1.00  0.00     0.051 A 
ATOM     15  C   UNL     1       8.225  -6.084  -4.395  1.00  0.00     0.157 A 
ATOM     16  C   UNL     1       8.282  -7.735  -6.171  1.00  0.00     0.062 A 
ATOM     17  C   UNL     1       7.903  -7.363  -4.877  1.00  0.00     0.158 A 
BRANCH  15  18
ATOM     18  O   UNL     1       7.852  -5.707  -3.106  1.00  0.00    -0.504 OA
ATOM     19  H   UNL     1       6.878  -5.626  -2.837  1.00  0.00     0.293 HD
ENDBRANCH  15  18
BRANCH  17  20
ATOM     20  O   UNL     1       7.208  -8.277  -4.086  1.00  0.00    -0.504 OA
ATOM     21  H   UNL     1       6.196  -8.288  -4.038  1.00  0.00     0.293 HD
ENDBRANCH  17  20
ENDBRANCH   1  12
BRANCH   2  22
ATOM     22  O   UNL     1      11.742  -7.065  -7.902  1.00  0.00    -0.502 OA
ATOM     23  H   UNL     1      11.778  -7.463  -6.972  1.00  0.00     0.293 HD
ENDBRANCH   2  22
BRANCH   6  24
ATOM     24  O   UNL     1      11.369  -8.524 -12.880  1.00  0.00    -0.507 OA
ATOM     25  H   UNL     1      12.153  -8.008 -12.498  1.00  0.00     0.293 HD
ENDBRANCH   6  24
BRANCH   8  26
ATOM     26  O   UNL     1       6.575  -8.968 -13.387  1.00  0.00    -0.508 OA
ATOM     27  H   UNL     1       6.222  -9.915 -13.459  1.00  0.00     0.293 HD
ENDBRANCH   8  26
TORSDOF 6
ENDMDL
MODEL 3
REMARK VINA RESULT:    -6.269      1.207      2.830
REMARK INTER + INTRA:          -7.813
REMARK INTER:                  -7.580
REMARK INTRA:                  -0.233
REMARK UNBOUND:                -0.260
REMARK SMILES O=c1c(O)c(-c2ccc(O)c(O)c2)oc2cc(O)cc(O)c12
REMARK SMILES IDX 5 1 3 2 2 3 1 4 22 5 20 6 19 7 17 8 16 9 15 10 14 11 6 12
REMARK SMILES IDX 7 13 8 14 9 15 13 16 11 17 10 18 12 20 4 22 21 24 18 26
REMARK H PARENT 10 19 12 21 4 23 21 25 18 27
REMARK Flexibility Score: inf
ROOT
ATOM      1  C   UNL     1      18.534  -2.472 -17.390  1.00  0.00     0.180 A 
ATOM      2  C   UNL     1      18.404  -3.861 -17.587  1.00  0.00     0.208 A 
ATOM      3  C   UNL     1      17.730  -4.624 -16.621  1.00  0.00     0.238 A 
ATOM      4  O   UNL     1      17.598  -5.865 -16.793  1.00  0.00    -0.285 OA
ATOM      5  C   UNL     1      17.216  -3.993 -15.469  1.00  0.00     0.111 A 
ATOM      6  C   UNL     1      16.529  -4.690 -14.447  1.00  0.00     0.134 A 
ATOM      7  C   UNL     1      16.055  -3.991 -13.326  1.00  0.00     0.093 A 
ATOM      8  C   UNL     1      16.259  -2.611 -13.208  1.00  0.00     0.123 A 
ATOM      9  C   UNL     1      16.936  -1.921 -14.214  1.00  0.00     0.094 A 
ATOM     10  C   UNL     1      17.413  -2.598 -15.339  1.00  0.00     0.146 A 
ATOM     11  O   UNL     1      18.050  -1.915 -16.284  1.00  0.00    -0.452 OA
ENDROOT
BRANCH   1  12
ATOM     12  C   UNL     1      19.215  -1.598 -18.372  1.00  0.00     0.025 A 
ATOM     13  C   UNL     1      18.654  -1.339 -19.635  1.00  0.00     0.016 A 
ATOM     14  C   UNL     1      19.303  -0.492 -20.535  1.00  0.00     0.051 A 
ATOM     15  C   UNL     1      20.513   0.121 -20.184  1.00  0.00     0.157 A 
ATOM     16  C   UNL     1      20.417  -0.965 -18.017  1.00  0.00     0.062 A 
ATOM     17  C   UNL     1      21.070  -0.115 -18.916  1.00  0.00     0.158 A 
BRANCH  15  18
ATOM     18  O   UNL     1      21.159   0.965 -21.086  1.00  0.00    -0.504 OA
ATOM     19  H   UNL     1      21.644   0.603 -21.899  1.00  0.00     0.293 HD
ENDBRANCH  15  18
BRANCH  17  20
ATOM     20  O   UNL     1      22.269   0.484 -18.533  1.00  0.00    -0.504 OA
ATOM     21  H   UNL     1      23.149   0.263 -18.983  1.00  0.00     0.293 HD
ENDBRANCH  17  20
ENDBRANCH   1  12
BRANCH   2  22
ATOM     22  O   UNL     1      18.965  -4.469 -18.714  1.00  0.00    -0.502 OA
ATOM     23  H   UNL     1      19.315  -5.419 -18.699  1.00  0.00     0.293 HD
ENDBRANCH   2  22
BRANCH   6  24
ATOM     24  O   UNL     1      16.311  -6.066 -14.536  1.00  0.00    -0.507 OA
ATOM     25  H   UNL     1      15.974  -6.604 -13.746  1.00  0.00     0.293 HD
ENDBRANCH   6  24
BRANCH   8  26
ATOM     26  O   UNL     1      15.790  -1.918 -12.094  1.00  0.00    -0.508 OA
ATOM     27  H   UNL     1      14.882  -1.469 -12.094  1.00  0.00     0.293 HD
ENDBRANCH   8  26
TORSDOF 6
ENDMDL
MODEL 4
REMARK VINA RESULT:    -6.145      8.885     12.736
REMARK INTER + INTRA:          -7.662
REMARK INTER:                  -8.123
REMARK INTRA:                   0.461
REMARK UNBOUND:                -0.260
REMARK SMILES O=c1c(O)c(-c2ccc(O)c(O)c2)oc2cc(O)cc(O)c12
REMARK SMILES IDX 5 1 3 2 2 3 1 4 22 5 20 6 19 7 17 8 16 9 15 10 14 11 6 12
REMARK SMILES IDX 7 13 8 14 9 15 13 16 11 17 10 18 12 20 4 22 21 24 18 26
REMARK H PARENT 10 19 12 21 4 23 21 25 18 27
REMARK Flexibility Score: inf
ROOT
ATOM      1  C   UNL     1      10.886  -7.186  -9.119  1.00  0.00     0.180 A 
ATOM      2  C   UNL     1      10.096  -8.351  -9.190  1.00  0.00     0.208 A 
ATOM      3  C   UNL     1       9.061  -8.526  -8.258  1.00  0.00     0.238 A 
ATOM      4  O   UNL     1       8.341  -9.559  -8.320  1.00  0.00    -0.285 OA
ATOM      5  C   UNL     1       8.845  -7.550  -7.264  1.00  0.00     0.111 A 
ATOM      6  C   UNL     1       7.827  -7.654  -6.286  1.00  0.00     0.134 A 
ATOM      7  C   UNL     1       7.682  -6.644  -5.323  1.00  0.00     0.093 A 
ATOM      8  C   UNL     1       8.537  -5.536  -5.319  1.00  0.00     0.123 A 
ATOM      9  C   UNL     1       9.542  -5.430  -6.281  1.00  0.00     0.094 A 
ATOM     10  C   UNL     1       9.701  -6.424  -7.250  1.00  0.00     0.146 A 
ATOM     11  O   UNL     1      10.663  -6.295  -8.157  1.00  0.00    -0.452 OA
ENDROOT
BRANCH   1  12
ATOM     12  C   UNL     1      11.984  -6.921 -10.076  1.00  0.00     0.025 A 
ATOM     13  C   UNL     1      12.285  -7.820 -11.113  1.00  0.00     0.016 A 
ATOM     14  C   UNL     1      13.309  -7.537 -12.019  1.00  0.00     0.051 A 
ATOM     15  C   UNL     1      14.039  -6.345 -11.913  1.00  0.00     0.157 A 
ATOM     16  C   UNL     1      12.703  -5.718  -9.986  1.00  0.00     0.062 A 
ATOM     17  C   UNL     1      13.730  -5.430 -10.892  1.00  0.00     0.158 A 
BRANCH  15  18
ATOM     18  O   UNL     1      15.061  -6.066 -12.818  1.00  0.00    -0.504 OA
ATOM     19  H   UNL     1      14.866  -5.709 -13.746  1.00  0.00     0.293 HD
ENDBRANCH  15  18
BRANCH  17  20
ATOM     20  O   UNL     1      14.432  -4.232 -10.762  1.00  0.00    -0.504 OA
ATOM     21  H   UNL     1      14.195  -3.408 -11.302  1.00  0.00     0.293 HD
ENDBRANCH  17  20
ENDBRANCH   1  12
BRANCH   2  22
ATOM     22  O   UNL     1      10.362  -9.326 -10.155  1.00  0.00    -0.502 OA
ATOM     23  H   UNL     1       9.626  -9.801 -10.662  1.00  0.00     0.293 HD
ENDBRANCH   2  22
BRANCH   6  24
ATOM     24  O   UNL     1       6.959  -8.747  -6.264  1.00  0.00    -0.507 OA
ATOM     25  H   UNL     1       7.009  -9.453  -5.539  1.00  0.00     0.293 HD
ENDBRANCH   6  24
BRANCH   8  26
ATOM     26  O   UNL     1       8.394  -4.533  -4.361  1.00  0.00    -0.508 OA
ATOM     27  H   UNL     1       8.098  -4.743  -3.415  1.00  0.00     0.293 HD
ENDBRANCH   8  26
TORSDOF 6
ENDMDL
MODEL 5
REMARK VINA RESULT:    -6.138      9.723     13.929
REMARK INTER + INTRA:          -7.654
REMARK INTER:                  -8.078
REMARK INTRA:                   0.424
REMARK UNBOUND:                -0.260
REMARK SMILES O=c1c(O)c(-c2ccc(O)c(O)c2)oc2cc(O)cc(O)c12
REMARK SMILES IDX 5 1 3 2 2 3 1 4 22 5 20 6 19 7 17 8 16 9 15 10 14 11 6 12
REMARK SMILES IDX 7 13 8 14 9 15 13 16 11 17 10 18 12 20 4 22 21 24 18 26
REMARK H PARENT 10 19 12 21 4 23 21 25 18 27
REMARK Flexibility Score: inf
ROOT
ATOM      1  C   UNL     1       9.476  -7.530  -9.155  1.00  0.00     0.180 A 
ATOM      2  C   UNL     1       8.537  -8.275  -9.894  1.00  0.00     0.208 A 
ATOM      3  C   UNL     1       8.934  -8.854 -11.110  1.00  0.00     0.238 A 
ATOM      4  O   UNL     1       8.105  -9.533 -11.774  1.00  0.00    -0.285 OA
ATOM      5  C   UNL     1      10.252  -8.663 -11.575  1.00  0.00     0.111 A 
ATOM      6  C   UNL     1      10.730  -9.208 -12.790  1.00  0.00     0.134 A 
ATOM      7  C   UNL     1      12.053  -8.964 -13.189  1.00  0.00     0.093 A 
ATOM      8  C   UNL     1      12.904  -8.184 -12.397  1.00  0.00     0.123 A 
ATOM      9  C   UNL     1      12.436  -7.646 -11.198  1.00  0.00     0.094 A 
ATOM     10  C   UNL     1      11.122  -7.878 -10.782  1.00  0.00     0.146 A 
ATOM     11  O   UNL     1      10.705  -7.358  -9.634  1.00  0.00    -0.452 OA
ENDROOT
BRANCH   1  12
ATOM     12  C   UNL     1       9.138  -6.905  -7.857  1.00  0.00     0.025 A 
ATOM     13  C   UNL     1       7.942  -7.212  -7.186  1.00  0.00     0.016 A 
ATOM     14  C   UNL     1       7.656  -6.629  -5.950  1.00  0.00     0.051 A 
ATOM     15  C   UNL     1       8.565  -5.740  -5.358  1.00  0.00     0.157 A 
ATOM     16  C   UNL     1      10.055  -6.031  -7.251  1.00  0.00     0.062 A 
ATOM     17  C   UNL     1       9.772  -5.444  -6.013  1.00  0.00     0.158 A 
BRANCH  15  18
ATOM     18  O   UNL     1       8.275  -5.159  -4.125  1.00  0.00    -0.504 OA
ATOM     19  H   UNL     1       7.371  -5.275  -3.682  1.00  0.00     0.293 HD
ENDBRANCH  15  18
BRANCH  17  20
ATOM     20  O   UNL     1      10.701  -4.570  -5.449  1.00  0.00    -0.504 OA
ATOM     21  H   UNL     1      11.674  -4.564  -5.731  1.00  0.00     0.293 HD
ENDBRANCH  17  20
ENDBRANCH   1  12
BRANCH   2  22
ATOM     22  O   UNL     1       7.224  -8.410  -9.436  1.00  0.00    -0.502 OA
ATOM     23  H   UNL     1       6.898  -7.966  -8.585  1.00  0.00     0.293 HD
ENDBRANCH   2  22
BRANCH   6  24
ATOM     24  O   UNL     1       9.905  -9.988 -13.603  1.00  0.00    -0.507 OA
ATOM     25  H   UNL     1      10.057 -10.063 -14.601  1.00  0.00     0.293 HD
ENDBRANCH   6  24
BRANCH   8  26
ATOM     26  O   UNL     1      14.217  -7.941 -12.794  1.00  0.00    -0.508 OA
ATOM     27  H   UNL     1      14.553  -7.001 -12.964  1.00  0.00     0.293 HD
ENDBRANCH   8  26
TORSDOF 6
ENDMDL
MODEL 6
REMARK VINA RESULT:    -6.053      7.528     11.003
REMARK INTER + INTRA:          -7.552
REMARK INTER:                  -7.220
REMARK INTRA:                  -0.332
REMARK UNBOUND:                -0.260
REMARK SMILES O=c1c(O)c(-c2ccc(O)c(O)c2)oc2cc(O)cc(O)c12
REMARK SMILES IDX 5 1 3 2 2 3 1 4 22 5 20 6 19 7 17 8 16 9 15 10 14 11 6 12
REMARK SMILES IDX 7 13 8 14 9 15 13 16 11 17 10 18 12 20 4 22 21 24 18 26
REMARK H PARENT 10 19 12 21 4 23 21 25 18 27
REMARK Flexibility Score: inf
ROOT
ATOM      1  C   UNL     1      11.200  -6.419 -10.870  1.00  0.00     0.180 A 
ATOM      2  C   UNL     1      10.960  -6.658  -9.503  1.00  0.00     0.208 A 
ATOM      3  C   UNL     1       9.819  -7.385  -9.131  1.00  0.00     0.238 A 
ATOM      4  O   UNL     1       9.601  -7.615  -7.911  1.00  0.00    -0.285 OA
ATOM      5  C   UNL     1       8.930  -7.844 -10.125  1.00  0.00     0.111 A 
ATOM      6  C   UNL     1       7.756  -8.579  -9.833  1.00  0.00     0.134 A 
ATOM      7  C   UNL     1       6.916  -8.991 -10.879  1.00  0.00     0.093 A 
ATOM      8  C   UNL     1       7.228  -8.680 -12.208  1.00  0.00     0.123 A 
ATOM      9  C   UNL     1       8.384  -7.955 -12.499  1.00  0.00     0.094 A 
ATOM     10  C   UNL     1       9.234  -7.537 -11.472  1.00  0.00     0.146 A 
ATOM     11  O   UNL     1      10.331  -6.853 -11.778  1.00  0.00    -0.452 OA
ENDROOT
BRANCH   1  12
ATOM     12  C   UNL     1      12.391  -5.676 -11.342  1.00  0.00     0.025 A 
ATOM     13  C   UNL     1      13.617  -6.324 -11.565  1.00  0.00     0.016 A 
ATOM     14  C   UNL     1      14.720  -5.607 -12.034  1.00  0.00     0.051 A 
ATOM     15  C   UNL     1      14.612  -4.235 -12.300  1.00  0.00     0.157 A 
ATOM     16  C   UNL     1      12.281  -4.306 -11.630  1.00  0.00     0.062 A 
ATOM     17  C   UNL     1      13.383  -3.584 -12.100  1.00  0.00     0.158 A 
BRANCH  15  18
ATOM     18  O   UNL     1      15.714  -3.522 -12.766  1.00  0.00    -0.504 OA
ATOM     19  H   UNL     1      16.154  -2.799 -12.209  1.00  0.00     0.293 HD
ENDBRANCH  15  18
BRANCH  17  20
ATOM     20  O   UNL     1      13.239  -2.221 -12.360  1.00  0.00    -0.504 OA
ATOM     21  H   UNL     1      13.755  -1.758 -13.099  1.00  0.00     0.293 HD
ENDBRANCH  17  20
ENDBRANCH   1  12
BRANCH   2  22
ATOM     22  O   UNL     1      11.831  -6.151  -8.534  1.00  0.00    -0.502 OA
ATOM     23  H   UNL     1      12.814  -5.990  -8.720  1.00  0.00     0.293 HD
ENDBRANCH   2  22
BRANCH   6  24
ATOM     24  O   UNL     1       7.419  -8.904  -8.519  1.00  0.00    -0.507 OA
ATOM     25  H   UNL     1       7.306  -9.865  -8.219  1.00  0.00     0.293 HD
ENDBRANCH   6  24
BRANCH   8  26
ATOM     26  O   UNL     1       6.393  -9.088 -13.247  1.00  0.00    -0.508 OA
ATOM     27  H   UNL     1       6.045  -8.432 -13.935  1.00  0.00     0.293 HD
ENDBRANCH   8  26
TORSDOF 6
ENDMDL
MODEL 7
REMARK VINA RESULT:    -6.015      1.710      6.925
REMARK INTER + INTRA:          -7.506
REMARK INTER:                  -7.202
REMARK INTRA:                  -0.304
REMARK UNBOUND:                -0.260
REMARK SMILES O=c1c(O)c(-c2ccc(O)c(O)c2)oc2cc(O)cc(O)c12
REMARK SMILES IDX 5 1 3 2 2 3 1 4 22 5 20 6 19 7 17 8 16 9 15 10 14 11 6 12
REMARK SMILES IDX 7 13 8 14 9 15 13 16 11 17 10 18 12 20 4 22 21 24 18 26
REMARK H PARENT 10 19 12 21 4 23 21 25 18 27
REMARK Flexibility Score: inf
ROOT
ATOM      1  C   UNL     1      17.755  -4.396 -16.637  1.00  0.00     0.180 A 
ATOM      2  C   UNL     1      17.541  -3.369 -15.698  1.00  0.00     0.208 A 
ATOM      3  C   UNL     1      17.975  -2.069 -16.003  1.00  0.00     0.238 A 
ATOM      4  O   UNL     1      17.778  -1.139 -15.175  1.00  0.00    -0.285 OA
ATOM      5  C   UNL     1      18.629  -1.822 -17.228  1.00  0.00     0.111 A 
ATOM      6  C   UNL     1      19.100  -0.543 -17.609  1.00  0.00     0.134 A 
ATOM      7  C   UNL     1      19.751  -0.380 -18.841  1.00  0.00     0.093 A 
ATOM      8  C   UNL     1      19.941  -1.472 -19.696  1.00  0.00     0.123 A 
ATOM      9  C   UNL     1      19.478  -2.734 -19.324  1.00  0.00     0.094 A 
ATOM     10  C   UNL     1      18.826  -2.917 -18.101  1.00  0.00     0.146 A 
ATOM     11  O   UNL     1      18.391  -4.128 -17.774  1.00  0.00    -0.452 OA
ENDROOT
BRANCH   1  12
ATOM     12  C   UNL     1      17.311  -5.788 -16.396  1.00  0.00     0.025 A 
ATOM     13  C   UNL     1      18.190  -6.758 -15.885  1.00  0.00     0.016 A 
ATOM     14  C   UNL     1      17.742  -8.058 -15.641  1.00  0.00     0.051 A 
ATOM     15  C   UNL     1      16.407  -8.406 -15.892  1.00  0.00     0.157 A 
ATOM     16  C   UNL     1      15.970  -6.135 -16.625  1.00  0.00     0.062 A 
ATOM     17  C   UNL     1      15.517  -7.436 -16.382  1.00  0.00     0.158 A 
BRANCH  15  18
ATOM     18  O   UNL     1      15.964  -9.705 -15.649  1.00  0.00    -0.504 OA
ATOM     19  H   UNL     1      15.194 -10.109 -16.170  1.00  0.00     0.293 HD
ENDBRANCH  15  18
BRANCH  17  20
ATOM     20  O   UNL     1      14.181  -7.746 -16.635  1.00  0.00    -0.504 OA
ATOM     21  H   UNL     1      13.886  -8.186 -17.499  1.00  0.00     0.293 HD
ENDBRANCH  17  20
ENDBRANCH   1  12
BRANCH   2  22
ATOM     22  O   UNL     1      16.934  -3.649 -14.471  1.00  0.00    -0.502 OA
ATOM     23  H   UNL     1      15.956  -3.901 -14.395  1.00  0.00     0.293 HD
ENDBRANCH   2  22
BRANCH   6  24
ATOM     24  O   UNL     1      18.926   0.565 -16.777  1.00  0.00    -0.507 OA
ATOM     25  H   UNL     1      18.524   1.430 -17.119  1.00  0.00     0.293 HD
ENDBRANCH   6  24
BRANCH   8  26
ATOM     26  O   UNL     1      20.589  -1.311 -20.920  1.00  0.00    -0.508 OA
ATOM     27  H   UNL     1      21.195  -2.029 -21.296  1.00  0.00     0.293 HD
ENDBRANCH   8  26
TORSDOF 6
ENDMDL
MODEL 8
REMARK VINA RESULT:    -5.804      7.336     12.534
REMARK INTER + INTRA:          -7.252
REMARK INTER:                  -6.986
REMARK INTRA:                  -0.265
REMARK UNBOUND:                -0.260
REMARK SMILES O=c1c(O)c(-c2ccc(O)c(O)c2)oc2cc(O)cc(O)c12
REMARK SMILES IDX 5 1 3 2 2 3 1 4 22 5 20 6 19 7 17 8 16 9 15 10 14 11 6 12
REMARK SMILES IDX 7 13 8 14 9 15 13 16 11 17 10 18 12 20 4 22 21 24 18 26
REMARK H PARENT 10 19 12 21 4 23 21 25 18 27
REMARK Flexibility Score: inf
ROOT
ATOM      1  C   UNL     1      11.203  -6.419  -9.823  1.00  0.00     0.180 A 
ATOM      2  C   UNL     1      11.062  -7.458 -10.764  1.00  0.00     0.208 A 
ATOM      3  C   UNL     1      12.079  -7.658 -11.712  1.00  0.00     0.238 A 
ATOM      4  O   UNL     1      11.968  -8.592 -12.551  1.00  0.00    -0.285 OA
ATOM      5  C   UNL     1      13.205  -6.809 -11.716  1.00  0.00     0.111 A 
ATOM      6  C   UNL     1      14.269  -6.941 -12.639  1.00  0.00     0.134 A 
ATOM      7  C   UNL     1      15.351  -6.049 -12.584  1.00  0.00     0.093 A 
ATOM      8  C   UNL     1      15.386  -5.029 -11.626  1.00  0.00     0.123 A 
ATOM      9  C   UNL     1      14.339  -4.896 -10.714  1.00  0.00     0.094 A 
ATOM     10  C   UNL     1      13.253  -5.775 -10.751  1.00  0.00     0.146 A 
ATOM     11  O   UNL     1      12.272  -5.629  -9.868  1.00  0.00    -0.452 OA
ENDROOT
BRANCH   1  12
ATOM     12  C   UNL     1      10.184  -6.158  -8.782  1.00  0.00     0.025 A 
ATOM     13  C   UNL     1      10.407  -6.496  -7.436  1.00  0.00     0.016 A 
ATOM     14  C   UNL     1       9.441  -6.216  -6.468  1.00  0.00     0.051 A 
ATOM     15  C   UNL     1       8.243  -5.583  -6.825  1.00  0.00     0.157 A 
ATOM     16  C   UNL     1       8.991  -5.504  -9.132  1.00  0.00     0.062 A 
ATOM     17  C   UNL     1       8.020  -5.222  -8.165  1.00  0.00     0.158 A 
BRANCH  15  18
ATOM     18  O   UNL     1       7.280  -5.307  -5.856  1.00  0.00    -0.504 OA
ATOM     19  H   UNL     1       7.305  -4.454  -5.310  1.00  0.00     0.293 HD
ENDBRANCH  15  18
BRANCH  17  20
ATOM     20  O   UNL     1       6.842  -4.585  -8.553  1.00  0.00    -0.504 OA
ATOM     21  H   UNL     1       6.030  -4.541  -7.949  1.00  0.00     0.293 HD
ENDBRANCH  17  20
ENDBRANCH   1  12
BRANCH   2  22
ATOM     22  O   UNL     1       9.914  -8.255 -10.770  1.00  0.00    -0.502 OA
ATOM     23  H   UNL     1       9.348  -8.396  -9.942  1.00  0.00     0.293 HD
ENDBRANCH   2  22
BRANCH   6  24
ATOM     24  O   UNL     1      14.262  -7.947 -13.606  1.00  0.00    -0.507 OA
ATOM     25  H   UNL     1      14.802  -7.869 -14.460  1.00  0.00     0.293 HD
ENDBRANCH   6  24
BRANCH   8  26
ATOM     26  O   UNL     1      16.460  -4.142 -11.573  1.00  0.00    -0.508 OA
ATOM     27  H   UNL     1      16.318  -3.142 -11.509  1.00  0.00     0.293 HD
ENDBRANCH   8  26
TORSDOF 6
ENDMDL
MODEL 9
REMARK VINA RESULT:    -5.709      6.484      9.067
REMARK INTER + INTRA:          -7.138
REMARK INTER:                  -6.853
REMARK INTRA:                  -0.285
REMARK UNBOUND:                -0.260
REMARK SMILES O=c1c(O)c(-c2ccc(O)c(O)c2)oc2cc(O)cc(O)c12
REMARK SMILES IDX 5 1 3 2 2 3 1 4 22 5 20 6 19 7 17 8 16 9 15 10 14 11 6 12
REMARK SMILES IDX 7 13 8 14 9 15 13 16 11 17 10 18 12 20 4 22 21 24 18 26
REMARK H PARENT 10 19 12 21 4 23 21 25 18 27
REMARK Flexibility Score: inf
ROOT
ATOM      1  C   UNL     1      17.970  -2.170  -9.193  1.00  0.00     0.180 A 
ATOM      2  C   UNL     1      17.169  -1.013  -9.116  1.00  0.00     0.208 A 
ATOM      3  C   UNL     1      16.090  -0.874 -10.004  1.00  0.00     0.238 A 
ATOM      4  O   UNL     1      15.360   0.152  -9.936  1.00  0.00    -0.285 OA
ATOM      5  C   UNL     1      15.842  -1.879 -10.962  1.00  0.00     0.111 A 
ATOM      6  C   UNL     1      14.780  -1.812 -11.894  1.00  0.00     0.134 A 
ATOM      7  C   UNL     1      14.605  -2.849 -12.823  1.00  0.00     0.093 A 
ATOM      8  C   UNL     1      15.473  -3.947 -12.838  1.00  0.00     0.123 A 
ATOM      9  C   UNL     1      16.521  -4.016 -11.920  1.00  0.00     0.094 A 
ATOM     10  C   UNL     1      16.712  -2.994 -10.985  1.00  0.00     0.146 A 
ATOM     11  O   UNL     1      17.715  -3.088 -10.120  1.00  0.00    -0.452 OA
ENDROOT
BRANCH   1  12
ATOM     12  C   UNL     1      19.113  -2.397  -8.280  1.00  0.00     0.025 A 
ATOM     13  C   UNL     1      20.434  -2.137  -8.683  1.00  0.00     0.016 A 
ATOM     14  C   UNL     1      21.495  -2.335  -7.796  1.00  0.00     0.051 A 
ATOM     15  C   UNL     1      21.251  -2.783  -6.490  1.00  0.00     0.157 A 
ATOM     16  C   UNL     1      18.872  -2.824  -6.964  1.00  0.00     0.062 A 
ATOM     17  C   UNL     1      19.932  -3.024  -6.072  1.00  0.00     0.158 A 
BRANCH  15  18
ATOM     18  O   UNL     1      22.312  -2.981  -5.608  1.00  0.00    -0.504 OA
ATOM     19  H   UNL     1      22.489  -2.346  -4.838  1.00  0.00     0.293 HD
ENDBRANCH  15  18
BRANCH  17  20
ATOM     20  O   UNL     1      19.655  -3.463  -4.778  1.00  0.00    -0.504 OA
ATOM     21  H   UNL     1      20.387  -3.749  -4.139  1.00  0.00     0.293 HD
ENDBRANCH  17  20
ENDBRANCH   1  12
BRANCH   2  22
ATOM     22  O   UNL     1      17.465  -0.010  -8.190  1.00  0.00    -0.502 OA
ATOM     23  H   UNL     1      17.790  -0.215  -7.253  1.00  0.00     0.293 HD
ENDBRANCH   2  22
BRANCH   6  24
ATOM     24  O   UNL     1      13.898  -0.730 -11.905  1.00  0.00    -0.507 OA
ATOM     25  H   UNL     1      12.904  -0.851 -11.750  1.00  0.00     0.293 HD
ENDBRANCH   6  24
BRANCH   8  26
ATOM     26  O   UNL     1      15.300  -4.976 -13.762  1.00  0.00    -0.508 OA
ATOM     27  H   UNL     1      14.653  -4.889 -14.536  1.00  0.00     0.293 HD
ENDBRANCH   8  26
TORSDOF 6
ENDMDL
