MODEL 1
REMARK VINA RESULT:    -4.943      0.000      0.000
REMARK INTER + INTRA:         -14.482
REMARK INTER:                 -11.300
REMARK INTRA:                  -3.182
REMARK UNBOUND:                -3.182
REMARK SMILES CCCCCCCCCCCCCCCCCCCCCCCC(=O)[O-]
REMARK SMILES IDX 13 1 14 2 15 3 16 4 17 5 18 6 19 7 20 8 21 9 22 10 23 11
REMARK SMILES IDX 24 12 25 13 26 14 12 15 11 16 10 17 9 18 8 19 7 20 6 21 5 22
REMARK SMILES IDX 4 23 3 24 2 25 1 26
REMARK H PARENT
REMARK Flexibility Score: inf
ROOT
ATOM      1  C   UNL     1     -48.808  11.570 -28.505  1.00  0.00     0.000 C 
ENDROOT
BRANCH   1   2
ATOM      2  C   UNL     1     -48.762  10.213 -29.231  1.00  0.00     0.000 C 
BRANCH   2   3
ATOM      3  C   UNL     1     -47.338   9.645 -29.330  1.00  0.00     0.000 C 
BRANCH   3   4
ATOM      4  C   UNL     1     -47.239   8.470 -30.316  1.00  0.00     0.000 C 
BRANCH   4   5
ATOM      5  C   UNL     1     -48.402   7.472 -30.172  1.00  0.00     0.000 C 
BRANCH   5   6
ATOM      6  C   UNL     1     -48.611   6.533 -31.378  1.00  0.00     0.000 C 
BRANCH   6   7
ATOM      7  C   UNL     1     -48.798   7.236 -32.736  1.00  0.00     0.000 C 
BRANCH   7   8
ATOM      8  C   UNL     1     -50.119   8.016 -32.831  1.00  0.00     0.000 C 
BRANCH   8   9
ATOM      9  C   UNL     1     -49.907   9.531 -33.010  1.00  0.00     0.000 C 
BRANCH   9  10
ATOM     10  C   UNL     1     -50.518  10.416 -31.905  1.00  0.00     0.006 C 
BRANCH  10  11
ATOM     11  C   UNL     1     -51.967  10.855 -32.166  1.00  0.00     0.053 C 
BRANCH  11  12
ATOM     12  C   UNL     1     -52.919  10.275 -31.166  1.00  0.00     0.041 C 
ATOM     13  O   UNL     1     -52.990  10.757 -30.005  1.00  0.00    -0.550 OA
ATOM     14  O   UNL     1     -53.700   9.177 -31.504  1.00  0.00    -0.550 OA
ENDBRANCH  11  12
ENDBRANCH  10  11
ENDBRANCH   9  10
ENDBRANCH   8   9
ENDBRANCH   7   8
ENDBRANCH   6   7
ENDBRANCH   5   6
ENDBRANCH   4   5
ENDBRANCH   3   4
ENDBRANCH   2   3
ENDBRANCH   1   2
BRANCH   1  15
ATOM     15  C   UNL     1     -49.965  12.462 -28.997  1.00  0.00     0.000 C 
BRANCH  15  16
ATOM     16  C   UNL     1     -49.523  13.617 -29.919  1.00  0.00     0.000 C 
BRANCH  16  17
ATOM     17  C   UNL     1     -50.561  14.748 -30.056  1.00  0.00     0.000 C 
BRANCH  17  18
ATOM     18  C   UNL     1     -51.743  14.357 -30.960  1.00  0.00    -0.000 C 
BRANCH  18  19
ATOM     19  C   UNL     1     -53.110  14.566 -30.282  1.00  0.00    -0.000 C 
BRANCH  19  20
ATOM     20  C   UNL     1     -53.162  14.169 -28.796  1.00  0.00    -0.000 C 
BRANCH  20  21
ATOM     21  C   UNL     1     -53.818  15.243 -27.916  1.00  0.00    -0.000 C 
BRANCH  21  22
ATOM     22  C   UNL     1     -52.770  16.225 -27.377  1.00  0.00    -0.000 C 
BRANCH  22  23
ATOM     23  C   UNL     1     -53.324  17.658 -27.348  1.00  0.00    -0.000 C 
BRANCH  23  24
ATOM     24  C   UNL     1     -53.299  18.338 -28.729  1.00  0.00    -0.000 C 
BRANCH  24  25
ATOM     25  C   UNL     1     -52.053  18.029 -29.579  1.00  0.00    -0.003 C 
ATOM     26  C   UNL     1     -52.284  18.236 -31.076  1.00  0.00     0.004 C 
ENDBRANCH  24  25
ENDBRANCH  23  24
ENDBRANCH  22  23
ENDBRANCH  21  22
ENDBRANCH  20  21
ENDBRANCH  19  20
ENDBRANCH  18  19
ENDBRANCH  17  18
ENDBRANCH  16  17
ENDBRANCH  15  16
ENDBRANCH   1  15
TORSDOF 22
ENDMDL
MODEL 2
REMARK VINA RESULT:    -4.908      1.482      8.180
REMARK INTER + INTRA:         -14.402
REMARK INTER:                 -11.239
REMARK INTRA:                  -3.164
REMARK UNBOUND:                -3.182
REMARK SMILES CCCCCCCCCCCCCCCCCCCCCCCC(=O)[O-]
REMARK SMILES IDX 13 1 14 2 15 3 16 4 17 5 18 6 19 7 20 8 21 9 22 10 23 11
REMARK SMILES IDX 24 12 25 13 26 14 12 15 11 16 10 17 9 18 8 19 7 20 6 21 5 22
REMARK SMILES IDX 4 23 3 24 2 25 1 26
REMARK H PARENT
REMARK Flexibility Score: inf
ROOT
ATOM      1  C   UNL     1     -54.028  14.731 -28.544  1.00  0.00     0.000 C 
ENDROOT
BRANCH   1   2
ATOM      2  C   UNL     1     -52.943  15.504 -27.772  1.00  0.00     0.000 C 
BRANCH   2   3
ATOM      3  C   UNL     1     -53.371  16.941 -27.438  1.00  0.00     0.000 C 
BRANCH   3   4
ATOM      4  C   UNL     1     -52.493  17.995 -28.134  1.00  0.00     0.000 C 
BRANCH   4   5
ATOM      5  C   UNL     1     -52.970  18.318 -29.561  1.00  0.00     0.000 C 
BRANCH   5   6
ATOM      6  C   UNL     1     -52.059  17.790 -30.689  1.00  0.00     0.000 C 
BRANCH   6   7
ATOM      7  C   UNL     1     -52.563  16.521 -31.403  1.00  0.00     0.000 C 
BRANCH   7   8
ATOM      8  C   UNL     1     -51.442  15.507 -31.685  1.00  0.00     0.000 C 
BRANCH   8   9
ATOM      9  C   UNL     1     -50.405  15.432 -30.550  1.00  0.00     0.000 C 
BRANCH   9  10
ATOM     10  C   UNL     1     -49.745  14.052 -30.351  1.00  0.00     0.006 C 
BRANCH  10  11
ATOM     11  C   UNL     1     -49.950  13.442 -28.956  1.00  0.00     0.053 C 
BRANCH  11  12
ATOM     12  C   UNL     1     -49.473  12.024 -28.887  1.00  0.00     0.041 C 
ATOM     13  O   UNL     1     -49.687  11.236 -29.846  1.00  0.00    -0.550 OA
ATOM     14  O   UNL     1     -48.828  11.560 -27.748  1.00  0.00    -0.550 OA
ENDBRANCH  11  12
ENDBRANCH  10  11
ENDBRANCH   9  10
ENDBRANCH   8   9
ENDBRANCH   7   8
ENDBRANCH   6   7
ENDBRANCH   5   6
ENDBRANCH   4   5
ENDBRANCH   3   4
ENDBRANCH   2   3
ENDBRANCH   1   2
BRANCH   1  15
ATOM     15  C   UNL     1     -53.563  13.319 -28.955  1.00  0.00     0.000 C 
BRANCH  15  16
ATOM     16  C   UNL     1     -53.846  12.966 -30.430  1.00  0.00     0.000 C 
BRANCH  16  17
ATOM     17  C   UNL     1     -53.322  11.582 -30.860  1.00  0.00     0.000 C 
BRANCH  17  18
ATOM     18  C   UNL     1     -52.098  11.677 -31.787  1.00  0.00    -0.000 C 
BRANCH  18  19
ATOM     19  C   UNL     1     -51.988  10.488 -32.758  1.00  0.00    -0.000 C 
BRANCH  19  20
ATOM     20  C   UNL     1     -50.606   9.812 -32.800  1.00  0.00    -0.000 C 
BRANCH  20  21
ATOM     21  C   UNL     1     -50.689   8.281 -32.709  1.00  0.00    -0.000 C 
BRANCH  21  22
ATOM     22  C   UNL     1     -49.319   7.641 -32.968  1.00  0.00    -0.000 C 
BRANCH  22  23
ATOM     23  C   UNL     1     -48.865   6.809 -31.760  1.00  0.00    -0.000 C 
BRANCH  23  24
ATOM     24  C   UNL     1     -48.525   7.672 -30.531  1.00  0.00    -0.000 C 
BRANCH  24  25
ATOM     25  C   UNL     1     -47.412   8.710 -30.759  1.00  0.00    -0.003 C 
ATOM     26  C   UNL     1     -46.719   9.139 -29.465  1.00  0.00     0.004 C 
ENDBRANCH  24  25
ENDBRANCH  23  24
ENDBRANCH  22  23
ENDBRANCH  21  22
ENDBRANCH  20  21
ENDBRANCH  19  20
ENDBRANCH  18  19
ENDBRANCH  17  18
ENDBRANCH  16  17
ENDBRANCH  15  16
ENDBRANCH   1  15
TORSDOF 22
ENDMDL
MODEL 3
REMARK VINA RESULT:    -4.860      2.462      8.576
REMARK INTER + INTRA:         -14.292
REMARK INTER:                 -11.175
REMARK INTRA:                  -3.117
REMARK UNBOUND:                -3.182
REMARK SMILES CCCCCCCCCCCCCCCCCCCCCCCC(=O)[O-]
REMARK SMILES IDX 13 1 14 2 15 3 16 4 17 5 18 6 19 7 20 8 21 9 22 10 23 11
REMARK SMILES IDX 24 12 25 13 26 14 12 15 11 16 10 17 9 18 8 19 7 20 6 21 5 22
REMARK SMILES IDX 4 23 3 24 2 25 1 26
REMARK H PARENT
REMARK Flexibility Score: inf
ROOT
ATOM      1  C   UNL     1     -49.250  13.177 -29.916  1.00  0.00     0.000 C 
ENDROOT
BRANCH   1   2
ATOM      2  C   UNL     1     -50.250  14.282 -29.531  1.00  0.00     0.000 C 
BRANCH   2   3
ATOM      3  C   UNL     1     -50.616  15.185 -30.719  1.00  0.00     0.000 C 
BRANCH   3   4
ATOM      4  C   UNL     1     -51.999  14.854 -31.307  1.00  0.00     0.000 C 
BRANCH   4   5
ATOM      5  C   UNL     1     -52.861  14.005 -30.356  1.00  0.00     0.000 C 
BRANCH   5   6
ATOM      6  C   UNL     1     -54.011  14.766 -29.663  1.00  0.00     0.000 C 
BRANCH   6   7
ATOM      7  C   UNL     1     -53.844  14.973 -28.145  1.00  0.00     0.000 C 
BRANCH   7   8
ATOM      8  C   UNL     1     -52.834  16.079 -27.799  1.00  0.00     0.000 C 
BRANCH   8   9
ATOM      9  C   UNL     1     -53.509  17.426 -27.477  1.00  0.00     0.000 C 
BRANCH   9  10
ATOM     10  C   UNL     1     -53.632  18.401 -28.665  1.00  0.00     0.006 C 
BRANCH  10  11
ATOM     11  C   UNL     1     -52.546  18.238 -29.740  1.00  0.00     0.053 C 
BRANCH  11  12
ATOM     12  C   UNL     1     -53.074  18.504 -31.117  1.00  0.00     0.041 C 
ATOM     13  O   UNL     1     -53.934  17.737 -31.624  1.00  0.00    -0.550 OA
ATOM     14  O   UNL     1     -52.586  19.574 -31.855  1.00  0.00    -0.550 OA
ENDBRANCH  11  12
ENDBRANCH  10  11
ENDBRANCH   9  10
ENDBRANCH   8   9
ENDBRANCH   7   8
ENDBRANCH   6   7
ENDBRANCH   5   6
ENDBRANCH   4   5
ENDBRANCH   3   4
ENDBRANCH   2   3
ENDBRANCH   1   2
BRANCH   1  15
ATOM     15  C   UNL     1     -49.806  11.763 -29.654  1.00  0.00     0.000 C 
BRANCH  15  16
ATOM     16  C   UNL     1     -50.100  10.954 -30.934  1.00  0.00     0.000 C 
BRANCH  16  17
ATOM     17  C   UNL     1     -51.242   9.929 -30.785  1.00  0.00     0.000 C 
BRANCH  17  18
ATOM     18  C   UNL     1     -52.256  10.005 -31.940  1.00  0.00    -0.000 C 
BRANCH  18  19
ATOM     19  C   UNL     1     -52.232   8.757 -32.841  1.00  0.00    -0.000 C 
BRANCH  19  20
ATOM     20  C   UNL     1     -51.345   7.608 -32.330  1.00  0.00    -0.000 C 
BRANCH  20  21
ATOM     21  C   UNL     1     -50.431   7.031 -33.421  1.00  0.00    -0.000 C 
BRANCH  21  22
ATOM     22  C   UNL     1     -48.954   7.280 -33.087  1.00  0.00    -0.000 C 
BRANCH  22  23
ATOM     23  C   UNL     1     -48.745   7.384 -31.568  1.00  0.00    -0.000 C 
BRANCH  23  24
ATOM     24  C   UNL     1     -47.623   8.366 -31.184  1.00  0.00    -0.000 C 
BRANCH  24  25
ATOM     25  C   UNL     1     -47.452   8.592 -29.672  1.00  0.00    -0.003 C 
ATOM     26  C   UNL     1     -46.713   7.449 -28.975  1.00  0.00     0.004 C 
ENDBRANCH  24  25
ENDBRANCH  23  24
ENDBRANCH  22  23
ENDBRANCH  21  22
ENDBRANCH  20  21
ENDBRANCH  19  20
ENDBRANCH  18  19
ENDBRANCH  17  18
ENDBRANCH  16  17
ENDBRANCH  15  16
ENDBRANCH   1  15
TORSDOF 22
ENDMDL
MODEL 4
REMARK VINA RESULT:    -4.847      2.913      8.052
REMARK INTER + INTRA:         -14.263
REMARK INTER:                 -10.767
REMARK INTRA:                  -3.496
REMARK UNBOUND:                -3.182
REMARK SMILES CCCCCCCCCCCCCCCCCCCCCCCC(=O)[O-]
REMARK SMILES IDX 13 1 14 2 15 3 16 4 17 5 18 6 19 7 20 8 21 9 22 10 23 11
REMARK SMILES IDX 24 12 25 13 26 14 12 15 11 16 10 17 9 18 8 19 7 20 6 21 5 22
REMARK SMILES IDX 4 23 3 24 2 25 1 26
REMARK H PARENT
REMARK Flexibility Score: inf
ROOT
ATOM      1  C   UNL     1     -52.891   9.402 -31.327  1.00  0.00     0.000 C 
ENDROOT
BRANCH   1   2
ATOM      2  C   UNL     1     -52.188  10.338 -32.327  1.00  0.00     0.000 C 
BRANCH   2   3
ATOM      3  C   UNL     1     -52.221  11.808 -31.881  1.00  0.00     0.000 C 
BRANCH   3   4
ATOM      4  C   UNL     1     -53.281  12.071 -30.797  1.00  0.00     0.000 C 
BRANCH   4   5
ATOM      5  C   UNL     1     -52.796  13.055 -29.718  1.00  0.00     0.000 C 
BRANCH   5   6
ATOM      6  C   UNL     1     -51.488  12.651 -29.005  1.00  0.00     0.000 C 
BRANCH   6   7
ATOM      7  C   UNL     1     -50.405  13.745 -28.944  1.00  0.00     0.000 C 
BRANCH   7   8
ATOM      8  C   UNL     1     -49.604  13.867 -30.250  1.00  0.00     0.000 C 
BRANCH   8   9
ATOM      9  C   UNL     1     -49.981  15.115 -31.069  1.00  0.00     0.000 C 
BRANCH   9  10
ATOM     10  C   UNL     1     -50.806  16.175 -30.312  1.00  0.00     0.006 C 
BRANCH  10  11
ATOM     11  C   UNL     1     -52.028  16.702 -31.081  1.00  0.00     0.053 C 
BRANCH  11  12
ATOM     12  C   UNL     1     -52.383  18.101 -30.682  1.00  0.00     0.041 C 
ATOM     13  O   UNL     1     -52.580  18.384 -29.471  1.00  0.00    -0.550 OA
ATOM     14  O   UNL     1     -52.534  19.085 -31.651  1.00  0.00    -0.550 OA
ENDBRANCH  11  12
ENDBRANCH  10  11
ENDBRANCH   9  10
ENDBRANCH   8   9
ENDBRANCH   7   8
ENDBRANCH   6   7
ENDBRANCH   5   6
ENDBRANCH   4   5
ENDBRANCH   3   4
ENDBRANCH   2   3
ENDBRANCH   1   2
BRANCH   1  15
ATOM     15  C   UNL     1     -53.838   8.403 -32.022  1.00  0.00     0.000 C 
BRANCH  15  16
ATOM     16  C   UNL     1     -53.761   8.428 -33.562  1.00  0.00     0.000 C 
BRANCH  16  17
ATOM     17  C   UNL     1     -53.618   7.036 -34.210  1.00  0.00     0.000 C 
BRANCH  17  18
ATOM     18  C   UNL     1     -52.757   6.080 -33.367  1.00  0.00    -0.000 C 
BRANCH  18  19
ATOM     19  C   UNL     1     -51.274   6.090 -33.777  1.00  0.00    -0.000 C 
BRANCH  19  20
ATOM     20  C   UNL     1     -50.318   6.687 -32.730  1.00  0.00    -0.000 C 
BRANCH  20  21
ATOM     21  C   UNL     1     -49.516   7.882 -33.268  1.00  0.00    -0.000 C 
BRANCH  21  22
ATOM     22  C   UNL     1     -48.461   8.337 -32.252  1.00  0.00    -0.000 C 
BRANCH  22  23
ATOM     23  C   UNL     1     -49.053   8.398 -30.836  1.00  0.00    -0.000 C 
BRANCH  23  24
ATOM     24  C   UNL     1     -49.260   9.838 -30.334  1.00  0.00    -0.000 C 
BRANCH  24  25
ATOM     25  C   UNL     1     -48.332  10.262 -29.183  1.00  0.00    -0.003 C 
ATOM     26  C   UNL     1     -46.973   9.561 -29.220  1.00  0.00     0.004 C 
ENDBRANCH  24  25
ENDBRANCH  23  24
ENDBRANCH  22  23
ENDBRANCH  21  22
ENDBRANCH  20  21
ENDBRANCH  19  20
ENDBRANCH  18  19
ENDBRANCH  17  18
ENDBRANCH  16  17
ENDBRANCH  15  16
ENDBRANCH   1  15
TORSDOF 22
ENDMDL
MODEL 5
REMARK VINA RESULT:    -4.803      2.385      7.099
REMARK INTER + INTRA:         -14.161
REMARK INTER:                 -10.470
REMARK INTRA:                  -3.691
REMARK UNBOUND:                -3.182
REMARK SMILES CCCCCCCCCCCCCCCCCCCCCCCC(=O)[O-]
REMARK SMILES IDX 13 1 14 2 15 3 16 4 17 5 18 6 19 7 20 8 21 9 22 10 23 11
REMARK SMILES IDX 24 12 25 13 26 14 12 15 11 16 10 17 9 18 8 19 7 20 6 21 5 22
REMARK SMILES IDX 4 23 3 24 2 25 1 26
REMARK H PARENT
REMARK Flexibility Score: inf
ROOT
ATOM      1  C   UNL     1     -48.361  10.059 -29.292  1.00  0.00     0.000 C 
ENDROOT
BRANCH   1   2
ATOM      2  C   UNL     1     -49.622  10.877 -29.623  1.00  0.00     0.000 C 
BRANCH   2   3
ATOM      3  C   UNL     1     -49.361  12.391 -29.614  1.00  0.00     0.000 C 
BRANCH   3   4
ATOM      4  C   UNL     1     -50.318  13.148 -28.678  1.00  0.00     0.000 C 
BRANCH   4   5
ATOM      5  C   UNL     1     -50.846  14.454 -29.298  1.00  0.00     0.000 C 
BRANCH   5   6
ATOM      6  C   UNL     1     -50.104  14.923 -30.567  1.00  0.00     0.000 C 
BRANCH   6   7
ATOM      7  C   UNL     1     -50.968  15.676 -31.596  1.00  0.00     0.000 C 
BRANCH   7   8
ATOM      8  C   UNL     1     -52.404  15.924 -31.106  1.00  0.00     0.000 C 
BRANCH   8   9
ATOM      9  C   UNL     1     -52.827  17.400 -31.216  1.00  0.00     0.000 C 
BRANCH   9  10
ATOM     10  C   UNL     1     -53.208  18.077 -29.884  1.00  0.00     0.006 C 
BRANCH  10  11
ATOM     11  C   UNL     1     -52.173  17.903 -28.761  1.00  0.00     0.053 C 
BRANCH  11  12
ATOM     12  C   UNL     1     -52.747  17.194 -27.573  1.00  0.00     0.041 C 
ATOM     13  O   UNL     1     -53.689  16.372 -27.720  1.00  0.00    -0.550 OA
ATOM     14  O   UNL     1     -52.268  17.471 -26.299  1.00  0.00    -0.550 OA
ENDBRANCH  11  12
ENDBRANCH  10  11
ENDBRANCH   9  10
ENDBRANCH   8   9
ENDBRANCH   7   8
ENDBRANCH   6   7
ENDBRANCH   5   6
ENDBRANCH   4   5
ENDBRANCH   3   4
ENDBRANCH   2   3
ENDBRANCH   1   2
BRANCH   1  15
ATOM     15  C   UNL     1     -48.350   8.685 -29.993  1.00  0.00     0.000 C 
BRANCH  15  16
ATOM     16  C   UNL     1     -47.887   8.731 -31.463  1.00  0.00     0.000 C 
BRANCH  16  17
ATOM     17  C   UNL     1     -48.546   7.669 -32.365  1.00  0.00     0.000 C 
BRANCH  17  18
ATOM     18  C   UNL     1     -50.039   7.472 -32.050  1.00  0.00    -0.000 C 
BRANCH  18  19
ATOM     19  C   UNL     1     -50.937   8.531 -32.714  1.00  0.00    -0.000 C 
BRANCH  19  20
ATOM     20  C   UNL     1     -52.442   8.365 -32.442  1.00  0.00    -0.000 C 
BRANCH  20  21
ATOM     21  C   UNL     1     -52.732   7.679 -31.099  1.00  0.00    -0.000 C 
BRANCH  21  22
ATOM     22  C   UNL     1     -52.725   8.697 -29.951  1.00  0.00    -0.000 C 
BRANCH  22  23
ATOM     23  C   UNL     1     -53.828   9.749 -30.142  1.00  0.00    -0.000 C 
BRANCH  23  24
ATOM     24  C   UNL     1     -53.435  11.134 -29.598  1.00  0.00    -0.000 C 
BRANCH  24  25
ATOM     25  C   UNL     1     -53.449  12.266 -30.641  1.00  0.00    -0.003 C 
ATOM     26  C   UNL     1     -52.445  12.049 -31.773  1.00  0.00     0.004 C 
ENDBRANCH  24  25
ENDBRANCH  23  24
ENDBRANCH  22  23
ENDBRANCH  21  22
ENDBRANCH  20  21
ENDBRANCH  19  20
ENDBRANCH  18  19
ENDBRANCH  17  18
ENDBRANCH  16  17
ENDBRANCH  15  16
ENDBRANCH   1  15
TORSDOF 22
ENDMDL
MODEL 6
REMARK VINA RESULT:    -4.771      2.817      8.129
REMARK INTER + INTRA:         -14.088
REMARK INTER:                 -10.223
REMARK INTRA:                  -3.866
REMARK UNBOUND:                -3.182
REMARK SMILES CCCCCCCCCCCCCCCCCCCCCCCC(=O)[O-]
REMARK SMILES IDX 13 1 14 2 15 3 16 4 17 5 18 6 19 7 20 8 21 9 22 10 23 11
REMARK SMILES IDX 24 12 25 13 26 14 12 15 11 16 10 17 9 18 8 19 7 20 6 21 5 22
REMARK SMILES IDX 4 23 3 24 2 25 1 26
REMARK H PARENT
REMARK Flexibility Score: inf
ROOT
ATOM      1  C   UNL     1     -51.602   9.857 -31.649  1.00  0.00     0.000 C 
ENDROOT
BRANCH   1   2
ATOM      2  C   UNL     1     -50.330  10.709 -31.489  1.00  0.00     0.000 C 
BRANCH   2   3
ATOM      3  C   UNL     1     -50.022  11.037 -30.020  1.00  0.00     0.000 C 
BRANCH   3   4
ATOM      4  C   UNL     1     -49.538  12.484 -29.828  1.00  0.00     0.000 C 
BRANCH   4   5
ATOM      5  C   UNL     1     -50.450  13.297 -28.893  1.00  0.00     0.000 C 
BRANCH   5   6
ATOM      6  C   UNL     1     -51.851  12.694 -28.660  1.00  0.00     0.000 C 
BRANCH   6   7
ATOM      7  C   UNL     1     -53.019  13.476 -29.290  1.00  0.00     0.000 C 
BRANCH   7   8
ATOM      8  C   UNL     1     -52.857  13.677 -30.805  1.00  0.00     0.000 C 
BRANCH   8   9
ATOM      9  C   UNL     1     -52.912  15.159 -31.221  1.00  0.00     0.000 C 
BRANCH   9  10
ATOM     10  C   UNL     1     -51.553  15.793 -31.578  1.00  0.00     0.006 C 
BRANCH  10  11
ATOM     11  C   UNL     1     -50.925  16.631 -30.454  1.00  0.00     0.053 C 
BRANCH  11  12
ATOM     12  C   UNL     1     -51.716  17.869 -30.165  1.00  0.00     0.041 C 
ATOM     13  O   UNL     1     -51.979  18.683 -31.090  1.00  0.00    -0.550 OA
ATOM     14  O   UNL     1     -52.129  18.146 -28.868  1.00  0.00    -0.550 OA
ENDBRANCH  11  12
ENDBRANCH  10  11
ENDBRANCH   9  10
ENDBRANCH   8   9
ENDBRANCH   7   8
ENDBRANCH   6   7
ENDBRANCH   5   6
ENDBRANCH   4   5
ENDBRANCH   3   4
ENDBRANCH   2   3
ENDBRANCH   1   2
BRANCH   1  15
ATOM     15  C   UNL     1     -51.959   9.085 -30.362  1.00  0.00     0.000 C 
BRANCH  15  16
ATOM     16  C   UNL     1     -53.200   8.179 -30.494  1.00  0.00     0.000 C 
BRANCH  16  17
ATOM     17  C   UNL     1     -52.932   6.840 -31.207  1.00  0.00     0.000 C 
BRANCH  17  18
ATOM     18  C   UNL     1     -53.448   6.832 -32.657  1.00  0.00    -0.000 C 
BRANCH  18  19
ATOM     19  C   UNL     1     -52.317   6.718 -33.695  1.00  0.00    -0.000 C 
BRANCH  19  20
ATOM     20  C   UNL     1     -50.977   6.206 -33.137  1.00  0.00    -0.000 C 
BRANCH  20  21
ATOM     21  C   UNL     1     -49.805   7.150 -33.443  1.00  0.00    -0.000 C 
BRANCH  21  22
ATOM     22  C   UNL     1     -48.648   6.924 -32.461  1.00  0.00    -0.000 C 
BRANCH  22  23
ATOM     23  C   UNL     1     -49.177   6.615 -31.052  1.00  0.00    -0.000 C 
BRANCH  23  24
ATOM     24  C   UNL     1     -48.703   7.632 -29.998  1.00  0.00    -0.000 C 
BRANCH  24  25
ATOM     25  C   UNL     1     -47.185   7.882 -29.977  1.00  0.00    -0.003 C 
ATOM     26  C   UNL     1     -46.818   9.301 -29.542  1.00  0.00     0.004 C 
ENDBRANCH  24  25
ENDBRANCH  23  24
ENDBRANCH  22  23
ENDBRANCH  21  22
ENDBRANCH  20  21
ENDBRANCH  19  20
ENDBRANCH  18  19
ENDBRANCH  17  18
ENDBRANCH  16  17
ENDBRANCH  15  16
ENDBRANCH   1  15
TORSDOF 22
ENDMDL
MODEL 7
REMARK VINA RESULT:    -4.742      1.958      4.846
REMARK INTER + INTRA:         -14.022
REMARK INTER:                 -10.705
REMARK INTRA:                  -3.317
REMARK UNBOUND:                -3.182
REMARK SMILES CCCCCCCCCCCCCCCCCCCCCCCC(=O)[O-]
REMARK SMILES IDX 13 1 14 2 15 3 16 4 17 5 18 6 19 7 20 8 21 9 22 10 23 11
REMARK SMILES IDX 24 12 25 13 26 14 12 15 11 16 10 17 9 18 8 19 7 20 6 21 5 22
REMARK SMILES IDX 4 23 3 24 2 25 1 26
REMARK H PARENT
REMARK Flexibility Score: inf
ROOT
ATOM      1  C   UNL     1     -53.757  13.247 -29.493  1.00  0.00     0.000 C 
ENDROOT
BRANCH   1   2
ATOM      2  C   UNL     1     -53.532  11.740 -29.271  1.00  0.00     0.000 C 
BRANCH   2   3
ATOM      3  C   UNL     1     -53.604  10.935 -30.578  1.00  0.00     0.000 C 
BRANCH   3   4
ATOM      4  C   UNL     1     -52.716  11.529 -31.685  1.00  0.00     0.000 C 
BRANCH   4   5
ATOM      5  C   UNL     1     -51.964  10.451 -32.486  1.00  0.00     0.000 C 
BRANCH   5   6
ATOM      6  C   UNL     1     -52.380   8.998 -32.178  1.00  0.00     0.000 C 
BRANCH   6   7
ATOM      7  C   UNL     1     -52.852   8.175 -33.391  1.00  0.00     0.000 C 
BRANCH   7   8
ATOM      8  C   UNL     1     -51.982   6.934 -33.649  1.00  0.00     0.000 C 
BRANCH   8   9
ATOM      9  C   UNL     1     -50.746   6.870 -32.733  1.00  0.00     0.000 C 
BRANCH   9  10
ATOM     10  C   UNL     1     -49.395   7.132 -33.430  1.00  0.00     0.006 C 
BRANCH  10  11
ATOM     11  C   UNL     1     -48.694   8.429 -32.996  1.00  0.00     0.053 C 
BRANCH  11  12
ATOM     12  C   UNL     1     -48.502   8.495 -31.513  1.00  0.00     0.041 C 
ATOM     13  O   UNL     1     -49.192   9.288 -30.819  1.00  0.00    -0.550 OA
ATOM     14  O   UNL     1     -47.533   7.711 -30.900  1.00  0.00    -0.550 OA
ENDBRANCH  11  12
ENDBRANCH  10  11
ENDBRANCH   9  10
ENDBRANCH   8   9
ENDBRANCH   7   8
ENDBRANCH   6   7
ENDBRANCH   5   6
ENDBRANCH   4   5
ENDBRANCH   3   4
ENDBRANCH   2   3
ENDBRANCH   1   2
BRANCH   1  15
ATOM     15  C   UNL     1     -53.086  14.108 -28.405  1.00  0.00     0.000 C 
BRANCH  15  16
ATOM     16  C   UNL     1     -53.769  15.471 -28.169  1.00  0.00     0.000 C 
BRANCH  16  17
ATOM     17  C   UNL     1     -52.926  16.465 -27.347  1.00  0.00     0.000 C 
BRANCH  17  18
ATOM     18  C   UNL     1     -53.058  17.912 -27.856  1.00  0.00    -0.000 C 
BRANCH  18  19
ATOM     19  C   UNL     1     -53.584  17.992 -29.300  1.00  0.00    -0.000 C 
BRANCH  19  20
ATOM     20  C   UNL     1     -52.514  18.308 -30.361  1.00  0.00    -0.000 C 
BRANCH  20  21
ATOM     21  C   UNL     1     -52.087  17.069 -31.162  1.00  0.00    -0.000 C 
BRANCH  21  22
ATOM     22  C   UNL     1     -50.918  16.349 -30.478  1.00  0.00    -0.000 C 
BRANCH  22  23
ATOM     23  C   UNL     1     -50.698  14.957 -31.089  1.00  0.00    -0.000 C 
BRANCH  23  24
ATOM     24  C   UNL     1     -49.572  14.169 -30.395  1.00  0.00    -0.000 C 
BRANCH  24  25
ATOM     25  C   UNL     1     -49.909  12.701 -30.082  1.00  0.00    -0.003 C 
ATOM     26  C   UNL     1     -49.785  12.361 -28.596  1.00  0.00     0.004 C 
ENDBRANCH  24  25
ENDBRANCH  23  24
ENDBRANCH  22  23
ENDBRANCH  21  22
ENDBRANCH  20  21
ENDBRANCH  19  20
ENDBRANCH  18  19
ENDBRANCH  17  18
ENDBRANCH  16  17
ENDBRANCH  15  16
ENDBRANCH   1  15
TORSDOF 22
ENDMDL
MODEL 8
REMARK VINA RESULT:    -4.734      2.119      7.618
REMARK INTER + INTRA:         -14.005
REMARK INTER:                 -10.600
REMARK INTRA:                  -3.405
REMARK UNBOUND:                -3.182
REMARK SMILES CCCCCCCCCCCCCCCCCCCCCCCC(=O)[O-]
REMARK SMILES IDX 13 1 14 2 15 3 16 4 17 5 18 6 19 7 20 8 21 9 22 10 23 11
REMARK SMILES IDX 24 12 25 13 26 14 12 15 11 16 10 17 9 18 8 19 7 20 6 21 5 22
REMARK SMILES IDX 4 23 3 24 2 25 1 26
REMARK H PARENT
REMARK Flexibility Score: inf
ROOT
ATOM      1  C   UNL     1     -48.105  10.755 -28.805  1.00  0.00     0.000 C 
ENDROOT
BRANCH   1   2
ATOM      2  C   UNL     1     -49.435  11.353 -29.296  1.00  0.00     0.000 C 
BRANCH   2   3
ATOM      3  C   UNL     1     -49.330  12.857 -29.593  1.00  0.00     0.000 C 
BRANCH   3   4
ATOM      4  C   UNL     1     -50.383  13.682 -28.834  1.00  0.00     0.000 C 
BRANCH   4   5
ATOM      5  C   UNL     1     -51.825  13.289 -29.201  1.00  0.00     0.000 C 
BRANCH   5   6
ATOM      6  C   UNL     1     -52.200  13.492 -30.684  1.00  0.00     0.000 C 
BRANCH   6   7
ATOM      7  C   UNL     1     -52.823  14.859 -31.025  1.00  0.00     0.000 C 
BRANCH   7   8
ATOM      8  C   UNL     1     -51.786  15.887 -31.505  1.00  0.00     0.000 C 
BRANCH   8   9
ATOM      9  C   UNL     1     -52.133  17.328 -31.084  1.00  0.00     0.000 C 
BRANCH   9  10
ATOM     10  C   UNL     1     -51.704  17.718 -29.656  1.00  0.00     0.006 C 
BRANCH  10  11
ATOM     11  C   UNL     1     -52.869  17.971 -28.686  1.00  0.00     0.053 C 
BRANCH  11  12
ATOM     12  C   UNL     1     -52.914  16.958 -27.584  1.00  0.00     0.041 C 
ATOM     13  O   UNL     1     -53.597  15.908 -27.716  1.00  0.00    -0.550 OA
ATOM     14  O   UNL     1     -52.234  17.191 -26.395  1.00  0.00    -0.550 OA
ENDBRANCH  11  12
ENDBRANCH  10  11
ENDBRANCH   9  10
ENDBRANCH   8   9
ENDBRANCH   7   8
ENDBRANCH   6   7
ENDBRANCH   5   6
ENDBRANCH   4   5
ENDBRANCH   3   4
ENDBRANCH   2   3
ENDBRANCH   1   2
BRANCH   1  15
ATOM     15  C   UNL     1     -47.467   9.807 -29.841  1.00  0.00     0.000 C 
BRANCH  15  16
ATOM     16  C   UNL     1     -46.995   8.460 -29.257  1.00  0.00     0.000 C 
BRANCH  16  17
ATOM     17  C   UNL     1     -47.621   7.225 -29.934  1.00  0.00     0.000 C 
BRANCH  17  18
ATOM     18  C   UNL     1     -49.077   7.466 -30.369  1.00  0.00    -0.000 C 
BRANCH  18  19
ATOM     19  C   UNL     1     -49.453   6.707 -31.654  1.00  0.00    -0.000 C 
BRANCH  19  20
ATOM     20  C   UNL     1     -49.906   7.599 -32.823  1.00  0.00    -0.000 C 
BRANCH  20  21
ATOM     21  C   UNL     1     -49.210   8.969 -32.831  1.00  0.00    -0.000 C 
BRANCH  21  22
ATOM     22  C   UNL     1     -50.207  10.093 -32.521  1.00  0.00    -0.000 C 
BRANCH  22  23
ATOM     23  C   UNL     1     -51.639   9.673 -32.891  1.00  0.00    -0.000 C 
BRANCH  23  24
ATOM     24  C   UNL     1     -52.650   9.935 -31.760  1.00  0.00    -0.000 C 
BRANCH  24  25
ATOM     25  C   UNL     1     -52.184   9.494 -30.361  1.00  0.00    -0.003 C 
ATOM     26  C   UNL     1     -52.658   8.089 -29.988  1.00  0.00     0.004 C 
ENDBRANCH  24  25
ENDBRANCH  23  24
ENDBRANCH  22  23
ENDBRANCH  21  22
ENDBRANCH  20  21
ENDBRANCH  19  20
ENDBRANCH  18  19
ENDBRANCH  17  18
ENDBRANCH  16  17
ENDBRANCH  15  16
ENDBRANCH   1  15
TORSDOF 22
ENDMDL
MODEL 9
REMARK VINA RESULT:    -3.967      2.222      7.752
REMARK INTER + INTRA:         -12.251
REMARK INTER:                  -9.073
REMARK INTRA:                  -3.179
REMARK UNBOUND:                -3.182
REMARK SMILES CCCCCCCCCCCCCCCCCCCCCCCC(=O)[O-]
REMARK SMILES IDX 13 1 14 2 15 3 16 4 17 5 18 6 19 7 20 8 21 9 22 10 23 11
REMARK SMILES IDX 24 12 25 13 26 14 12 15 11 16 10 17 9 18 8 19 7 20 6 21 5 22
REMARK SMILES IDX 4 23 3 24 2 25 1 26
REMARK H PARENT
REMARK Flexibility Score: inf
ROOT
ATOM      1  C   UNL     1     -48.765  11.119 -28.915  1.00  0.00     0.000 C 
ENDROOT
BRANCH   1   2
ATOM      2  C   UNL     1     -49.779  12.277 -28.929  1.00  0.00     0.000 C 
BRANCH   2   3
ATOM      3  C   UNL     1     -49.470  13.317 -30.017  1.00  0.00     0.000 C 
BRANCH   3   4
ATOM      4  C   UNL     1     -50.404  14.537 -29.948  1.00  0.00     0.000 C 
BRANCH   4   5
ATOM      5  C   UNL     1     -51.346  14.497 -28.731  1.00  0.00     0.000 C 
BRANCH   5   6
ATOM      6  C   UNL     1     -52.851  14.487 -29.070  1.00  0.00     0.000 C 
BRANCH   6   7
ATOM      7  C   UNL     1     -53.719  15.455 -28.244  1.00  0.00     0.000 C 
BRANCH   7   8
ATOM      8  C   UNL     1     -52.891  16.367 -27.325  1.00  0.00     0.000 C 
BRANCH   8   9
ATOM      9  C   UNL     1     -53.047  17.861 -27.666  1.00  0.00     0.000 C 
BRANCH   9  10
ATOM     10  C   UNL     1     -53.479  18.164 -29.115  1.00  0.00     0.006 C 
BRANCH  10  11
ATOM     11  C   UNL     1     -52.353  18.049 -30.154  1.00  0.00     0.053 C 
BRANCH  11  12
ATOM     12  C   UNL     1     -52.803  17.343 -31.395  1.00  0.00     0.041 C 
ATOM     13  O   UNL     1     -51.979  16.688 -32.086  1.00  0.00    -0.550 OA
ATOM     14  O   UNL     1     -54.125  17.441 -31.812  1.00  0.00    -0.550 OA
ENDBRANCH  11  12
ENDBRANCH  10  11
ENDBRANCH   9  10
ENDBRANCH   8   9
ENDBRANCH   7   8
ENDBRANCH   6   7
ENDBRANCH   5   6
ENDBRANCH   4   5
ENDBRANCH   3   4
ENDBRANCH   2   3
ENDBRANCH   1   2
BRANCH   1  15
ATOM     15  C   UNL     1     -49.244   9.908 -29.741  1.00  0.00     0.000 C 
BRANCH  15  16
ATOM     16  C   UNL     1     -48.252   8.727 -29.761  1.00  0.00     0.000 C 
BRANCH  16  17
ATOM     17  C   UNL     1     -47.629   8.449 -31.143  1.00  0.00     0.000 C 
BRANCH  17  18
ATOM     18  C   UNL     1     -48.601   8.749 -32.298  1.00  0.00    -0.000 C 
BRANCH  18  19
ATOM     19  C   UNL     1     -48.856   7.526 -33.198  1.00  0.00    -0.000 C 
BRANCH  19  20
ATOM     20  C   UNL     1     -50.315   7.035 -33.222  1.00  0.00    -0.000 C 
BRANCH  20  21
ATOM     21  C   UNL     1     -51.317   8.128 -32.820  1.00  0.00    -0.000 C 
BRANCH  21  22
ATOM     22  C   UNL     1     -52.137   7.697 -31.597  1.00  0.00    -0.000 C 
BRANCH  22  23
ATOM     23  C   UNL     1     -53.270   8.696 -31.316  1.00  0.00    -0.000 C 
BRANCH  23  24
ATOM     24  C   UNL     1     -53.066   9.478 -30.006  1.00  0.00    -0.000 C 
BRANCH  24  25
ATOM     25  C   UNL     1     -53.010  11.007 -30.169  1.00  0.00    -0.003 C 
ATOM     26  C   UNL     1     -52.387  11.446 -31.494  1.00  0.00     0.004 C 
ENDBRANCH  24  25
ENDBRANCH  23  24
ENDBRANCH  22  23
ENDBRANCH  21  22
ENDBRANCH  20  21
ENDBRANCH  19  20
ENDBRANCH  18  19
ENDBRANCH  17  18
ENDBRANCH  16  17
ENDBRANCH  15  16
ENDBRANCH   1  15
TORSDOF 22
ENDMDL
