MODEL 1
REMARK VINA RESULT:    -6.936      0.000      0.000
REMARK INTER + INTRA:          -8.708
REMARK INTER:                  -8.355
REMARK INTRA:                  -0.353
REMARK UNBOUND:                -0.353
REMARK SMILES Oc1cc(O)c2cc(O)c(-c3ccc(O)c(O)c3)[o+]c2c1
REMARK SMILES IDX 10 1 19 2 20 3 21 4 2 5 3 6 4 7 6 8 7 9 8 10 11 11 12 12
REMARK SMILES IDX 13 13 14 14 18 15 16 16 15 17 17 19 9 21 1 23 5 25
REMARK H PARENT 15 18 17 20 9 22 1 24 5 26
REMARK Flexibility Score: inf
ROOT
ATOM      1  C   UNL     1     107.659 122.188 119.359  1.00  0.00     0.402 A 
ATOM      2  O   UNL     1     106.502 121.905 119.952  1.00  0.00    -0.202 OA
ATOM      3  C   UNL     1     105.371 122.553 119.693  1.00  0.00     0.368 A 
ATOM      4  C   UNL     1     104.205 122.182 120.366  1.00  0.00     0.162 A 
ATOM      5  C   UNL     1     103.001 122.845 120.111  1.00  0.00     0.128 A 
ATOM      6  C   UNL     1     102.964 123.883 119.177  1.00  0.00     0.093 A 
ATOM      7  C   UNL     1     104.119 124.274 118.489  1.00  0.00     0.136 A 
ATOM      8  C   UNL     1     105.344 123.606 118.747  1.00  0.00     0.125 A 
ATOM      9  C   UNL     1     106.553 123.939 118.115  1.00  0.00     0.078 A 
ATOM     10  C   UNL     1     107.723 123.238 118.424  1.00  0.00     0.223 A 
ENDROOT
BRANCH   1  11
ATOM     11  C   UNL     1     108.848 121.385 119.725  1.00  0.00     0.087 A 
ATOM     12  C   UNL     1     109.612 121.755 120.845  1.00  0.00     0.022 A 
ATOM     13  C   UNL     1     110.726 121.002 121.221  1.00  0.00     0.051 A 
ATOM     14  C   UNL     1     111.085 119.859 120.493  1.00  0.00     0.157 A 
ATOM     15  C   UNL     1     109.200 120.227 119.010  1.00  0.00     0.068 A 
ATOM     16  C   UNL     1     110.318 119.469 119.388  1.00  0.00     0.158 A 
BRANCH  14  17
ATOM     17  O   UNL     1     112.198 119.107 120.863  1.00  0.00    -0.504 OA
ATOM     18  H   UNL     1     112.102 118.183 121.271  1.00  0.00     0.293 HD
ENDBRANCH  14  17
BRANCH  16  19
ATOM     19  O   UNL     1     110.669 118.324 118.675  1.00  0.00    -0.504 OA
ATOM     20  H   UNL     1     110.680 118.314 117.662  1.00  0.00     0.293 HD
ENDBRANCH  16  19
ENDBRANCH   1  11
BRANCH  10  21
ATOM     21  O   UNL     1     108.933 123.601 117.834  1.00  0.00    -0.500 OA
ATOM     22  H   UNL     1     109.623 122.910 117.566  1.00  0.00     0.294 HD
ENDBRANCH  10  21
BRANCH   5  23
ATOM     23  O   UNL     1     101.834 122.481 120.779  1.00  0.00    -0.507 OA
ATOM     24  H   UNL     1     101.512 121.519 120.797  1.00  0.00     0.293 HD
ENDBRANCH   5  23
BRANCH   7  25
ATOM     25  O   UNL     1     103.997 125.320 117.569  1.00  0.00    -0.507 OA
ATOM     26  H   UNL     1     103.131 125.792 117.354  1.00  0.00     0.293 HD
ENDBRANCH   7  25
TORSDOF 6
ENDMDL
MODEL 2
REMARK VINA RESULT:    -6.809      1.075      2.686
REMARK INTER + INTRA:          -8.555
REMARK INTER:                  -8.242
REMARK INTRA:                  -0.314
REMARK UNBOUND:                -0.353
REMARK SMILES Oc1cc(O)c2cc(O)c(-c3ccc(O)c(O)c3)[o+]c2c1
REMARK SMILES IDX 10 1 19 2 20 3 21 4 2 5 3 6 4 7 6 8 7 9 8 10 11 11 12 12
REMARK SMILES IDX 13 13 14 14 18 15 16 16 15 17 17 19 9 21 1 23 5 25
REMARK H PARENT 15 18 17 20 9 22 1 24 5 26
REMARK Flexibility Score: inf
ROOT
ATOM      1  C   UNL     1     106.952 121.407 120.426  1.00  0.00     0.402 A 
ATOM      2  O   UNL     1     106.648 122.339 119.526  1.00  0.00    -0.202 OA
ATOM      3  C   UNL     1     105.442 122.885 119.419  1.00  0.00     0.368 A 
ATOM      4  C   UNL     1     105.220 123.861 118.444  1.00  0.00     0.162 A 
ATOM      5  C   UNL     1     103.960 124.453 118.312  1.00  0.00     0.128 A 
ATOM      6  C   UNL     1     102.920 124.070 119.160  1.00  0.00     0.093 A 
ATOM      7  C   UNL     1     103.116 123.096 120.146  1.00  0.00     0.136 A 
ATOM      8  C   UNL     1     104.392 122.489 120.283  1.00  0.00     0.125 A 
ATOM      9  C   UNL     1     104.676 121.495 121.233  1.00  0.00     0.078 A 
ATOM     10  C   UNL     1     105.958 120.939 121.305  1.00  0.00     0.223 A 
ENDROOT
BRANCH   1  11
ATOM     11  C   UNL     1     108.337 120.884 120.452  1.00  0.00     0.087 A 
ATOM     12  C   UNL     1     109.222 121.323 121.450  1.00  0.00     0.022 A 
ATOM     13  C   UNL     1     110.527 120.828 121.505  1.00  0.00     0.051 A 
ATOM     14  C   UNL     1     110.962 119.876 120.574  1.00  0.00     0.157 A 
ATOM     15  C   UNL     1     108.771 119.913 119.531  1.00  0.00     0.068 A 
ATOM     16  C   UNL     1     110.081 119.415 119.588  1.00  0.00     0.158 A 
BRANCH  14  17
ATOM     17  O   UNL     1     112.264 119.382 120.624  1.00  0.00    -0.504 OA
ATOM     18  H   UNL     1     113.029 119.857 120.159  1.00  0.00     0.293 HD
ENDBRANCH  14  17
BRANCH  16  19
ATOM     19  O   UNL     1     110.512 118.458 118.671  1.00  0.00    -0.504 OA
ATOM     20  H   UNL     1     109.970 118.232 117.845  1.00  0.00     0.293 HD
ENDBRANCH  16  19
ENDBRANCH   1  11
BRANCH  10  21
ATOM     21  O   UNL     1     106.227 119.917 122.215  1.00  0.00    -0.500 OA
ATOM     22  H   UNL     1     106.624 119.033 121.921  1.00  0.00     0.294 HD
ENDBRANCH  10  21
BRANCH   5  23
ATOM     23  O   UNL     1     103.732 125.425 117.341  1.00  0.00    -0.507 OA
ATOM     24  H   UNL     1     104.315 125.496 116.514  1.00  0.00     0.293 HD
ENDBRANCH   5  23
BRANCH   7  25
ATOM     25  O   UNL     1     102.024 122.771 120.957  1.00  0.00    -0.507 OA
ATOM     26  H   UNL     1     101.058 122.872 120.680  1.00  0.00     0.293 HD
ENDBRANCH   7  25
TORSDOF 6
ENDMDL
MODEL 3
REMARK VINA RESULT:    -6.465      0.648      1.480
REMARK INTER + INTRA:          -8.141
REMARK INTER:                  -7.801
REMARK INTRA:                  -0.340
REMARK UNBOUND:                -0.353
REMARK SMILES Oc1cc(O)c2cc(O)c(-c3ccc(O)c(O)c3)[o+]c2c1
REMARK SMILES IDX 10 1 19 2 20 3 21 4 2 5 3 6 4 7 6 8 7 9 8 10 11 11 12 12
REMARK SMILES IDX 13 13 14 14 18 15 16 16 15 17 17 19 9 21 1 23 5 25
REMARK H PARENT 15 18 17 20 9 22 1 24 5 26
REMARK Flexibility Score: inf
ROOT
ATOM      1  C   UNL     1     107.409 122.107 119.238  1.00  0.00     0.402 A 
ATOM      2  O   UNL     1     106.228 121.787 119.759  1.00  0.00    -0.202 OA
ATOM      3  C   UNL     1     105.107 122.449 119.491  1.00  0.00     0.368 A 
ATOM      4  C   UNL     1     103.912 122.035 120.086  1.00  0.00     0.162 A 
ATOM      5  C   UNL     1     102.719 122.713 119.818  1.00  0.00     0.128 A 
ATOM      6  C   UNL     1     102.721 123.808 118.951  1.00  0.00     0.093 A 
ATOM      7  C   UNL     1     103.904 124.242 118.342  1.00  0.00     0.136 A 
ATOM      8  C   UNL     1     105.119 123.560 118.612  1.00  0.00     0.125 A 
ATOM      9  C   UNL     1     106.354 123.932 118.058  1.00  0.00     0.078 A 
ATOM     10  C   UNL     1     107.511 123.214 118.376  1.00  0.00     0.223 A 
ENDROOT
BRANCH   1  11
ATOM     11  C   UNL     1     108.583 121.284 119.607  1.00  0.00     0.087 A 
ATOM     12  C   UNL     1     108.881 120.133 118.860  1.00  0.00     0.022 A 
ATOM     13  C   UNL     1     109.995 119.352 119.178  1.00  0.00     0.051 A 
ATOM     14  C   UNL     1     110.836 119.718 120.237  1.00  0.00     0.157 A 
ATOM     15  C   UNL     1     109.441 121.659 120.656  1.00  0.00     0.068 A 
ATOM     16  C   UNL     1     110.560 120.877 120.975  1.00  0.00     0.158 A 
BRANCH  14  17
ATOM     17  O   UNL     1     111.946 118.940 120.559  1.00  0.00    -0.504 OA
ATOM     18  H   UNL     1     111.963 117.942 120.383  1.00  0.00     0.293 HD
ENDBRANCH  14  17
BRANCH  16  19
ATOM     19  O   UNL     1     111.407 121.246 122.019  1.00  0.00    -0.504 OA
ATOM     20  H   UNL     1     111.944 122.105 121.986  1.00  0.00     0.293 HD
ENDBRANCH  16  19
ENDBRANCH   1  11
BRANCH  10  21
ATOM     21  O   UNL     1     108.746 123.614 117.865  1.00  0.00    -0.500 OA
ATOM     22  H   UNL     1     108.823 124.352 117.176  1.00  0.00     0.294 HD
ENDBRANCH  10  21
BRANCH   5  23
ATOM     23  O   UNL     1     101.525 122.306 120.408  1.00  0.00    -0.507 OA
ATOM     24  H   UNL     1     100.626 122.612 120.051  1.00  0.00     0.293 HD
ENDBRANCH   5  23
BRANCH   7  25
ATOM     25  O   UNL     1     103.821 125.344 117.485  1.00  0.00    -0.507 OA
ATOM     26  H   UNL     1     103.807 125.283 116.478  1.00  0.00     0.293 HD
ENDBRANCH   7  25
TORSDOF 6
ENDMDL
MODEL 4
REMARK VINA RESULT:    -6.066      2.125      7.050
REMARK INTER + INTRA:          -7.660
REMARK INTER:                  -7.307
REMARK INTRA:                  -0.353
REMARK UNBOUND:                -0.353
REMARK SMILES Oc1cc(O)c2cc(O)c(-c3ccc(O)c(O)c3)[o+]c2c1
REMARK SMILES IDX 10 1 19 2 20 3 21 4 2 5 3 6 4 7 6 8 7 9 8 10 11 11 12 12
REMARK SMILES IDX 13 13 14 14 18 15 16 16 15 17 17 19 9 21 1 23 5 25
REMARK H PARENT 15 18 17 20 9 22 1 24 5 26
REMARK Flexibility Score: inf
ROOT
ATOM      1  C   UNL     1     106.157 121.743 120.074  1.00  0.00     0.402 A 
ATOM      2  O   UNL     1     107.474 121.843 119.912  1.00  0.00    -0.202 OA
ATOM      3  C   UNL     1     108.355 121.217 120.685  1.00  0.00     0.368 A 
ATOM      4  C   UNL     1     109.720 121.382 120.434  1.00  0.00     0.162 A 
ATOM      5  C   UNL     1     110.667 120.733 121.231  1.00  0.00     0.128 A 
ATOM      6  C   UNL     1     110.248 119.915 122.282  1.00  0.00     0.093 A 
ATOM      7  C   UNL     1     108.887 119.733 122.554  1.00  0.00     0.136 A 
ATOM      8  C   UNL     1     107.921 120.391 121.751  1.00  0.00     0.125 A 
ATOM      9  C   UNL     1     106.537 120.278 121.958  1.00  0.00     0.078 A 
ATOM     10  C   UNL     1     105.645 120.962 121.127  1.00  0.00     0.223 A 
ENDROOT
BRANCH   1  11
ATOM     11  C   UNL     1     105.279 122.481 119.140  1.00  0.00     0.087 A 
ATOM     12  C   UNL     1     105.019 123.843 119.366  1.00  0.00     0.022 A 
ATOM     13  C   UNL     1     104.209 124.565 118.487  1.00  0.00     0.051 A 
ATOM     14  C   UNL     1     103.658 123.940 117.359  1.00  0.00     0.157 A 
ATOM     15  C   UNL     1     104.741 121.864 117.996  1.00  0.00     0.068 A 
ATOM     16  C   UNL     1     103.929 122.589 117.112  1.00  0.00     0.158 A 
BRANCH  14  17
ATOM     17  O   UNL     1     102.847 124.656 116.481  1.00  0.00    -0.504 OA
ATOM     18  H   UNL     1     102.906 125.666 116.409  1.00  0.00     0.293 HD
ENDBRANCH  14  17
BRANCH  16  19
ATOM     19  O   UNL     1     103.392 121.974 115.982  1.00  0.00    -0.504 OA
ATOM     20  H   UNL     1     102.405 122.043 115.760  1.00  0.00     0.293 HD
ENDBRANCH  16  19
ENDBRANCH   1  11
BRANCH  10  21
ATOM     21  O   UNL     1     104.272 120.890 121.363  1.00  0.00    -0.500 OA
ATOM     22  H   UNL     1     103.661 121.682 121.204  1.00  0.00     0.294 HD
ENDBRANCH  10  21
BRANCH   5  23
ATOM     23  O   UNL     1     112.029 120.893 120.987  1.00  0.00    -0.507 OA
ATOM     24  H   UNL     1     112.597 121.522 121.544  1.00  0.00     0.293 HD
ENDBRANCH   5  23
BRANCH   7  25
ATOM     25  O   UNL     1     108.551 118.895 123.623  1.00  0.00    -0.507 OA
ATOM     26  H   UNL     1     107.637 118.491 123.765  1.00  0.00     0.293 HD
ENDBRANCH   7  25
TORSDOF 6
ENDMDL
MODEL 5
REMARK VINA RESULT:    -6.051      1.906      2.523
REMARK INTER + INTRA:          -7.642
REMARK INTER:                  -7.453
REMARK INTRA:                  -0.189
REMARK UNBOUND:                -0.353
REMARK SMILES Oc1cc(O)c2cc(O)c(-c3ccc(O)c(O)c3)[o+]c2c1
REMARK SMILES IDX 10 1 19 2 20 3 21 4 2 5 3 6 4 7 6 8 7 9 8 10 11 11 12 12
REMARK SMILES IDX 13 13 14 14 18 15 16 16 15 17 17 19 9 21 1 23 5 25
REMARK H PARENT 15 18 17 20 9 22 1 24 5 26
REMARK Flexibility Score: inf
ROOT
ATOM      1  C   UNL     1     107.225 121.378 120.974  1.00  0.00     0.402 A 
ATOM      2  O   UNL     1     106.547 121.156 122.097  1.00  0.00    -0.202 OA
ATOM      3  C   UNL     1     105.294 121.558 122.285  1.00  0.00     0.368 A 
ATOM      4  C   UNL     1     104.663 121.275 123.499  1.00  0.00     0.162 A 
ATOM      5  C   UNL     1     103.344 121.683 123.721  1.00  0.00     0.128 A 
ATOM      6  C   UNL     1     102.654 122.376 122.724  1.00  0.00     0.093 A 
ATOM      7  C   UNL     1     103.263 122.671 121.499  1.00  0.00     0.136 A 
ATOM      8  C   UNL     1     104.602 122.261 121.269  1.00  0.00     0.125 A 
ATOM      9  C   UNL     1     105.297 122.525 120.077  1.00  0.00     0.078 A 
ATOM     10  C   UNL     1     106.618 122.093 119.926  1.00  0.00     0.223 A 
ENDROOT
BRANCH   1  11
ATOM     11  C   UNL     1     108.612 120.871 120.883  1.00  0.00     0.087 A 
ATOM     12  C   UNL     1     109.564 121.289 121.828  1.00  0.00     0.022 A 
ATOM     13  C   UNL     1     110.874 120.808 121.773  1.00  0.00     0.051 A 
ATOM     14  C   UNL     1     111.249 119.891 120.783  1.00  0.00     0.157 A 
ATOM     15  C   UNL     1     108.988 119.934 119.903  1.00  0.00     0.068 A 
ATOM     16  C   UNL     1     110.303 119.450 119.849  1.00  0.00     0.158 A 
BRANCH  14  17
ATOM     17  O   UNL     1     112.556 119.411 120.723  1.00  0.00    -0.504 OA
ATOM     18  H   UNL     1     113.306 119.965 120.325  1.00  0.00     0.293 HD
ENDBRANCH  14  17
BRANCH  16  19
ATOM     19  O   UNL     1     110.676 118.526 118.874  1.00  0.00    -0.504 OA
ATOM     20  H   UNL     1     111.526 118.640 118.334  1.00  0.00     0.293 HD
ENDBRANCH  16  19
ENDBRANCH   1  11
BRANCH  10  21
ATOM     21  O   UNL     1     107.324 122.399 118.762  1.00  0.00    -0.500 OA
ATOM     22  H   UNL     1     107.040 123.153 118.149  1.00  0.00     0.294 HD
ENDBRANCH  10  21
BRANCH   5  23
ATOM     23  O   UNL     1     102.710 121.406 124.930  1.00  0.00    -0.507 OA
ATOM     24  H   UNL     1     101.926 121.960 125.256  1.00  0.00     0.293 HD
ENDBRANCH   5  23
BRANCH   7  25
ATOM     25  O   UNL     1     102.502 123.365 120.553  1.00  0.00    -0.507 OA
ATOM     26  H   UNL     1     101.543 123.151 120.324  1.00  0.00     0.293 HD
ENDBRANCH   7  25
TORSDOF 6
ENDMDL
MODEL 6
REMARK VINA RESULT:    -5.877      3.025      4.019
REMARK INTER + INTRA:          -7.433
REMARK INTER:                  -7.081
REMARK INTRA:                  -0.352
REMARK UNBOUND:                -0.353
REMARK SMILES Oc1cc(O)c2cc(O)c(-c3ccc(O)c(O)c3)[o+]c2c1
REMARK SMILES IDX 10 1 19 2 20 3 21 4 2 5 3 6 4 7 6 8 7 9 8 10 11 11 12 12
REMARK SMILES IDX 13 13 14 14 18 15 16 16 15 17 17 19 9 21 1 23 5 25
REMARK H PARENT 15 18 17 20 9 22 1 24 5 26
REMARK Flexibility Score: inf
ROOT
ATOM      1  C   UNL     1     107.033 120.239 121.355  1.00  0.00     0.402 A 
ATOM      2  O   UNL     1     106.531 119.308 122.162  1.00  0.00    -0.202 OA
ATOM      3  C   UNL     1     105.228 119.120 122.339  1.00  0.00     0.368 A 
ATOM      4  C   UNL     1     104.796 118.114 123.207  1.00  0.00     0.162 A 
ATOM      5  C   UNL     1     103.431 117.894 123.409  1.00  0.00     0.128 A 
ATOM      6  C   UNL     1     102.493 118.683 122.739  1.00  0.00     0.093 A 
ATOM      7  C   UNL     1     102.899 119.697 121.865  1.00  0.00     0.136 A 
ATOM      8  C   UNL     1     104.284 119.927 121.658  1.00  0.00     0.125 A 
ATOM      9  C   UNL     1     104.783 120.929 120.811  1.00  0.00     0.078 A 
ATOM     10  C   UNL     1     106.163 121.099 120.661  1.00  0.00     0.223 A 
ENDROOT
BRANCH   1  11
ATOM     11  C   UNL     1     108.505 120.341 121.235  1.00  0.00     0.087 A 
ATOM     12  C   UNL     1     109.224 121.092 122.179  1.00  0.00     0.022 A 
ATOM     13  C   UNL     1     110.616 121.186 122.097  1.00  0.00     0.051 A 
ATOM     14  C   UNL     1     111.310 120.520 121.078  1.00  0.00     0.157 A 
ATOM     15  C   UNL     1     109.208 119.657 120.227  1.00  0.00     0.068 A 
ATOM     16  C   UNL     1     110.605 119.750 120.144  1.00  0.00     0.158 A 
BRANCH  14  17
ATOM     17  O   UNL     1     112.697 120.614 120.991  1.00  0.00    -0.504 OA
ATOM     18  H   UNL     1     113.285 119.788 120.981  1.00  0.00     0.293 HD
ENDBRANCH  14  17
BRANCH  16  19
ATOM     19  O   UNL     1     111.300 119.077 119.141  1.00  0.00    -0.504 OA
ATOM     20  H   UNL     1     112.306 119.154 119.051  1.00  0.00     0.293 HD
ENDBRANCH  16  19
ENDBRANCH   1  11
BRANCH  10  21
ATOM     21  O   UNL     1     106.659 122.127 119.859  1.00  0.00    -0.500 OA
ATOM     22  H   UNL     1     106.214 122.382 118.985  1.00  0.00     0.294 HD
ENDBRANCH  10  21
BRANCH   5  23
ATOM     23  O   UNL     1     102.993 116.892 124.273  1.00  0.00    -0.507 OA
ATOM     24  H   UNL     1     103.593 116.116 124.532  1.00  0.00     0.293 HD
ENDBRANCH   5  23
BRANCH   7  25
ATOM     25  O   UNL     1     101.898 120.440 121.232  1.00  0.00    -0.507 OA
ATOM     26  H   UNL     1     100.966 120.570 121.598  1.00  0.00     0.293 HD
ENDBRANCH   7  25
TORSDOF 6
ENDMDL
MODEL 7
REMARK VINA RESULT:    -5.783      2.020      6.560
REMARK INTER + INTRA:          -7.319
REMARK INTER:                  -7.005
REMARK INTRA:                  -0.314
REMARK UNBOUND:                -0.353
REMARK SMILES Oc1cc(O)c2cc(O)c(-c3ccc(O)c(O)c3)[o+]c2c1
REMARK SMILES IDX 10 1 19 2 20 3 21 4 2 5 3 6 4 7 6 8 7 9 8 10 11 11 12 12
REMARK SMILES IDX 13 13 14 14 18 15 16 16 15 17 17 19 9 21 1 23 5 25
REMARK H PARENT 15 18 17 20 9 22 1 24 5 26
REMARK Flexibility Score: inf
ROOT
ATOM      1  C   UNL     1     106.735 122.417 119.224  1.00  0.00     0.402 A 
ATOM      2  O   UNL     1     106.638 121.574 120.249  1.00  0.00    -0.202 OA
ATOM      3  C   UNL     1     107.692 121.062 120.876  1.00  0.00     0.368 A 
ATOM      4  C   UNL     1     107.490 120.186 121.945  1.00  0.00     0.162 A 
ATOM      5  C   UNL     1     108.582 119.637 122.624  1.00  0.00     0.128 A 
ATOM      6  C   UNL     1     109.881 119.966 122.232  1.00  0.00     0.093 A 
ATOM      7  C   UNL     1     110.111 120.842 121.164  1.00  0.00     0.136 A 
ATOM      8  C   UNL     1     109.006 121.400 120.470  1.00  0.00     0.125 A 
ATOM      9  C   UNL     1     109.141 122.276 119.381  1.00  0.00     0.078 A 
ATOM     10  C   UNL     1     108.005 122.783 118.743  1.00  0.00     0.223 A 
ENDROOT
BRANCH   1  11
ATOM     11  C   UNL     1     105.484 122.925 118.616  1.00  0.00     0.087 A 
ATOM     12  C   UNL     1     105.056 124.231 118.908  1.00  0.00     0.022 A 
ATOM     13  C   UNL     1     103.890 124.738 118.331  1.00  0.00     0.051 A 
ATOM     14  C   UNL     1     103.143 123.955 117.441  1.00  0.00     0.157 A 
ATOM     15  C   UNL     1     104.743 122.150 117.707  1.00  0.00     0.068 A 
ATOM     16  C   UNL     1     103.573 122.660 117.126  1.00  0.00     0.158 A 
BRANCH  14  17
ATOM     17  O   UNL     1     101.978 124.457 116.865  1.00  0.00    -0.504 OA
ATOM     18  H   UNL     1     101.578 124.043 116.031  1.00  0.00     0.293 HD
ENDBRANCH  14  17
BRANCH  16  19
ATOM     19  O   UNL     1     102.835 121.888 116.230  1.00  0.00    -0.504 OA
ATOM     20  H   UNL     1     103.287 121.273 115.563  1.00  0.00     0.293 HD
ENDBRANCH  16  19
ENDBRANCH   1  11
BRANCH  10  21
ATOM     21  O   UNL     1     108.139 123.613 117.630  1.00  0.00    -0.500 OA
ATOM     22  H   UNL     1     107.334 124.025 117.173  1.00  0.00     0.294 HD
ENDBRANCH  10  21
BRANCH   5  23
ATOM     23  O   UNL     1     108.387 118.762 123.690  1.00  0.00    -0.507 OA
ATOM     24  H   UNL     1     109.007 118.758 124.493  1.00  0.00     0.293 HD
ENDBRANCH   5  23
BRANCH   7  25
ATOM     25  O   UNL     1     111.441 121.123 120.837  1.00  0.00    -0.507 OA
ATOM     26  H   UNL     1     112.087 120.451 120.449  1.00  0.00     0.293 HD
ENDBRANCH   7  25
TORSDOF 6
ENDMDL
MODEL 8
REMARK VINA RESULT:    -5.763     10.345     11.663
REMARK INTER + INTRA:          -7.295
REMARK INTER:                  -6.955
REMARK INTRA:                  -0.340
REMARK UNBOUND:                -0.353
REMARK SMILES Oc1cc(O)c2cc(O)c(-c3ccc(O)c(O)c3)[o+]c2c1
REMARK SMILES IDX 10 1 19 2 20 3 21 4 2 5 3 6 4 7 6 8 7 9 8 10 11 11 12 12
REMARK SMILES IDX 13 13 14 14 18 15 16 16 15 17 17 19 9 21 1 23 5 25
REMARK H PARENT 15 18 17 20 9 22 1 24 5 26
REMARK Flexibility Score: inf
ROOT
ATOM      1  C   UNL     1     101.990 115.555 113.339  1.00  0.00     0.402 A 
ATOM      2  O   UNL     1     102.441 114.848 114.372  1.00  0.00    -0.202 OA
ATOM      3  C   UNL     1     102.055 113.603 114.630  1.00  0.00     0.368 A 
ATOM      4  C   UNL     1     102.587 112.941 115.739  1.00  0.00     0.162 A 
ATOM      5  C   UNL     1     102.200 111.630 116.031  1.00  0.00     0.128 A 
ATOM      6  C   UNL     1     101.277 110.979 115.210  1.00  0.00     0.093 A 
ATOM      7  C   UNL     1     100.729 111.620 114.093  1.00  0.00     0.136 A 
ATOM      8  C   UNL     1     101.117 112.951 113.793  1.00  0.00     0.125 A 
ATOM      9  C   UNL     1     100.610 113.677 112.703  1.00  0.00     0.078 A 
ATOM     10  C   UNL     1     101.036 114.989 112.474  1.00  0.00     0.223 A 
ENDROOT
BRANCH   1  11
ATOM     11  C   UNL     1     102.506 116.929 113.153  1.00  0.00     0.087 A 
ATOM     12  C   UNL     1     101.801 118.012 113.703  1.00  0.00     0.022 A 
ATOM     13  C   UNL     1     102.279 119.316 113.556  1.00  0.00     0.051 A 
ATOM     14  C   UNL     1     103.478 119.556 112.871  1.00  0.00     0.157 A 
ATOM     15  C   UNL     1     103.719 117.173 112.483  1.00  0.00     0.068 A 
ATOM     16  C   UNL     1     104.201 118.482 112.337  1.00  0.00     0.158 A 
BRANCH  14  17
ATOM     17  O   UNL     1     103.957 120.856 112.720  1.00  0.00    -0.504 OA
ATOM     18  H   UNL     1     104.415 121.157 111.868  1.00  0.00     0.293 HD
ENDBRANCH  14  17
BRANCH  16  19
ATOM     19  O   UNL     1     105.400 118.723 111.669  1.00  0.00    -0.504 OA
ATOM     20  H   UNL     1     105.444 119.341 110.866  1.00  0.00     0.293 HD
ENDBRANCH  16  19
ENDBRANCH   1  11
BRANCH  10  21
ATOM     21  O   UNL     1     100.495 115.726 111.420  1.00  0.00    -0.500 OA
ATOM     22  H   UNL     1      99.557 116.106 111.462  1.00  0.00     0.294 HD
ENDBRANCH  10  21
BRANCH   5  23
ATOM     23  O   UNL     1     102.726 110.964 117.136  1.00  0.00    -0.507 OA
ATOM     24  H   UNL     1     103.051 110.005 117.071  1.00  0.00     0.293 HD
ENDBRANCH   5  23
BRANCH   7  25
ATOM     25  O   UNL     1      99.813 110.897 113.321  1.00  0.00    -0.507 OA
ATOM     26  H   UNL     1      99.643 109.907 113.417  1.00  0.00     0.293 HD
ENDBRANCH   7  25
TORSDOF 6
ENDMDL
MODEL 9
REMARK VINA RESULT:    -5.608      3.844      7.106
REMARK INTER + INTRA:          -7.109
REMARK INTER:                  -6.762
REMARK INTRA:                  -0.347
REMARK UNBOUND:                -0.353
REMARK SMILES Oc1cc(O)c2cc(O)c(-c3ccc(O)c(O)c3)[o+]c2c1
REMARK SMILES IDX 10 1 19 2 20 3 21 4 2 5 3 6 4 7 6 8 7 9 8 10 11 11 12 12
REMARK SMILES IDX 13 13 14 14 18 15 16 16 15 17 17 19 9 21 1 23 5 25
REMARK H PARENT 15 18 17 20 9 22 1 24 5 26
REMARK Flexibility Score: inf
ROOT
ATOM      1  C   UNL     1     105.693 119.977 122.225  1.00  0.00     0.402 A 
ATOM      2  O   UNL     1     106.990 119.721 122.376  1.00  0.00    -0.202 OA
ATOM      3  C   UNL     1     107.934 120.256 121.610  1.00  0.00     0.368 A 
ATOM      4  C   UNL     1     109.271 119.928 121.848  1.00  0.00     0.162 A 
ATOM      5  C   UNL     1     110.285 120.480 121.059  1.00  0.00     0.128 A 
ATOM      6  C   UNL     1     109.960 121.364 120.029  1.00  0.00     0.093 A 
ATOM      7  C   UNL     1     108.628 121.710 119.770  1.00  0.00     0.136 A 
ATOM      8  C   UNL     1     107.595 121.150 120.566  1.00  0.00     0.125 A 
ATOM      9  C   UNL     1     106.233 121.429 120.370  1.00  0.00     0.078 A 
ATOM     10  C   UNL     1     105.270 120.836 121.193  1.00  0.00     0.223 A 
ENDROOT
BRANCH   1  11
ATOM     11  C   UNL     1     104.738 119.326 123.150  1.00  0.00     0.087 A 
ATOM     12  C   UNL     1     104.182 118.083 122.806  1.00  0.00     0.022 A 
ATOM     13  C   UNL     1     103.294 117.441 123.672  1.00  0.00     0.051 A 
ATOM     14  C   UNL     1     102.960 118.024 124.902  1.00  0.00     0.157 A 
ATOM     15  C   UNL     1     104.416 119.898 124.394  1.00  0.00     0.068 A 
ATOM     16  C   UNL     1     103.526 119.253 125.265  1.00  0.00     0.158 A 
BRANCH  14  17
ATOM     17  O   UNL     1     102.073 117.388 125.767  1.00  0.00    -0.504 OA
ATOM     18  H   UNL     1     102.035 116.378 125.838  1.00  0.00     0.293 HD
ENDBRANCH  14  17
BRANCH  16  19
ATOM     19  O   UNL     1     103.203 119.824 126.495  1.00  0.00    -0.504 OA
ATOM     20  H   UNL     1     103.406 119.351 127.368  1.00  0.00     0.293 HD
ENDBRANCH  16  19
ENDBRANCH   1  11
BRANCH  10  21
ATOM     21  O   UNL     1     103.914 121.073 120.968  1.00  0.00    -0.500 OA
ATOM     22  H   UNL     1     103.585 121.946 120.573  1.00  0.00     0.294 HD
ENDBRANCH  10  21
BRANCH   5  23
ATOM     23  O   UNL     1     111.620 120.156 121.290  1.00  0.00    -0.507 OA
ATOM     24  H   UNL     1     112.250 120.802 121.753  1.00  0.00     0.293 HD
ENDBRANCH   5  23
BRANCH   7  25
ATOM     25  O   UNL     1     108.387 122.603 118.721  1.00  0.00    -0.507 OA
ATOM     26  H   UNL     1     108.335 122.340 117.748  1.00  0.00     0.293 HD
ENDBRANCH   7  25
TORSDOF 6
ENDMDL
