MODEL 1
REMARK VINA RESULT:    -4.204      0.000      0.000
REMARK INTER + INTRA:         -12.136
REMARK INTER:                  -9.120
REMARK INTRA:                  -3.016
REMARK UNBOUND:                -3.016
REMARK SMILES CCCCCCCCCCCCCCCCCCCCCC(=O)[O-]
REMARK SMILES IDX 12 1 11 2 10 3 9 4 8 5 7 6 6 7 5 8 4 9 3 10 2 11 1 12 13 13
REMARK SMILES IDX 14 14 15 15 16 16 17 17 18 18 19 19 20 20 21 21 22 22 23 23
REMARK SMILES IDX 24 24
REMARK H PARENT
REMARK Flexibility Score: inf
ROOT
ATOM      1  C   UNL     1     -34.543 -47.700  29.757  1.00  0.00     0.000 C 
ENDROOT
BRANCH   1   2
ATOM      2  C   UNL     1     -35.553 -48.194  30.810  1.00  0.00     0.000 C 
BRANCH   2   3
ATOM      3  C   UNL     1     -35.077 -48.071  32.269  1.00  0.00     0.000 C 
BRANCH   3   4
ATOM      4  C   UNL     1     -36.002 -47.199  33.132  1.00  0.00    -0.000 C 
BRANCH   4   5
ATOM      5  C   UNL     1     -35.384 -46.946  34.516  1.00  0.00    -0.000 C 
BRANCH   5   6
ATOM      6  C   UNL     1     -33.878 -46.633  34.451  1.00  0.00    -0.000 C 
BRANCH   6   7
ATOM      7  C   UNL     1     -33.533 -45.156  34.174  1.00  0.00    -0.000 C 
BRANCH   7   8
ATOM      8  C   UNL     1     -32.032 -44.863  33.986  1.00  0.00    -0.000 C 
BRANCH   8   9
ATOM      9  C   UNL     1     -31.230 -45.981  33.289  1.00  0.00    -0.000 C 
BRANCH   9  10
ATOM     10  C   UNL     1     -29.767 -45.627  32.967  1.00  0.00    -0.000 C 
BRANCH  10  11
ATOM     11  C   UNL     1     -28.782 -46.151  34.021  1.00  0.00    -0.003 C 
ATOM     12  C   UNL     1     -29.377 -47.324  34.794  1.00  0.00     0.004 C 
ENDBRANCH  10  11
ENDBRANCH   9  10
ENDBRANCH   8   9
ENDBRANCH   7   8
ENDBRANCH   6   7
ENDBRANCH   5   6
ENDBRANCH   4   5
ENDBRANCH   3   4
ENDBRANCH   2   3
ENDBRANCH   1   2
BRANCH   1  13
ATOM     13  C   UNL     1     -33.376 -46.909  30.373  1.00  0.00     0.000 C 
BRANCH  13  14
ATOM     14  C   UNL     1     -33.391 -45.423  29.975  1.00  0.00     0.000 C 
BRANCH  14  15
ATOM     15  C   UNL     1     -34.498 -44.634  30.692  1.00  0.00     0.000 C 
BRANCH  15  16
ATOM     16  C   UNL     1     -35.441 -43.905  29.717  1.00  0.00     0.000 C 
BRANCH  16  17
ATOM     17  C   UNL     1     -36.220 -44.822  28.752  1.00  0.00     0.000 C 
BRANCH  17  18
ATOM     18  C   UNL     1     -35.935 -44.589  27.256  1.00  0.00     0.000 C 
BRANCH  18  19
ATOM     19  C   UNL     1     -35.364 -45.807  26.503  1.00  0.00     0.000 C 
BRANCH  19  20
ATOM     20  C   UNL     1     -33.869 -45.707  26.149  1.00  0.00     0.006 C 
BRANCH  20  21
ATOM     21  C   UNL     1     -33.628 -45.257  24.703  1.00  0.00     0.053 C 
BRANCH  21  22
ATOM     22  C   UNL     1     -33.253 -43.809  24.663  1.00  0.00     0.041 C 
ATOM     23  O   UNL     1     -33.269 -43.179  23.573  1.00  0.00    -0.550 OA
ATOM     24  O   UNL     1     -32.934 -43.142  25.840  1.00  0.00    -0.550 OA
ENDBRANCH  21  22
ENDBRANCH  20  21
ENDBRANCH  19  20
ENDBRANCH  18  19
ENDBRANCH  17  18
ENDBRANCH  16  17
ENDBRANCH  15  16
ENDBRANCH  14  15
ENDBRANCH  13  14
ENDBRANCH   1  13
TORSDOF 20
ENDMDL
MODEL 2
REMARK VINA RESULT:    -4.144      2.548      3.253
REMARK INTER + INTRA:         -12.006
REMARK INTER:                  -8.629
REMARK INTRA:                  -3.377
REMARK UNBOUND:                -3.016
REMARK SMILES CCCCCCCCCCCCCCCCCCCCCC(=O)[O-]
REMARK SMILES IDX 12 1 11 2 10 3 9 4 8 5 7 6 6 7 5 8 4 9 3 10 2 11 1 12 13 13
REMARK SMILES IDX 14 14 15 15 16 16 17 17 18 18 19 19 20 20 21 21 22 22 23 23
REMARK SMILES IDX 24 24
REMARK H PARENT
REMARK Flexibility Score: inf
ROOT
ATOM      1  C   UNL     1     -34.381 -47.734  29.835  1.00  0.00     0.000 C 
ENDROOT
BRANCH   1   2
ATOM      2  C   UNL     1     -35.183 -48.398  30.970  1.00  0.00     0.000 C 
BRANCH   2   3
ATOM      3  C   UNL     1     -36.386 -47.581  31.476  1.00  0.00     0.000 C 
BRANCH   3   4
ATOM      4  C   UNL     1     -36.326 -47.292  32.983  1.00  0.00    -0.000 C 
BRANCH   4   5
ATOM      5  C   UNL     1     -35.194 -48.088  33.651  1.00  0.00    -0.000 C 
BRANCH   5   6
ATOM      6  C   UNL     1     -34.076 -47.188  34.209  1.00  0.00    -0.000 C 
BRANCH   6   7
ATOM      7  C   UNL     1     -32.769 -47.922  34.565  1.00  0.00    -0.000 C 
BRANCH   7   8
ATOM      8  C   UNL     1     -32.773 -49.436  34.277  1.00  0.00    -0.000 C 
BRANCH   8   9
ATOM      9  C   UNL     1     -31.884 -49.879  33.098  1.00  0.00    -0.000 C 
BRANCH   9  10
ATOM     10  C   UNL     1     -32.342 -51.164  32.384  1.00  0.00    -0.000 C 
BRANCH  10  11
ATOM     11  C   UNL     1     -32.824 -52.246  33.360  1.00  0.00    -0.003 C 
ATOM     12  C   UNL     1     -31.732 -53.282  33.615  1.00  0.00     0.004 C 
ENDBRANCH  10  11
ENDBRANCH   9  10
ENDBRANCH   8   9
ENDBRANCH   7   8
ENDBRANCH   6   7
ENDBRANCH   5   6
ENDBRANCH   4   5
ENDBRANCH   3   4
ENDBRANCH   2   3
ENDBRANCH   1   2
BRANCH   1  13
ATOM     13  C   UNL     1     -33.096 -47.048  30.333  1.00  0.00     0.000 C 
BRANCH  13  14
ATOM     14  C   UNL     1     -33.148 -45.517  30.192  1.00  0.00     0.000 C 
BRANCH  14  15
ATOM     15  C   UNL     1     -33.865 -44.843  31.373  1.00  0.00     0.000 C 
BRANCH  15  16
ATOM     16  C   UNL     1     -35.178 -44.154  30.961  1.00  0.00     0.000 C 
BRANCH  16  17
ATOM     17  C   UNL     1     -35.302 -43.828  29.458  1.00  0.00     0.000 C 
BRANCH  17  18
ATOM     18  C   UNL     1     -36.286 -44.719  28.675  1.00  0.00     0.000 C 
BRANCH  18  19
ATOM     19  C   UNL     1     -36.043 -44.779  27.154  1.00  0.00     0.000 C 
BRANCH  19  20
ATOM     20  C   UNL     1     -34.669 -45.334  26.738  1.00  0.00     0.006 C 
BRANCH  20  21
ATOM     21  C   UNL     1     -34.743 -46.771  26.206  1.00  0.00     0.053 C 
BRANCH  21  22
ATOM     22  C   UNL     1     -34.972 -46.768  24.728  1.00  0.00     0.041 C 
ATOM     23  O   UNL     1     -34.361 -45.947  23.993  1.00  0.00    -0.550 OA
ATOM     24  O   UNL     1     -35.824 -47.704  24.155  1.00  0.00    -0.550 OA
ENDBRANCH  21  22
ENDBRANCH  20  21
ENDBRANCH  19  20
ENDBRANCH  18  19
ENDBRANCH  17  18
ENDBRANCH  16  17
ENDBRANCH  15  16
ENDBRANCH  14  15
ENDBRANCH  13  14
ENDBRANCH   1  13
TORSDOF 20
ENDMDL
MODEL 3
REMARK VINA RESULT:    -4.137      7.729      9.342
REMARK INTER + INTRA:         -11.989
REMARK INTER:                  -8.169
REMARK INTRA:                  -3.820
REMARK UNBOUND:                -3.016
REMARK SMILES CCCCCCCCCCCCCCCCCCCCCC(=O)[O-]
REMARK SMILES IDX 12 1 11 2 10 3 9 4 8 5 7 6 6 7 5 8 4 9 3 10 2 11 1 12 13 13
REMARK SMILES IDX 14 14 15 15 16 16 17 17 18 18 19 19 20 20 21 21 22 22 23 23
REMARK SMILES IDX 24 24
REMARK H PARENT
REMARK Flexibility Score: inf
ROOT
ATOM      1  C   UNL     1     -28.250 -51.814  32.936  1.00  0.00     0.000 C 
ENDROOT
BRANCH   1   2
ATOM      2  C   UNL     1     -28.527 -52.915  33.977  1.00  0.00     0.000 C 
BRANCH   2   3
ATOM      3  C   UNL     1     -30.011 -53.095  34.348  1.00  0.00     0.000 C 
BRANCH   3   4
ATOM      4  C   UNL     1     -30.592 -51.893  35.107  1.00  0.00    -0.000 C 
BRANCH   4   5
ATOM      5  C   UNL     1     -29.591 -51.365  36.147  1.00  0.00    -0.000 C 
BRANCH   5   6
ATOM      6  C   UNL     1     -29.643 -49.834  36.304  1.00  0.00    -0.000 C 
BRANCH   6   7
ATOM      7  C   UNL     1     -29.447 -49.041  34.997  1.00  0.00    -0.000 C 
BRANCH   7   8
ATOM      8  C   UNL     1     -28.387 -47.924  35.066  1.00  0.00    -0.000 C 
BRANCH   8   9
ATOM      9  C   UNL     1     -26.996 -48.309  34.526  1.00  0.00    -0.000 C 
BRANCH   9  10
ATOM     10  C   UNL     1     -26.068 -48.991  35.549  1.00  0.00    -0.000 C 
BRANCH  10  11
ATOM     11  C   UNL     1     -24.884 -49.713  34.891  1.00  0.00    -0.003 C 
ATOM     12  C   UNL     1     -25.204 -51.185  34.650  1.00  0.00     0.004 C 
ENDBRANCH  10  11
ENDBRANCH   9  10
ENDBRANCH   8   9
ENDBRANCH   7   8
ENDBRANCH   6   7
ENDBRANCH   5   6
ENDBRANCH   4   5
ENDBRANCH   3   4
ENDBRANCH   2   3
ENDBRANCH   1   2
BRANCH   1  13
ATOM     13  C   UNL     1     -29.153 -51.924  31.695  1.00  0.00     0.000 C 
BRANCH  13  14
ATOM     14  C   UNL     1     -28.930 -50.777  30.695  1.00  0.00     0.000 C 
BRANCH  14  15
ATOM     15  C   UNL     1     -28.133 -49.613  31.306  1.00  0.00     0.000 C 
BRANCH  15  16
ATOM     16  C   UNL     1     -26.814 -49.336  30.562  1.00  0.00     0.000 C 
BRANCH  16  17
ATOM     17  C   UNL     1     -25.562 -49.985  31.186  1.00  0.00     0.000 C 
BRANCH  17  18
ATOM     18  C   UNL     1     -25.019 -51.215  30.431  1.00  0.00     0.000 C 
BRANCH  18  19
ATOM     19  C   UNL     1     -25.127 -52.550  31.195  1.00  0.00     0.000 C 
BRANCH  19  20
ATOM     20  C   UNL     1     -26.047 -53.597  30.542  1.00  0.00     0.006 C 
BRANCH  20  21
ATOM     21  C   UNL     1     -26.560 -53.163  29.163  1.00  0.00     0.053 C 
BRANCH  21  22
ATOM     22  C   UNL     1     -26.797 -54.359  28.295  1.00  0.00     0.041 C 
ATOM     23  O   UNL     1     -27.693 -54.333  27.411  1.00  0.00    -0.550 OA
ATOM     24  O   UNL     1     -25.995 -55.486  28.431  1.00  0.00    -0.550 OA
ENDBRANCH  21  22
ENDBRANCH  20  21
ENDBRANCH  19  20
ENDBRANCH  18  19
ENDBRANCH  17  18
ENDBRANCH  16  17
ENDBRANCH  15  16
ENDBRANCH  14  15
ENDBRANCH  13  14
ENDBRANCH   1  13
TORSDOF 20
ENDMDL
MODEL 4
REMARK VINA RESULT:    -4.107      9.021     12.445
REMARK INTER + INTRA:         -11.924
REMARK INTER:                  -8.813
REMARK INTRA:                  -3.112
REMARK UNBOUND:                -3.016
REMARK SMILES CCCCCCCCCCCCCCCCCCCCCC(=O)[O-]
REMARK SMILES IDX 12 1 11 2 10 3 9 4 8 5 7 6 6 7 5 8 4 9 3 10 2 11 1 12 13 13
REMARK SMILES IDX 14 14 15 15 16 16 17 17 18 18 19 19 20 20 21 21 22 22 23 23
REMARK SMILES IDX 24 24
REMARK H PARENT
REMARK Flexibility Score: inf
ROOT
ATOM      1  C   UNL     1     -29.178 -53.154  26.697  1.00  0.00     0.000 C 
ENDROOT
BRANCH   1   2
ATOM      2  C   UNL     1     -29.209 -52.533  25.288  1.00  0.00     0.000 C 
BRANCH   2   3
ATOM      3  C   UNL     1     -28.029 -51.598  24.967  1.00  0.00     0.000 C 
BRANCH   3   4
ATOM      4  C   UNL     1     -27.069 -52.179  23.918  1.00  0.00    -0.000 C 
BRANCH   4   5
ATOM      5  C   UNL     1     -25.792 -51.332  23.813  1.00  0.00    -0.000 C 
BRANCH   5   6
ATOM      6  C   UNL     1     -25.892 -49.999  24.577  1.00  0.00    -0.000 C 
BRANCH   6   7
ATOM      7  C   UNL     1     -25.640 -48.740  23.723  1.00  0.00    -0.000 C 
BRANCH   7   8
ATOM      8  C   UNL     1     -26.495 -47.515  24.102  1.00  0.00    -0.000 C 
BRANCH   8   9
ATOM      9  C   UNL     1     -28.001 -47.650  23.801  1.00  0.00    -0.000 C 
BRANCH   9  10
ATOM     10  C   UNL     1     -28.337 -48.352  22.472  1.00  0.00    -0.000 C 
BRANCH  10  11
ATOM     11  C   UNL     1     -29.462 -49.386  22.613  1.00  0.00    -0.003 C 
ATOM     12  C   UNL     1     -29.448 -50.374  21.450  1.00  0.00     0.004 C 
ENDBRANCH  10  11
ENDBRANCH   9  10
ENDBRANCH   8   9
ENDBRANCH   7   8
ENDBRANCH   6   7
ENDBRANCH   5   6
ENDBRANCH   4   5
ENDBRANCH   3   4
ENDBRANCH   2   3
ENDBRANCH   1   2
BRANCH   1  13
ATOM     13  C   UNL     1     -28.316 -54.427  26.771  1.00  0.00     0.000 C 
BRANCH  13  14
ATOM     14  C   UNL     1     -27.156 -54.301  27.772  1.00  0.00     0.000 C 
BRANCH  14  15
ATOM     15  C   UNL     1     -25.863 -53.794  27.111  1.00  0.00     0.000 C 
BRANCH  15  16
ATOM     16  C   UNL     1     -25.511 -52.351  27.515  1.00  0.00     0.000 C 
BRANCH  16  17
ATOM     17  C   UNL     1     -25.997 -51.926  28.915  1.00  0.00     0.000 C 
BRANCH  17  18
ATOM     18  C   UNL     1     -25.092 -52.366  30.083  1.00  0.00     0.000 C 
BRANCH  18  19
ATOM     19  C   UNL     1     -25.837 -52.912  31.316  1.00  0.00     0.000 C 
BRANCH  19  20
ATOM     20  C   UNL     1     -27.368 -52.981  31.172  1.00  0.00     0.006 C 
BRANCH  20  21
ATOM     21  C   UNL     1     -28.108 -52.413  32.390  1.00  0.00     0.053 C 
BRANCH  21  22
ATOM     22  C   UNL     1     -27.673 -53.115  33.637  1.00  0.00     0.041 C 
ATOM     23  O   UNL     1     -27.994 -54.317  33.833  1.00  0.00    -0.550 OA
ATOM     24  O   UNL     1     -26.872 -52.457  34.562  1.00  0.00    -0.550 OA
ENDBRANCH  21  22
ENDBRANCH  20  21
ENDBRANCH  19  20
ENDBRANCH  18  19
ENDBRANCH  17  18
ENDBRANCH  16  17
ENDBRANCH  15  16
ENDBRANCH  14  15
ENDBRANCH  13  14
ENDBRANCH   1  13
TORSDOF 20
ENDMDL
MODEL 5
REMARK VINA RESULT:    -4.082      6.888      9.564
REMARK INTER + INTRA:         -11.870
REMARK INTER:                  -7.794
REMARK INTRA:                  -4.076
REMARK UNBOUND:                -3.016
REMARK SMILES CCCCCCCCCCCCCCCCCCCCCC(=O)[O-]
REMARK SMILES IDX 12 1 11 2 10 3 9 4 8 5 7 6 6 7 5 8 4 9 3 10 2 11 1 12 13 13
REMARK SMILES IDX 14 14 15 15 16 16 17 17 18 18 19 19 20 20 21 21 22 22 23 23
REMARK SMILES IDX 24 24
REMARK H PARENT
REMARK Flexibility Score: inf
ROOT
ATOM      1  C   UNL     1     -29.094 -51.630  24.658  1.00  0.00     0.000 C 
ENDROOT
BRANCH   1   2
ATOM      2  C   UNL     1     -28.678 -50.369  25.437  1.00  0.00     0.000 C 
BRANCH   2   3
ATOM      3  C   UNL     1     -27.194 -49.983  25.300  1.00  0.00     0.000 C 
BRANCH   3   4
ATOM      4  C   UNL     1     -26.728 -49.897  23.839  1.00  0.00    -0.000 C 
BRANCH   4   5
ATOM      5  C   UNL     1     -26.975 -48.494  23.264  1.00  0.00    -0.000 C 
BRANCH   5   6
ATOM      6  C   UNL     1     -26.341 -47.378  24.114  1.00  0.00    -0.000 C 
BRANCH   6   7
ATOM      7  C   UNL     1     -27.342 -46.369  24.713  1.00  0.00    -0.000 C 
BRANCH   7   8
ATOM      8  C   UNL     1     -28.719 -46.330  24.022  1.00  0.00    -0.000 C 
BRANCH   8   9
ATOM      9  C   UNL     1     -29.897 -46.820  24.886  1.00  0.00    -0.000 C 
BRANCH   9  10
ATOM     10  C   UNL     1     -31.024 -45.790  25.093  1.00  0.00    -0.000 C 
BRANCH  10  11
ATOM     11  C   UNL     1     -31.349 -45.000  23.818  1.00  0.00    -0.003 C 
ATOM     12  C   UNL     1     -32.799 -44.522  23.824  1.00  0.00     0.004 C 
ENDBRANCH  10  11
ENDBRANCH   9  10
ENDBRANCH   8   9
ENDBRANCH   7   8
ENDBRANCH   6   7
ENDBRANCH   5   6
ENDBRANCH   4   5
ENDBRANCH   3   4
ENDBRANCH   2   3
ENDBRANCH   1   2
BRANCH   1  13
ATOM     13  C   UNL     1     -30.594 -51.654  24.316  1.00  0.00     0.000 C 
BRANCH  13  14
ATOM     14  C   UNL     1     -30.857 -51.711  22.802  1.00  0.00     0.000 C 
BRANCH  14  15
ATOM     15  C   UNL     1     -29.596 -51.410  21.975  1.00  0.00     0.000 C 
BRANCH  15  16
ATOM     16  C   UNL     1     -29.697 -50.089  21.191  1.00  0.00     0.000 C 
BRANCH  16  17
ATOM     17  C   UNL     1     -30.326 -48.914  21.966  1.00  0.00     0.000 C 
BRANCH  17  18
ATOM     18  C   UNL     1     -31.380 -48.104  21.184  1.00  0.00     0.000 C 
BRANCH  18  19
ATOM     19  C   UNL     1     -32.672 -47.790  21.964  1.00  0.00     0.000 C 
BRANCH  19  20
ATOM     20  C   UNL     1     -33.310 -48.997  22.676  1.00  0.00     0.006 C 
BRANCH  20  21
ATOM     21  C   UNL     1     -33.298 -48.861  24.204  1.00  0.00     0.053 C 
BRANCH  21  22
ATOM     22  C   UNL     1     -34.415 -47.975  24.657  1.00  0.00     0.041 C 
ATOM     23  O   UNL     1     -35.526 -48.001  24.064  1.00  0.00    -0.550 OA
ATOM     24  O   UNL     1     -34.245 -47.154  25.765  1.00  0.00    -0.550 OA
ENDBRANCH  21  22
ENDBRANCH  20  21
ENDBRANCH  19  20
ENDBRANCH  18  19
ENDBRANCH  17  18
ENDBRANCH  16  17
ENDBRANCH  15  16
ENDBRANCH  14  15
ENDBRANCH  13  14
ENDBRANCH   1  13
TORSDOF 20
ENDMDL
MODEL 6
REMARK VINA RESULT:    -4.080      5.352      8.060
REMARK INTER + INTRA:         -11.866
REMARK INTER:                  -8.590
REMARK INTRA:                  -3.276
REMARK UNBOUND:                -3.016
REMARK SMILES CCCCCCCCCCCCCCCCCCCCCC(=O)[O-]
REMARK SMILES IDX 12 1 11 2 10 3 9 4 8 5 7 6 6 7 5 8 4 9 3 10 2 11 1 12 13 13
REMARK SMILES IDX 14 14 15 15 16 16 17 17 18 18 19 19 20 20 21 21 22 22 23 23
REMARK SMILES IDX 24 24
REMARK H PARENT
REMARK Flexibility Score: inf
ROOT
ATOM      1  C   UNL     1     -32.726 -45.673  32.013  1.00  0.00     0.000 C 
ENDROOT
BRANCH   1   2
ATOM      2  C   UNL     1     -33.884 -46.687  31.981  1.00  0.00     0.000 C 
BRANCH   2   3
ATOM      3  C   UNL     1     -35.249 -46.125  32.419  1.00  0.00     0.000 C 
BRANCH   3   4
ATOM      4  C   UNL     1     -36.077 -47.127  33.236  1.00  0.00    -0.000 C 
BRANCH   4   5
ATOM      5  C   UNL     1     -35.467 -47.337  34.631  1.00  0.00    -0.000 C 
BRANCH   5   6
ATOM      6  C   UNL     1     -35.601 -48.786  35.132  1.00  0.00    -0.000 C 
BRANCH   6   7
ATOM      7  C   UNL     1     -34.272 -49.466  35.516  1.00  0.00    -0.000 C 
BRANCH   7   8
ATOM      8  C   UNL     1     -33.011 -48.614  35.273  1.00  0.00    -0.000 C 
BRANCH   8   9
ATOM      9  C   UNL     1     -32.094 -49.112  34.138  1.00  0.00    -0.000 C 
BRANCH   9  10
ATOM     10  C   UNL     1     -32.434 -50.513  33.596  1.00  0.00    -0.000 C 
BRANCH  10  11
ATOM     11  C   UNL     1     -31.550 -51.614  34.197  1.00  0.00    -0.003 C 
ATOM     12  C   UNL     1     -30.070 -51.300  34.000  1.00  0.00     0.004 C 
ENDBRANCH  10  11
ENDBRANCH   9  10
ENDBRANCH   8   9
ENDBRANCH   7   8
ENDBRANCH   6   7
ENDBRANCH   5   6
ENDBRANCH   4   5
ENDBRANCH   3   4
ENDBRANCH   2   3
ENDBRANCH   1   2
BRANCH   1  13
ATOM     13  C   UNL     1     -32.702 -44.834  33.303  1.00  0.00     0.000 C 
BRANCH  13  14
ATOM     14  C   UNL     1     -31.700 -45.370  34.341  1.00  0.00     0.000 C 
BRANCH  14  15
ATOM     15  C   UNL     1     -30.431 -44.506  34.432  1.00  0.00     0.000 C 
BRANCH  15  16
ATOM     16  C   UNL     1     -29.190 -45.203  33.845  1.00  0.00     0.000 C 
BRANCH  16  17
ATOM     17  C   UNL     1     -29.429 -46.634  33.322  1.00  0.00     0.000 C 
BRANCH  17  18
ATOM     18  C   UNL     1     -28.483 -47.706  33.897  1.00  0.00     0.000 C 
BRANCH  18  19
ATOM     19  C   UNL     1     -28.714 -48.052  35.381  1.00  0.00     0.000 C 
BRANCH  19  20
ATOM     20  C   UNL     1     -27.659 -48.986  36.002  1.00  0.00     0.006 C 
BRANCH  20  21
ATOM     21  C   UNL     1     -26.260 -48.783  35.405  1.00  0.00     0.053 C 
BRANCH  21  22
ATOM     22  C   UNL     1     -25.718 -50.081  34.896  1.00  0.00     0.041 C 
ATOM     23  O   UNL     1     -24.475 -50.250  34.786  1.00  0.00    -0.550 OA
ATOM     24  O   UNL     1     -26.584 -51.123  34.589  1.00  0.00    -0.550 OA
ENDBRANCH  21  22
ENDBRANCH  20  21
ENDBRANCH  19  20
ENDBRANCH  18  19
ENDBRANCH  17  18
ENDBRANCH  16  17
ENDBRANCH  15  16
ENDBRANCH  14  15
ENDBRANCH  13  14
ENDBRANCH   1  13
TORSDOF 20
ENDMDL
MODEL 7
REMARK VINA RESULT:    -4.077      4.460      7.239
REMARK INTER + INTRA:         -11.859
REMARK INTER:                  -8.390
REMARK INTRA:                  -3.469
REMARK UNBOUND:                -3.016
REMARK SMILES CCCCCCCCCCCCCCCCCCCCCC(=O)[O-]
REMARK SMILES IDX 12 1 11 2 10 3 9 4 8 5 7 6 6 7 5 8 4 9 3 10 2 11 1 12 13 13
REMARK SMILES IDX 14 14 15 15 16 16 17 17 18 18 19 19 20 20 21 21 22 22 23 23
REMARK SMILES IDX 24 24
REMARK H PARENT
REMARK Flexibility Score: inf
ROOT
ATOM      1  C   UNL     1     -31.527 -47.312  31.767  1.00  0.00     0.000 C 
ENDROOT
BRANCH   1   2
ATOM      2  C   UNL     1     -30.205 -47.557  31.017  1.00  0.00     0.000 C 
BRANCH   2   3
ATOM      3  C   UNL     1     -29.663 -46.338  30.246  1.00  0.00     0.000 C 
BRANCH   3   4
ATOM      4  C   UNL     1     -28.147 -46.153  30.402  1.00  0.00    -0.000 C 
BRANCH   4   5
ATOM      5  C   UNL     1     -27.822 -44.797  31.047  1.00  0.00    -0.000 C 
BRANCH   5   6
ATOM      6  C   UNL     1     -27.449 -44.916  32.536  1.00  0.00    -0.000 C 
BRANCH   6   7
ATOM      7  C   UNL     1     -28.647 -44.930  33.506  1.00  0.00    -0.000 C 
BRANCH   7   8
ATOM      8  C   UNL     1     -28.890 -46.274  34.221  1.00  0.00    -0.000 C 
BRANCH   8   9
ATOM      9  C   UNL     1     -27.863 -47.378  33.901  1.00  0.00    -0.000 C 
BRANCH   9  10
ATOM     10  C   UNL     1     -28.222 -48.775  34.440  1.00  0.00    -0.000 C 
BRANCH  10  11
ATOM     11  C   UNL     1     -28.141 -48.862  35.970  1.00  0.00    -0.003 C 
ATOM     12  C   UNL     1     -28.845 -50.114  36.487  1.00  0.00     0.004 C 
ENDBRANCH  10  11
ENDBRANCH   9  10
ENDBRANCH   8   9
ENDBRANCH   7   8
ENDBRANCH   6   7
ENDBRANCH   5   6
ENDBRANCH   4   5
ENDBRANCH   3   4
ENDBRANCH   2   3
ENDBRANCH   1   2
BRANCH   1  13
ATOM     13  C   UNL     1     -32.259 -46.045  31.291  1.00  0.00     0.000 C 
BRANCH  13  14
ATOM     14  C   UNL     1     -33.127 -45.413  32.392  1.00  0.00     0.000 C 
BRANCH  14  15
ATOM     15  C   UNL     1     -32.384 -45.300  33.734  1.00  0.00     0.000 C 
BRANCH  15  16
ATOM     16  C   UNL     1     -33.078 -46.075  34.868  1.00  0.00     0.000 C 
BRANCH  16  17
ATOM     17  C   UNL     1     -32.131 -46.859  35.800  1.00  0.00     0.000 C 
BRANCH  17  18
ATOM     18  C   UNL     1     -31.863 -48.318  35.381  1.00  0.00     0.000 C 
BRANCH  18  19
ATOM     19  C   UNL     1     -32.992 -49.312  35.718  1.00  0.00     0.000 C 
BRANCH  19  20
ATOM     20  C   UNL     1     -34.130 -49.376  34.684  1.00  0.00     0.006 C 
BRANCH  20  21
ATOM     21  C   UNL     1     -35.481 -48.926  35.256  1.00  0.00     0.053 C 
BRANCH  21  22
ATOM     22  C   UNL     1     -36.136 -47.945  34.335  1.00  0.00     0.041 C 
ATOM     23  O   UNL     1     -37.083 -47.224  34.746  1.00  0.00    -0.550 OA
ATOM     24  O   UNL     1     -35.667 -47.793  33.036  1.00  0.00    -0.550 OA
ENDBRANCH  21  22
ENDBRANCH  20  21
ENDBRANCH  19  20
ENDBRANCH  18  19
ENDBRANCH  17  18
ENDBRANCH  16  17
ENDBRANCH  15  16
ENDBRANCH  14  15
ENDBRANCH  13  14
ENDBRANCH   1  13
TORSDOF 20
ENDMDL
MODEL 8
REMARK VINA RESULT:    -4.062      6.723      9.680
REMARK INTER + INTRA:         -11.828
REMARK INTER:                  -8.919
REMARK INTRA:                  -2.908
REMARK UNBOUND:                -3.016
REMARK SMILES CCCCCCCCCCCCCCCCCCCCCC(=O)[O-]
REMARK SMILES IDX 12 1 11 2 10 3 9 4 8 5 7 6 6 7 5 8 4 9 3 10 2 11 1 12 13 13
REMARK SMILES IDX 14 14 15 15 16 16 17 17 18 18 19 19 20 20 21 21 22 22 23 23
REMARK SMILES IDX 24 24
REMARK H PARENT
REMARK Flexibility Score: inf
ROOT
ATOM      1  C   UNL     1     -27.750 -47.737  33.476  1.00  0.00     0.000 C 
ENDROOT
BRANCH   1   2
ATOM      2  C   UNL     1     -27.428 -46.309  33.000  1.00  0.00     0.000 C 
BRANCH   2   3
ATOM      3  C   UNL     1     -28.659 -45.431  32.709  1.00  0.00     0.000 C 
BRANCH   3   4
ATOM      4  C   UNL     1     -29.032 -44.511  33.881  1.00  0.00    -0.000 C 
BRANCH   4   5
ATOM      5  C   UNL     1     -30.512 -44.677  34.259  1.00  0.00    -0.000 C 
BRANCH   5   6
ATOM      6  C   UNL     1     -30.765 -45.889  35.173  1.00  0.00    -0.000 C 
BRANCH   6   7
ATOM      7  C   UNL     1     -31.478 -47.076  34.494  1.00  0.00    -0.000 C 
BRANCH   7   8
ATOM      8  C   UNL     1     -31.216 -48.450  35.143  1.00  0.00    -0.000 C 
BRANCH   8   9
ATOM      9  C   UNL     1     -30.892 -49.588  34.154  1.00  0.00    -0.000 C 
BRANCH   9  10
ATOM     10  C   UNL     1     -30.535 -50.935  34.809  1.00  0.00    -0.000 C 
BRANCH  10  11
ATOM     11  C   UNL     1     -30.492 -52.093  33.802  1.00  0.00    -0.003 C 
ATOM     12  C   UNL     1     -30.230 -53.422  34.506  1.00  0.00     0.004 C 
ENDBRANCH  10  11
ENDBRANCH   9  10
ENDBRANCH   8   9
ENDBRANCH   7   8
ENDBRANCH   6   7
ENDBRANCH   5   6
ENDBRANCH   4   5
ENDBRANCH   3   4
ENDBRANCH   2   3
ENDBRANCH   1   2
BRANCH   1  13
ATOM     13  C   UNL     1     -27.617 -47.904  35.001  1.00  0.00     0.000 C 
BRANCH  13  14
ATOM     14  C   UNL     1     -27.151 -49.312  35.406  1.00  0.00     0.000 C 
BRANCH  14  15
ATOM     15  C   UNL     1     -25.628 -49.485  35.280  1.00  0.00     0.000 C 
BRANCH  15  16
ATOM     16  C   UNL     1     -25.230 -50.820  34.624  1.00  0.00     0.000 C 
BRANCH  16  17
ATOM     17  C   UNL     1     -24.675 -50.704  33.190  1.00  0.00     0.000 C 
BRANCH  17  18
ATOM     18  C   UNL     1     -25.676 -51.055  32.071  1.00  0.00     0.000 C 
BRANCH  18  19
ATOM     19  C   UNL     1     -26.901 -51.873  32.524  1.00  0.00     0.000 C 
BRANCH  19  20
ATOM     20  C   UNL     1     -26.921 -53.334  32.039  1.00  0.00     0.006 C 
BRANCH  20  21
ATOM     21  C   UNL     1     -25.618 -53.748  31.344  1.00  0.00     0.053 C 
BRANCH  21  22
ATOM     22  C   UNL     1     -25.823 -53.842  29.865  1.00  0.00     0.041 C 
ATOM     23  O   UNL     1     -26.988 -53.850  29.386  1.00  0.00    -0.550 OA
ATOM     24  O   UNL     1     -24.727 -53.871  29.012  1.00  0.00    -0.550 OA
ENDBRANCH  21  22
ENDBRANCH  20  21
ENDBRANCH  19  20
ENDBRANCH  18  19
ENDBRANCH  17  18
ENDBRANCH  16  17
ENDBRANCH  15  16
ENDBRANCH  14  15
ENDBRANCH  13  14
ENDBRANCH   1  13
TORSDOF 20
ENDMDL
MODEL 9
REMARK VINA RESULT:    -4.009      9.060     12.135
REMARK INTER + INTRA:         -11.711
REMARK INTER:                  -8.244
REMARK INTRA:                  -3.467
REMARK UNBOUND:                -3.016
REMARK SMILES CCCCCCCCCCCCCCCCCCCCCC(=O)[O-]
REMARK SMILES IDX 12 1 11 2 10 3 9 4 8 5 7 6 6 7 5 8 4 9 3 10 2 11 1 12 13 13
REMARK SMILES IDX 14 14 15 15 16 16 17 17 18 18 19 19 20 20 21 21 22 22 23 23
REMARK SMILES IDX 24 24
REMARK H PARENT
REMARK Flexibility Score: inf
ROOT
ATOM      1  C   UNL     1     -29.381 -52.094  26.831  1.00  0.00     0.000 C 
ENDROOT
BRANCH   1   2
ATOM      2  C   UNL     1     -30.691 -51.928  26.039  1.00  0.00     0.000 C 
BRANCH   2   3
ATOM      3  C   UNL     1     -30.523 -51.335  24.628  1.00  0.00     0.000 C 
BRANCH   3   4
ATOM      4  C   UNL     1     -30.747 -52.366  23.512  1.00  0.00    -0.000 C 
BRANCH   4   5
ATOM      5  C   UNL     1     -29.483 -52.529  22.653  1.00  0.00    -0.000 C 
BRANCH   5   6
ATOM      6  C   UNL     1     -28.325 -53.202  23.413  1.00  0.00    -0.000 C 
BRANCH   6   7
ATOM      7  C   UNL     1     -26.987 -52.437  23.367  1.00  0.00    -0.000 C 
BRANCH   7   8
ATOM      8  C   UNL     1     -26.759 -51.455  24.533  1.00  0.00    -0.000 C 
BRANCH   8   9
ATOM      9  C   UNL     1     -25.770 -50.310  24.238  1.00  0.00    -0.000 C 
BRANCH   9  10
ATOM     10  C   UNL     1     -26.410 -48.915  24.108  1.00  0.00    -0.000 C 
BRANCH  10  11
ATOM     11  C   UNL     1     -26.997 -48.656  22.714  1.00  0.00    -0.003 C 
ATOM     12  C   UNL     1     -28.508 -48.871  22.706  1.00  0.00     0.004 C 
ENDBRANCH  10  11
ENDBRANCH   9  10
ENDBRANCH   8   9
ENDBRANCH   7   8
ENDBRANCH   6   7
ENDBRANCH   5   6
ENDBRANCH   4   5
ENDBRANCH   3   4
ENDBRANCH   2   3
ENDBRANCH   1   2
BRANCH   1  13
ATOM     13  C   UNL     1     -29.250 -53.482  27.485  1.00  0.00     0.000 C 
BRANCH  13  14
ATOM     14  C   UNL     1     -28.263 -54.397  26.742  1.00  0.00     0.000 C 
BRANCH  14  15
ATOM     15  C   UNL     1     -26.960 -54.616  27.528  1.00  0.00     0.000 C 
BRANCH  15  16
ATOM     16  C   UNL     1     -25.797 -53.750  27.012  1.00  0.00     0.000 C 
BRANCH  16  17
ATOM     17  C   UNL     1     -25.205 -52.767  28.042  1.00  0.00     0.000 C 
BRANCH  17  18
ATOM     18  C   UNL     1     -26.116 -51.578  28.410  1.00  0.00     0.000 C 
BRANCH  18  19
ATOM     19  C   UNL     1     -26.469 -51.465  29.906  1.00  0.00     0.000 C 
BRANCH  19  20
ATOM     20  C   UNL     1     -27.323 -52.620  30.460  1.00  0.00     0.006 C 
BRANCH  20  21
ATOM     21  C   UNL     1     -26.579 -53.463  31.505  1.00  0.00     0.053 C 
BRANCH  21  22
ATOM     22  C   UNL     1     -27.079 -53.148  32.879  1.00  0.00     0.041 C 
ATOM     23  O   UNL     1     -27.931 -53.892  33.430  1.00  0.00    -0.550 OA
ATOM     24  O   UNL     1     -26.566 -52.057  33.572  1.00  0.00    -0.550 OA
ENDBRANCH  21  22
ENDBRANCH  20  21
ENDBRANCH  19  20
ENDBRANCH  18  19
ENDBRANCH  17  18
ENDBRANCH  16  17
ENDBRANCH  15  16
ENDBRANCH  14  15
ENDBRANCH  13  14
ENDBRANCH   1  13
TORSDOF 20
ENDMDL
