MODEL 1
REMARK VINA RESULT:    -5.519      0.000      0.000
REMARK INTER + INTRA:         -13.704
REMARK INTER:                 -10.359
REMARK INTRA:                  -3.345
REMARK UNBOUND:                -3.345
REMARK SMILES CCCCCCCCC=CCCCCCCCC(=O)[O-]
REMARK SMILES IDX 10 1 9 2 11 3 12 4 13 5 14 6 15 7 16 8 17 9 18 10 19 11
REMARK SMILES IDX 20 12 8 13 7 14 6 15 5 16 4 17 3 18 2 19 1 20
REMARK H PARENT
REMARK Flexibility Score: inf
ROOT
ATOM      1  C   UNL     1     -11.570   2.389 -37.062  1.00  0.00    -0.031 C 
ATOM      2  C   UNL     1     -12.426   3.306 -37.552  1.00  0.00    -0.031 C 
ENDROOT
BRANCH   1   3
ATOM      3  C   UNL     1     -11.777   0.895 -37.094  1.00  0.00     0.027 C 
BRANCH   3   4
ATOM      4  C   UNL     1     -12.400   0.330 -35.806  1.00  0.00     0.004 C 
BRANCH   4   5
ATOM      5  C   UNL     1     -12.027   1.125 -34.537  1.00  0.00     0.000 C 
BRANCH   5   6
ATOM      6  C   UNL     1     -13.265   1.623 -33.771  1.00  0.00     0.000 C 
BRANCH   6   7
ATOM      7  C   UNL     1     -13.109   3.065 -33.253  1.00  0.00     0.000 C 
BRANCH   7   8
ATOM      8  C   UNL     1     -13.675   4.155 -34.181  1.00  0.00     0.006 C 
BRANCH   8   9
ATOM      9  C   UNL     1     -14.603   5.137 -33.453  1.00  0.00     0.053 C 
BRANCH   9  10
ATOM     10  C   UNL     1     -15.361   5.968 -34.439  1.00  0.00     0.041 C 
ATOM     11  O   UNL     1     -16.616   6.042 -34.374  1.00  0.00    -0.550 OA
ATOM     12  O   UNL     1     -14.685   6.624 -35.460  1.00  0.00    -0.550 OA
ENDBRANCH   9  10
ENDBRANCH   8   9
ENDBRANCH   7   8
ENDBRANCH   6   7
ENDBRANCH   5   6
ENDBRANCH   4   5
ENDBRANCH   3   4
ENDBRANCH   1   3
BRANCH   2  13
ATOM     13  C   UNL     1     -13.724   3.004 -38.262  1.00  0.00     0.027 C 
BRANCH  13  14
ATOM     14  C   UNL     1     -14.841   3.991 -37.878  1.00  0.00     0.004 C 
BRANCH  14  15
ATOM     15  C   UNL     1     -15.957   3.399 -36.999  1.00  0.00     0.000 C 
BRANCH  15  16
ATOM     16  C   UNL     1     -15.715   1.926 -36.635  1.00  0.00     0.000 C 
BRANCH  16  17
ATOM     17  C   UNL     1     -16.446   1.555 -35.336  1.00  0.00    -0.000 C 
BRANCH  17  18
ATOM     18  C   UNL     1     -17.470   2.619 -34.900  1.00  0.00    -0.000 C 
BRANCH  18  19
ATOM     19  C   UNL     1     -17.581   2.822 -33.379  1.00  0.00    -0.003 C 
ATOM     20  C   UNL     1     -16.627   1.930 -32.585  1.00  0.00     0.004 C 
ENDBRANCH  18  19
ENDBRANCH  17  18
ENDBRANCH  16  17
ENDBRANCH  15  16
ENDBRANCH  14  15
ENDBRANCH  13  14
ENDBRANCH   2  13
TORSDOF 15
ENDMDL
MODEL 2
REMARK VINA RESULT:    -5.514      1.736      4.058
REMARK INTER + INTRA:         -13.694
REMARK INTER:                 -10.783
REMARK INTRA:                  -2.911
REMARK UNBOUND:                -3.345
REMARK SMILES CCCCCCCCC=CCCCCCCCC(=O)[O-]
REMARK SMILES IDX 10 1 9 2 11 3 12 4 13 5 14 6 15 7 16 8 17 9 18 10 19 11
REMARK SMILES IDX 20 12 8 13 7 14 6 15 5 16 4 17 3 18 2 19 1 20
REMARK H PARENT
REMARK Flexibility Score: inf
ROOT
ATOM      1  C   UNL     1     -16.820   2.751 -35.731  1.00  0.00    -0.031 C 
ATOM      2  C   UNL     1     -16.165   3.078 -36.861  1.00  0.00    -0.031 C 
ENDROOT
BRANCH   1   3
ATOM      3  C   UNL     1     -16.891   1.370 -35.129  1.00  0.00     0.027 C 
BRANCH   3   4
ATOM      4  C   UNL     1     -16.967   1.369 -33.592  1.00  0.00     0.004 C 
BRANCH   4   5
ATOM      5  C   UNL     1     -16.397   2.648 -32.943  1.00  0.00     0.000 C 
BRANCH   5   6
ATOM      6  C   UNL     1     -14.908   2.509 -32.582  1.00  0.00     0.000 C 
BRANCH   6   7
ATOM      7  C   UNL     1     -14.010   3.495 -33.352  1.00  0.00     0.000 C 
BRANCH   7   8
ATOM      8  C   UNL     1     -14.676   4.834 -33.715  1.00  0.00     0.006 C 
BRANCH   8   9
ATOM      9  C   UNL     1     -13.679   6.000 -33.779  1.00  0.00     0.053 C 
BRANCH   9  10
ATOM     10  C   UNL     1     -12.869   6.065 -32.524  1.00  0.00     0.041 C 
ATOM     11  O   UNL     1     -13.396   6.457 -31.449  1.00  0.00    -0.550 OA
ATOM     12  O   UNL     1     -11.519   5.739 -32.549  1.00  0.00    -0.550 OA
ENDBRANCH   9  10
ENDBRANCH   8   9
ENDBRANCH   7   8
ENDBRANCH   6   7
ENDBRANCH   5   6
ENDBRANCH   4   5
ENDBRANCH   3   4
ENDBRANCH   1   3
BRANCH   2  13
ATOM     13  C   UNL     1     -15.344   2.132 -37.704  1.00  0.00     0.027 C 
BRANCH  13  14
ATOM     14  C   UNL     1     -14.106   2.817 -38.310  1.00  0.00     0.004 C 
BRANCH  14  15
ATOM     15  C   UNL     1     -13.615   4.062 -37.547  1.00  0.00     0.000 C 
BRANCH  15  16
ATOM     16  C   UNL     1     -12.489   3.749 -36.550  1.00  0.00     0.000 C 
BRANCH  16  17
ATOM     17  C   UNL     1     -11.720   2.488 -36.971  1.00  0.00    -0.000 C 
BRANCH  17  18
ATOM     18  C   UNL     1     -11.581   1.462 -35.831  1.00  0.00    -0.000 C 
BRANCH  18  19
ATOM     19  C   UNL     1     -12.495   0.231 -35.956  1.00  0.00    -0.003 C 
ATOM     20  C   UNL     1     -13.354  -0.006 -34.715  1.00  0.00     0.004 C 
ENDBRANCH  18  19
ENDBRANCH  17  18
ENDBRANCH  16  17
ENDBRANCH  15  16
ENDBRANCH  14  15
ENDBRANCH  13  14
ENDBRANCH   2  13
TORSDOF 15
ENDMDL
MODEL 3
REMARK VINA RESULT:    -5.438      1.816      4.235
REMARK INTER + INTRA:         -13.552
REMARK INTER:                 -10.822
REMARK INTRA:                  -2.730
REMARK UNBOUND:                -3.345
REMARK SMILES CCCCCCCCC=CCCCCCCCC(=O)[O-]
REMARK SMILES IDX 10 1 9 2 11 3 12 4 13 5 14 6 15 7 16 8 17 9 18 10 19 11
REMARK SMILES IDX 20 12 8 13 7 14 6 15 5 16 4 17 3 18 2 19 1 20
REMARK H PARENT
REMARK Flexibility Score: inf
ROOT
ATOM      1  C   UNL     1     -13.760   0.752 -34.371  1.00  0.00    -0.031 C 
ATOM      2  C   UNL     1     -12.524   0.746 -34.904  1.00  0.00    -0.031 C 
ENDROOT
BRANCH   1   3
ATOM      3  C   UNL     1     -15.015   0.283 -35.065  1.00  0.00     0.027 C 
BRANCH   3   4
ATOM      4  C   UNL     1     -16.311   0.790 -34.408  1.00  0.00     0.004 C 
BRANCH   4   5
ATOM      5  C   UNL     1     -16.882   2.064 -35.067  1.00  0.00     0.000 C 
BRANCH   5   6
ATOM      6  C   UNL     1     -17.060   3.215 -34.062  1.00  0.00     0.000 C 
BRANCH   6   7
ATOM      7  C   UNL     1     -15.790   3.493 -33.238  1.00  0.00     0.000 C 
BRANCH   7   8
ATOM      8  C   UNL     1     -14.787   4.459 -33.893  1.00  0.00     0.006 C 
BRANCH   8   9
ATOM      9  C   UNL     1     -13.340   4.218 -33.441  1.00  0.00     0.053 C 
BRANCH   9  10
ATOM     10  C   UNL     1     -12.834   5.390 -32.662  1.00  0.00     0.041 C 
ATOM     11  O   UNL     1     -11.599   5.636 -32.619  1.00  0.00    -0.550 OA
ATOM     12  O   UNL     1     -13.719   6.184 -31.944  1.00  0.00    -0.550 OA
ENDBRANCH   9  10
ENDBRANCH   8   9
ENDBRANCH   7   8
ENDBRANCH   6   7
ENDBRANCH   5   6
ENDBRANCH   4   5
ENDBRANCH   3   4
ENDBRANCH   1   3
BRANCH   2  13
ATOM     13  C   UNL     1     -12.163   0.225 -36.275  1.00  0.00     0.027 C 
BRANCH  13  14
ATOM     14  C   UNL     1     -11.451   1.288 -37.133  1.00  0.00     0.004 C 
BRANCH  14  15
ATOM     15  C   UNL     1     -11.718   2.745 -36.714  1.00  0.00     0.000 C 
BRANCH  15  16
ATOM     16  C   UNL     1     -12.673   3.478 -37.668  1.00  0.00     0.000 C 
BRANCH  16  17
ATOM     17  C   UNL     1     -14.135   3.255 -37.258  1.00  0.00    -0.000 C 
BRANCH  17  18
ATOM     18  C   UNL     1     -14.898   2.336 -38.230  1.00  0.00    -0.000 C 
BRANCH  18  19
ATOM     19  C   UNL     1     -16.032   3.022 -39.011  1.00  0.00    -0.003 C 
ATOM     20  C   UNL     1     -15.833   2.970 -40.525  1.00  0.00     0.004 C 
ENDBRANCH  18  19
ENDBRANCH  17  18
ENDBRANCH  16  17
ENDBRANCH  15  16
ENDBRANCH  14  15
ENDBRANCH  13  14
ENDBRANCH   2  13
TORSDOF 15
ENDMDL
MODEL 4
REMARK VINA RESULT:    -5.409      1.696      4.509
REMARK INTER + INTRA:         -13.497
REMARK INTER:                 -10.919
REMARK INTRA:                  -2.578
REMARK UNBOUND:                -3.345
REMARK SMILES CCCCCCCCC=CCCCCCCCC(=O)[O-]
REMARK SMILES IDX 10 1 9 2 11 3 12 4 13 5 14 6 15 7 16 8 17 9 18 10 19 11
REMARK SMILES IDX 20 12 8 13 7 14 6 15 5 16 4 17 3 18 2 19 1 20
REMARK H PARENT
REMARK Flexibility Score: inf
ROOT
ATOM      1  C   UNL     1     -11.385   2.147 -36.992  1.00  0.00    -0.031 C 
ATOM      2  C   UNL     1     -11.492   1.000 -36.294  1.00  0.00    -0.031 C 
ENDROOT
BRANCH   1   3
ATOM      3  C   UNL     1     -12.500   2.808 -37.763  1.00  0.00     0.027 C 
BRANCH   3   4
ATOM      4  C   UNL     1     -12.799   4.246 -37.305  1.00  0.00     0.004 C 
BRANCH   4   5
ATOM      5  C   UNL     1     -14.279   4.653 -37.466  1.00  0.00     0.000 C 
BRANCH   5   6
ATOM      6  C   UNL     1     -15.048   3.709 -38.407  1.00  0.00     0.000 C 
BRANCH   6   7
ATOM      7  C   UNL     1     -16.288   3.082 -37.745  1.00  0.00     0.000 C 
BRANCH   7   8
ATOM      8  C   UNL     1     -16.379   3.273 -36.221  1.00  0.00     0.006 C 
BRANCH   8   9
ATOM      9  C   UNL     1     -16.660   1.965 -35.469  1.00  0.00     0.053 C 
BRANCH   9  10
ATOM     10  C   UNL     1     -17.176   2.251 -34.096  1.00  0.00     0.041 C 
ATOM     11  O   UNL     1     -17.608   3.399 -33.807  1.00  0.00    -0.550 OA
ATOM     12  O   UNL     1     -17.138   1.265 -33.118  1.00  0.00    -0.550 OA
ENDBRANCH   9  10
ENDBRANCH   8   9
ENDBRANCH   7   8
ENDBRANCH   6   7
ENDBRANCH   5   6
ENDBRANCH   4   5
ENDBRANCH   3   4
ENDBRANCH   1   3
BRANCH   2  13
ATOM     13  C   UNL     1     -12.758   0.194 -36.119  1.00  0.00     0.027 C 
BRANCH  13  14
ATOM     14  C   UNL     1     -13.383   0.388 -34.725  1.00  0.00     0.004 C 
BRANCH  14  15
ATOM     15  C   UNL     1     -12.683   1.436 -33.840  1.00  0.00     0.000 C 
BRANCH  15  16
ATOM     16  C   UNL     1     -13.669   2.280 -33.018  1.00  0.00     0.000 C 
BRANCH  16  17
ATOM     17  C   UNL     1     -13.693   3.733 -33.515  1.00  0.00    -0.000 C 
BRANCH  17  18
ATOM     18  C   UNL     1     -12.286   4.342 -33.657  1.00  0.00    -0.000 C 
BRANCH  18  19
ATOM     19  C   UNL     1     -12.004   5.537 -32.730  1.00  0.00    -0.003 C 
ATOM     20  C   UNL     1     -13.218   5.950 -31.900  1.00  0.00     0.004 C 
ENDBRANCH  18  19
ENDBRANCH  17  18
ENDBRANCH  16  17
ENDBRANCH  15  16
ENDBRANCH  14  15
ENDBRANCH  13  14
ENDBRANCH   2  13
TORSDOF 15
ENDMDL
MODEL 5
REMARK VINA RESULT:    -5.390      1.293      3.756
REMARK INTER + INTRA:         -13.462
REMARK INTER:                 -10.656
REMARK INTRA:                  -2.806
REMARK UNBOUND:                -3.345
REMARK SMILES CCCCCCCCC=CCCCCCCCC(=O)[O-]
REMARK SMILES IDX 10 1 9 2 11 3 12 4 13 5 14 6 15 7 16 8 17 9 18 10 19 11
REMARK SMILES IDX 20 12 8 13 7 14 6 15 5 16 4 17 3 18 2 19 1 20
REMARK H PARENT
REMARK Flexibility Score: inf
ROOT
ATOM      1  C   UNL     1     -14.229   2.590 -37.222  1.00  0.00    -0.031 C 
ATOM      2  C   UNL     1     -12.897   2.417 -37.308  1.00  0.00    -0.031 C 
ENDROOT
BRANCH   1   3
ATOM      3  C   UNL     1     -15.260   1.490 -37.283  1.00  0.00     0.027 C 
BRANCH   3   4
ATOM      4  C   UNL     1     -15.709   0.988 -35.899  1.00  0.00     0.004 C 
BRANCH   4   5
ATOM      5  C   UNL     1     -17.075   1.548 -35.450  1.00  0.00     0.000 C 
BRANCH   5   6
ATOM      6  C   UNL     1     -17.018   2.179 -34.048  1.00  0.00     0.000 C 
BRANCH   6   7
ATOM      7  C   UNL     1     -17.197   3.708 -34.070  1.00  0.00     0.000 C 
BRANCH   7   8
ATOM      8  C   UNL     1     -16.218   4.465 -34.985  1.00  0.00     0.006 C 
BRANCH   8   9
ATOM      9  C   UNL     1     -15.890   5.874 -34.474  1.00  0.00     0.053 C 
BRANCH   9  10
ATOM     10  C   UNL     1     -14.745   6.455 -35.240  1.00  0.00     0.041 C 
ATOM     11  O   UNL     1     -14.067   7.397 -34.751  1.00  0.00    -0.550 OA
ATOM     12  O   UNL     1     -14.454   5.989 -36.516  1.00  0.00    -0.550 OA
ENDBRANCH   9  10
ENDBRANCH   8   9
ENDBRANCH   7   8
ENDBRANCH   6   7
ENDBRANCH   5   6
ENDBRANCH   4   5
ENDBRANCH   3   4
ENDBRANCH   1   3
BRANCH   2  13
ATOM     13  C   UNL     1     -12.191   1.088 -37.433  1.00  0.00     0.027 C 
BRANCH  13  14
ATOM     14  C   UNL     1     -11.814   0.497 -36.062  1.00  0.00     0.004 C 
BRANCH  14  15
ATOM     15  C   UNL     1     -11.847   1.499 -34.893  1.00  0.00     0.000 C 
BRANCH  15  16
ATOM     16  C   UNL     1     -12.732   1.031 -33.728  1.00  0.00     0.000 C 
BRANCH  16  17
ATOM     17  C   UNL     1     -13.598   2.185 -33.200  1.00  0.00    -0.000 C 
BRANCH  17  18
ATOM     18  C   UNL     1     -13.032   3.571 -33.558  1.00  0.00    -0.000 C 
BRANCH  18  19
ATOM     19  C   UNL     1     -13.094   4.606 -32.421  1.00  0.00    -0.003 C 
ATOM     20  C   UNL     1     -12.035   5.701 -32.550  1.00  0.00     0.004 C 
ENDBRANCH  18  19
ENDBRANCH  17  18
ENDBRANCH  16  17
ENDBRANCH  15  16
ENDBRANCH  14  15
ENDBRANCH  13  14
ENDBRANCH   2  13
TORSDOF 15
ENDMDL
MODEL 6
REMARK VINA RESULT:    -5.384      1.767      3.105
REMARK INTER + INTRA:         -13.450
REMARK INTER:                 -10.548
REMARK INTRA:                  -2.903
REMARK UNBOUND:                -3.345
REMARK SMILES CCCCCCCCC=CCCCCCCCC(=O)[O-]
REMARK SMILES IDX 10 1 9 2 11 3 12 4 13 5 14 6 15 7 16 8 17 9 18 10 19 11
REMARK SMILES IDX 20 12 8 13 7 14 6 15 5 16 4 17 3 18 2 19 1 20
REMARK H PARENT
REMARK Flexibility Score: inf
ROOT
ATOM      1  C   UNL     1     -12.484   3.378 -37.693  1.00  0.00    -0.031 C 
ATOM      2  C   UNL     1     -11.606   2.556 -37.088  1.00  0.00    -0.031 C 
ENDROOT
BRANCH   1   3
ATOM      3  C   UNL     1     -13.909   3.030 -38.045  1.00  0.00     0.027 C 
BRANCH   3   4
ATOM      4  C   UNL     1     -14.948   3.980 -37.422  1.00  0.00     0.004 C 
BRANCH   4   5
ATOM      5  C   UNL     1     -14.329   5.078 -36.533  1.00  0.00     0.000 C 
BRANCH   5   6
ATOM      6  C   UNL     1     -14.818   4.999 -35.077  1.00  0.00     0.000 C 
BRANCH   6   7
ATOM      7  C   UNL     1     -13.972   4.047 -34.211  1.00  0.00     0.000 C 
BRANCH   7   8
ATOM      8  C   UNL     1     -12.698   4.670 -33.613  1.00  0.00     0.006 C 
BRANCH   8   9
ATOM      9  C   UNL     1     -12.811   4.929 -32.104  1.00  0.00     0.053 C 
BRANCH   9  10
ATOM     10  C   UNL     1     -12.993   6.389 -31.837  1.00  0.00     0.041 C 
ATOM     11  O   UNL     1     -13.225   6.796 -30.668  1.00  0.00    -0.550 OA
ATOM     12  O   UNL     1     -12.955   7.299 -32.887  1.00  0.00    -0.550 OA
ENDBRANCH   9  10
ENDBRANCH   8   9
ENDBRANCH   7   8
ENDBRANCH   6   7
ENDBRANCH   5   6
ENDBRANCH   4   5
ENDBRANCH   3   4
ENDBRANCH   1   3
BRANCH   2  13
ATOM     13  C   UNL     1     -11.903   1.155 -36.609  1.00  0.00     0.027 C 
BRANCH  13  14
ATOM     14  C   UNL     1     -12.258   1.115 -35.111  1.00  0.00     0.004 C 
BRANCH  14  15
ATOM     15  C   UNL     1     -13.524   0.309 -34.766  1.00  0.00     0.000 C 
BRANCH  15  16
ATOM     16  C   UNL     1     -14.737   0.703 -35.621  1.00  0.00     0.000 C 
BRANCH  16  17
ATOM     17  C   UNL     1     -16.037   0.600 -34.809  1.00  0.00    -0.000 C 
BRANCH  17  18
ATOM     18  C   UNL     1     -16.936   1.841 -34.956  1.00  0.00    -0.000 C 
BRANCH  18  19
ATOM     19  C   UNL     1     -17.432   2.439 -33.628  1.00  0.00    -0.003 C 
ATOM     20  C   UNL     1     -16.476   2.186 -32.463  1.00  0.00     0.004 C 
ENDBRANCH  18  19
ENDBRANCH  17  18
ENDBRANCH  16  17
ENDBRANCH  15  16
ENDBRANCH  14  15
ENDBRANCH  13  14
ENDBRANCH   2  13
TORSDOF 15
ENDMDL
MODEL 7
REMARK VINA RESULT:    -5.381      2.182      4.153
REMARK INTER + INTRA:         -13.444
REMARK INTER:                 -10.728
REMARK INTRA:                  -2.716
REMARK UNBOUND:                -3.345
REMARK SMILES CCCCCCCCC=CCCCCCCCC(=O)[O-]
REMARK SMILES IDX 10 1 9 2 11 3 12 4 13 5 14 6 15 7 16 8 17 9 18 10 19 11
REMARK SMILES IDX 20 12 8 13 7 14 6 15 5 16 4 17 3 18 2 19 1 20
REMARK H PARENT
REMARK Flexibility Score: inf
ROOT
ATOM      1  C   UNL     1     -13.217   1.661 -33.512  1.00  0.00    -0.031 C 
ATOM      2  C   UNL     1     -13.844   2.653 -32.852  1.00  0.00    -0.031 C 
ENDROOT
BRANCH   1   3
ATOM      3  C   UNL     1     -12.110   1.844 -34.521  1.00  0.00     0.027 C 
BRANCH   3   4
ATOM      4  C   UNL     1     -12.003   0.693 -35.535  1.00  0.00     0.004 C 
BRANCH   4   5
ATOM      5  C   UNL     1     -11.962   1.163 -37.005  1.00  0.00     0.000 C 
BRANCH   5   6
ATOM      6  C   UNL     1     -13.344   1.598 -37.521  1.00  0.00     0.000 C 
BRANCH   6   7
ATOM      7  C   UNL     1     -13.489   3.127 -37.630  1.00  0.00     0.000 C 
BRANCH   7   8
ATOM      8  C   UNL     1     -14.938   3.639 -37.706  1.00  0.00     0.006 C 
BRANCH   8   9
ATOM      9  C   UNL     1     -15.767   2.931 -38.786  1.00  0.00     0.053 C 
BRANCH   9  10
ATOM     10  C   UNL     1     -15.793   3.743 -40.042  1.00  0.00     0.041 C 
ATOM     11  O   UNL     1     -15.787   5.001 -39.983  1.00  0.00    -0.550 OA
ATOM     12  O   UNL     1     -15.872   3.112 -41.277  1.00  0.00    -0.550 OA
ENDBRANCH   9  10
ENDBRANCH   8   9
ENDBRANCH   7   8
ENDBRANCH   6   7
ENDBRANCH   5   6
ENDBRANCH   4   5
ENDBRANCH   3   4
ENDBRANCH   1   3
BRANCH   2  13
ATOM     13  C   UNL     1     -13.523   4.124 -32.968  1.00  0.00     0.027 C 
BRANCH  13  14
ATOM     14  C   UNL     1     -14.144   4.759 -34.226  1.00  0.00     0.004 C 
BRANCH  14  15
ATOM     15  C   UNL     1     -15.600   5.233 -34.062  1.00  0.00     0.000 C 
BRANCH  15  16
ATOM     16  C   UNL     1     -16.620   4.259 -34.672  1.00  0.00     0.000 C 
BRANCH  16  17
ATOM     17  C   UNL     1     -17.355   3.477 -33.575  1.00  0.00    -0.000 C 
BRANCH  17  18
ATOM     18  C   UNL     1     -17.384   1.960 -33.837  1.00  0.00    -0.000 C 
BRANCH  18  19
ATOM     19  C   UNL     1     -16.983   1.543 -35.263  1.00  0.00    -0.003 C 
ATOM     20  C   UNL     1     -16.016   0.360 -35.291  1.00  0.00     0.004 C 
ENDBRANCH  18  19
ENDBRANCH  17  18
ENDBRANCH  16  17
ENDBRANCH  15  16
ENDBRANCH  14  15
ENDBRANCH  13  14
ENDBRANCH   2  13
TORSDOF 15
ENDMDL
MODEL 8
REMARK VINA RESULT:    -5.345      2.190      4.285
REMARK INTER + INTRA:         -13.376
REMARK INTER:                 -10.615
REMARK INTRA:                  -2.762
REMARK UNBOUND:                -3.345
REMARK SMILES CCCCCCCCC=CCCCCCCCC(=O)[O-]
REMARK SMILES IDX 10 1 9 2 11 3 12 4 13 5 14 6 15 7 16 8 17 9 18 10 19 11
REMARK SMILES IDX 20 12 8 13 7 14 6 15 5 16 4 17 3 18 2 19 1 20
REMARK H PARENT
REMARK Flexibility Score: inf
ROOT
ATOM      1  C   UNL     1     -13.057   0.510 -34.815  1.00  0.00    -0.031 C 
ATOM      2  C   UNL     1     -14.354   0.761 -34.554  1.00  0.00    -0.031 C 
ENDROOT
BRANCH   1   3
ATOM      3  C   UNL     1     -12.489   0.158 -36.167  1.00  0.00     0.027 C 
BRANCH   3   4
ATOM      4  C   UNL     1     -11.379   1.113 -36.638  1.00  0.00     0.004 C 
BRANCH   4   5
ATOM      5  C   UNL     1     -11.682   2.601 -36.362  1.00  0.00     0.000 C 
BRANCH   5   6
ATOM      6  C   UNL     1     -12.202   3.335 -37.610  1.00  0.00     0.000 C 
BRANCH   6   7
ATOM      7  C   UNL     1     -13.728   3.539 -37.594  1.00  0.00     0.000 C 
BRANCH   7   8
ATOM      8  C   UNL     1     -14.528   2.534 -38.441  1.00  0.00     0.006 C 
BRANCH   8   9
ATOM      9  C   UNL     1     -15.909   3.064 -38.851  1.00  0.00     0.053 C 
BRANCH   9  10
ATOM     10  C   UNL     1     -15.802   3.907 -40.081  1.00  0.00     0.041 C 
ATOM     11  O   UNL     1     -15.752   3.367 -41.218  1.00  0.00    -0.550 OA
ATOM     12  O   UNL     1     -15.710   5.289 -39.971  1.00  0.00    -0.550 OA
ENDBRANCH   9  10
ENDBRANCH   8   9
ENDBRANCH   7   8
ENDBRANCH   6   7
ENDBRANCH   5   6
ENDBRANCH   4   5
ENDBRANCH   3   4
ENDBRANCH   1   3
BRANCH   2  13
ATOM     13  C   UNL     1     -15.467   0.782 -35.575  1.00  0.00     0.027 C 
BRANCH  13  14
ATOM     14  C   UNL     1     -16.724   1.500 -35.051  1.00  0.00     0.004 C 
BRANCH  14  15
ATOM     15  C   UNL     1     -16.752   3.020 -35.296  1.00  0.00     0.000 C 
BRANCH  15  16
ATOM     16  C   UNL     1     -16.652   3.838 -33.999  1.00  0.00     0.000 C 
BRANCH  16  17
ATOM     17  C   UNL     1     -15.593   4.942 -34.128  1.00  0.00    -0.000 C 
BRANCH  17  18
ATOM     18  C   UNL     1     -14.157   4.391 -34.196  1.00  0.00    -0.000 C 
BRANCH  18  19
ATOM     19  C   UNL     1     -13.568   3.956 -32.842  1.00  0.00    -0.003 C 
ATOM     20  C   UNL     1     -12.915   5.106 -32.076  1.00  0.00     0.004 C 
ENDBRANCH  18  19
ENDBRANCH  17  18
ENDBRANCH  16  17
ENDBRANCH  15  16
ENDBRANCH  14  15
ENDBRANCH  13  14
ENDBRANCH   2  13
TORSDOF 15
ENDMDL
MODEL 9
REMARK VINA RESULT:    -5.325      2.128      4.980
REMARK INTER + INTRA:         -13.340
REMARK INTER:                 -10.772
REMARK INTRA:                  -2.568
REMARK UNBOUND:                -3.345
REMARK SMILES CCCCCCCCC=CCCCCCCCC(=O)[O-]
REMARK SMILES IDX 10 1 9 2 11 3 12 4 13 5 14 6 15 7 16 8 17 9 18 10 19 11
REMARK SMILES IDX 20 12 8 13 7 14 6 15 5 16 4 17 3 18 2 19 1 20
REMARK H PARENT
REMARK Flexibility Score: inf
ROOT
ATOM      1  C   UNL     1     -13.743   3.030 -32.638  1.00  0.00    -0.031 C 
ATOM      2  C   UNL     1     -13.426   1.944 -33.367  1.00  0.00    -0.031 C 
ENDROOT
BRANCH   1   3
ATOM      3  C   UNL     1     -13.003   4.344 -32.658  1.00  0.00     0.027 C 
BRANCH   3   4
ATOM      4  C   UNL     1     -13.885   5.544 -33.042  1.00  0.00     0.004 C 
BRANCH   4   5
ATOM      5  C   UNL     1     -14.018   5.753 -34.566  1.00  0.00     0.000 C 
BRANCH   5   6
ATOM      6  C   UNL     1     -15.153   4.913 -35.176  1.00  0.00     0.000 C 
BRANCH   6   7
ATOM      7  C   UNL     1     -16.464   5.002 -34.373  1.00  0.00     0.000 C 
BRANCH   7   8
ATOM      8  C   UNL     1     -17.148   3.652 -34.092  1.00  0.00     0.006 C 
BRANCH   8   9
ATOM      9  C   UNL     1     -16.997   2.653 -35.247  1.00  0.00     0.053 C 
BRANCH   9  10
ATOM     10  C   UNL     1     -16.708   1.284 -34.720  1.00  0.00     0.041 C 
ATOM     11  O   UNL     1     -16.869   1.028 -33.497  1.00  0.00    -0.550 OA
ATOM     12  O   UNL     1     -16.214   0.302 -35.569  1.00  0.00    -0.550 OA
ENDBRANCH   9  10
ENDBRANCH   8   9
ENDBRANCH   7   8
ENDBRANCH   6   7
ENDBRANCH   5   6
ENDBRANCH   4   5
ENDBRANCH   3   4
ENDBRANCH   1   3
BRANCH   2  13
ATOM     13  C   UNL     1     -12.302   1.858 -34.372  1.00  0.00     0.027 C 
BRANCH  13  14
ATOM     14  C   UNL     1     -12.513   0.721 -35.387  1.00  0.00     0.004 C 
BRANCH  14  15
ATOM     15  C   UNL     1     -12.269   1.109 -36.857  1.00  0.00     0.000 C 
BRANCH  15  16
ATOM     16  C   UNL     1     -11.890   2.587 -37.031  1.00  0.00     0.000 C 
BRANCH  16  17
ATOM     17  C   UNL     1     -12.994   3.351 -37.776  1.00  0.00    -0.000 C 
BRANCH  17  18
ATOM     18  C   UNL     1     -14.279   2.522 -37.959  1.00  0.00    -0.000 C 
BRANCH  18  19
ATOM     19  C   UNL     1     -15.441   3.272 -38.634  1.00  0.00    -0.003 C 
ATOM     20  C   UNL     1     -15.881   2.633 -39.950  1.00  0.00     0.004 C 
ENDBRANCH  18  19
ENDBRANCH  17  18
ENDBRANCH  16  17
ENDBRANCH  15  16
ENDBRANCH  14  15
ENDBRANCH  13  14
ENDBRANCH   2  13
TORSDOF 15
ENDMDL
