MODEL 1
REMARK VINA RESULT:    -5.370      0.000      0.000
REMARK INTER + INTRA:          -6.289
REMARK INTER:                  -6.155
REMARK INTRA:                  -0.134
REMARK UNBOUND:                -0.134
REMARK SMILES O=C([O-])C=Cc1ccc(O)cc1
REMARK SMILES IDX 6 1 7 2 12 3 8 4 11 5 9 6 5 7 4 8 2 9 1 10 3 11 10 12
REMARK H PARENT 10 13
REMARK Flexibility Score: inf
ROOT
ATOM      1  C   UNL     1      28.128 -14.932  18.913  1.00  0.00    -0.025 A 
ATOM      2  C   UNL     1      27.040 -15.221  19.755  1.00  0.00     0.012 A 
ATOM      3  C   UNL     1      29.436 -15.138  19.399  1.00  0.00     0.012 A 
ATOM      4  C   UNL     1      27.251 -15.680  21.058  1.00  0.00     0.047 A 
ATOM      5  C   UNL     1      29.642 -15.597  20.704  1.00  0.00     0.047 A 
ATOM      6  C   UNL     1      28.554 -15.868  21.537  1.00  0.00     0.115 A 
ENDROOT
BRANCH   1   7
ATOM      7  C   UNL     1      27.853 -14.456  17.535  1.00  0.00     0.010 C 
ATOM      8  C   UNL     1      27.592 -15.272  16.503  1.00  0.00     0.025 C 
BRANCH   8   9
ATOM      9  C   UNL     1      27.334 -14.764  15.145  1.00  0.00     0.064 C 
ATOM     10  O   UNL     1      26.159 -14.540  14.745  1.00  0.00    -0.545 OA
ATOM     11  O   UNL     1      28.402 -14.527  14.290  1.00  0.00    -0.545 OA
ENDBRANCH   8   9
ENDBRANCH   1   7
BRANCH   6  12
ATOM     12  O   UNL     1      28.776 -16.324  22.834  1.00  0.00    -0.508 OA
ATOM     13  H   UNL     1      29.416 -17.087  23.024  1.00  0.00     0.293 HD
ENDBRANCH   6  12
TORSDOF 3
ENDMDL
MODEL 2
REMARK VINA RESULT:    -5.360      0.164      1.403
REMARK INTER + INTRA:          -6.278
REMARK INTER:                  -6.144
REMARK INTRA:                  -0.135
REMARK UNBOUND:                -0.134
REMARK SMILES O=C([O-])C=Cc1ccc(O)cc1
REMARK SMILES IDX 6 1 7 2 12 3 8 4 11 5 9 6 5 7 4 8 2 9 1 10 3 11 10 12
REMARK H PARENT 10 13
REMARK Flexibility Score: inf
ROOT
ATOM      1  C   UNL     1      27.897 -14.995  18.931  1.00  0.00    -0.025 A 
ATOM      2  C   UNL     1      29.248 -15.090  19.305  1.00  0.00     0.012 A 
ATOM      3  C   UNL     1      26.906 -15.324  19.878  1.00  0.00     0.012 A 
ATOM      4  C   UNL     1      29.604 -15.527  20.584  1.00  0.00     0.047 A 
ATOM      5  C   UNL     1      27.266 -15.760  21.157  1.00  0.00     0.047 A 
ATOM      6  C   UNL     1      28.612 -15.866  21.514  1.00  0.00     0.115 A 
ENDROOT
BRANCH   1   7
ATOM      7  C   UNL     1      27.570 -14.516  17.565  1.00  0.00     0.010 C 
ATOM      8  C   UNL     1      27.658 -15.281  16.466  1.00  0.00     0.025 C 
BRANCH   8   9
ATOM      9  C   UNL     1      27.335 -14.768  15.124  1.00  0.00     0.064 C 
ATOM     10  O   UNL     1      26.143 -14.545  14.780  1.00  0.00    -0.545 OA
ATOM     11  O   UNL     1      28.361 -14.525  14.222  1.00  0.00    -0.545 OA
ENDBRANCH   8   9
ENDBRANCH   1   7
BRANCH   6  12
ATOM     12  O   UNL     1      28.954 -16.303  22.791  1.00  0.00    -0.508 OA
ATOM     13  H   UNL     1      28.334 -16.165  23.581  1.00  0.00     0.293 HD
ENDBRANCH   6  12
TORSDOF 3
ENDMDL
MODEL 3
REMARK VINA RESULT:    -5.113      2.003      5.641
REMARK INTER + INTRA:          -5.995
REMARK INTER:                  -5.846
REMARK INTRA:                  -0.149
REMARK UNBOUND:                -0.134
REMARK SMILES O=C([O-])C=Cc1ccc(O)cc1
REMARK SMILES IDX 6 1 7 2 12 3 8 4 11 5 9 6 5 7 4 8 2 9 1 10 3 11 10 12
REMARK H PARENT 10 13
REMARK Flexibility Score: inf
ROOT
ATOM      1  C   UNL     1      26.986 -14.998  17.324  1.00  0.00    -0.025 A 
ATOM      2  C   UNL     1      25.727 -15.407  17.794  1.00  0.00     0.012 A 
ATOM      3  C   UNL     1      27.179 -14.857  15.935  1.00  0.00     0.012 A 
ATOM      4  C   UNL     1      24.691 -15.692  16.900  1.00  0.00     0.047 A 
ATOM      5  C   UNL     1      26.140 -15.144  15.043  1.00  0.00     0.047 A 
ATOM      6  C   UNL     1      24.896 -15.564  15.520  1.00  0.00     0.115 A 
ENDROOT
BRANCH   1   7
ATOM      7  C   UNL     1      28.050 -14.697  18.314  1.00  0.00     0.010 C 
ATOM      8  C   UNL     1      28.138 -15.284  19.516  1.00  0.00     0.025 C 
BRANCH   8   9
ATOM      9  C   UNL     1      29.203 -14.952  20.477  1.00  0.00     0.064 C 
ATOM     10  O   UNL     1      30.296 -14.456  20.094  1.00  0.00    -0.545 OA
ATOM     11  O   UNL     1      29.000 -15.191  21.830  1.00  0.00    -0.545 OA
ENDBRANCH   8   9
ENDBRANCH   1   7
BRANCH   6  12
ATOM     12  O   UNL     1      23.872 -15.846  14.619  1.00  0.00    -0.508 OA
ATOM     13  H   UNL     1      23.289 -15.111  14.235  1.00  0.00     0.293 HD
ENDBRANCH   6  12
TORSDOF 3
ENDMDL
MODEL 4
REMARK VINA RESULT:    -4.975      2.972      4.019
REMARK INTER + INTRA:          -5.837
REMARK INTER:                  -5.701
REMARK INTRA:                  -0.136
REMARK UNBOUND:                -0.134
REMARK SMILES O=C([O-])C=Cc1ccc(O)cc1
REMARK SMILES IDX 6 1 7 2 12 3 8 4 11 5 9 6 5 7 4 8 2 9 1 10 3 11 10 12
REMARK H PARENT 10 13
REMARK Flexibility Score: inf
ROOT
ATOM      1  C   UNL     1      26.326 -15.500  16.730  1.00  0.00    -0.025 A 
ATOM      2  C   UNL     1      26.159 -15.271  18.107  1.00  0.00     0.012 A 
ATOM      3  C   UNL     1      27.416 -14.898  16.069  1.00  0.00     0.012 A 
ATOM      4  C   UNL     1      27.043 -14.442  18.803  1.00  0.00     0.047 A 
ATOM      5  C   UNL     1      28.299 -14.069  16.770  1.00  0.00     0.047 A 
ATOM      6  C   UNL     1      28.115 -13.836  18.135  1.00  0.00     0.115 A 
ENDROOT
BRANCH   1   7
ATOM      7  C   UNL     1      25.367 -16.396  16.037  1.00  0.00     0.010 C 
ATOM      8  C   UNL     1      24.776 -16.096  14.872  1.00  0.00     0.025 C 
BRANCH   8   9
ATOM      9  C   UNL     1      23.820 -17.007  14.219  1.00  0.00     0.064 C 
ATOM     10  O   UNL     1      23.690 -17.027  12.965  1.00  0.00    -0.545 OA
ATOM     11  O   UNL     1      23.049 -17.859  14.997  1.00  0.00    -0.545 OA
ENDBRANCH   8   9
ENDBRANCH   1   7
BRANCH   6  12
ATOM     12  O   UNL     1      29.002 -13.008  18.818  1.00  0.00    -0.508 OA
ATOM     13  H   UNL     1      29.370 -12.164  18.395  1.00  0.00     0.293 HD
ENDBRANCH   6  12
TORSDOF 3
ENDMDL
MODEL 5
REMARK VINA RESULT:    -4.967      3.059      4.279
REMARK INTER + INTRA:          -5.827
REMARK INTER:                  -5.685
REMARK INTRA:                  -0.142
REMARK UNBOUND:                -0.134
REMARK SMILES O=C([O-])C=Cc1ccc(O)cc1
REMARK SMILES IDX 6 1 7 2 12 3 8 4 11 5 9 6 5 7 4 8 2 9 1 10 3 11 10 12
REMARK H PARENT 10 13
REMARK Flexibility Score: inf
ROOT
ATOM      1  C   UNL     1      26.224 -15.641  16.568  1.00  0.00    -0.025 A 
ATOM      2  C   UNL     1      27.311 -15.064  15.889  1.00  0.00     0.012 A 
ATOM      3  C   UNL     1      26.023 -15.318  17.925  1.00  0.00     0.012 A 
ATOM      4  C   UNL     1      28.191 -14.204  16.553  1.00  0.00     0.047 A 
ATOM      5  C   UNL     1      26.906 -14.457  18.587  1.00  0.00     0.047 A 
ATOM      6  C   UNL     1      27.991 -13.900  17.906  1.00  0.00     0.115 A 
ENDROOT
BRANCH   1   7
ATOM      7  C   UNL     1      25.313 -16.539  15.816  1.00  0.00     0.010 C 
ATOM      8  C   UNL     1      24.659 -16.176  14.703  1.00  0.00     0.025 C 
BRANCH   8   9
ATOM      9  C   UNL     1      23.754 -17.092  13.989  1.00  0.00     0.064 C 
ATOM     10  O   UNL     1      23.005 -17.889  14.615  1.00  0.00    -0.545 OA
ATOM     11  O   UNL     1      23.726 -17.078  12.601  1.00  0.00    -0.545 OA
ENDBRANCH   8   9
ENDBRANCH   1   7
BRANCH   6  12
ATOM     12  O   UNL     1      28.861 -13.046  18.579  1.00  0.00    -0.508 OA
ATOM     13  H   UNL     1      29.563 -13.402  19.218  1.00  0.00     0.293 HD
ENDBRANCH   6  12
TORSDOF 3
ENDMDL
MODEL 6
REMARK VINA RESULT:    -4.804      2.703      5.779
REMARK INTER + INTRA:          -5.640
REMARK INTER:                  -5.491
REMARK INTRA:                  -0.150
REMARK UNBOUND:                -0.134
REMARK SMILES O=C([O-])C=Cc1ccc(O)cc1
REMARK SMILES IDX 6 1 7 2 12 3 8 4 11 5 9 6 5 7 4 8 2 9 1 10 3 11 10 12
REMARK H PARENT 10 13
REMARK Flexibility Score: inf
ROOT
ATOM      1  C   UNL     1      27.382 -15.958  20.937  1.00  0.00    -0.025 A 
ATOM      2  C   UNL     1      26.685 -15.628  19.763  1.00  0.00     0.012 A 
ATOM      3  C   UNL     1      28.717 -15.527  21.078  1.00  0.00     0.012 A 
ATOM      4  C   UNL     1      27.311 -14.907  18.742  1.00  0.00     0.047 A 
ATOM      5  C   UNL     1      29.340 -14.806  20.054  1.00  0.00     0.047 A 
ATOM      6  C   UNL     1      28.642 -14.496  18.884  1.00  0.00     0.115 A 
ENDROOT
BRANCH   1   7
ATOM      7  C   UNL     1      26.671 -16.716  21.996  1.00  0.00     0.010 C 
ATOM      8  C   UNL     1      25.584 -17.469  21.772  1.00  0.00     0.025 C 
BRANCH   8   9
ATOM      9  C   UNL     1      24.898 -18.199  22.851  1.00  0.00     0.064 C 
ATOM     10  O   UNL     1      23.640 -18.234  22.918  1.00  0.00    -0.545 OA
ATOM     11  O   UNL     1      25.650 -18.862  23.811  1.00  0.00    -0.545 OA
ENDBRANCH   8   9
ENDBRANCH   1   7
BRANCH   6  12
ATOM     12  O   UNL     1      29.277 -13.778  17.873  1.00  0.00    -0.508 OA
ATOM     13  H   UNL     1      29.797 -12.931  18.073  1.00  0.00     0.293 HD
ENDBRANCH   6  12
TORSDOF 3
ENDMDL
MODEL 7
REMARK VINA RESULT:    -4.790      3.377      4.377
REMARK INTER + INTRA:          -5.625
REMARK INTER:                  -5.483
REMARK INTRA:                  -0.142
REMARK UNBOUND:                -0.134
REMARK SMILES O=C([O-])C=Cc1ccc(O)cc1
REMARK SMILES IDX 6 1 7 2 12 3 8 4 11 5 9 6 5 7 4 8 2 9 1 10 3 11 10 12
REMARK H PARENT 10 13
REMARK Flexibility Score: inf
ROOT
ATOM      1  C   UNL     1      26.845 -16.250  17.201  1.00  0.00    -0.025 A 
ATOM      2  C   UNL     1      27.580 -15.476  16.286  1.00  0.00     0.012 A 
ATOM      3  C   UNL     1      26.728 -15.800  18.532  1.00  0.00     0.012 A 
ATOM      4  C   UNL     1      28.204 -14.293  16.694  1.00  0.00     0.047 A 
ATOM      5  C   UNL     1      27.354 -14.616  18.936  1.00  0.00     0.047 A 
ATOM      6  C   UNL     1      28.094 -13.861  18.022  1.00  0.00     0.115 A 
ENDROOT
BRANCH   1   7
ATOM      7  C   UNL     1      26.193 -17.492  16.717  1.00  0.00     0.010 C 
ATOM      8  C   UNL     1      26.846 -18.481  16.090  1.00  0.00     0.025 C 
BRANCH   8   9
ATOM      9  C   UNL     1      26.162 -19.696  15.614  1.00  0.00     0.064 C 
ATOM     10  O   UNL     1      24.983 -19.650  15.172  1.00  0.00    -0.545 OA
ATOM     11  O   UNL     1      26.829 -20.913  15.654  1.00  0.00    -0.545 OA
ENDBRANCH   8   9
ENDBRANCH   1   7
BRANCH   6  12
ATOM     12  O   UNL     1      28.712 -12.685  18.440  1.00  0.00    -0.508 OA
ATOM     13  H   UNL     1      28.176 -11.849  18.643  1.00  0.00     0.293 HD
ENDBRANCH   6  12
TORSDOF 3
ENDMDL
MODEL 8
REMARK VINA RESULT:    -4.749      9.878     10.526
REMARK INTER + INTRA:          -5.577
REMARK INTER:                  -5.438
REMARK INTRA:                  -0.139
REMARK UNBOUND:                -0.134
REMARK SMILES O=C([O-])C=Cc1ccc(O)cc1
REMARK SMILES IDX 6 1 7 2 12 3 8 4 11 5 9 6 5 7 4 8 2 9 1 10 3 11 10 12
REMARK H PARENT 10 13
REMARK Flexibility Score: inf
ROOT
ATOM      1  C   UNL     1      32.973  -6.951  21.850  1.00  0.00    -0.025 A 
ATOM      2  C   UNL     1      33.962  -7.366  22.758  1.00  0.00     0.012 A 
ATOM      3  C   UNL     1      31.774  -7.688  21.767  1.00  0.00     0.012 A 
ATOM      4  C   UNL     1      33.771  -8.505  23.547  1.00  0.00     0.047 A 
ATOM      5  C   UNL     1      31.588  -8.827  22.558  1.00  0.00     0.047 A 
ATOM      6  C   UNL     1      32.583  -9.240  23.447  1.00  0.00     0.115 A 
ENDROOT
BRANCH   1   7
ATOM      7  C   UNL     1      33.218  -5.730  21.043  1.00  0.00     0.010 C 
ATOM      8  C   UNL     1      32.261  -5.077  20.369  1.00  0.00     0.025 C 
BRANCH   8   9
ATOM      9  C   UNL     1      32.544  -3.874  19.569  1.00  0.00     0.064 C 
ATOM     10  O   UNL     1      31.898  -3.623  18.516  1.00  0.00    -0.545 OA
ATOM     11  O   UNL     1      33.541  -3.000  19.981  1.00  0.00    -0.545 OA
ENDBRANCH   8   9
ENDBRANCH   1   7
BRANCH   6  12
ATOM     12  O   UNL     1      32.382 -10.376  24.227  1.00  0.00    -0.508 OA
ATOM     13  H   UNL     1      32.113 -10.308  25.202  1.00  0.00     0.293 HD
ENDBRANCH   6  12
TORSDOF 3
ENDMDL
MODEL 9
REMARK VINA RESULT:    -4.649      3.367      4.146
REMARK INTER + INTRA:          -5.463
REMARK INTER:                  -5.314
REMARK INTRA:                  -0.149
REMARK UNBOUND:                -0.134
REMARK SMILES O=C([O-])C=Cc1ccc(O)cc1
REMARK SMILES IDX 6 1 7 2 12 3 8 4 11 5 9 6 5 7 4 8 2 9 1 10 3 11 10 12
REMARK H PARENT 10 13
REMARK Flexibility Score: inf
ROOT
ATOM      1  C   UNL     1      26.308 -15.639  17.553  1.00  0.00    -0.025 A 
ATOM      2  C   UNL     1      26.505 -15.629  18.944  1.00  0.00     0.012 A 
ATOM      3  C   UNL     1      27.219 -14.943  16.732  1.00  0.00     0.012 A 
ATOM      4  C   UNL     1      27.571 -14.920  19.507  1.00  0.00     0.047 A 
ATOM      5  C   UNL     1      28.284 -14.235  17.299  1.00  0.00     0.047 A 
ATOM      6  C   UNL     1      28.463 -14.219  18.685  1.00  0.00     0.115 A 
ENDROOT
BRANCH   1   7
ATOM      7  C   UNL     1      25.168 -16.414  17.003  1.00  0.00     0.010 C 
ATOM      8  C   UNL     1      24.010 -16.599  17.653  1.00  0.00     0.025 C 
BRANCH   8   9
ATOM      9  C   UNL     1      22.903 -17.384  17.080  1.00  0.00     0.064 C 
ATOM     10  O   UNL     1      21.781 -17.442  17.650  1.00  0.00    -0.545 OA
ATOM     11  O   UNL     1      23.100 -18.072  15.890  1.00  0.00    -0.545 OA
ENDBRANCH   8   9
ENDBRANCH   1   7
BRANCH   6  12
ATOM     12  O   UNL     1      29.527 -13.509  19.234  1.00  0.00    -0.508 OA
ATOM     13  H   UNL     1      29.682 -13.477  20.235  1.00  0.00     0.293 HD
ENDBRANCH   6  12
TORSDOF 3
ENDMDL
