MODEL 1
REMARK VINA RESULT:    -4.328      0.000      0.000
REMARK INTER + INTRA:         -12.491
REMARK INTER:                  -9.388
REMARK INTRA:                  -3.102
REMARK UNBOUND:                -3.102
REMARK SMILES CCCCCCCCCCCCCCCCCCCCCC(=O)[O-]
REMARK SMILES IDX 12 1 11 2 10 3 9 4 8 5 7 6 6 7 5 8 4 9 3 10 2 11 1 12 13 13
REMARK SMILES IDX 14 14 15 15 16 16 17 17 18 18 19 19 20 20 21 21 22 22 23 23
REMARK SMILES IDX 24 24
REMARK H PARENT
REMARK Flexibility Score: inf
ROOT
ATOM      1  C   UNL     1      -2.631   2.713  -7.066  1.00  0.00     0.000 C 
ENDROOT
BRANCH   1   2
ATOM      2  C   UNL     1      -1.481   2.756  -6.045  1.00  0.00     0.000 C 
BRANCH   2   3
ATOM      3  C   UNL     1      -0.345   3.740  -6.391  1.00  0.00     0.000 C 
BRANCH   3   4
ATOM      4  C   UNL     1       0.210   4.539  -5.196  1.00  0.00    -0.000 C 
BRANCH   4   5
ATOM      5  C   UNL     1      -0.343   4.122  -3.819  1.00  0.00    -0.000 C 
BRANCH   5   6
ATOM      6  C   UNL     1       0.511   3.086  -3.064  1.00  0.00    -0.000 C 
BRANCH   6   7
ATOM      7  C   UNL     1       2.018   3.259  -3.320  1.00  0.00    -0.000 C 
BRANCH   7   8
ATOM      8  C   UNL     1       2.762   1.917  -3.402  1.00  0.00    -0.000 C 
BRANCH   8   9
ATOM      9  C   UNL     1       3.828   1.900  -4.508  1.00  0.00    -0.000 C 
BRANCH   9  10
ATOM     10  C   UNL     1       3.459   2.866  -5.643  1.00  0.00    -0.000 C 
BRANCH  10  11
ATOM     11  C   UNL     1       4.451   2.807  -6.815  1.00  0.00    -0.003 C 
ATOM     12  C   UNL     1       4.363   1.497  -7.597  1.00  0.00     0.004 C 
ENDBRANCH  10  11
ENDBRANCH   9  10
ENDBRANCH   8   9
ENDBRANCH   7   8
ENDBRANCH   6   7
ENDBRANCH   5   6
ENDBRANCH   4   5
ENDBRANCH   3   4
ENDBRANCH   2   3
ENDBRANCH   1   2
BRANCH   1  13
ATOM     13  C   UNL     1      -3.995   3.045  -6.438  1.00  0.00     0.000 C 
BRANCH  13  14
ATOM     14  C   UNL     1      -4.054   4.466  -5.850  1.00  0.00     0.000 C 
BRANCH  14  15
ATOM     15  C   UNL     1      -4.078   4.529  -4.312  1.00  0.00     0.000 C 
BRANCH  15  16
ATOM     16  C   UNL     1      -5.251   3.746  -3.698  1.00  0.00     0.000 C 
BRANCH  16  17
ATOM     17  C   UNL     1      -4.806   2.833  -2.545  1.00  0.00     0.000 C 
BRANCH  17  18
ATOM     18  C   UNL     1      -3.293   2.549  -2.577  1.00  0.00     0.000 C 
BRANCH  18  19
ATOM     19  C   UNL     1      -2.950   1.193  -3.220  1.00  0.00     0.000 C 
BRANCH  19  20
ATOM     20  C   UNL     1      -4.112   0.186  -3.277  1.00  0.00     0.006 C 
BRANCH  20  21
ATOM     21  C   UNL     1      -4.468  -0.240  -4.707  1.00  0.00     0.053 C 
BRANCH  21  22
ATOM     22  C   UNL     1      -4.390  -1.728  -4.847  1.00  0.00     0.041 C 
ATOM     23  O   UNL     1      -4.229  -2.451  -3.829  1.00  0.00    -0.550 OA
ATOM     24  O   UNL     1      -4.528  -2.319  -6.098  1.00  0.00    -0.550 OA
ENDBRANCH  21  22
ENDBRANCH  20  21
ENDBRANCH  19  20
ENDBRANCH  18  19
ENDBRANCH  17  18
ENDBRANCH  16  17
ENDBRANCH  15  16
ENDBRANCH  14  15
ENDBRANCH  13  14
ENDBRANCH   1  13
TORSDOF 20
ENDMDL
MODEL 2
REMARK VINA RESULT:    -4.246      3.176      7.355
REMARK INTER + INTRA:         -12.313
REMARK INTER:                  -9.620
REMARK INTRA:                  -2.693
REMARK UNBOUND:                -3.102
REMARK SMILES CCCCCCCCCCCCCCCCCCCCCC(=O)[O-]
REMARK SMILES IDX 12 1 11 2 10 3 9 4 8 5 7 6 6 7 5 8 4 9 3 10 2 11 1 12 13 13
REMARK SMILES IDX 14 14 15 15 16 16 17 17 18 18 19 19 20 20 21 21 22 22 23 23
REMARK SMILES IDX 24 24
REMARK H PARENT
REMARK Flexibility Score: inf
ROOT
ATOM      1  C   UNL     1      -0.626   3.921  -6.604  1.00  0.00     0.000 C 
ENDROOT
BRANCH   1   2
ATOM      2  C   UNL     1      -1.659   2.819  -6.305  1.00  0.00     0.000 C 
BRANCH   2   3
ATOM      3  C   UNL     1      -3.027   3.333  -5.815  1.00  0.00     0.000 C 
BRANCH   3   4
ATOM      4  C   UNL     1      -3.010   4.016  -4.433  1.00  0.00    -0.000 C 
BRANCH   4   5
ATOM      5  C   UNL     1      -2.273   3.233  -3.328  1.00  0.00    -0.000 C 
BRANCH   5   6
ATOM      6  C   UNL     1      -3.151   2.244  -2.538  1.00  0.00    -0.000 C 
BRANCH   6   7
ATOM      7  C   UNL     1      -4.653   2.440  -2.806  1.00  0.00    -0.000 C 
BRANCH   7   8
ATOM      8  C   UNL     1      -5.339   1.155  -3.298  1.00  0.00    -0.000 C 
BRANCH   8   9
ATOM      9  C   UNL     1      -4.428   0.310  -4.202  1.00  0.00    -0.000 C 
BRANCH   9  10
ATOM     10  C   UNL     1      -4.827  -1.172  -4.156  1.00  0.00    -0.000 C 
BRANCH  10  11
ATOM     11  C   UNL     1      -3.943  -1.992  -3.203  1.00  0.00    -0.003 C 
ATOM     12  C   UNL     1      -2.927  -2.861  -3.942  1.00  0.00     0.004 C 
ENDBRANCH  10  11
ENDBRANCH   9  10
ENDBRANCH   8   9
ENDBRANCH   7   8
ENDBRANCH   6   7
ENDBRANCH   5   6
ENDBRANCH   4   5
ENDBRANCH   3   4
ENDBRANCH   2   3
ENDBRANCH   1   2
BRANCH   1  13
ATOM     13  C   UNL     1       0.669   3.756  -5.791  1.00  0.00     0.000 C 
BRANCH  13  14
ATOM     14  C   UNL     1       0.786   4.771  -4.639  1.00  0.00     0.000 C 
BRANCH  14  15
ATOM     15  C   UNL     1       1.227   4.173  -3.291  1.00  0.00     0.000 C 
BRANCH  15  16
ATOM     16  C   UNL     1       1.329   2.638  -3.321  1.00  0.00     0.000 C 
BRANCH  16  17
ATOM     17  C   UNL     1       2.746   2.139  -2.996  1.00  0.00     0.000 C 
BRANCH  17  18
ATOM     18  C   UNL     1       3.568   1.851  -4.265  1.00  0.00     0.000 C 
BRANCH  18  19
ATOM     19  C   UNL     1       4.588   2.959  -4.586  1.00  0.00     0.000 C 
BRANCH  19  20
ATOM     20  C   UNL     1       4.494   3.540  -6.008  1.00  0.00     0.006 C 
BRANCH  20  21
ATOM     21  C   UNL     1       3.714   2.638  -6.974  1.00  0.00     0.053 C 
BRANCH  21  22
ATOM     22  C   UNL     1       4.641   1.695  -7.676  1.00  0.00     0.041 C 
ATOM     23  O   UNL     1       5.745   2.107  -8.121  1.00  0.00    -0.550 OA
ATOM     24  O   UNL     1       4.300   0.355  -7.811  1.00  0.00    -0.550 OA
ENDBRANCH  21  22
ENDBRANCH  20  21
ENDBRANCH  19  20
ENDBRANCH  18  19
ENDBRANCH  17  18
ENDBRANCH  16  17
ENDBRANCH  15  16
ENDBRANCH  14  15
ENDBRANCH  13  14
ENDBRANCH   1  13
TORSDOF 20
ENDMDL
MODEL 3
REMARK VINA RESULT:    -4.146      3.223      6.588
REMARK INTER + INTRA:         -12.096
REMARK INTER:                  -8.842
REMARK INTRA:                  -3.254
REMARK UNBOUND:                -3.102
REMARK SMILES CCCCCCCCCCCCCCCCCCCCCC(=O)[O-]
REMARK SMILES IDX 12 1 11 2 10 3 9 4 8 5 7 6 6 7 5 8 4 9 3 10 2 11 1 12 13 13
REMARK SMILES IDX 14 14 15 15 16 16 17 17 18 18 19 19 20 20 21 21 22 22 23 23
REMARK SMILES IDX 24 24
REMARK H PARENT
REMARK Flexibility Score: inf
ROOT
ATOM      1  C   UNL     1      -5.277   5.313  -4.477  1.00  0.00     0.000 C 
ENDROOT
BRANCH   1   2
ATOM      2  C   UNL     1      -4.158   5.352  -5.533  1.00  0.00     0.000 C 
BRANCH   2   3
ATOM      3  C   UNL     1      -2.782   4.867  -5.033  1.00  0.00     0.000 C 
BRANCH   3   4
ATOM      4  C   UNL     1      -1.752   4.577  -6.143  1.00  0.00    -0.000 C 
BRANCH   4   5
ATOM      5  C   UNL     1      -1.822   3.159  -6.744  1.00  0.00    -0.000 C 
BRANCH   5   6
ATOM      6  C   UNL     1      -2.790   2.199  -6.027  1.00  0.00    -0.000 C 
BRANCH   6   7
ATOM      7  C   UNL     1      -4.010   1.832  -6.889  1.00  0.00    -0.000 C 
BRANCH   7   8
ATOM      8  C   UNL     1      -4.973   0.872  -6.172  1.00  0.00    -0.000 C 
BRANCH   8   9
ATOM      9  C   UNL     1      -5.020  -0.516  -6.829  1.00  0.00    -0.000 C 
BRANCH   9  10
ATOM     10  C   UNL     1      -4.577  -1.606  -5.843  1.00  0.00    -0.000 C 
BRANCH  10  11
ATOM     11  C   UNL     1      -4.875  -1.237  -4.381  1.00  0.00    -0.003 C 
ATOM     12  C   UNL     1      -3.625  -1.249  -3.503  1.00  0.00     0.004 C 
ENDBRANCH  10  11
ENDBRANCH   9  10
ENDBRANCH   8   9
ENDBRANCH   7   8
ENDBRANCH   6   7
ENDBRANCH   5   6
ENDBRANCH   4   5
ENDBRANCH   3   4
ENDBRANCH   2   3
ENDBRANCH   1   2
BRANCH   1  13
ATOM     13  C   UNL     1      -5.814   3.893  -4.233  1.00  0.00     0.000 C 
BRANCH  13  14
ATOM     14  C   UNL     1      -5.477   3.357  -2.830  1.00  0.00     0.000 C 
BRANCH  14  15
ATOM     15  C   UNL     1      -4.438   2.222  -2.803  1.00  0.00     0.000 C 
BRANCH  15  16
ATOM     16  C   UNL     1      -3.139   2.615  -2.079  1.00  0.00     0.000 C 
BRANCH  16  17
ATOM     17  C   UNL     1      -1.888   2.058  -2.775  1.00  0.00     0.000 C 
BRANCH  17  18
ATOM     18  C   UNL     1      -0.677   2.998  -2.639  1.00  0.00     0.000 C 
BRANCH  18  19
ATOM     19  C   UNL     1       0.424   2.715  -3.677  1.00  0.00     0.000 C 
BRANCH  19  20
ATOM     20  C   UNL     1       1.847   3.108  -3.242  1.00  0.00     0.006 C 
BRANCH  20  21
ATOM     21  C   UNL     1       2.799   1.908  -3.145  1.00  0.00     0.053 C 
BRANCH  21  22
ATOM     22  C   UNL     1       4.104   2.218  -3.807  1.00  0.00     0.041 C 
ATOM     23  O   UNL     1       5.167   2.236  -3.132  1.00  0.00    -0.550 OA
ATOM     24  O   UNL     1       4.153   2.456  -5.175  1.00  0.00    -0.550 OA
ENDBRANCH  21  22
ENDBRANCH  20  21
ENDBRANCH  19  20
ENDBRANCH  18  19
ENDBRANCH  17  18
ENDBRANCH  16  17
ENDBRANCH  15  16
ENDBRANCH  14  15
ENDBRANCH  13  14
ENDBRANCH   1  13
TORSDOF 20
ENDMDL
MODEL 4
REMARK VINA RESULT:    -4.118      3.041      7.647
REMARK INTER + INTRA:         -12.036
REMARK INTER:                  -9.714
REMARK INTRA:                  -2.322
REMARK UNBOUND:                -3.102
REMARK SMILES CCCCCCCCCCCCCCCCCCCCCC(=O)[O-]
REMARK SMILES IDX 12 1 11 2 10 3 9 4 8 5 7 6 6 7 5 8 4 9 3 10 2 11 1 12 13 13
REMARK SMILES IDX 14 14 15 15 16 16 17 17 18 18 19 19 20 20 21 21 22 22 23 23
REMARK SMILES IDX 24 24
REMARK H PARENT
REMARK Flexibility Score: inf
ROOT
ATOM      1  C   UNL     1      -1.280   4.407  -5.036  1.00  0.00     0.000 C 
ENDROOT
BRANCH   1   2
ATOM      2  C   UNL     1      -1.340   3.037  -5.734  1.00  0.00     0.000 C 
BRANCH   2   3
ATOM      3  C   UNL     1      -1.682   3.091  -7.236  1.00  0.00     0.000 C 
BRANCH   3   4
ATOM      4  C   UNL     1      -3.097   2.601  -7.600  1.00  0.00    -0.000 C 
BRANCH   4   5
ATOM      5  C   UNL     1      -3.926   2.064  -6.416  1.00  0.00    -0.000 C 
BRANCH   5   6
ATOM      6  C   UNL     1      -4.659   0.737  -6.687  1.00  0.00    -0.000 C 
BRANCH   6   7
ATOM      7  C   UNL     1      -5.286   0.134  -5.418  1.00  0.00    -0.000 C 
BRANCH   7   8
ATOM      8  C   UNL     1      -4.256  -0.594  -4.539  1.00  0.00    -0.000 C 
BRANCH   8   9
ATOM      9  C   UNL     1      -4.052   0.092  -3.179  1.00  0.00    -0.000 C 
BRANCH   9  10
ATOM     10  C   UNL     1      -2.815   1.002  -3.202  1.00  0.00    -0.000 C 
BRANCH  10  11
ATOM     11  C   UNL     1      -3.048   2.334  -2.471  1.00  0.00    -0.003 C 
ATOM     12  C   UNL     1      -4.451   2.896  -2.700  1.00  0.00     0.004 C 
ENDBRANCH  10  11
ENDBRANCH   9  10
ENDBRANCH   8   9
ENDBRANCH   7   8
ENDBRANCH   6   7
ENDBRANCH   5   6
ENDBRANCH   4   5
ENDBRANCH   3   4
ENDBRANCH   2   3
ENDBRANCH   1   2
BRANCH   1  13
ATOM     13  C   UNL     1      -0.294   4.429  -3.856  1.00  0.00     0.000 C 
BRANCH  13  14
ATOM     14  C   UNL     1       0.441   3.090  -3.664  1.00  0.00     0.000 C 
BRANCH  14  15
ATOM     15  C   UNL     1       1.921   3.216  -3.260  1.00  0.00     0.000 C 
BRANCH  15  16
ATOM     16  C   UNL     1       2.630   1.855  -3.149  1.00  0.00     0.000 C 
BRANCH  16  17
ATOM     17  C   UNL     1       3.945   1.813  -3.944  1.00  0.00     0.000 C 
BRANCH  17  18
ATOM     18  C   UNL     1       3.899   2.710  -5.194  1.00  0.00     0.000 C 
BRANCH  18  19
ATOM     19  C   UNL     1       4.130   1.932  -6.502  1.00  0.00     0.000 C 
BRANCH  19  20
ATOM     20  C   UNL     1       4.386   2.804  -7.743  1.00  0.00     0.006 C 
BRANCH  20  21
ATOM     21  C   UNL     1       5.226   2.094  -8.813  1.00  0.00     0.053 C 
BRANCH  21  22
ATOM     22  C   UNL     1       4.448   0.978  -9.436  1.00  0.00     0.041 C 
ATOM     23  O   UNL     1       4.874  -0.206  -9.366  1.00  0.00    -0.550 OA
ATOM     24  O   UNL     1       3.237   1.238 -10.065  1.00  0.00    -0.550 OA
ENDBRANCH  21  22
ENDBRANCH  20  21
ENDBRANCH  19  20
ENDBRANCH  18  19
ENDBRANCH  17  18
ENDBRANCH  16  17
ENDBRANCH  15  16
ENDBRANCH  14  15
ENDBRANCH  13  14
ENDBRANCH   1  13
TORSDOF 20
ENDMDL
MODEL 5
REMARK VINA RESULT:    -4.087      3.559      6.222
REMARK INTER + INTRA:         -11.968
REMARK INTER:                  -8.691
REMARK INTRA:                  -3.277
REMARK UNBOUND:                -3.102
REMARK SMILES CCCCCCCCCCCCCCCCCCCCCC(=O)[O-]
REMARK SMILES IDX 12 1 11 2 10 3 9 4 8 5 7 6 6 7 5 8 4 9 3 10 2 11 1 12 13 13
REMARK SMILES IDX 14 14 15 15 16 16 17 17 18 18 19 19 20 20 21 21 22 22 23 23
REMARK SMILES IDX 24 24
REMARK H PARENT
REMARK Flexibility Score: inf
ROOT
ATOM      1  C   UNL     1      -6.009   3.328  -2.999  1.00  0.00     0.000 C 
ENDROOT
BRANCH   1   2
ATOM      2  C   UNL     1      -5.812   3.896  -4.416  1.00  0.00     0.000 C 
BRANCH   2   3
ATOM      3  C   UNL     1      -4.994   5.201  -4.481  1.00  0.00     0.000 C 
BRANCH   3   4
ATOM      4  C   UNL     1      -3.597   5.062  -5.117  1.00  0.00    -0.000 C 
BRANCH   4   5
ATOM      5  C   UNL     1      -3.395   3.800  -5.979  1.00  0.00    -0.000 C 
BRANCH   5   6
ATOM      6  C   UNL     1      -2.310   3.924  -7.065  1.00  0.00    -0.000 C 
BRANCH   6   7
ATOM      7  C   UNL     1      -1.024   3.160  -6.710  1.00  0.00    -0.000 C 
BRANCH   7   8
ATOM      8  C   UNL     1       0.245   3.994  -6.953  1.00  0.00    -0.000 C 
BRANCH   8   9
ATOM      9  C   UNL     1      -0.048   5.499  -7.051  1.00  0.00    -0.000 C 
BRANCH   9  10
ATOM     10  C   UNL     1       0.613   6.265  -5.896  1.00  0.00    -0.000 C 
BRANCH  10  11
ATOM     11  C   UNL     1      -0.377   6.605  -4.770  1.00  0.00    -0.003 C 
ATOM     12  C   UNL     1       0.301   7.256  -3.565  1.00  0.00     0.004 C 
ENDBRANCH  10  11
ENDBRANCH   9  10
ENDBRANCH   8   9
ENDBRANCH   7   8
ENDBRANCH   6   7
ENDBRANCH   5   6
ENDBRANCH   4   5
ENDBRANCH   3   4
ENDBRANCH   2   3
ENDBRANCH   1   2
BRANCH   1  13
ATOM     13  C   UNL     1      -4.717   2.732  -2.414  1.00  0.00     0.000 C 
BRANCH  13  14
ATOM     14  C   UNL     1      -4.188   1.537  -3.226  1.00  0.00     0.000 C 
BRANCH  14  15
ATOM     15  C   UNL     1      -2.679   1.271  -3.078  1.00  0.00     0.000 C 
BRANCH  15  16
ATOM     16  C   UNL     1      -1.898   2.502  -2.586  1.00  0.00     0.000 C 
BRANCH  16  17
ATOM     17  C   UNL     1      -0.738   2.873  -3.524  1.00  0.00     0.000 C 
BRANCH  17  18
ATOM     18  C   UNL     1       0.381   3.635  -2.792  1.00  0.00     0.000 C 
BRANCH  18  19
ATOM     19  C   UNL     1       1.770   3.411  -3.419  1.00  0.00     0.000 C 
BRANCH  19  20
ATOM     20  C   UNL     1       2.367   2.010  -3.196  1.00  0.00     0.006 C 
BRANCH  20  21
ATOM     21  C   UNL     1       3.665   1.779  -3.981  1.00  0.00     0.053 C 
BRANCH  21  22
ATOM     22  C   UNL     1       4.824   2.414  -3.279  1.00  0.00     0.041 C 
ATOM     23  O   UNL     1       5.253   1.928  -2.199  1.00  0.00    -0.550 OA
ATOM     24  O   UNL     1       5.451   3.524  -3.832  1.00  0.00    -0.550 OA
ENDBRANCH  21  22
ENDBRANCH  20  21
ENDBRANCH  19  20
ENDBRANCH  18  19
ENDBRANCH  17  18
ENDBRANCH  16  17
ENDBRANCH  15  16
ENDBRANCH  14  15
ENDBRANCH  13  14
ENDBRANCH   1  13
TORSDOF 20
ENDMDL
MODEL 6
REMARK VINA RESULT:    -4.063      1.642      3.303
REMARK INTER + INTRA:         -11.916
REMARK INTER:                 -10.129
REMARK INTRA:                  -1.787
REMARK UNBOUND:                -3.102
REMARK SMILES CCCCCCCCCCCCCCCCCCCCCC(=O)[O-]
REMARK SMILES IDX 12 1 11 2 10 3 9 4 8 5 7 6 6 7 5 8 4 9 3 10 2 11 1 12 13 13
REMARK SMILES IDX 14 14 15 15 16 16 17 17 18 18 19 19 20 20 21 21 22 22 23 23
REMARK SMILES IDX 24 24
REMARK H PARENT
REMARK Flexibility Score: inf
ROOT
ATOM      1  C   UNL     1       0.058   4.413  -3.898  1.00  0.00     0.000 C 
ENDROOT
BRANCH   1   2
ATOM      2  C   UNL     1       1.414   3.962  -3.326  1.00  0.00     0.000 C 
BRANCH   2   3
ATOM      3  C   UNL     1       1.548   2.441  -3.108  1.00  0.00     0.000 C 
BRANCH   3   4
ATOM      4  C   UNL     1       2.997   1.924  -3.003  1.00  0.00    -0.000 C 
BRANCH   4   5
ATOM      5  C   UNL     1       3.766   1.865  -4.337  1.00  0.00    -0.000 C 
BRANCH   5   6
ATOM      6  C   UNL     1       4.730   3.040  -4.583  1.00  0.00    -0.000 C 
BRANCH   6   7
ATOM      7  C   UNL     1       4.402   3.820  -5.867  1.00  0.00    -0.000 C 
BRANCH   7   8
ATOM      8  C   UNL     1       3.117   3.322  -6.549  1.00  0.00    -0.000 C 
BRANCH   8   9
ATOM      9  C   UNL     1       3.373   2.778  -7.963  1.00  0.00    -0.000 C 
BRANCH   9  10
ATOM     10  C   UNL     1       4.426   1.661  -7.940  1.00  0.00    -0.000 C 
BRANCH  10  11
ATOM     11  C   UNL     1       5.437   1.779  -9.092  1.00  0.00    -0.003 C 
ATOM     12  C   UNL     1       6.679   2.581  -8.707  1.00  0.00     0.004 C 
ENDBRANCH  10  11
ENDBRANCH   9  10
ENDBRANCH   8   9
ENDBRANCH   7   8
ENDBRANCH   6   7
ENDBRANCH   5   6
ENDBRANCH   4   5
ENDBRANCH   3   4
ENDBRANCH   2   3
ENDBRANCH   1   2
BRANCH   1  13
ATOM     13  C   UNL     1      -0.566   3.369  -4.839  1.00  0.00     0.000 C 
BRANCH  13  14
ATOM     14  C   UNL     1      -1.863   2.757  -4.280  1.00  0.00     0.000 C 
BRANCH  14  15
ATOM     15  C   UNL     1      -1.925   2.665  -2.744  1.00  0.00     0.000 C 
BRANCH  15  16
ATOM     16  C   UNL     1      -3.344   2.386  -2.217  1.00  0.00     0.000 C 
BRANCH  16  17
ATOM     17  C   UNL     1      -4.391   2.357  -3.342  1.00  0.00     0.000 C 
BRANCH  17  18
ATOM     18  C   UNL     1      -4.865   0.928  -3.660  1.00  0.00     0.000 C 
BRANCH  18  19
ATOM     19  C   UNL     1      -3.795  -0.139  -3.368  1.00  0.00     0.000 C 
BRANCH  19  20
ATOM     20  C   UNL     1      -4.188  -1.578  -3.749  1.00  0.00     0.006 C 
BRANCH  20  21
ATOM     21  C   UNL     1      -3.065  -2.593  -3.498  1.00  0.00     0.053 C 
BRANCH  21  22
ATOM     22  C   UNL     1      -3.057  -3.641  -4.566  1.00  0.00     0.041 C 
ATOM     23  O   UNL     1      -4.130  -3.973  -5.135  1.00  0.00    -0.550 OA
ATOM     24  O   UNL     1      -1.859  -4.230  -4.955  1.00  0.00    -0.550 OA
ENDBRANCH  21  22
ENDBRANCH  20  21
ENDBRANCH  19  20
ENDBRANCH  18  19
ENDBRANCH  17  18
ENDBRANCH  16  17
ENDBRANCH  15  16
ENDBRANCH  14  15
ENDBRANCH  13  14
ENDBRANCH   1  13
TORSDOF 20
ENDMDL
MODEL 7
REMARK VINA RESULT:    -4.050      3.247      8.067
REMARK INTER + INTRA:         -11.888
REMARK INTER:                 -10.049
REMARK INTRA:                  -1.839
REMARK UNBOUND:                -3.102
REMARK SMILES CCCCCCCCCCCCCCCCCCCCCC(=O)[O-]
REMARK SMILES IDX 12 1 11 2 10 3 9 4 8 5 7 6 6 7 5 8 4 9 3 10 2 11 1 12 13 13
REMARK SMILES IDX 14 14 15 15 16 16 17 17 18 18 19 19 20 20 21 21 22 22 23 23
REMARK SMILES IDX 24 24
REMARK H PARENT
REMARK Flexibility Score: inf
ROOT
ATOM      1  C   UNL     1      -0.461   2.994  -4.313  1.00  0.00     0.000 C 
ENDROOT
BRANCH   1   2
ATOM      2  C   UNL     1      -1.892   2.505  -4.027  1.00  0.00     0.000 C 
BRANCH   2   3
ATOM      3  C   UNL     1      -2.196   2.233  -2.540  1.00  0.00     0.000 C 
BRANCH   3   4
ATOM      4  C   UNL     1      -3.611   2.638  -2.080  1.00  0.00    -0.000 C 
BRANCH   4   5
ATOM      5  C   UNL     1      -4.566   3.068  -3.211  1.00  0.00    -0.000 C 
BRANCH   5   6
ATOM      6  C   UNL     1      -6.062   2.864  -2.908  1.00  0.00    -0.000 C 
BRANCH   6   7
ATOM      7  C   UNL     1      -6.577   1.485  -3.354  1.00  0.00    -0.000 C 
BRANCH   7   8
ATOM      8  C   UNL     1      -5.666   0.825  -4.402  1.00  0.00    -0.000 C 
BRANCH   8   9
ATOM      9  C   UNL     1      -5.335  -0.636  -4.059  1.00  0.00    -0.000 C 
BRANCH   9  10
ATOM     10  C   UNL     1      -3.871  -0.780  -3.619  1.00  0.00    -0.000 C 
BRANCH  10  11
ATOM     11  C   UNL     1      -3.535  -2.202  -3.142  1.00  0.00    -0.003 C 
ATOM     12  C   UNL     1      -3.275  -3.166  -4.300  1.00  0.00     0.004 C 
ENDBRANCH  10  11
ENDBRANCH   9  10
ENDBRANCH   8   9
ENDBRANCH   7   8
ENDBRANCH   6   7
ENDBRANCH   5   6
ENDBRANCH   4   5
ENDBRANCH   3   4
ENDBRANCH   2   3
ENDBRANCH   1   2
BRANCH   1  13
ATOM     13  C   UNL     1       0.418   3.025  -3.052  1.00  0.00     0.000 C 
BRANCH  13  14
ATOM     14  C   UNL     1       1.908   3.250  -3.365  1.00  0.00     0.000 C 
BRANCH  14  15
ATOM     15  C   UNL     1       2.774   1.977  -3.340  1.00  0.00     0.000 C 
BRANCH  15  16
ATOM     16  C   UNL     1       4.256   2.254  -3.647  1.00  0.00     0.000 C 
BRANCH  16  17
ATOM     17  C   UNL     1       4.443   3.418  -4.633  1.00  0.00     0.000 C 
BRANCH  17  18
ATOM     18  C   UNL     1       4.441   2.947  -6.098  1.00  0.00     0.000 C 
BRANCH  18  19
ATOM     19  C   UNL     1       3.128   3.273  -6.833  1.00  0.00     0.000 C 
BRANCH  19  20
ATOM     20  C   UNL     1       3.216   3.242  -8.369  1.00  0.00     0.006 C 
BRANCH  20  21
ATOM     21  C   UNL     1       4.425   2.451  -8.886  1.00  0.00     0.053 C 
BRANCH  21  22
ATOM     22  C   UNL     1       4.033   1.045  -9.213  1.00  0.00     0.041 C 
ATOM     23  O   UNL     1       3.193   0.819 -10.124  1.00  0.00    -0.550 OA
ATOM     24  O   UNL     1       4.618  -0.018  -8.536  1.00  0.00    -0.550 OA
ENDBRANCH  21  22
ENDBRANCH  20  21
ENDBRANCH  19  20
ENDBRANCH  18  19
ENDBRANCH  17  18
ENDBRANCH  16  17
ENDBRANCH  15  16
ENDBRANCH  14  15
ENDBRANCH  13  14
ENDBRANCH   1  13
TORSDOF 20
ENDMDL
MODEL 8
REMARK VINA RESULT:    -4.035      2.950      7.235
REMARK INTER + INTRA:         -11.855
REMARK INTER:                  -9.036
REMARK INTRA:                  -2.819
REMARK UNBOUND:                -3.102
REMARK SMILES CCCCCCCCCCCCCCCCCCCCCC(=O)[O-]
REMARK SMILES IDX 12 1 11 2 10 3 9 4 8 5 7 6 6 7 5 8 4 9 3 10 2 11 1 12 13 13
REMARK SMILES IDX 14 14 15 15 16 16 17 17 18 18 19 19 20 20 21 21 22 22 23 23
REMARK SMILES IDX 24 24
REMARK H PARENT
REMARK Flexibility Score: inf
ROOT
ATOM      1  C   UNL     1      -0.975   3.000  -6.200  1.00  0.00     0.000 C 
ENDROOT
BRANCH   1   2
ATOM      2  C   UNL     1      -1.882   3.540  -7.320  1.00  0.00     0.000 C 
BRANCH   2   3
ATOM      3  C   UNL     1      -3.221   2.792  -7.483  1.00  0.00     0.000 C 
BRANCH   3   4
ATOM      4  C   UNL     1      -4.208   2.962  -6.312  1.00  0.00    -0.000 C 
BRANCH   4   5
ATOM      5  C   UNL     1      -4.392   4.411  -5.819  1.00  0.00    -0.000 C 
BRANCH   5   6
ATOM      6  C   UNL     1      -4.527   4.564  -4.292  1.00  0.00    -0.000 C 
BRANCH   6   7
ATOM      7  C   UNL     1      -5.601   3.639  -3.695  1.00  0.00    -0.000 C 
BRANCH   7   8
ATOM      8  C   UNL     1      -5.036   2.688  -2.627  1.00  0.00    -0.000 C 
BRANCH   8   9
ATOM      9  C   UNL     1      -3.501   2.626  -2.646  1.00  0.00    -0.000 C 
BRANCH   9  10
ATOM     10  C   UNL     1      -3.012   1.274  -3.183  1.00  0.00    -0.000 C 
BRANCH  10  11
ATOM     11  C   UNL     1      -4.167   0.306  -3.488  1.00  0.00    -0.003 C 
ATOM     12  C   UNL     1      -3.752  -1.160  -3.380  1.00  0.00     0.004 C 
ENDBRANCH  10  11
ENDBRANCH   9  10
ENDBRANCH   8   9
ENDBRANCH   7   8
ENDBRANCH   6   7
ENDBRANCH   5   6
ENDBRANCH   4   5
ENDBRANCH   3   4
ENDBRANCH   2   3
ENDBRANCH   1   2
BRANCH   1  13
ATOM     13  C   UNL     1      -0.790   4.005  -5.051  1.00  0.00     0.000 C 
BRANCH  13  14
ATOM     14  C   UNL     1      -0.154   3.373  -3.799  1.00  0.00     0.000 C 
BRANCH  14  15
ATOM     15  C   UNL     1       0.771   4.309  -3.000  1.00  0.00     0.000 C 
BRANCH  15  16
ATOM     16  C   UNL     1       2.264   4.024  -3.238  1.00  0.00     0.000 C 
BRANCH  16  17
ATOM     17  C   UNL     1       2.520   2.575  -3.682  1.00  0.00     0.000 C 
BRANCH  17  18
ATOM     18  C   UNL     1       3.445   2.496  -4.909  1.00  0.00     0.000 C 
BRANCH  18  19
ATOM     19  C   UNL     1       3.130   3.568  -5.969  1.00  0.00     0.000 C 
BRANCH  19  20
ATOM     20  C   UNL     1       3.375   3.137  -7.426  1.00  0.00     0.006 C 
BRANCH  20  21
ATOM     21  C   UNL     1       4.651   2.302  -7.599  1.00  0.00     0.053 C 
BRANCH  21  22
ATOM     22  C   UNL     1       4.422   1.188  -8.570  1.00  0.00     0.041 C 
ATOM     23  O   UNL     1       4.335   0.000  -8.161  1.00  0.00    -0.550 OA
ATOM     24  O   UNL     1       4.273   1.463  -9.924  1.00  0.00    -0.550 OA
ENDBRANCH  21  22
ENDBRANCH  20  21
ENDBRANCH  19  20
ENDBRANCH  18  19
ENDBRANCH  17  18
ENDBRANCH  16  17
ENDBRANCH  15  16
ENDBRANCH  14  15
ENDBRANCH  13  14
ENDBRANCH   1  13
TORSDOF 20
ENDMDL
MODEL 9
REMARK VINA RESULT:    -3.988      3.140      7.574
REMARK INTER + INTRA:         -11.754
REMARK INTER:                  -8.645
REMARK INTRA:                  -3.109
REMARK UNBOUND:                -3.102
REMARK SMILES CCCCCCCCCCCCCCCCCCCCCC(=O)[O-]
REMARK SMILES IDX 12 1 11 2 10 3 9 4 8 5 7 6 6 7 5 8 4 9 3 10 2 11 1 12 13 13
REMARK SMILES IDX 14 14 15 15 16 16 17 17 18 18 19 19 20 20 21 21 22 22 23 23
REMARK SMILES IDX 24 24
REMARK H PARENT
REMARK Flexibility Score: inf
ROOT
ATOM      1  C   UNL     1       0.199   2.897  -3.024  1.00  0.00     0.000 C 
ENDROOT
BRANCH   1   2
ATOM      2  C   UNL     1      -1.301   3.245  -3.026  1.00  0.00     0.000 C 
BRANCH   2   3
ATOM      3  C   UNL     1      -2.200   2.230  -2.294  1.00  0.00     0.000 C 
BRANCH   3   4
ATOM      4  C   UNL     1      -2.987   1.275  -3.213  1.00  0.00    -0.000 C 
BRANCH   4   5
ATOM      5  C   UNL     1      -4.486   1.602  -3.365  1.00  0.00    -0.000 C 
BRANCH   5   6
ATOM      6  C   UNL     1      -4.951   2.868  -2.621  1.00  0.00    -0.000 C 
BRANCH   6   7
ATOM      7  C   UNL     1      -5.656   3.874  -3.546  1.00  0.00    -0.000 C 
BRANCH   7   8
ATOM      8  C   UNL     1      -4.942   4.037  -4.897  1.00  0.00    -0.000 C 
BRANCH   8   9
ATOM      9  C   UNL     1      -3.841   5.108  -4.857  1.00  0.00    -0.000 C 
BRANCH   9  10
ATOM     10  C   UNL     1      -2.691   4.751  -5.811  1.00  0.00    -0.000 C 
BRANCH  10  11
ATOM     11  C   UNL     1      -2.768   3.299  -6.311  1.00  0.00    -0.003 C 
ATOM     12  C   UNL     1      -2.008   3.085  -7.619  1.00  0.00     0.004 C 
ENDBRANCH  10  11
ENDBRANCH   9  10
ENDBRANCH   8   9
ENDBRANCH   7   8
ENDBRANCH   6   7
ENDBRANCH   5   6
ENDBRANCH   4   5
ENDBRANCH   3   4
ENDBRANCH   2   3
ENDBRANCH   1   2
BRANCH   1  13
ATOM     13  C   UNL     1       1.038   3.886  -3.850  1.00  0.00     0.000 C 
BRANCH  13  14
ATOM     14  C   UNL     1       0.889   3.676  -5.368  1.00  0.00     0.000 C 
BRANCH  14  15
ATOM     15  C   UNL     1       1.331   4.870  -6.233  1.00  0.00     0.000 C 
BRANCH  15  16
ATOM     16  C   UNL     1       2.582   4.570  -7.077  1.00  0.00     0.000 C 
BRANCH  16  17
ATOM     17  C   UNL     1       3.146   3.166  -6.809  1.00  0.00     0.000 C 
BRANCH  17  18
ATOM     18  C   UNL     1       4.618   3.205  -6.361  1.00  0.00     0.000 C 
BRANCH  18  19
ATOM     19  C   UNL     1       4.952   4.438  -5.502  1.00  0.00     0.000 C 
BRANCH  19  20
ATOM     20  C   UNL     1       5.520   4.127  -4.106  1.00  0.00     0.006 C 
BRANCH  20  21
ATOM     21  C   UNL     1       4.434   3.764  -3.084  1.00  0.00     0.053 C 
BRANCH  21  22
ATOM     22  C   UNL     1       4.483   2.304  -2.761  1.00  0.00     0.041 C 
ATOM     23  O   UNL     1       5.534   1.796  -2.290  1.00  0.00    -0.550 OA
ATOM     24  O   UNL     1       3.358   1.510  -2.949  1.00  0.00    -0.550 OA
ENDBRANCH  21  22
ENDBRANCH  20  21
ENDBRANCH  19  20
ENDBRANCH  18  19
ENDBRANCH  17  18
ENDBRANCH  16  17
ENDBRANCH  15  16
ENDBRANCH  14  15
ENDBRANCH  13  14
ENDBRANCH   1  13
TORSDOF 20
ENDMDL
