MODEL 1
REMARK VINA RESULT:    -7.350      0.000      0.000
REMARK INTER + INTRA:          -9.146
REMARK INTER:                  -8.854
REMARK INTRA:                  -0.292
REMARK UNBOUND:                -0.292
REMARK SMILES O=c1c(O)c(-c2ccc(O)c(O)c2)oc2cc(O)cc(O)c12
REMARK SMILES IDX 5 1 3 2 2 3 1 4 22 5 20 6 19 7 17 8 16 9 15 10 14 11 6 12
REMARK SMILES IDX 7 13 8 14 9 15 13 16 11 17 10 18 12 20 4 22 21 24 18 26
REMARK H PARENT 10 19 12 21 4 23 21 25 18 27
REMARK Flexibility Score: inf
ROOT
ATOM      1  C   UNL     1      -3.777  22.673  48.483  1.00  0.00     0.180 A 
ATOM      2  C   UNL     1      -2.911  22.873  47.396  1.00  0.00     0.208 A 
ATOM      3  C   UNL     1      -2.143  21.794  46.929  1.00  0.00     0.238 A 
ATOM      4  O   UNL     1      -1.314  21.999  46.004  1.00  0.00    -0.285 OA
ATOM      5  C   UNL     1      -2.292  20.515  47.518  1.00  0.00     0.111 A 
ATOM      6  C   UNL     1      -1.597  19.341  47.097  1.00  0.00     0.134 A 
ATOM      7  C   UNL     1      -1.745  18.153  47.824  1.00  0.00     0.093 A 
ATOM      8  C   UNL     1      -2.608  18.079  48.915  1.00  0.00     0.123 A 
ATOM      9  C   UNL     1      -3.334  19.206  49.303  1.00  0.00     0.094 A 
ATOM     10  C   UNL     1      -3.179  20.416  48.621  1.00  0.00     0.146 A 
ATOM     11  O   UNL     1      -3.872  21.469  49.036  1.00  0.00    -0.452 OA
ENDROOT
BRANCH   1  12
ATOM     12  C   UNL     1      -4.608  23.764  49.041  1.00  0.00     0.025 A 
ATOM     13  C   UNL     1      -5.810  24.111  48.403  1.00  0.00     0.016 A 
ATOM     14  C   UNL     1      -6.621  25.123  48.924  1.00  0.00     0.051 A 
ATOM     15  C   UNL     1      -6.252  25.792  50.095  1.00  0.00     0.157 A 
ATOM     16  C   UNL     1      -4.250  24.424  50.230  1.00  0.00     0.062 A 
ATOM     17  C   UNL     1      -5.064  25.438  50.755  1.00  0.00     0.158 A 
BRANCH  15  18
ATOM     18  O   UNL     1      -7.080  26.800  50.588  1.00  0.00    -0.504 OA
ATOM     19  H   UNL     1      -7.849  27.178  50.048  1.00  0.00     0.293 HD
ENDBRANCH  15  18
BRANCH  17  20
ATOM     20  O   UNL     1      -4.698  26.092  51.931  1.00  0.00    -0.504 OA
ATOM     21  H   UNL     1      -4.860  25.676  52.842  1.00  0.00     0.293 HD
ENDBRANCH  17  20
ENDBRANCH   1  12
BRANCH   2  22
ATOM     22  O   UNL     1      -2.835  24.125  46.777  1.00  0.00    -0.502 OA
ATOM     23  H   UNL     1      -3.560  24.472  46.162  1.00  0.00     0.293 HD
ENDBRANCH   2  22
BRANCH   6  24
ATOM     24  O   UNL     1      -0.777  19.279  45.966  1.00  0.00    -0.507 OA
ATOM     25  H   UNL     1      -0.094  19.975  45.708  1.00  0.00     0.293 HD
ENDBRANCH   6  24
BRANCH   8  26
ATOM     26  O   UNL     1      -2.744  16.876  49.605  1.00  0.00    -0.508 OA
ATOM     27  H   UNL     1      -3.000  16.019  49.129  1.00  0.00     0.293 HD
ENDBRANCH   8  26
TORSDOF 6
ENDMDL
MODEL 2
REMARK VINA RESULT:    -7.023      1.640      6.890
REMARK INTER + INTRA:          -8.752
REMARK INTER:                  -8.552
REMARK INTRA:                  -0.200
REMARK UNBOUND:                -0.292
REMARK SMILES O=c1c(O)c(-c2ccc(O)c(O)c2)oc2cc(O)cc(O)c12
REMARK SMILES IDX 5 1 3 2 2 3 1 4 22 5 20 6 19 7 17 8 16 9 15 10 14 11 6 12
REMARK SMILES IDX 7 13 8 14 9 15 13 16 11 17 10 18 12 20 4 22 21 24 18 26
REMARK H PARENT 10 19 12 21 4 23 21 25 18 27
REMARK Flexibility Score: inf
ROOT
ATOM      1  C   UNL     1      -3.971  22.446  49.071  1.00  0.00     0.180 A 
ATOM      2  C   UNL     1      -5.134  23.114  48.655  1.00  0.00     0.208 A 
ATOM      3  C   UNL     1      -5.542  24.266  49.346  1.00  0.00     0.238 A 
ATOM      4  O   UNL     1      -6.625  24.816  49.015  1.00  0.00    -0.285 OA
ATOM      5  C   UNL     1      -4.753  24.768  50.409  1.00  0.00     0.111 A 
ATOM      6  C   UNL     1      -5.047  25.952  51.151  1.00  0.00     0.134 A 
ATOM      7  C   UNL     1      -4.251  26.293  52.251  1.00  0.00     0.093 A 
ATOM      8  C   UNL     1      -3.137  25.532  52.598  1.00  0.00     0.123 A 
ATOM      9  C   UNL     1      -2.808  24.403  51.847  1.00  0.00     0.094 A 
ATOM     10  C   UNL     1      -3.605  24.015  50.766  1.00  0.00     0.146 A 
ATOM     11  O   UNL     1      -3.268  22.922  50.092  1.00  0.00    -0.452 OA
ENDROOT
BRANCH   1  12
ATOM     12  C   UNL     1      -3.484  21.218  48.402  1.00  0.00     0.025 A 
ATOM     13  C   UNL     1      -4.226  20.031  48.514  1.00  0.00     0.016 A 
ATOM     14  C   UNL     1      -3.797  18.866  47.873  1.00  0.00     0.051 A 
ATOM     15  C   UNL     1      -2.631  18.871  47.101  1.00  0.00     0.157 A 
ATOM     16  C   UNL     1      -2.324  21.227  47.608  1.00  0.00     0.062 A 
ATOM     17  C   UNL     1      -1.893  20.058  46.963  1.00  0.00     0.158 A 
BRANCH  15  18
ATOM     18  O   UNL     1      -2.227  17.692  46.477  1.00  0.00    -0.504 OA
ATOM     19  H   UNL     1      -1.666  17.695  45.634  1.00  0.00     0.293 HD
ENDBRANCH  15  18
BRANCH  17  20
ATOM     20  O   UNL     1      -0.738  20.074  46.182  1.00  0.00    -0.504 OA
ATOM     21  H   UNL     1      -0.688  19.580  45.298  1.00  0.00     0.293 HD
ENDBRANCH  17  20
ENDBRANCH   1  12
BRANCH   2  22
ATOM     22  O   UNL     1      -5.858  22.647  47.554  1.00  0.00    -0.502 OA
ATOM     23  H   UNL     1      -6.333  23.269  46.911  1.00  0.00     0.293 HD
ENDBRANCH   2  22
BRANCH   6  24
ATOM     24  O   UNL     1      -6.085  26.836  50.837  1.00  0.00    -0.507 OA
ATOM     25  H   UNL     1      -7.068  26.619  50.900  1.00  0.00     0.293 HD
ENDBRANCH   6  24
BRANCH   8  26
ATOM     26  O   UNL     1      -2.358  25.910  53.689  1.00  0.00    -0.508 OA
ATOM     27  H   UNL     1      -2.579  25.607  54.630  1.00  0.00     0.293 HD
ENDBRANCH   8  26
TORSDOF 6
ENDMDL
MODEL 3
REMARK VINA RESULT:    -6.767      1.762      6.912
REMARK INTER + INTRA:          -8.444
REMARK INTER:                  -8.176
REMARK INTRA:                  -0.268
REMARK UNBOUND:                -0.292
REMARK SMILES O=c1c(O)c(-c2ccc(O)c(O)c2)oc2cc(O)cc(O)c12
REMARK SMILES IDX 5 1 3 2 2 3 1 4 22 5 20 6 19 7 17 8 16 9 15 10 14 11 6 12
REMARK SMILES IDX 7 13 8 14 9 15 13 16 11 17 10 18 12 20 4 22 21 24 18 26
REMARK H PARENT 10 19 12 21 4 23 21 25 18 27
REMARK Flexibility Score: inf
ROOT
ATOM      1  C   UNL     1      -2.796  21.616  48.051  1.00  0.00     0.180 A 
ATOM      2  C   UNL     1      -3.844  21.936  47.171  1.00  0.00     0.208 A 
ATOM      3  C   UNL     1      -4.810  22.871  47.576  1.00  0.00     0.238 A 
ATOM      4  O   UNL     1      -5.786  23.097  46.814  1.00  0.00    -0.285 OA
ATOM      5  C   UNL     1      -4.688  23.515  48.831  1.00  0.00     0.111 A 
ATOM      6  C   UNL     1      -5.585  24.511  49.324  1.00  0.00     0.134 A 
ATOM      7  C   UNL     1      -5.423  25.001  50.626  1.00  0.00     0.093 A 
ATOM      8  C   UNL     1      -4.364  24.581  51.428  1.00  0.00     0.123 A 
ATOM      9  C   UNL     1      -3.449  23.649  50.936  1.00  0.00     0.094 A 
ATOM     10  C   UNL     1      -3.605  23.113  49.655  1.00  0.00     0.146 A 
ATOM     11  O   UNL     1      -2.725  22.213  49.235  1.00  0.00    -0.452 OA
ENDROOT
BRANCH   1  12
ATOM     12  C   UNL     1      -1.747  20.631  47.702  1.00  0.00     0.025 A 
ATOM     13  C   UNL     1      -0.445  21.077  47.429  1.00  0.00     0.016 A 
ATOM     14  C   UNL     1       0.566  20.164  47.120  1.00  0.00     0.051 A 
ATOM     15  C   UNL     1       0.296  18.792  47.091  1.00  0.00     0.157 A 
ATOM     16  C   UNL     1      -2.012  19.250  47.694  1.00  0.00     0.062 A 
ATOM     17  C   UNL     1      -0.998  18.331  47.385  1.00  0.00     0.158 A 
BRANCH  15  18
ATOM     18  O   UNL     1       1.324  17.905  46.775  1.00  0.00    -0.504 OA
ATOM     19  H   UNL     1       1.254  16.912  46.961  1.00  0.00     0.293 HD
ENDBRANCH  15  18
BRANCH  17  20
ATOM     20  O   UNL     1      -1.271  16.964  47.373  1.00  0.00    -0.504 OA
ATOM     21  H   UNL     1      -1.137  16.403  46.539  1.00  0.00     0.293 HD
ENDBRANCH  17  20
ENDBRANCH   1  12
BRANCH   2  22
ATOM     22  O   UNL     1      -3.905  21.347  45.905  1.00  0.00    -0.502 OA
ATOM     23  H   UNL     1      -3.434  21.740  45.099  1.00  0.00     0.293 HD
ENDBRANCH   2  22
BRANCH   6  24
ATOM     24  O   UNL     1      -6.627  25.067  48.575  1.00  0.00    -0.507 OA
ATOM     25  H   UNL     1      -6.575  25.939  48.072  1.00  0.00     0.293 HD
ENDBRANCH   6  24
BRANCH   8  26
ATOM     26  O   UNL     1      -4.224  25.103  52.712  1.00  0.00    -0.508 OA
ATOM     27  H   UNL     1      -4.826  24.810  53.472  1.00  0.00     0.293 HD
ENDBRANCH   8  26
TORSDOF 6
ENDMDL
MODEL 4
REMARK VINA RESULT:    -6.717      0.745      1.426
REMARK INTER + INTRA:          -8.384
REMARK INTER:                  -8.411
REMARK INTRA:                   0.027
REMARK UNBOUND:                -0.292
REMARK SMILES O=c1c(O)c(-c2ccc(O)c(O)c2)oc2cc(O)cc(O)c12
REMARK SMILES IDX 5 1 3 2 2 3 1 4 22 5 20 6 19 7 17 8 16 9 15 10 14 11 6 12
REMARK SMILES IDX 7 13 8 14 9 15 13 16 11 17 10 18 12 20 4 22 21 24 18 26
REMARK H PARENT 10 19 12 21 4 23 21 25 18 27
REMARK Flexibility Score: inf
ROOT
ATOM      1  C   UNL     1      -3.790  22.762  48.442  1.00  0.00     0.180 A 
ATOM      2  C   UNL     1      -2.771  23.001  47.505  1.00  0.00     0.208 A 
ATOM      3  C   UNL     1      -1.969  21.929  47.081  1.00  0.00     0.238 A 
ATOM      4  O   UNL     1      -1.011  22.165  46.299  1.00  0.00    -0.285 OA
ATOM      5  C   UNL     1      -2.231  20.621  47.556  1.00  0.00     0.111 A 
ATOM      6  C   UNL     1      -1.511  19.453  47.160  1.00  0.00     0.134 A 
ATOM      7  C   UNL     1      -1.790  18.228  47.778  1.00  0.00     0.093 A 
ATOM      8  C   UNL     1      -2.803  18.114  48.728  1.00  0.00     0.123 A 
ATOM      9  C   UNL     1      -3.551  19.237  49.083  1.00  0.00     0.094 A 
ATOM     10  C   UNL     1      -3.271  20.482  48.513  1.00  0.00     0.146 A 
ATOM     11  O   UNL     1      -3.991  21.529  48.894  1.00  0.00    -0.452 OA
ENDROOT
BRANCH   1  12
ATOM     12  C   UNL     1      -4.667  23.841  48.947  1.00  0.00     0.025 A 
ATOM     13  C   UNL     1      -4.826  24.011  50.332  1.00  0.00     0.016 A 
ATOM     14  C   UNL     1      -5.631  25.037  50.831  1.00  0.00     0.051 A 
ATOM     15  C   UNL     1      -6.278  25.918  49.958  1.00  0.00     0.157 A 
ATOM     16  C   UNL     1      -5.301  24.741  48.071  1.00  0.00     0.062 A 
ATOM     17  C   UNL     1      -6.109  25.773  48.571  1.00  0.00     0.158 A 
BRANCH  15  18
ATOM     18  O   UNL     1      -7.079  26.930  50.486  1.00  0.00    -0.504 OA
ATOM     19  H   UNL     1      -7.549  26.834  51.378  1.00  0.00     0.293 HD
ENDBRANCH  15  18
BRANCH  17  20
ATOM     20  O   UNL     1      -6.739  26.656  47.696  1.00  0.00    -0.504 OA
ATOM     21  H   UNL     1      -7.748  26.667  47.587  1.00  0.00     0.293 HD
ENDBRANCH  17  20
ENDBRANCH   1  12
BRANCH   2  22
ATOM     22  O   UNL     1      -2.578  24.286  46.989  1.00  0.00    -0.502 OA
ATOM     23  H   UNL     1      -2.119  25.020  47.514  1.00  0.00     0.293 HD
ENDBRANCH   2  22
BRANCH   6  24
ATOM     24  O   UNL     1      -0.537  19.436  46.156  1.00  0.00    -0.507 OA
ATOM     25  H   UNL     1      -0.630  19.878  45.254  1.00  0.00     0.293 HD
ENDBRANCH   6  24
BRANCH   8  26
ATOM     26  O   UNL     1      -3.065  16.875  49.309  1.00  0.00    -0.508 OA
ATOM     27  H   UNL     1      -3.941  16.686  49.781  1.00  0.00     0.293 HD
ENDBRANCH   8  26
TORSDOF 6
ENDMDL
MODEL 5
REMARK VINA RESULT:    -6.626      4.642      6.890
REMARK INTER + INTRA:          -8.273
REMARK INTER:                  -8.025
REMARK INTRA:                  -0.249
REMARK UNBOUND:                -0.292
REMARK SMILES O=c1c(O)c(-c2ccc(O)c(O)c2)oc2cc(O)cc(O)c12
REMARK SMILES IDX 5 1 3 2 2 3 1 4 22 5 20 6 19 7 17 8 16 9 15 10 14 11 6 12
REMARK SMILES IDX 7 13 8 14 9 15 13 16 11 17 10 18 12 20 4 22 21 24 18 26
REMARK H PARENT 10 19 12 21 4 23 21 25 18 27
REMARK Flexibility Score: inf
ROOT
ATOM      1  C   UNL     1      -6.189  26.781  49.485  1.00  0.00     0.180 A 
ATOM      2  C   UNL     1      -5.898  25.416  49.328  1.00  0.00     0.208 A 
ATOM      3  C   UNL     1      -4.973  24.813  50.195  1.00  0.00     0.238 A 
ATOM      4  O   UNL     1      -4.661  23.609  50.001  1.00  0.00    -0.285 OA
ATOM      5  C   UNL     1      -4.393  25.567  51.244  1.00  0.00     0.111 A 
ATOM      6  C   UNL     1      -3.477  25.047  52.209  1.00  0.00     0.134 A 
ATOM      7  C   UNL     1      -2.886  25.913  53.137  1.00  0.00     0.093 A 
ATOM      8  C   UNL     1      -3.223  27.265  53.177  1.00  0.00     0.123 A 
ATOM      9  C   UNL     1      -4.158  27.773  52.274  1.00  0.00     0.094 A 
ATOM     10  C   UNL     1      -4.737  26.942  51.312  1.00  0.00     0.146 A 
ATOM     11  O   UNL     1      -5.605  27.471  50.458  1.00  0.00    -0.452 OA
ENDROOT
BRANCH   1  12
ATOM     12  C   UNL     1      -7.141  27.491  48.602  1.00  0.00     0.025 A 
ATOM     13  C   UNL     1      -6.650  28.346  47.603  1.00  0.00     0.016 A 
ATOM     14  C   UNL     1      -7.530  29.009  46.743  1.00  0.00     0.051 A 
ATOM     15  C   UNL     1      -8.911  28.819  46.860  1.00  0.00     0.157 A 
ATOM     16  C   UNL     1      -8.529  27.285  48.704  1.00  0.00     0.062 A 
ATOM     17  C   UNL     1      -9.413  27.949  47.841  1.00  0.00     0.158 A 
BRANCH  15  18
ATOM     18  O   UNL     1      -9.764  29.498  45.991  1.00  0.00    -0.504 OA
ATOM     19  H   UNL     1     -10.558  29.046  45.554  1.00  0.00     0.293 HD
ENDBRANCH  15  18
BRANCH  17  20
ATOM     20  O   UNL     1     -10.788  27.743  47.953  1.00  0.00    -0.504 OA
ATOM     21  H   UNL     1     -11.400  27.794  47.145  1.00  0.00     0.293 HD
ENDBRANCH  17  20
ENDBRANCH   1  12
BRANCH   2  22
ATOM     22  O   UNL     1      -6.539  24.670  48.335  1.00  0.00    -0.502 OA
ATOM     23  H   UNL     1      -6.089  23.898  47.859  1.00  0.00     0.293 HD
ENDBRANCH   2  22
BRANCH   6  24
ATOM     24  O   UNL     1      -3.136  23.695  52.316  1.00  0.00    -0.507 OA
ATOM     25  H   UNL     1      -2.309  23.341  52.772  1.00  0.00     0.293 HD
ENDBRANCH   6  24
BRANCH   8  26
ATOM     26  O   UNL     1      -2.629  28.094  54.125  1.00  0.00    -0.508 OA
ATOM     27  H   UNL     1      -3.041  28.234  55.040  1.00  0.00     0.293 HD
ENDBRANCH   8  26
TORSDOF 6
ENDMDL
MODEL 6
REMARK VINA RESULT:    -6.619      2.022      7.527
REMARK INTER + INTRA:          -8.266
REMARK INTER:                  -7.948
REMARK INTRA:                  -0.318
REMARK UNBOUND:                -0.292
REMARK SMILES O=c1c(O)c(-c2ccc(O)c(O)c2)oc2cc(O)cc(O)c12
REMARK SMILES IDX 5 1 3 2 2 3 1 4 22 5 20 6 19 7 17 8 16 9 15 10 14 11 6 12
REMARK SMILES IDX 7 13 8 14 9 15 13 16 11 17 10 18 12 20 4 22 21 24 18 26
REMARK H PARENT 10 19 12 21 4 23 21 25 18 27
REMARK Flexibility Score: inf
ROOT
ATOM      1  C   UNL     1      -4.073  23.373  47.729  1.00  0.00     0.180 A 
ATOM      2  C   UNL     1      -4.501  23.464  49.064  1.00  0.00     0.208 A 
ATOM      3  C   UNL     1      -5.357  24.513  49.436  1.00  0.00     0.238 A 
ATOM      4  O   UNL     1      -5.675  24.631  50.648  1.00  0.00    -0.285 OA
ATOM      5  C   UNL     1      -5.819  25.426  48.458  1.00  0.00     0.111 A 
ATOM      6  C   UNL     1      -6.724  26.502  48.713  1.00  0.00     0.134 A 
ATOM      7  C   UNL     1      -7.028  27.406  47.688  1.00  0.00     0.093 A 
ATOM      8  C   UNL     1      -6.513  27.240  46.404  1.00  0.00     0.123 A 
ATOM      9  C   UNL     1      -5.672  26.161  46.129  1.00  0.00     0.094 A 
ATOM     10  C   UNL     1      -5.319  25.263  47.140  1.00  0.00     0.146 A 
ATOM     11  O   UNL     1      -4.498  24.264  46.840  1.00  0.00    -0.452 OA
ENDROOT
BRANCH   1  12
ATOM     12  C   UNL     1      -3.161  22.305  47.264  1.00  0.00     0.025 A 
ATOM     13  C   UNL     1      -1.774  22.471  47.407  1.00  0.00     0.016 A 
ATOM     14  C   UNL     1      -0.895  21.466  46.995  1.00  0.00     0.051 A 
ATOM     15  C   UNL     1      -1.386  20.277  46.448  1.00  0.00     0.157 A 
ATOM     16  C   UNL     1      -3.654  21.099  46.733  1.00  0.00     0.062 A 
ATOM     17  C   UNL     1      -2.772  20.089  46.321  1.00  0.00     0.158 A 
BRANCH  15  18
ATOM     18  O   UNL     1      -0.484  19.294  46.042  1.00  0.00    -0.504 OA
ATOM     19  H   UNL     1      -0.692  18.306  46.123  1.00  0.00     0.293 HD
ENDBRANCH  15  18
BRANCH  17  20
ATOM     20  O   UNL     1      -3.269  18.899  45.790  1.00  0.00    -0.504 OA
ATOM     21  H   UNL     1      -2.888  18.497  44.941  1.00  0.00     0.293 HD
ENDBRANCH  17  20
ENDBRANCH   1  12
BRANCH   2  22
ATOM     22  O   UNL     1      -4.095  22.507  49.999  1.00  0.00    -0.502 OA
ATOM     23  H   UNL     1      -3.127  22.232  50.111  1.00  0.00     0.293 HD
ENDBRANCH   2  22
BRANCH   6  24
ATOM     24  O   UNL     1      -7.367  26.710  49.938  1.00  0.00    -0.507 OA
ATOM     25  H   UNL     1      -6.988  27.244  50.705  1.00  0.00     0.293 HD
ENDBRANCH   6  24
BRANCH   8  26
ATOM     26  O   UNL     1      -6.851  28.149  45.404  1.00  0.00    -0.508 OA
ATOM     27  H   UNL     1      -7.476  28.926  45.584  1.00  0.00     0.293 HD
ENDBRANCH   8  26
TORSDOF 6
ENDMDL
MODEL 7
REMARK VINA RESULT:    -6.591      1.793      7.118
REMARK INTER + INTRA:          -8.232
REMARK INTER:                  -7.959
REMARK INTRA:                  -0.273
REMARK UNBOUND:                -0.292
REMARK SMILES O=c1c(O)c(-c2ccc(O)c(O)c2)oc2cc(O)cc(O)c12
REMARK SMILES IDX 5 1 3 2 2 3 1 4 22 5 20 6 19 7 17 8 16 9 15 10 14 11 6 12
REMARK SMILES IDX 7 13 8 14 9 15 13 16 11 17 10 18 12 20 4 22 21 24 18 26
REMARK H PARENT 10 19 12 21 4 23 21 25 18 27
REMARK Flexibility Score: inf
ROOT
ATOM      1  C   UNL     1      -4.122  22.922  49.007  1.00  0.00     0.180 A 
ATOM      2  C   UNL     1      -3.275  23.433  50.005  1.00  0.00     0.208 A 
ATOM      3  C   UNL     1      -3.612  24.645  50.629  1.00  0.00     0.238 A 
ATOM      4  O   UNL     1      -2.811  25.134  51.467  1.00  0.00    -0.285 OA
ATOM      5  C   UNL     1      -4.818  25.303  50.287  1.00  0.00     0.111 A 
ATOM      6  C   UNL     1      -5.281  26.514  50.887  1.00  0.00     0.134 A 
ATOM      7  C   UNL     1      -6.438  27.131  50.393  1.00  0.00     0.093 A 
ATOM      8  C   UNL     1      -7.182  26.550  49.368  1.00  0.00     0.123 A 
ATOM      9  C   UNL     1      -6.769  25.338  48.812  1.00  0.00     0.094 A 
ATOM     10  C   UNL     1      -5.599  24.718  49.256  1.00  0.00     0.146 A 
ATOM     11  O   UNL     1      -5.231  23.578  48.686  1.00  0.00    -0.452 OA
ENDROOT
BRANCH   1  12
ATOM     12  C   UNL     1      -3.828  21.658  48.295  1.00  0.00     0.025 A 
ATOM     13  C   UNL     1      -3.270  21.705  47.008  1.00  0.00     0.016 A 
ATOM     14  C   UNL     1      -2.964  20.525  46.325  1.00  0.00     0.051 A 
ATOM     15  C   UNL     1      -3.197  19.282  46.922  1.00  0.00     0.157 A 
ATOM     16  C   UNL     1      -4.042  20.408  48.902  1.00  0.00     0.062 A 
ATOM     17  C   UNL     1      -3.734  19.222  48.219  1.00  0.00     0.158 A 
BRANCH  15  18
ATOM     18  O   UNL     1      -2.886  18.121  46.215  1.00  0.00    -0.504 OA
ATOM     19  H   UNL     1      -3.401  17.840  45.389  1.00  0.00     0.293 HD
ENDBRANCH  15  18
BRANCH  17  20
ATOM     20  O   UNL     1      -3.955  17.986  48.825  1.00  0.00    -0.504 OA
ATOM     21  H   UNL     1      -3.214  17.299  48.917  1.00  0.00     0.293 HD
ENDBRANCH  17  20
ENDBRANCH   1  12
BRANCH   2  22
ATOM     22  O   UNL     1      -2.128  22.729  50.383  1.00  0.00    -0.502 OA
ATOM     23  H   UNL     1      -1.218  22.915  49.979  1.00  0.00     0.293 HD
ENDBRANCH   2  22
BRANCH   6  24
ATOM     24  O   UNL     1      -4.662  27.135  51.976  1.00  0.00    -0.507 OA
ATOM     25  H   UNL     1      -3.665  27.196  52.118  1.00  0.00     0.293 HD
ENDBRANCH   6  24
BRANCH   8  26
ATOM     26  O   UNL     1      -8.337  27.182  48.914  1.00  0.00    -0.508 OA
ATOM     27  H   UNL     1      -9.165  27.253  49.493  1.00  0.00     0.293 HD
ENDBRANCH   8  26
TORSDOF 6
ENDMDL
MODEL 8
REMARK VINA RESULT:    -6.334      2.062      7.101
REMARK INTER + INTRA:          -7.922
REMARK INTER:                  -7.610
REMARK INTRA:                  -0.312
REMARK UNBOUND:                -0.292
REMARK SMILES O=c1c(O)c(-c2ccc(O)c(O)c2)oc2cc(O)cc(O)c12
REMARK SMILES IDX 5 1 3 2 2 3 1 4 22 5 20 6 19 7 17 8 16 9 15 10 14 11 6 12
REMARK SMILES IDX 7 13 8 14 9 15 13 16 11 17 10 18 12 20 4 22 21 24 18 26
REMARK H PARENT 10 19 12 21 4 23 21 25 18 27
REMARK Flexibility Score: inf
ROOT
ATOM      1  C   UNL     1      -3.653  22.513  48.087  1.00  0.00     0.180 A 
ATOM      2  C   UNL     1      -3.212  23.186  49.238  1.00  0.00     0.208 A 
ATOM      3  C   UNL     1      -3.510  24.551  49.386  1.00  0.00     0.238 A 
ATOM      4  O   UNL     1      -3.048  25.164  50.383  1.00  0.00    -0.285 OA
ATOM      5  C   UNL     1      -4.292  25.212  48.409  1.00  0.00     0.111 A 
ATOM      6  C   UNL     1      -4.692  26.581  48.477  1.00  0.00     0.134 A 
ATOM      7  C   UNL     1      -5.376  27.156  47.399  1.00  0.00     0.093 A 
ATOM      8  C   UNL     1      -5.730  26.399  46.284  1.00  0.00     0.123 A 
ATOM      9  C   UNL     1      -5.393  25.046  46.230  1.00  0.00     0.094 A 
ATOM     10  C   UNL     1      -4.677  24.452  47.273  1.00  0.00     0.146 A 
ATOM     11  O   UNL     1      -4.358  23.169  47.171  1.00  0.00    -0.452 OA
ENDROOT
BRANCH   1  12
ATOM     12  C   UNL     1      -3.367  21.080  47.853  1.00  0.00     0.025 A 
ATOM     13  C   UNL     1      -4.204  20.108  48.422  1.00  0.00     0.016 A 
ATOM     14  C   UNL     1      -3.966  18.749  48.197  1.00  0.00     0.051 A 
ATOM     15  C   UNL     1      -2.899  18.342  47.389  1.00  0.00     0.157 A 
ATOM     16  C   UNL     1      -2.308  20.670  47.024  1.00  0.00     0.062 A 
ATOM     17  C   UNL     1      -2.068  19.307  46.795  1.00  0.00     0.158 A 
BRANCH  15  18
ATOM     18  O   UNL     1      -2.684  16.980  47.186  1.00  0.00    -0.504 OA
ATOM     19  H   UNL     1      -3.425  16.356  46.890  1.00  0.00     0.293 HD
ENDBRANCH  15  18
BRANCH  17  20
ATOM     20  O   UNL     1      -1.012  18.908  45.978  1.00  0.00    -0.504 OA
ATOM     21  H   UNL     1      -0.398  18.144  46.238  1.00  0.00     0.293 HD
ENDBRANCH  17  20
ENDBRANCH   1  12
BRANCH   2  22
ATOM     22  O   UNL     1      -2.507  22.497  50.229  1.00  0.00    -0.502 OA
ATOM     23  H   UNL     1      -2.962  21.882  50.892  1.00  0.00     0.293 HD
ENDBRANCH   2  22
BRANCH   6  24
ATOM     24  O   UNL     1      -4.467  27.408  49.583  1.00  0.00    -0.507 OA
ATOM     25  H   UNL     1      -5.031  27.422  50.419  1.00  0.00     0.293 HD
ENDBRANCH   6  24
BRANCH   8  26
ATOM     26  O   UNL     1      -6.426  26.999  45.238  1.00  0.00    -0.508 OA
ATOM     27  H   UNL     1      -5.944  27.406  44.445  1.00  0.00     0.293 HD
ENDBRANCH   8  26
TORSDOF 6
ENDMDL
MODEL 9
REMARK VINA RESULT:    -6.244      3.274      5.815
REMARK INTER + INTRA:          -7.814
REMARK INTER:                  -7.518
REMARK INTRA:                  -0.296
REMARK UNBOUND:                -0.292
REMARK SMILES O=c1c(O)c(-c2ccc(O)c(O)c2)oc2cc(O)cc(O)c12
REMARK SMILES IDX 5 1 3 2 2 3 1 4 22 5 20 6 19 7 17 8 16 9 15 10 14 11 6 12
REMARK SMILES IDX 7 13 8 14 9 15 13 16 11 17 10 18 12 20 4 22 21 24 18 26
REMARK H PARENT 10 19 12 21 4 23 21 25 18 27
REMARK Flexibility Score: inf
ROOT
ATOM      1  C   UNL     1      -6.299  26.754  48.392  1.00  0.00     0.180 A 
ATOM      2  C   UNL     1      -5.754  26.906  49.678  1.00  0.00     0.208 A 
ATOM      3  C   UNL     1      -5.054  25.833  50.253  1.00  0.00     0.238 A 
ATOM      4  O   UNL     1      -4.634  25.950  51.433  1.00  0.00    -0.285 OA
ATOM      5  C   UNL     1      -4.861  24.641  49.514  1.00  0.00     0.111 A 
ATOM      6  C   UNL     1      -4.130  23.505  49.980  1.00  0.00     0.134 A 
ATOM      7  C   UNL     1      -4.095  22.340  49.203  1.00  0.00     0.093 A 
ATOM      8  C   UNL     1      -4.708  22.289  47.953  1.00  0.00     0.123 A 
ATOM      9  C   UNL     1      -5.378  23.411  47.463  1.00  0.00     0.094 A 
ATOM     10  C   UNL     1      -5.463  24.576  48.231  1.00  0.00     0.146 A 
ATOM     11  O   UNL     1      -6.129  25.612  47.737  1.00  0.00    -0.452 OA
ENDROOT
BRANCH   1  12
ATOM     12  C   UNL     1      -7.061  27.834  47.726  1.00  0.00     0.025 A 
ATOM     13  C   UNL     1      -6.367  28.872  47.084  1.00  0.00     0.016 A 
ATOM     14  C   UNL     1      -7.065  29.891  46.429  1.00  0.00     0.051 A 
ATOM     15  C   UNL     1      -8.463  29.881  46.394  1.00  0.00     0.157 A 
ATOM     16  C   UNL     1      -8.466  27.814  47.671  1.00  0.00     0.062 A 
ATOM     17  C   UNL     1      -9.168  28.835  47.013  1.00  0.00     0.158 A 
BRANCH  15  18
ATOM     18  O   UNL     1      -9.132  30.913  45.737  1.00  0.00    -0.504 OA
ATOM     19  H   UNL     1      -8.649  31.733  45.391  1.00  0.00     0.293 HD
ENDBRANCH  15  18
BRANCH  17  20
ATOM     20  O   UNL     1     -10.561  28.811  46.969  1.00  0.00    -0.504 OA
ATOM     21  H   UNL     1     -11.090  28.021  47.322  1.00  0.00     0.293 HD
ENDBRANCH  17  20
ENDBRANCH   1  12
BRANCH   2  22
ATOM     22  O   UNL     1      -5.889  28.119  50.361  1.00  0.00    -0.502 OA
ATOM     23  H   UNL     1      -6.371  28.916  49.964  1.00  0.00     0.293 HD
ENDBRANCH   2  22
BRANCH   6  24
ATOM     24  O   UNL     1      -3.406  23.477  51.176  1.00  0.00    -0.507 OA
ATOM     25  H   UNL     1      -2.772  22.743  51.451  1.00  0.00     0.293 HD
ENDBRANCH   6  24
BRANCH   8  26
ATOM     26  O   UNL     1      -4.638  21.120  47.200  1.00  0.00    -0.508 OA
ATOM     27  H   UNL     1      -4.941  20.229  47.575  1.00  0.00     0.293 HD
ENDBRANCH   8  26
TORSDOF 6
ENDMDL
