MODEL 1
REMARK VINA RESULT:    -4.629      0.000      0.000
REMARK INTER + INTRA:          -5.090
REMARK INTER:                  -4.899
REMARK INTRA:                  -0.190
REMARK UNBOUND:                -0.190
REMARK SMILES CC1=CC[C@@H](C(C)C)C=C1
REMARK SMILES IDX 1 1 2 2 3 3 4 4 5 5 9 6 10 7 6 8 7 9 8 10
REMARK H PARENT
REMARK Flexibility Score: inf
ROOT
ATOM      1  C   UNL     1      30.195  29.776  11.458  1.00  0.00     0.044 C 
ATOM      2  C   UNL     1      29.896  28.339  11.765  1.00  0.00    -0.055 C 
ATOM      3  C   UNL     1      30.895  27.451  11.885  1.00  0.00    -0.023 C 
ATOM      4  C   UNL     1      30.609  26.021  12.264  1.00  0.00     0.035 C 
ATOM      5  C   UNL     1      29.280  25.540  11.630  1.00  0.00     0.018 C 
ATOM      6  C   UNL     1      28.194  26.576  11.839  1.00  0.00    -0.023 C 
ATOM      7  C   UNL     1      28.490  27.881  11.849  1.00  0.00    -0.001 C 
ENDROOT
BRANCH   5   8
ATOM      8  C   UNL     1      28.824  24.129  12.105  1.00  0.00    -0.010 C 
ATOM      9  C   UNL     1      27.520  24.148  12.923  1.00  0.00     0.008 C 
ATOM     10  C   UNL     1      29.930  23.405  12.885  1.00  0.00     0.008 C 
ENDBRANCH   5   8
TORSDOF 1
ENDMDL
MODEL 2
REMARK VINA RESULT:    -4.546      1.147      4.565
REMARK INTER + INTRA:          -5.001
REMARK INTER:                  -4.810
REMARK INTRA:                  -0.191
REMARK UNBOUND:                -0.190
REMARK SMILES CC1=CC[C@@H](C(C)C)C=C1
REMARK SMILES IDX 1 1 2 2 3 3 4 4 5 5 9 6 10 7 6 8 7 9 8 10
REMARK H PARENT
REMARK Flexibility Score: inf
ROOT
ATOM      1  C   UNL     1      29.862  22.025  13.751  1.00  0.00     0.044 C 
ATOM      2  C   UNL     1      29.623  23.374  13.142  1.00  0.00    -0.055 C 
ATOM      3  C   UNL     1      28.383  23.748  12.791  1.00  0.00    -0.023 C 
ATOM      4  C   UNL     1      28.124  25.128  12.244  1.00  0.00     0.035 C 
ATOM      5  C   UNL     1      29.304  25.599  11.358  1.00  0.00     0.018 C 
ATOM      6  C   UNL     1      30.622  25.331  12.055  1.00  0.00    -0.023 C 
ATOM      7  C   UNL     1      30.771  24.262  12.844  1.00  0.00    -0.001 C 
ENDROOT
BRANCH   5   8
ATOM      8  C   UNL     1      29.194  27.079  10.889  1.00  0.00    -0.010 C 
ATOM      9  C   UNL     1      30.557  27.745  10.631  1.00  0.00     0.008 C 
ATOM     10  C   UNL     1      28.365  27.926  11.864  1.00  0.00     0.008 C 
ENDBRANCH   5   8
TORSDOF 1
ENDMDL
MODEL 3
REMARK VINA RESULT:    -4.437      0.751      1.623
REMARK INTER + INTRA:          -4.887
REMARK INTER:                  -4.761
REMARK INTRA:                  -0.126
REMARK UNBOUND:                -0.190
REMARK SMILES CC1=CC[C@@H](C(C)C)C=C1
REMARK SMILES IDX 1 1 2 2 3 3 4 4 5 5 9 6 10 7 6 8 7 9 8 10
REMARK H PARENT
REMARK Flexibility Score: inf
ROOT
ATOM      1  C   UNL     1      30.248  29.924  11.154  1.00  0.00     0.044 C 
ATOM      2  C   UNL     1      29.768  28.505  11.224  1.00  0.00    -0.055 C 
ATOM      3  C   UNL     1      28.635  28.205  11.877  1.00  0.00    -0.023 C 
ATOM      4  C   UNL     1      28.108  26.793  11.892  1.00  0.00     0.035 C 
ATOM      5  C   UNL     1      29.272  25.773  11.949  1.00  0.00     0.018 C 
ATOM      6  C   UNL     1      30.339  26.138  10.937  1.00  0.00    -0.023 C 
ATOM      7  C   UNL     1      30.594  27.419  10.647  1.00  0.00    -0.001 C 
ENDROOT
BRANCH   5   8
ATOM      8  C   UNL     1      28.824  24.290  11.800  1.00  0.00    -0.010 C 
ATOM      9  C   UNL     1      27.301  24.095  11.898  1.00  0.00     0.008 C 
ATOM     10  C   UNL     1      29.543  23.374  12.799  1.00  0.00     0.008 C 
ENDBRANCH   5   8
TORSDOF 1
ENDMDL
MODEL 4
REMARK VINA RESULT:    -4.432      1.197      4.357
REMARK INTER + INTRA:          -4.881
REMARK INTER:                  -4.760
REMARK INTRA:                  -0.122
REMARK UNBOUND:                -0.190
REMARK SMILES CC1=CC[C@@H](C(C)C)C=C1
REMARK SMILES IDX 1 1 2 2 3 3 4 4 5 5 9 6 10 7 6 8 7 9 8 10
REMARK H PARENT
REMARK Flexibility Score: inf
ROOT
ATOM      1  C   UNL     1      29.872  22.113  13.417  1.00  0.00     0.044 C 
ATOM      2  C   UNL     1      29.671  23.379  12.637  1.00  0.00    -0.055 C 
ATOM      3  C   UNL     1      30.702  23.949  11.995  1.00  0.00    -0.023 C 
ATOM      4  C   UNL     1      30.495  25.180  11.151  1.00  0.00     0.035 C 
ATOM      5  C   UNL     1      29.431  26.109  11.788  1.00  0.00     0.018 C 
ATOM      6  C   UNL     1      28.217  25.305  12.207  1.00  0.00    -0.023 C 
ATOM      7  C   UNL     1      28.351  24.050  12.650  1.00  0.00    -0.001 C 
ENDROOT
BRANCH   5   8
ATOM      8  C   UNL     1      29.034  27.323  10.897  1.00  0.00    -0.010 C 
ATOM      9  C   UNL     1      30.238  28.156  10.422  1.00  0.00     0.008 C 
ATOM     10  C   UNL     1      28.003  28.225  11.589  1.00  0.00     0.008 C 
ENDBRANCH   5   8
TORSDOF 1
ENDMDL
MODEL 5
REMARK VINA RESULT:    -4.275      1.380      2.977
REMARK INTER + INTRA:          -4.716
REMARK INTER:                  -4.596
REMARK INTRA:                  -0.120
REMARK UNBOUND:                -0.190
REMARK SMILES CC1=CC[C@@H](C(C)C)C=C1
REMARK SMILES IDX 1 1 2 2 3 3 4 4 5 5 9 6 10 7 6 8 7 9 8 10
REMARK H PARENT
REMARK Flexibility Score: inf
ROOT
ATOM      1  C   UNL     1      28.224  27.504  11.576  1.00  0.00     0.044 C 
ATOM      2  C   UNL     1      28.836  26.164  11.859  1.00  0.00    -0.055 C 
ATOM      3  C   UNL     1      28.062  25.130  12.222  1.00  0.00    -0.023 C 
ATOM      4  C   UNL     1      28.659  23.764  12.439  1.00  0.00     0.035 C 
ATOM      5  C   UNL     1      30.069  23.875  13.071  1.00  0.00     0.018 C 
ATOM      6  C   UNL     1      30.891  24.917  12.340  1.00  0.00    -0.023 C 
ATOM      7  C   UNL     1      30.308  26.005  11.824  1.00  0.00    -0.001 C 
ENDROOT
BRANCH   5   8
ATOM      8  C   UNL     1      30.826  22.518  13.174  1.00  0.00    -0.010 C 
ATOM      9  C   UNL     1      29.964  21.374  13.736  1.00  0.00     0.008 C 
ATOM     10  C   UNL     1      32.125  22.651  13.982  1.00  0.00     0.008 C 
ENDBRANCH   5   8
TORSDOF 1
ENDMDL
MODEL 6
REMARK VINA RESULT:    -4.176      1.259      2.015
REMARK INTER + INTRA:          -4.610
REMARK INTER:                  -4.420
REMARK INTRA:                  -0.190
REMARK UNBOUND:                -0.190
REMARK SMILES CC1=CC[C@@H](C(C)C)C=C1
REMARK SMILES IDX 1 1 2 2 3 3 4 4 5 5 9 6 10 7 6 8 7 9 8 10
REMARK H PARENT
REMARK Flexibility Score: inf
ROOT
ATOM      1  C   UNL     1      28.109  28.180  11.393  1.00  0.00     0.044 C 
ATOM      2  C   UNL     1      28.806  26.921  11.817  1.00  0.00    -0.055 C 
ATOM      3  C   UNL     1      30.147  26.872  11.864  1.00  0.00    -0.023 C 
ATOM      4  C   UNL     1      30.852  25.636  12.357  1.00  0.00     0.035 C 
ATOM      5  C   UNL     1      30.093  24.359  11.920  1.00  0.00     0.018 C 
ATOM      6  C   UNL     1      28.611  24.508  12.201  1.00  0.00    -0.023 C 
ATOM      7  C   UNL     1      28.015  25.701  12.099  1.00  0.00    -0.001 C 
ENDROOT
BRANCH   5   8
ATOM      8  C   UNL     1      30.661  23.043  12.528  1.00  0.00    -0.010 C 
ATOM      9  C   UNL     1      29.708  22.366  13.529  1.00  0.00     0.008 C 
ATOM     10  C   UNL     1      32.039  23.260  13.170  1.00  0.00     0.008 C 
ENDBRANCH   5   8
TORSDOF 1
ENDMDL
MODEL 7
REMARK VINA RESULT:    -4.151      2.253      5.291
REMARK INTER + INTRA:          -4.584
REMARK INTER:                  -4.399
REMARK INTRA:                  -0.185
REMARK UNBOUND:                -0.190
REMARK SMILES CC1=CC[C@@H](C(C)C)C=C1
REMARK SMILES IDX 1 1 2 2 3 3 4 4 5 5 9 6 10 7 6 8 7 9 8 10
REMARK H PARENT
REMARK Flexibility Score: inf
ROOT
ATOM      1  C   UNL     1      31.833  19.907  13.595  1.00  0.00     0.044 C 
ATOM      2  C   UNL     1      31.144  21.143  13.099  1.00  0.00    -0.055 C 
ATOM      3  C   UNL     1      31.686  21.869  12.108  1.00  0.00    -0.023 C 
ATOM      4  C   UNL     1      30.965  23.071  11.556  1.00  0.00     0.035 C 
ATOM      5  C   UNL     1      30.211  23.824  12.680  1.00  0.00     0.018 C 
ATOM      6  C   UNL     1      29.434  22.844  13.537  1.00  0.00    -0.023 C 
ATOM      7  C   UNL     1      29.907  21.614  13.765  1.00  0.00    -0.001 C 
ENDROOT
BRANCH   5   8
ATOM      8  C   UNL     1      29.304  24.982  12.170  1.00  0.00    -0.010 C 
ATOM      9  C   UNL     1      27.817  24.599  12.067  1.00  0.00     0.008 C 
ATOM     10  C   UNL     1      29.801  25.549  10.833  1.00  0.00     0.008 C 
ENDBRANCH   5   8
TORSDOF 1
ENDMDL
MODEL 8
REMARK VINA RESULT:    -4.138      0.952      4.143
REMARK INTER + INTRA:          -4.570
REMARK INTER:                  -4.381
REMARK INTRA:                  -0.189
REMARK UNBOUND:                -0.190
REMARK SMILES CC1=CC[C@@H](C(C)C)C=C1
REMARK SMILES IDX 1 1 2 2 3 3 4 4 5 5 9 6 10 7 6 8 7 9 8 10
REMARK H PARENT
REMARK Flexibility Score: inf
ROOT
ATOM      1  C   UNL     1      27.573  23.871  12.701  1.00  0.00     0.044 C 
ATOM      2  C   UNL     1      28.460  24.991  12.246  1.00  0.00    -0.055 C 
ATOM      3  C   UNL     1      29.795  24.846  12.263  1.00  0.00    -0.023 C 
ATOM      4  C   UNL     1      30.691  25.939  11.741  1.00  0.00     0.035 C 
ATOM      5  C   UNL     1      30.106  27.334  12.072  1.00  0.00     0.018 C 
ATOM      6  C   UNL     1      28.632  27.380  11.726  1.00  0.00    -0.023 C 
ATOM      7  C   UNL     1      27.866  26.291  11.861  1.00  0.00    -0.001 C 
ENDROOT
BRANCH   5   8
ATOM      8  C   UNL     1      30.883  28.518  11.424  1.00  0.00    -0.010 C 
ATOM      9  C   UNL     1      30.110  29.848  11.451  1.00  0.00     0.008 C 
ATOM     10  C   UNL     1      31.329  28.191   9.992  1.00  0.00     0.008 C 
ENDBRANCH   5   8
TORSDOF 1
ENDMDL
MODEL 9
REMARK VINA RESULT:    -3.932      2.565      4.646
REMARK INTER + INTRA:          -4.352
REMARK INTER:                  -4.180
REMARK INTRA:                  -0.171
REMARK UNBOUND:                -0.190
REMARK SMILES CC1=CC[C@@H](C(C)C)C=C1
REMARK SMILES IDX 1 1 2 2 3 3 4 4 5 5 9 6 10 7 6 8 7 9 8 10
REMARK H PARENT
REMARK Flexibility Score: inf
ROOT
ATOM      1  C   UNL     1      29.311  25.271  11.644  1.00  0.00     0.044 C 
ATOM      2  C   UNL     1      29.958  24.060  12.247  1.00  0.00    -0.055 C 
ATOM      3  C   UNL     1      31.119  23.598  11.757  1.00  0.00    -0.023 C 
ATOM      4  C   UNL     1      31.812  22.427  12.403  1.00  0.00     0.035 C 
ATOM      5  C   UNL     1      30.780  21.395  12.920  1.00  0.00     0.018 C 
ATOM      6  C   UNL     1      29.677  22.096  13.687  1.00  0.00    -0.023 C 
ATOM      7  C   UNL     1      29.270  23.319  13.330  1.00  0.00    -0.001 C 
ENDROOT
BRANCH   5   8
ATOM      8  C   UNL     1      31.404  20.234  13.749  1.00  0.00    -0.010 C 
ATOM      9  C   UNL     1      30.460  19.031  13.929  1.00  0.00     0.008 C 
ATOM     10  C   UNL     1      31.915  20.717  15.112  1.00  0.00     0.008 C 
ENDBRANCH   5   8
TORSDOF 1
ENDMDL
