MODEL 1
REMARK VINA RESULT:    -5.289      0.000      0.000
REMARK INTER + INTRA:          -6.681
REMARK INTER:                  -6.371
REMARK INTRA:                  -0.310
REMARK UNBOUND:                -0.310
REMARK SMILES O=c1c(O)c(-c2ccc(O)c(O)c2)oc2cc(O)cc(O)c12
REMARK SMILES IDX 5 1 3 2 2 3 1 4 22 5 20 6 19 7 17 8 16 9 15 10 14 11 6 12
REMARK SMILES IDX 7 13 8 14 9 15 13 16 11 17 10 18 12 20 4 22 21 24 18 26
REMARK H PARENT 10 19 12 21 4 23 21 25 18 27
REMARK Flexibility Score: inf
ROOT
ATOM      1  C   UNL     1      12.118 -11.785  10.698  1.00  0.00     0.180 A 
ATOM      2  C   UNL     1      13.284 -11.543  11.445  1.00  0.00     0.208 A 
ATOM      3  C   UNL     1      13.896 -10.282  11.364  1.00  0.00     0.238 A 
ATOM      4  O   UNL     1      14.895 -10.049  12.092  1.00  0.00    -0.285 OA
ATOM      5  C   UNL     1      13.368  -9.297  10.494  1.00  0.00     0.111 A 
ATOM      6  C   UNL     1      13.932  -8.001  10.298  1.00  0.00     0.134 A 
ATOM      7  C   UNL     1      13.263  -7.071   9.492  1.00  0.00     0.093 A 
ATOM      8  C   UNL     1      12.086  -7.409   8.827  1.00  0.00     0.123 A 
ATOM      9  C   UNL     1      11.555  -8.692   8.968  1.00  0.00     0.094 A 
ATOM     10  C   UNL     1      12.178  -9.629   9.794  1.00  0.00     0.146 A 
ATOM     11  O   UNL     1      11.627 -10.831   9.916  1.00  0.00    -0.452 OA
ENDROOT
BRANCH   1  12
ATOM     12  C   UNL     1      11.408 -13.084  10.743  1.00  0.00     0.025 A 
ATOM     13  C   UNL     1      10.337 -13.253  11.635  1.00  0.00     0.016 A 
ATOM     14  C   UNL     1       9.666 -14.476  11.710  1.00  0.00     0.051 A 
ATOM     15  C   UNL     1      10.063 -15.551  10.909  1.00  0.00     0.157 A 
ATOM     16  C   UNL     1      11.820 -14.172   9.955  1.00  0.00     0.062 A 
ATOM     17  C   UNL     1      11.148 -15.401  10.030  1.00  0.00     0.158 A 
BRANCH  15  18
ATOM     18  O   UNL     1       9.372 -16.758  11.005  1.00  0.00    -0.504 OA
ATOM     19  H   UNL     1       9.197 -17.210  11.895  1.00  0.00     0.293 HD
ENDBRANCH  15  18
BRANCH  17  20
ATOM     20  O   UNL     1      11.558 -16.473   9.238  1.00  0.00    -0.504 OA
ATOM     21  H   UNL     1      11.040 -17.343   9.213  1.00  0.00     0.293 HD
ENDBRANCH  17  20
ENDBRANCH   1  12
BRANCH   2  22
ATOM     22  O   UNL     1      13.832 -12.554  12.239  1.00  0.00    -0.502 OA
ATOM     23  H   UNL     1      13.856 -12.497  13.250  1.00  0.00     0.293 HD
ENDBRANCH   2  22
BRANCH   6  24
ATOM     24  O   UNL     1      15.150  -7.586  10.844  1.00  0.00    -0.507 OA
ATOM     25  H   UNL     1      16.057  -7.923  10.559  1.00  0.00     0.293 HD
ENDBRANCH   6  24
BRANCH   8  26
ATOM     26  O   UNL     1      11.457  -6.464   8.019  1.00  0.00    -0.508 OA
ATOM     27  H   UNL     1      11.441  -5.482   8.267  1.00  0.00     0.293 HD
ENDBRANCH   8  26
TORSDOF 6
ENDMDL
MODEL 2
REMARK VINA RESULT:    -5.134      1.974      6.775
REMARK INTER + INTRA:          -6.495
REMARK INTER:                  -6.306
REMARK INTRA:                  -0.188
REMARK UNBOUND:                -0.310
REMARK SMILES O=c1c(O)c(-c2ccc(O)c(O)c2)oc2cc(O)cc(O)c12
REMARK SMILES IDX 5 1 3 2 2 3 1 4 22 5 20 6 19 7 17 8 16 9 15 10 14 11 6 12
REMARK SMILES IDX 7 13 8 14 9 15 13 16 11 17 10 18 12 20 4 22 21 24 18 26
REMARK H PARENT 10 19 12 21 4 23 21 25 18 27
REMARK Flexibility Score: inf
ROOT
ATOM      1  C   UNL     1      13.336  -9.839  10.773  1.00  0.00     0.180 A 
ATOM      2  C   UNL     1      13.931 -11.091  11.003  1.00  0.00     0.208 A 
ATOM      3  C   UNL     1      13.132 -12.245  10.952  1.00  0.00     0.238 A 
ATOM      4  O   UNL     1      13.685 -13.367  11.085  1.00  0.00    -0.285 OA
ATOM      5  C   UNL     1      11.738 -12.128  10.729  1.00  0.00     0.111 A 
ATOM      6  C   UNL     1      10.825 -13.225  10.703  1.00  0.00     0.134 A 
ATOM      7  C   UNL     1       9.484 -13.000  10.368  1.00  0.00     0.093 A 
ATOM      8  C   UNL     1       9.010 -11.713  10.120  1.00  0.00     0.123 A 
ATOM      9  C   UNL     1       9.882 -10.626  10.197  1.00  0.00     0.094 A 
ATOM     10  C   UNL     1      11.233 -10.822  10.492  1.00  0.00     0.146 A 
ATOM     11  O   UNL     1      12.032  -9.763  10.534  1.00  0.00    -0.452 OA
ENDROOT
BRANCH   1  12
ATOM     12  C   UNL     1      14.115  -8.580  10.794  1.00  0.00     0.025 A 
ATOM     13  C   UNL     1      14.642  -8.115  12.010  1.00  0.00     0.016 A 
ATOM     14  C   UNL     1      15.362  -6.920  12.058  1.00  0.00     0.051 A 
ATOM     15  C   UNL     1      15.554  -6.163  10.898  1.00  0.00     0.157 A 
ATOM     16  C   UNL     1      14.290  -7.806   9.633  1.00  0.00     0.062 A 
ATOM     17  C   UNL     1      15.012  -6.605   9.680  1.00  0.00     0.158 A 
BRANCH  15  18
ATOM     18  O   UNL     1      16.279  -4.974  10.977  1.00  0.00    -0.504 OA
ATOM     19  H   UNL     1      15.837  -4.086  11.182  1.00  0.00     0.293 HD
ENDBRANCH  15  18
BRANCH  17  20
ATOM     20  O   UNL     1      15.188  -5.848   8.522  1.00  0.00    -0.504 OA
ATOM     21  H   UNL     1      15.995  -5.250   8.396  1.00  0.00     0.293 HD
ENDBRANCH  17  20
ENDBRANCH   1  12
BRANCH   2  22
ATOM     22  O   UNL     1      15.295 -11.178  11.296  1.00  0.00    -0.502 OA
ATOM     23  H   UNL     1      15.745 -10.567  11.967  1.00  0.00     0.293 HD
ENDBRANCH   2  22
BRANCH   6  24
ATOM     24  O   UNL     1      11.173 -14.541  11.021  1.00  0.00    -0.507 OA
ATOM     25  H   UNL     1      10.520 -15.271  11.259  1.00  0.00     0.293 HD
ENDBRANCH   6  24
BRANCH   8  26
ATOM     26  O   UNL     1       7.666 -11.524   9.806  1.00  0.00    -0.508 OA
ATOM     27  H   UNL     1       7.381 -10.987   8.996  1.00  0.00     0.293 HD
ENDBRANCH   8  26
TORSDOF 6
ENDMDL
MODEL 3
REMARK VINA RESULT:    -5.018      3.155      5.576
REMARK INTER + INTRA:          -6.355
REMARK INTER:                  -6.211
REMARK INTRA:                  -0.143
REMARK UNBOUND:                -0.310
REMARK SMILES O=c1c(O)c(-c2ccc(O)c(O)c2)oc2cc(O)cc(O)c12
REMARK SMILES IDX 5 1 3 2 2 3 1 4 22 5 20 6 19 7 17 8 16 9 15 10 14 11 6 12
REMARK SMILES IDX 7 13 8 14 9 15 13 16 11 17 10 18 12 20 4 22 21 24 18 26
REMARK H PARENT 10 19 12 21 4 23 21 25 18 27
REMARK Flexibility Score: inf
ROOT
ATOM      1  C   UNL     1      10.886 -16.638   9.979  1.00  0.00     0.180 A 
ATOM      2  C   UNL     1      10.152 -15.854  10.887  1.00  0.00     0.208 A 
ATOM      3  C   UNL     1      10.558 -14.532  11.128  1.00  0.00     0.238 A 
ATOM      4  O   UNL     1       9.854 -13.814  11.884  1.00  0.00    -0.285 OA
ATOM      5  C   UNL     1      11.724 -14.027  10.503  1.00  0.00     0.111 A 
ATOM      6  C   UNL     1      12.254 -12.717  10.709  1.00  0.00     0.134 A 
ATOM      7  C   UNL     1      13.354 -12.291   9.954  1.00  0.00     0.093 A 
ATOM      8  C   UNL     1      13.982 -13.145   9.050  1.00  0.00     0.123 A 
ATOM      9  C   UNL     1      13.507 -14.445   8.880  1.00  0.00     0.094 A 
ATOM     10  C   UNL     1      12.388 -14.888   9.590  1.00  0.00     0.146 A 
ATOM     11  O   UNL     1      11.956 -16.126   9.383  1.00  0.00    -0.452 OA
ENDROOT
BRANCH   1  12
ATOM     12  C   UNL     1      10.511 -18.035   9.661  1.00  0.00     0.025 A 
ATOM     13  C   UNL     1       9.276 -18.295   9.047  1.00  0.00     0.016 A 
ATOM     14  C   UNL     1       8.892 -19.606   8.757  1.00  0.00     0.051 A 
ATOM     15  C   UNL     1       9.727 -20.677   9.090  1.00  0.00     0.157 A 
ATOM     16  C   UNL     1      11.340 -19.115  10.015  1.00  0.00     0.062 A 
ATOM     17  C   UNL     1      10.956 -20.432   9.726  1.00  0.00     0.158 A 
BRANCH  15  18
ATOM     18  O   UNL     1       9.318 -21.975   8.785  1.00  0.00    -0.504 OA
ATOM     19  H   UNL     1       9.979 -22.733   8.662  1.00  0.00     0.293 HD
ENDBRANCH  15  18
BRANCH  17  20
ATOM     20  O   UNL     1      11.787 -21.496  10.073  1.00  0.00    -0.504 OA
ATOM     21  H   UNL     1      12.632 -21.356  10.612  1.00  0.00     0.293 HD
ENDBRANCH  17  20
ENDBRANCH   1  12
BRANCH   2  22
ATOM     22  O   UNL     1       9.049 -16.396  11.551  1.00  0.00    -0.502 OA
ATOM     23  H   UNL     1       9.025 -16.518  12.556  1.00  0.00     0.293 HD
ENDBRANCH   2  22
BRANCH   6  24
ATOM     24  O   UNL     1      11.758 -11.812  11.652  1.00  0.00    -0.507 OA
ATOM     25  H   UNL     1      10.782 -11.615  11.807  1.00  0.00     0.293 HD
ENDBRANCH   6  24
BRANCH   8  26
ATOM     26  O   UNL     1      15.085 -12.692   8.329  1.00  0.00    -0.508 OA
ATOM     27  H   UNL     1      15.389 -11.726   8.376  1.00  0.00     0.293 HD
ENDBRANCH   8  26
TORSDOF 6
ENDMDL
MODEL 4
REMARK VINA RESULT:    -5.013      4.413      9.652
REMARK INTER + INTRA:          -6.348
REMARK INTER:                  -6.056
REMARK INTRA:                  -0.293
REMARK UNBOUND:                -0.310
REMARK SMILES O=c1c(O)c(-c2ccc(O)c(O)c2)oc2cc(O)cc(O)c12
REMARK SMILES IDX 5 1 3 2 2 3 1 4 22 5 20 6 19 7 17 8 16 9 15 10 14 11 6 12
REMARK SMILES IDX 7 13 8 14 9 15 13 16 11 17 10 18 12 20 4 22 21 24 18 26
REMARK H PARENT 10 19 12 21 4 23 21 25 18 27
REMARK Flexibility Score: inf
ROOT
ATOM      1  C   UNL     1      10.211 -17.476   9.572  1.00  0.00     0.180 A 
ATOM      2  C   UNL     1       9.138 -18.183   9.001  1.00  0.00     0.208 A 
ATOM      3  C   UNL     1       9.297 -19.548   8.716  1.00  0.00     0.238 A 
ATOM      4  O   UNL     1       8.310 -20.191   8.276  1.00  0.00    -0.285 OA
ATOM      5  C   UNL     1      10.544 -20.177   8.953  1.00  0.00     0.111 A 
ATOM      6  C   UNL     1      10.832 -21.545   8.659  1.00  0.00     0.134 A 
ATOM      7  C   UNL     1      12.068 -22.086   9.034  1.00  0.00     0.093 A 
ATOM      8  C   UNL     1      13.049 -21.296   9.633  1.00  0.00     0.123 A 
ATOM      9  C   UNL     1      12.798 -19.945   9.874  1.00  0.00     0.094 A 
ATOM     10  C   UNL     1      11.562 -19.385   9.546  1.00  0.00     0.146 A 
ATOM     11  O   UNL     1      11.358 -18.100   9.813  1.00  0.00    -0.452 OA
ENDROOT
BRANCH   1  12
ATOM     12  C   UNL     1      10.114 -16.038   9.915  1.00  0.00     0.025 A 
ATOM     13  C   UNL     1       9.837 -15.662  11.238  1.00  0.00     0.016 A 
ATOM     14  C   UNL     1       9.720 -14.313  11.580  1.00  0.00     0.051 A 
ATOM     15  C   UNL     1       9.863 -13.321  10.605  1.00  0.00     0.157 A 
ATOM     16  C   UNL     1      10.236 -15.041   8.931  1.00  0.00     0.062 A 
ATOM     17  C   UNL     1      10.119 -13.685   9.273  1.00  0.00     0.158 A 
BRANCH  15  18
ATOM     18  O   UNL     1       9.744 -11.983  10.978  1.00  0.00    -0.504 OA
ATOM     19  H   UNL     1       9.025 -11.379  10.596  1.00  0.00     0.293 HD
ENDBRANCH  15  18
BRANCH  17  20
ATOM     20  O   UNL     1      10.249 -12.702   8.293  1.00  0.00    -0.504 OA
ATOM     21  H   UNL     1      10.808 -11.872   8.445  1.00  0.00     0.293 HD
ENDBRANCH  17  20
ENDBRANCH   1  12
BRANCH   2  22
ATOM     22  O   UNL     1       7.941 -17.525   8.706  1.00  0.00    -0.502 OA
ATOM     23  H   UNL     1       7.797 -17.023   7.838  1.00  0.00     0.293 HD
ENDBRANCH   2  22
BRANCH   6  24
ATOM     24  O   UNL     1       9.958 -22.402   7.984  1.00  0.00    -0.507 OA
ATOM     25  H   UNL     1       9.081 -22.125   7.571  1.00  0.00     0.293 HD
ENDBRANCH   6  24
BRANCH   8  26
ATOM     26  O   UNL     1      14.274 -21.864   9.976  1.00  0.00    -0.508 OA
ATOM     27  H   UNL     1      15.151 -21.452   9.680  1.00  0.00     0.293 HD
ENDBRANCH   8  26
TORSDOF 6
ENDMDL
MODEL 5
REMARK VINA RESULT:    -5.002      6.793     10.132
REMARK INTER + INTRA:          -6.336
REMARK INTER:                  -6.159
REMARK INTRA:                  -0.176
REMARK UNBOUND:                -0.310
REMARK SMILES O=c1c(O)c(-c2ccc(O)c(O)c2)oc2cc(O)cc(O)c12
REMARK SMILES IDX 5 1 3 2 2 3 1 4 22 5 20 6 19 7 17 8 16 9 15 10 14 11 6 12
REMARK SMILES IDX 7 13 8 14 9 15 13 16 11 17 10 18 12 20 4 22 21 24 18 26
REMARK H PARENT 10 19 12 21 4 23 21 25 18 27
REMARK Flexibility Score: inf
ROOT
ATOM      1  C   UNL     1      13.171 -20.563  10.455  1.00  0.00     0.180 A 
ATOM      2  C   UNL     1      12.368 -21.459   9.729  1.00  0.00     0.208 A 
ATOM      3  C   UNL     1      11.131 -21.016   9.233  1.00  0.00     0.238 A 
ATOM      4  O   UNL     1      10.451 -21.800   8.522  1.00  0.00    -0.285 OA
ATOM      5  C   UNL     1      10.687 -19.702   9.517  1.00  0.00     0.111 A 
ATOM      6  C   UNL     1       9.431 -19.162   9.105  1.00  0.00     0.134 A 
ATOM      7  C   UNL     1       9.144 -17.813   9.353  1.00  0.00     0.093 A 
ATOM      8  C   UNL     1      10.038 -17.004  10.052  1.00  0.00     0.123 A 
ATOM      9  C   UNL     1      11.244 -17.536  10.508  1.00  0.00     0.094 A 
ATOM     10  C   UNL     1      11.576 -18.866  10.244  1.00  0.00     0.146 A 
ATOM     11  O   UNL     1      12.743 -19.326  10.678  1.00  0.00    -0.452 OA
ENDROOT
BRANCH   1  12
ATOM     12  C   UNL     1      14.494 -20.951  10.997  1.00  0.00     0.025 A 
ATOM     13  C   UNL     1      14.712 -20.906  12.382  1.00  0.00     0.016 A 
ATOM     14  C   UNL     1      15.958 -21.247  12.914  1.00  0.00     0.051 A 
ATOM     15  C   UNL     1      17.008 -21.623  12.070  1.00  0.00     0.157 A 
ATOM     16  C   UNL     1      15.557 -21.308  10.148  1.00  0.00     0.062 A 
ATOM     17  C   UNL     1      16.809 -21.649  10.680  1.00  0.00     0.158 A 
BRANCH  15  18
ATOM     18  O   UNL     1      18.239 -21.960  12.631  1.00  0.00    -0.504 OA
ATOM     19  H   UNL     1      18.950 -21.265  12.827  1.00  0.00     0.293 HD
ENDBRANCH  15  18
BRANCH  17  20
ATOM     20  O   UNL     1      17.856 -22.010   9.832  1.00  0.00    -0.504 OA
ATOM     21  H   UNL     1      17.866 -21.739   8.856  1.00  0.00     0.293 HD
ENDBRANCH  17  20
ENDBRANCH   1  12
BRANCH   2  22
ATOM     22  O   UNL     1      12.791 -22.775   9.525  1.00  0.00    -0.502 OA
ATOM     23  H   UNL     1      12.819 -23.458  10.272  1.00  0.00     0.293 HD
ENDBRANCH   2  22
BRANCH   6  24
ATOM     24  O   UNL     1       8.428 -19.905   8.476  1.00  0.00    -0.507 OA
ATOM     25  H   UNL     1       8.287 -20.897   8.588  1.00  0.00     0.293 HD
ENDBRANCH   6  24
BRANCH   8  26
ATOM     26  O   UNL     1       9.711 -15.671  10.296  1.00  0.00    -0.508 OA
ATOM     27  H   UNL     1       9.916 -14.943   9.622  1.00  0.00     0.293 HD
ENDBRANCH   8  26
TORSDOF 6
ENDMDL
MODEL 6
REMARK VINA RESULT:    -4.872      2.554      5.093
REMARK INTER + INTRA:          -6.178
REMARK INTER:                  -5.860
REMARK INTRA:                  -0.318
REMARK UNBOUND:                -0.310
REMARK SMILES O=c1c(O)c(-c2ccc(O)c(O)c2)oc2cc(O)cc(O)c12
REMARK SMILES IDX 5 1 3 2 2 3 1 4 22 5 20 6 19 7 17 8 16 9 15 10 14 11 6 12
REMARK SMILES IDX 7 13 8 14 9 15 13 16 11 17 10 18 12 20 4 22 21 24 18 26
REMARK H PARENT 10 19 12 21 4 23 21 25 18 27
REMARK Flexibility Score: inf
ROOT
ATOM      1  C   UNL     1      11.673 -15.578   9.898  1.00  0.00     0.180 A 
ATOM      2  C   UNL     1      10.492 -14.911   9.530  1.00  0.00     0.208 A 
ATOM      3  C   UNL     1      10.391 -13.529   9.757  1.00  0.00     0.238 A 
ATOM      4  O   UNL     1       9.361 -12.926   9.358  1.00  0.00    -0.285 OA
ATOM      5  C   UNL     1      11.448 -12.841  10.401  1.00  0.00     0.111 A 
ATOM      6  C   UNL     1      11.435 -11.450  10.722  1.00  0.00     0.134 A 
ATOM      7  C   UNL     1      12.582 -10.855  11.263  1.00  0.00     0.093 A 
ATOM      8  C   UNL     1      13.717 -11.611  11.553  1.00  0.00     0.123 A 
ATOM      9  C   UNL     1      13.721 -12.982  11.294  1.00  0.00     0.094 A 
ATOM     10  C   UNL     1      12.607 -13.597  10.720  1.00  0.00     0.146 A 
ATOM     11  O   UNL     1      12.661 -14.900  10.470  1.00  0.00    -0.452 OA
ENDROOT
BRANCH   1  12
ATOM     12  C   UNL     1      11.860 -17.030   9.677  1.00  0.00     0.025 A 
ATOM     13  C   UNL     1      12.461 -17.474   8.489  1.00  0.00     0.016 A 
ATOM     14  C   UNL     1      12.629 -18.840   8.249  1.00  0.00     0.051 A 
ATOM     15  C   UNL     1      12.186 -19.782   9.182  1.00  0.00     0.157 A 
ATOM     16  C   UNL     1      11.395 -17.979  10.605  1.00  0.00     0.062 A 
ATOM     17  C   UNL     1      11.562 -19.351  10.365  1.00  0.00     0.158 A 
BRANCH  15  18
ATOM     18  O   UNL     1      12.370 -21.138   8.916  1.00  0.00    -0.504 OA
ATOM     19  H   UNL     1      13.174 -21.650   9.259  1.00  0.00     0.293 HD
ENDBRANCH  15  18
BRANCH  17  20
ATOM     20  O   UNL     1      11.105 -20.285  11.294  1.00  0.00    -0.504 OA
ATOM     21  H   UNL     1      11.554 -20.401  12.194  1.00  0.00     0.293 HD
ENDBRANCH  17  20
ENDBRANCH   1  12
BRANCH   2  22
ATOM     22  O   UNL     1       9.430 -15.623   8.966  1.00  0.00    -0.502 OA
ATOM     23  H   UNL     1       9.546 -16.547   8.569  1.00  0.00     0.293 HD
ENDBRANCH   2  22
BRANCH   6  24
ATOM     24  O   UNL     1      10.324 -10.618  10.556  1.00  0.00    -0.507 OA
ATOM     25  H   UNL     1       9.380 -10.854  10.823  1.00  0.00     0.293 HD
ENDBRANCH   6  24
BRANCH   8  26
ATOM     26  O   UNL     1      14.833 -10.989  12.108  1.00  0.00    -0.508 OA
ATOM     27  H   UNL     1      14.771 -10.074  12.538  1.00  0.00     0.293 HD
ENDBRANCH   8  26
TORSDOF 6
ENDMDL
MODEL 7
REMARK VINA RESULT:    -4.866      4.808      9.747
REMARK INTER + INTRA:          -6.171
REMARK INTER:                  -5.850
REMARK INTRA:                  -0.321
REMARK UNBOUND:                -0.310
REMARK SMILES O=c1c(O)c(-c2ccc(O)c(O)c2)oc2cc(O)cc(O)c12
REMARK SMILES IDX 5 1 3 2 2 3 1 4 22 5 20 6 19 7 17 8 16 9 15 10 14 11 6 12
REMARK SMILES IDX 7 13 8 14 9 15 13 16 11 17 10 18 12 20 4 22 21 24 18 26
REMARK H PARENT 10 19 12 21 4 23 21 25 18 27
REMARK Flexibility Score: inf
ROOT
ATOM      1  C   UNL     1      11.634 -18.194  10.256  1.00  0.00     0.180 A 
ATOM      2  C   UNL     1      10.987 -19.183   9.495  1.00  0.00     0.208 A 
ATOM      3  C   UNL     1      11.518 -20.482   9.472  1.00  0.00     0.238 A 
ATOM      4  O   UNL     1      10.892 -21.378   8.849  1.00  0.00    -0.285 OA
ATOM      5  C   UNL     1      12.721 -20.764  10.163  1.00  0.00     0.111 A 
ATOM      6  C   UNL     1      13.375 -22.033  10.172  1.00  0.00     0.134 A 
ATOM      7  C   UNL     1      14.504 -22.224  10.978  1.00  0.00     0.093 A 
ATOM      8  C   UNL     1      15.040 -21.176  11.726  1.00  0.00     0.123 A 
ATOM      9  C   UNL     1      14.442 -19.917  11.682  1.00  0.00     0.094 A 
ATOM     10  C   UNL     1      13.293 -19.705  10.917  1.00  0.00     0.146 A 
ATOM     11  O   UNL     1      12.743 -18.497  10.921  1.00  0.00    -0.452 OA
ENDROOT
BRANCH   1  12
ATOM     12  C   UNL     1      11.126 -16.806  10.342  1.00  0.00     0.025 A 
ATOM     13  C   UNL     1      10.160 -16.484  11.308  1.00  0.00     0.016 A 
ATOM     14  C   UNL     1       9.650 -15.187  11.394  1.00  0.00     0.051 A 
ATOM     15  C   UNL     1      10.085 -14.196  10.509  1.00  0.00     0.157 A 
ATOM     16  C   UNL     1      11.546 -15.814   9.439  1.00  0.00     0.062 A 
ATOM     17  C   UNL     1      11.035 -14.511   9.523  1.00  0.00     0.158 A 
BRANCH  15  18
ATOM     18  O   UNL     1       9.560 -12.909  10.621  1.00  0.00    -0.504 OA
ATOM     19  H   UNL     1       9.996 -12.199  11.197  1.00  0.00     0.293 HD
ENDBRANCH  15  18
BRANCH  17  20
ATOM     20  O   UNL     1      11.463 -13.531   8.628  1.00  0.00    -0.504 OA
ATOM     21  H   UNL     1      12.367 -13.585   8.174  1.00  0.00     0.293 HD
ENDBRANCH  17  20
ENDBRANCH   1  12
BRANCH   2  22
ATOM     22  O   UNL     1       9.842 -18.864   8.759  1.00  0.00    -0.502 OA
ATOM     23  H   UNL     1       9.519 -17.911   8.643  1.00  0.00     0.293 HD
ENDBRANCH   2  22
BRANCH   6  24
ATOM     24  O   UNL     1      12.976 -23.125   9.394  1.00  0.00    -0.507 OA
ATOM     25  H   UNL     1      12.047 -23.515   9.380  1.00  0.00     0.293 HD
ENDBRANCH   6  24
BRANCH   8  26
ATOM     26  O   UNL     1      16.175 -21.398  12.503  1.00  0.00    -0.508 OA
ATOM     27  H   UNL     1      17.049 -20.920  12.314  1.00  0.00     0.293 HD
ENDBRANCH   8  26
TORSDOF 6
ENDMDL
MODEL 8
REMARK VINA RESULT:    -4.764      1.427      3.248
REMARK INTER + INTRA:          -6.048
REMARK INTER:                  -5.831
REMARK INTRA:                  -0.217
REMARK UNBOUND:                -0.310
REMARK SMILES O=c1c(O)c(-c2ccc(O)c(O)c2)oc2cc(O)cc(O)c12
REMARK SMILES IDX 5 1 3 2 2 3 1 4 22 5 20 6 19 7 17 8 16 9 15 10 14 11 6 12
REMARK SMILES IDX 7 13 8 14 9 15 13 16 11 17 10 18 12 20 4 22 21 24 18 26
REMARK H PARENT 10 19 12 21 4 23 21 25 18 27
REMARK Flexibility Score: inf
ROOT
ATOM      1  C   UNL     1      11.558 -12.547   9.981  1.00  0.00     0.180 A 
ATOM      2  C   UNL     1      10.726 -11.808   9.122  1.00  0.00     0.208 A 
ATOM      3  C   UNL     1      10.966 -10.434   8.957  1.00  0.00     0.238 A 
ATOM      4  O   UNL     1      10.265  -9.795   8.130  1.00  0.00    -0.285 OA
ATOM      5  C   UNL     1      11.997  -9.805   9.695  1.00  0.00     0.111 A 
ATOM      6  C   UNL     1      12.300  -8.411   9.642  1.00  0.00     0.134 A 
ATOM      7  C   UNL     1      13.412  -7.918  10.337  1.00  0.00     0.093 A 
ATOM      8  C   UNL     1      14.193  -8.755  11.132  1.00  0.00     0.123 A 
ATOM      9  C   UNL     1      13.874 -10.109  11.235  1.00  0.00     0.094 A 
ATOM     10  C   UNL     1      12.794 -10.638  10.525  1.00  0.00     0.146 A 
ATOM     11  O   UNL     1      12.538 -11.935  10.635  1.00  0.00    -0.452 OA
ENDROOT
BRANCH   1  12
ATOM     12  C   UNL     1      11.378 -14.001  10.194  1.00  0.00     0.025 A 
ATOM     13  C   UNL     1      12.303 -14.899   9.639  1.00  0.00     0.016 A 
ATOM     14  C   UNL     1      12.141 -16.276   9.808  1.00  0.00     0.051 A 
ATOM     15  C   UNL     1      11.048 -16.777  10.521  1.00  0.00     0.157 A 
ATOM     16  C   UNL     1      10.267 -14.508  10.892  1.00  0.00     0.062 A 
ATOM     17  C   UNL     1      10.103 -15.890  11.062  1.00  0.00     0.158 A 
BRANCH  15  18
ATOM     18  O   UNL     1      10.915 -18.157  10.677  1.00  0.00    -0.504 OA
ATOM     19  H   UNL     1      11.210 -18.810   9.960  1.00  0.00     0.293 HD
ENDBRANCH  15  18
BRANCH  17  20
ATOM     20  O   UNL     1       9.002 -16.384  11.762  1.00  0.00    -0.504 OA
ATOM     21  H   UNL     1       9.024 -17.289  12.214  1.00  0.00     0.293 HD
ENDBRANCH  17  20
ENDBRANCH   1  12
BRANCH   2  22
ATOM     22  O   UNL     1       9.666 -12.433   8.460  1.00  0.00    -0.502 OA
ATOM     23  H   UNL     1       8.929 -11.912   8.002  1.00  0.00     0.293 HD
ENDBRANCH   2  22
BRANCH   6  24
ATOM     24  O   UNL     1      11.533  -7.469   8.949  1.00  0.00    -0.507 OA
ATOM     25  H   UNL     1      10.527  -7.474   8.888  1.00  0.00     0.293 HD
ENDBRANCH   6  24
BRANCH   8  26
ATOM     26  O   UNL     1      15.282  -8.226  11.823  1.00  0.00    -0.508 OA
ATOM     27  H   UNL     1      16.094  -8.791  12.044  1.00  0.00     0.293 HD
ENDBRANCH   8  26
TORSDOF 6
ENDMDL
MODEL 9
REMARK VINA RESULT:    -4.764      1.695      6.978
REMARK INTER + INTRA:          -6.048
REMARK INTER:                  -5.741
REMARK INTRA:                  -0.307
REMARK UNBOUND:                -0.310
REMARK SMILES O=c1c(O)c(-c2ccc(O)c(O)c2)oc2cc(O)cc(O)c12
REMARK SMILES IDX 5 1 3 2 2 3 1 4 22 5 20 6 19 7 17 8 16 9 15 10 14 11 6 12
REMARK SMILES IDX 7 13 8 14 9 15 13 16 11 17 10 18 12 20 4 22 21 24 18 26
REMARK H PARENT 10 19 12 21 4 23 21 25 18 27
REMARK Flexibility Score: inf
ROOT
ATOM      1  C   UNL     1      12.895 -11.992  10.176  1.00  0.00     0.180 A 
ATOM      2  C   UNL     1      13.845 -12.707   9.428  1.00  0.00     0.208 A 
ATOM      3  C   UNL     1      13.656 -14.084   9.224  1.00  0.00     0.238 A 
ATOM      4  O   UNL     1      14.471 -14.702   8.491  1.00  0.00    -0.285 OA
ATOM      5  C   UNL     1      12.550 -14.739   9.817  1.00  0.00     0.111 A 
ATOM      6  C   UNL     1      12.284 -16.138   9.715  1.00  0.00     0.134 A 
ATOM      7  C   UNL     1      11.101 -16.657  10.256  1.00  0.00     0.093 A 
ATOM      8  C   UNL     1      10.207 -15.842  10.949  1.00  0.00     0.123 A 
ATOM      9  C   UNL     1      10.483 -14.484  11.102  1.00  0.00     0.094 A 
ATOM     10  C   UNL     1      11.636 -13.928  10.542  1.00  0.00     0.146 A 
ATOM     11  O   UNL     1      11.850 -12.627  10.693  1.00  0.00    -0.452 OA
ENDROOT
BRANCH   1  12
ATOM     12  C   UNL     1      13.018 -10.536  10.421  1.00  0.00     0.025 A 
ATOM     13  C   UNL     1      12.356  -9.636   9.571  1.00  0.00     0.016 A 
ATOM     14  C   UNL     1      12.475  -8.259   9.770  1.00  0.00     0.051 A 
ATOM     15  C   UNL     1      13.266  -7.760  10.809  1.00  0.00     0.157 A 
ATOM     16  C   UNL     1      13.830 -10.032  11.452  1.00  0.00     0.062 A 
ATOM     17  C   UNL     1      13.951  -8.650  11.652  1.00  0.00     0.158 A 
BRANCH  15  18
ATOM     18  O   UNL     1      13.363  -6.379  10.984  1.00  0.00    -0.504 OA
ATOM     19  H   UNL     1      13.452  -5.743  10.201  1.00  0.00     0.293 HD
ENDBRANCH  15  18
BRANCH  17  20
ATOM     20  O   UNL     1      14.753  -8.158  12.682  1.00  0.00    -0.504 OA
ATOM     21  H   UNL     1      15.446  -7.439  12.518  1.00  0.00     0.293 HD
ENDBRANCH  17  20
ENDBRANCH   1  12
BRANCH   2  22
ATOM     22  O   UNL     1      14.970 -12.056   8.914  1.00  0.00    -0.502 OA
ATOM     23  H   UNL     1      15.867 -12.517   8.816  1.00  0.00     0.293 HD
ENDBRANCH   2  22
BRANCH   6  24
ATOM     24  O   UNL     1      13.152 -17.059   9.122  1.00  0.00    -0.507 OA
ATOM     25  H   UNL     1      14.072 -17.290   9.464  1.00  0.00     0.293 HD
ENDBRANCH   6  24
BRANCH   8  26
ATOM     26  O   UNL     1       9.048 -16.397  11.488  1.00  0.00    -0.508 OA
ATOM     27  H   UNL     1       8.147 -16.282  11.040  1.00  0.00     0.293 HD
ENDBRANCH   8  26
TORSDOF 6
ENDMDL
