MODEL 1
REMARK VINA RESULT:    -3.401      0.000      0.000
REMARK INTER + INTRA:          -7.456
REMARK INTER:                  -5.787
REMARK INTRA:                  -1.669
REMARK UNBOUND:                -1.669
REMARK SMILES CCCCCCCCCCCCCC(=O)[O-]
REMARK SMILES IDX 8 1 9 2 10 3 11 4 12 5 13 6 14 7 15 8 16 9 7 10 6 11 5 12
REMARK SMILES IDX 4 13 3 14 2 15 1 16
REMARK H PARENT
REMARK Flexibility Score: inf
ROOT
ATOM      1  C   UNL     1     -95.422 148.408 240.184  1.00  0.00     0.000 C 
ENDROOT
BRANCH   1   2
ATOM      2  C   UNL     1     -95.723 149.899 239.987  1.00  0.00     0.000 C 
BRANCH   2   3
ATOM      3  C   UNL     1     -97.059 150.281 240.642  1.00  0.00     0.000 C 
BRANCH   3   4
ATOM      4  C   UNL     1     -97.818 149.064 241.195  1.00  0.00     0.000 C 
BRANCH   4   5
ATOM      5  C   UNL     1     -98.273 149.263 242.652  1.00  0.00     0.006 C 
BRANCH   5   6
ATOM      6  C   UNL     1     -98.744 150.699 242.919  1.00  0.00     0.053 C 
BRANCH   6   7
ATOM      7  C   UNL     1     -99.097 150.910 244.359  1.00  0.00     0.041 C 
ATOM      8  O   UNL     1     -99.855 150.097 244.953  1.00  0.00    -0.550 OA
ATOM      9  O   UNL     1     -98.566 151.988 245.055  1.00  0.00    -0.550 OA
ENDBRANCH   6   7
ENDBRANCH   5   6
ENDBRANCH   4   5
ENDBRANCH   3   4
ENDBRANCH   2   3
ENDBRANCH   1   2
BRANCH   1  10
ATOM     10  C   UNL     1     -94.441 147.899 239.115  1.00  0.00     0.000 C 
BRANCH  10  11
ATOM     11  C   UNL     1     -94.265 148.890 237.953  1.00  0.00    -0.000 C 
BRANCH  11  12
ATOM     12  C   UNL     1     -94.420 148.220 236.578  1.00  0.00    -0.000 C 
BRANCH  12  13
ATOM     13  C   UNL     1     -95.869 148.249 236.057  1.00  0.00    -0.000 C 
BRANCH  13  14
ATOM     14  C   UNL     1     -96.593 149.599 236.216  1.00  0.00    -0.000 C 
BRANCH  14  15
ATOM     15  C   UNL     1     -97.871 149.499 237.060  1.00  0.00    -0.003 C 
ATOM     16  C   UNL     1     -98.110 148.066 237.528  1.00  0.00     0.004 C 
ENDBRANCH  14  15
ENDBRANCH  13  14
ENDBRANCH  12  13
ENDBRANCH  11  12
ENDBRANCH  10  11
ENDBRANCH   1  10
TORSDOF 12
ENDMDL
MODEL 2
REMARK VINA RESULT:    -3.372      1.414      1.967
REMARK INTER + INTRA:          -7.406
REMARK INTER:                  -5.608
REMARK INTRA:                  -1.798
REMARK UNBOUND:                -1.669
REMARK SMILES CCCCCCCCCCCCCC(=O)[O-]
REMARK SMILES IDX 8 1 9 2 10 3 11 4 12 5 13 6 14 7 15 8 16 9 7 10 6 11 5 12
REMARK SMILES IDX 4 13 3 14 2 15 1 16
REMARK H PARENT
REMARK Flexibility Score: inf
ROOT
ATOM      1  C   UNL     1     -94.948 147.923 239.464  1.00  0.00     0.000 C 
ENDROOT
BRANCH   1   2
ATOM      2  C   UNL     1     -96.012 148.567 240.362  1.00  0.00     0.000 C 
BRANCH   2   3
ATOM      3  C   UNL     1     -95.966 150.099 240.257  1.00  0.00     0.000 C 
BRANCH   3   4
ATOM      4  C   UNL     1     -97.362 150.739 240.294  1.00  0.00     0.000 C 
BRANCH   4   5
ATOM      5  C   UNL     1     -98.488 149.697 240.408  1.00  0.00     0.006 C 
BRANCH   5   6
ATOM      6  C   UNL     1     -99.450 150.008 241.564  1.00  0.00     0.053 C 
BRANCH   6   7
ATOM      7  C   UNL     1     -98.758 149.959 242.891  1.00  0.00     0.041 C 
ATOM      8  O   UNL     1     -98.153 148.915 243.254  1.00  0.00    -0.550 OA
ATOM      9  O   UNL     1     -98.756 151.076 243.716  1.00  0.00    -0.550 OA
ENDBRANCH   6   7
ENDBRANCH   5   6
ENDBRANCH   4   5
ENDBRANCH   3   4
ENDBRANCH   2   3
ENDBRANCH   1   2
BRANCH   1  10
ATOM     10  C   UNL     1     -94.336 148.958 238.507  1.00  0.00     0.000 C 
BRANCH  10  11
ATOM     11  C   UNL     1     -94.686 148.685 237.035  1.00  0.00    -0.000 C 
BRANCH  11  12
ATOM     12  C   UNL     1     -95.694 149.701 236.471  1.00  0.00    -0.000 C 
BRANCH  12  13
ATOM     13  C   UNL     1     -97.154 149.348 236.808  1.00  0.00    -0.000 C 
BRANCH  13  14
ATOM     14  C   UNL     1     -98.214 150.252 236.150  1.00  0.00    -0.000 C 
BRANCH  14  15
ATOM     15  C   UNL     1     -99.496 150.378 236.984  1.00  0.00    -0.003 C 
ATOM     16  C   UNL     1     -99.663 151.795 237.526  1.00  0.00     0.004 C 
ENDBRANCH  14  15
ENDBRANCH  13  14
ENDBRANCH  12  13
ENDBRANCH  11  12
ENDBRANCH  10  11
ENDBRANCH   1  10
TORSDOF 12
ENDMDL
MODEL 3
REMARK VINA RESULT:    -3.352      1.055      1.754
REMARK INTER + INTRA:          -7.372
REMARK INTER:                  -5.416
REMARK INTRA:                  -1.956
REMARK UNBOUND:                -1.669
REMARK SMILES CCCCCCCCCCCCCC(=O)[O-]
REMARK SMILES IDX 8 1 9 2 10 3 11 4 12 5 13 6 14 7 15 8 16 9 7 10 6 11 5 12
REMARK SMILES IDX 4 13 3 14 2 15 1 16
REMARK H PARENT
REMARK Flexibility Score: inf
ROOT
ATOM      1  C   UNL     1     -94.625 149.121 239.219  1.00  0.00     0.000 C 
ENDROOT
BRANCH   1   2
ATOM      2  C   UNL     1     -95.296 148.107 240.155  1.00  0.00     0.000 C 
BRANCH   2   3
ATOM      3  C   UNL     1     -96.572 148.694 240.776  1.00  0.00     0.000 C 
BRANCH   3   4
ATOM      4  C   UNL     1     -96.747 150.190 240.471  1.00  0.00     0.000 C 
BRANCH   4   5
ATOM      5  C   UNL     1     -98.116 150.730 240.921  1.00  0.00     0.006 C 
BRANCH   5   6
ATOM      6  C   UNL     1     -98.929 149.678 241.688  1.00  0.00     0.053 C 
BRANCH   6   7
ATOM      7  C   UNL     1     -99.102 150.050 243.128  1.00  0.00     0.041 C 
ATOM      8  O   UNL     1     -98.874 151.228 243.512  1.00  0.00    -0.550 OA
ATOM      9  O   UNL     1     -99.545 149.103 244.042  1.00  0.00    -0.550 OA
ENDBRANCH   6   7
ENDBRANCH   5   6
ENDBRANCH   4   5
ENDBRANCH   3   4
ENDBRANCH   2   3
ENDBRANCH   1   2
BRANCH   1  10
ATOM     10  C   UNL     1     -93.775 148.408 238.155  1.00  0.00     0.000 C 
BRANCH  10  11
ATOM     11  C   UNL     1     -94.500 148.278 236.806  1.00  0.00    -0.000 C 
BRANCH  11  12
ATOM     12  C   UNL     1     -95.443 149.461 236.526  1.00  0.00    -0.000 C 
BRANCH  12  13
ATOM     13  C   UNL     1     -96.892 149.020 236.246  1.00  0.00    -0.000 C 
BRANCH  13  14
ATOM     14  C   UNL     1     -97.960 149.688 237.133  1.00  0.00    -0.000 C 
BRANCH  14  15
ATOM     15  C   UNL     1     -98.919 148.678 237.779  1.00  0.00    -0.003 C 
ATOM     16  C   UNL     1     -98.304 147.283 237.820  1.00  0.00     0.004 C 
ENDBRANCH  14  15
ENDBRANCH  13  14
ENDBRANCH  12  13
ENDBRANCH  11  12
ENDBRANCH  10  11
ENDBRANCH   1  10
TORSDOF 12
ENDMDL
MODEL 4
REMARK VINA RESULT:    -3.299      2.831      3.145
REMARK INTER + INTRA:          -7.282
REMARK INTER:                  -5.319
REMARK INTRA:                  -1.962
REMARK UNBOUND:                -1.669
REMARK SMILES CCCCCCCCCCCCCC(=O)[O-]
REMARK SMILES IDX 8 1 9 2 10 3 11 4 12 5 13 6 14 7 15 8 16 9 7 10 6 11 5 12
REMARK SMILES IDX 4 13 3 14 2 15 1 16
REMARK H PARENT
REMARK Flexibility Score: inf
ROOT
ATOM      1  C   UNL     1     -95.000 147.712 240.245  1.00  0.00     0.000 C 
ENDROOT
BRANCH   1   2
ATOM      2  C   UNL     1     -94.856 149.212 239.959  1.00  0.00     0.000 C 
BRANCH   2   3
ATOM      3  C   UNL     1     -96.173 149.953 240.237  1.00  0.00     0.000 C 
BRANCH   3   4
ATOM      4  C   UNL     1     -97.312 149.005 240.645  1.00  0.00     0.000 C 
BRANCH   4   5
ATOM      5  C   UNL     1     -98.691 149.686 240.604  1.00  0.00     0.006 C 
BRANCH   5   6
ATOM      6  C   UNL     1     -98.668 150.990 239.794  1.00  0.00     0.053 C 
BRANCH   6   7
ATOM      7  C   UNL     1     -99.581 150.925 238.609  1.00  0.00     0.041 C 
ATOM      8  O   UNL     1    -100.456 150.021 238.530  1.00  0.00    -0.550 OA
ATOM      9  O   UNL     1     -99.486 151.879 237.604  1.00  0.00    -0.550 OA
ENDBRANCH   6   7
ENDBRANCH   5   6
ENDBRANCH   4   5
ENDBRANCH   3   4
ENDBRANCH   2   3
ENDBRANCH   1   2
BRANCH   1  10
ATOM     10  C   UNL     1     -94.325 146.875 239.147  1.00  0.00     0.000 C 
BRANCH  10  11
ATOM     11  C   UNL     1     -93.682 147.742 238.052  1.00  0.00    -0.000 C 
BRANCH  11  12
ATOM     12  C   UNL     1     -94.015 147.245 236.635  1.00  0.00    -0.000 C 
BRANCH  12  13
ATOM     13  C   UNL     1     -94.651 148.334 235.751  1.00  0.00    -0.000 C 
BRANCH  13  14
ATOM     14  C   UNL     1     -95.395 149.444 236.517  1.00  0.00    -0.000 C 
BRANCH  14  15
ATOM     15  C   UNL     1     -96.912 149.422 236.281  1.00  0.00    -0.003 C 
ATOM     16  C   UNL     1     -97.568 148.265 237.028  1.00  0.00     0.004 C 
ENDBRANCH  14  15
ENDBRANCH  13  14
ENDBRANCH  12  13
ENDBRANCH  11  12
ENDBRANCH  10  11
ENDBRANCH   1  10
TORSDOF 12
ENDMDL
MODEL 5
REMARK VINA RESULT:    -3.286      4.400      6.740
REMARK INTER + INTRA:          -7.260
REMARK INTER:                  -5.989
REMARK INTRA:                  -1.272
REMARK UNBOUND:                -1.669
REMARK SMILES CCCCCCCCCCCCCC(=O)[O-]
REMARK SMILES IDX 8 1 9 2 10 3 11 4 12 5 13 6 14 7 15 8 16 9 7 10 6 11 5 12
REMARK SMILES IDX 4 13 3 14 2 15 1 16
REMARK H PARENT
REMARK Flexibility Score: inf
ROOT
ATOM      1  C   UNL     1     -95.303 149.762 236.879  1.00  0.00     0.000 C 
ENDROOT
BRANCH   1   2
ATOM      2  C   UNL     1     -96.157 148.987 235.866  1.00  0.00     0.000 C 
BRANCH   2   3
ATOM      3  C   UNL     1     -96.735 149.929 234.800  1.00  0.00     0.000 C 
BRANCH   3   4
ATOM      4  C   UNL     1     -95.675 150.866 234.198  1.00  0.00     0.000 C 
BRANCH   4   5
ATOM      5  C   UNL     1     -96.197 152.300 233.999  1.00  0.00     0.006 C 
BRANCH   5   6
ATOM      6  C   UNL     1     -97.656 152.451 234.450  1.00  0.00     0.053 C 
BRANCH   6   7
ATOM      7  C   UNL     1     -98.088 153.884 234.465  1.00  0.00     0.041 C 
ATOM      8  O   UNL     1     -97.274 154.790 234.790  1.00  0.00    -0.550 OA
ATOM      9  O   UNL     1     -99.382 154.225 234.092  1.00  0.00    -0.550 OA
ENDBRANCH   6   7
ENDBRANCH   5   6
ENDBRANCH   4   5
ENDBRANCH   3   4
ENDBRANCH   2   3
ENDBRANCH   1   2
BRANCH   1  10
ATOM     10  C   UNL     1     -94.518 148.801 237.786  1.00  0.00     0.000 C 
BRANCH  10  11
ATOM     11  C   UNL     1     -94.549 149.223 239.264  1.00  0.00    -0.000 C 
BRANCH  11  12
ATOM     12  C   UNL     1     -95.362 148.253 240.137  1.00  0.00    -0.000 C 
BRANCH  12  13
ATOM     13  C   UNL     1     -96.699 148.851 240.613  1.00  0.00    -0.000 C 
BRANCH  13  14
ATOM     14  C   UNL     1     -96.795 150.386 240.527  1.00  0.00    -0.000 C 
BRANCH  14  15
ATOM     15  C   UNL     1     -98.132 150.871 239.947  1.00  0.00    -0.003 C 
ATOM     16  C   UNL     1     -98.521 150.065 238.712  1.00  0.00     0.004 C 
ENDBRANCH  14  15
ENDBRANCH  13  14
ENDBRANCH  12  13
ENDBRANCH  11  12
ENDBRANCH  10  11
ENDBRANCH   1  10
TORSDOF 12
ENDMDL
MODEL 6
REMARK VINA RESULT:    -3.255      4.215      6.703
REMARK INTER + INTRA:          -7.208
REMARK INTER:                  -5.983
REMARK INTRA:                  -1.224
REMARK UNBOUND:                -1.669
REMARK SMILES CCCCCCCCCCCCCC(=O)[O-]
REMARK SMILES IDX 8 1 9 2 10 3 11 4 12 5 13 6 14 7 15 8 16 9 7 10 6 11 5 12
REMARK SMILES IDX 4 13 3 14 2 15 1 16
REMARK H PARENT
REMARK Flexibility Score: inf
ROOT
ATOM      1  C   UNL     1     -95.954 149.717 236.678  1.00  0.00     0.000 C 
ENDROOT
BRANCH   1   2
ATOM      2  C   UNL     1     -97.209 149.662 235.797  1.00  0.00     0.000 C 
BRANCH   2   3
ATOM      3  C   UNL     1     -96.883 150.063 234.350  1.00  0.00     0.000 C 
BRANCH   3   4
ATOM      4  C   UNL     1     -95.671 151.003 234.254  1.00  0.00     0.000 C 
BRANCH   4   5
ATOM      5  C   UNL     1     -96.049 152.404 233.743  1.00  0.00     0.006 C 
BRANCH   5   6
ATOM      6  C   UNL     1     -97.569 152.597 233.654  1.00  0.00     0.053 C 
BRANCH   6   7
ATOM      7  C   UNL     1     -98.051 153.662 234.590  1.00  0.00     0.041 C 
ATOM      8  O   UNL     1     -99.061 153.461 235.315  1.00  0.00    -0.550 OA
ATOM      9  O   UNL     1     -97.366 154.867 234.683  1.00  0.00    -0.550 OA
ENDBRANCH   6   7
ENDBRANCH   5   6
ENDBRANCH   4   5
ENDBRANCH   3   4
ENDBRANCH   2   3
ENDBRANCH   1   2
BRANCH   1  10
ATOM     10  C   UNL     1     -95.319 148.324 236.818  1.00  0.00     0.000 C 
BRANCH  10  11
ATOM     11  C   UNL     1     -94.112 148.315 237.769  1.00  0.00    -0.000 C 
BRANCH  11  12
ATOM     12  C   UNL     1     -94.386 149.079 239.076  1.00  0.00    -0.000 C 
BRANCH  12  13
ATOM     13  C   UNL     1     -95.155 148.238 240.112  1.00  0.00    -0.000 C 
BRANCH  13  14
ATOM     14  C   UNL     1     -96.490 148.845 240.585  1.00  0.00    -0.000 C 
BRANCH  14  15
ATOM     15  C   UNL     1     -96.562 150.365 240.381  1.00  0.00    -0.003 C 
ATOM     16  C   UNL     1     -97.973 150.802 239.997  1.00  0.00     0.004 C 
ENDBRANCH  14  15
ENDBRANCH  13  14
ENDBRANCH  12  13
ENDBRANCH  11  12
ENDBRANCH  10  11
ENDBRANCH   1  10
TORSDOF 12
ENDMDL
MODEL 7
REMARK VINA RESULT:    -3.219      2.683      5.522
REMARK INTER + INTRA:          -7.146
REMARK INTER:                  -5.421
REMARK INTRA:                  -1.725
REMARK UNBOUND:                -1.669
REMARK SMILES CCCCCCCCCCCCCC(=O)[O-]
REMARK SMILES IDX 8 1 9 2 10 3 11 4 12 5 13 6 14 7 15 8 16 9 7 10 6 11 5 12
REMARK SMILES IDX 4 13 3 14 2 15 1 16
REMARK H PARENT
REMARK Flexibility Score: inf
ROOT
ATOM      1  C   UNL     1     -94.231 148.792 238.959  1.00  0.00     0.000 C 
ENDROOT
BRANCH   1   2
ATOM      2  C   UNL     1     -93.825 147.924 237.760  1.00  0.00     0.000 C 
BRANCH   2   3
ATOM      3  C   UNL     1     -94.766 148.158 236.569  1.00  0.00     0.000 C 
BRANCH   3   4
ATOM      4  C   UNL     1     -95.384 149.566 236.568  1.00  0.00     0.000 C 
BRANCH   4   5
ATOM      5  C   UNL     1     -96.903 149.546 236.323  1.00  0.00     0.006 C 
BRANCH   5   6
ATOM      6  C   UNL     1     -97.585 148.361 237.021  1.00  0.00     0.053 C 
BRANCH   6   7
ATOM      7  C   UNL     1     -98.815 148.786 237.762  1.00  0.00     0.041 C 
ATOM      8  O   UNL     1     -99.300 149.935 237.583  1.00  0.00    -0.550 OA
ATOM      9  O   UNL     1     -99.443 147.902 238.631  1.00  0.00    -0.550 OA
ENDBRANCH   6   7
ENDBRANCH   5   6
ENDBRANCH   4   5
ENDBRANCH   3   4
ENDBRANCH   2   3
ENDBRANCH   1   2
BRANCH   1  10
ATOM     10  C   UNL     1     -94.992 147.962 240.005  1.00  0.00     0.000 C 
BRANCH  10  11
ATOM     11  C   UNL     1     -96.270 148.660 240.500  1.00  0.00    -0.000 C 
BRANCH  11  12
ATOM     12  C   UNL     1     -96.283 150.163 240.176  1.00  0.00    -0.000 C 
BRANCH  12  13
ATOM     13  C   UNL     1     -97.596 150.854 240.591  1.00  0.00    -0.000 C 
BRANCH  13  14
ATOM     14  C   UNL     1     -98.556 149.985 241.426  1.00  0.00    -0.000 C 
BRANCH  14  15
ATOM     15  C   UNL     1     -98.499 150.301 242.927  1.00  0.00    -0.003 C 
ATOM     16  C   UNL     1     -99.901 150.388 243.524  1.00  0.00     0.004 C 
ENDBRANCH  14  15
ENDBRANCH  13  14
ENDBRANCH  12  13
ENDBRANCH  11  12
ENDBRANCH  10  11
ENDBRANCH   1  10
TORSDOF 12
ENDMDL
MODEL 8
REMARK VINA RESULT:    -3.217      4.389      6.675
REMARK INTER + INTRA:          -7.143
REMARK INTER:                  -5.708
REMARK INTRA:                  -1.435
REMARK UNBOUND:                -1.669
REMARK SMILES CCCCCCCCCCCCCC(=O)[O-]
REMARK SMILES IDX 8 1 9 2 10 3 11 4 12 5 13 6 14 7 15 8 16 9 7 10 6 11 5 12
REMARK SMILES IDX 4 13 3 14 2 15 1 16
REMARK H PARENT
REMARK Flexibility Score: inf
ROOT
ATOM      1  C   UNL     1     -94.575 147.582 239.184  1.00  0.00     0.000 C 
ENDROOT
BRANCH   1   2
ATOM      2  C   UNL     1     -94.280 149.050 238.852  1.00  0.00     0.000 C 
BRANCH   2   3
ATOM      3  C   UNL     1     -94.988 149.475 237.557  1.00  0.00     0.000 C 
BRANCH   3   4
ATOM      4  C   UNL     1     -94.959 148.380 236.479  1.00  0.00     0.000 C 
BRANCH   4   5
ATOM      5  C   UNL     1     -95.447 148.885 235.110  1.00  0.00     0.006 C 
BRANCH   5   6
ATOM      6  C   UNL     1     -96.185 150.226 235.218  1.00  0.00     0.053 C 
BRANCH   6   7
ATOM      7  C   UNL     1     -95.808 151.160 234.110  1.00  0.00     0.041 C 
ATOM      8  O   UNL     1     -95.977 152.401 234.239  1.00  0.00    -0.550 OA
ATOM      9  O   UNL     1     -95.242 150.662 232.943  1.00  0.00    -0.550 OA
ENDBRANCH   6   7
ENDBRANCH   5   6
ENDBRANCH   4   5
ENDBRANCH   3   4
ENDBRANCH   2   3
ENDBRANCH   1   2
BRANCH   1  10
ATOM     10  C   UNL     1     -95.368 147.463 240.496  1.00  0.00     0.000 C 
BRANCH  10  11
ATOM     11  C   UNL     1     -96.857 147.803 240.322  1.00  0.00    -0.000 C 
BRANCH  11  12
ATOM     12  C   UNL     1     -97.497 148.326 241.619  1.00  0.00    -0.000 C 
BRANCH  12  13
ATOM     13  C   UNL     1     -97.714 149.851 241.608  1.00  0.00    -0.000 C 
BRANCH  13  14
ATOM     14  C   UNL     1     -97.429 150.542 240.262  1.00  0.00    -0.000 C 
BRANCH  14  15
ATOM     15  C   UNL     1     -98.705 150.857 239.467  1.00  0.00    -0.003 C 
ATOM     16  C   UNL     1     -98.707 150.137 238.122  1.00  0.00     0.004 C 
ENDBRANCH  14  15
ENDBRANCH  13  14
ENDBRANCH  12  13
ENDBRANCH  11  12
ENDBRANCH  10  11
ENDBRANCH   1  10
TORSDOF 12
ENDMDL
MODEL 9
REMARK VINA RESULT:    -3.193      2.867      4.097
REMARK INTER + INTRA:          -7.101
REMARK INTER:                  -6.009
REMARK INTRA:                  -1.093
REMARK UNBOUND:                -1.669
REMARK SMILES CCCCCCCCCCCCCC(=O)[O-]
REMARK SMILES IDX 8 1 9 2 10 3 11 4 12 5 13 6 14 7 15 8 16 9 7 10 6 11 5 12
REMARK SMILES IDX 4 13 3 14 2 15 1 16
REMARK H PARENT
REMARK Flexibility Score: inf
ROOT
ATOM      1  C   UNL     1     -95.099 149.540 236.871  1.00  0.00     0.000 C 
ENDROOT
BRANCH   1   2
ATOM      2  C   UNL     1     -94.540 148.548 237.899  1.00  0.00     0.000 C 
BRANCH   2   3
ATOM      3  C   UNL     1     -94.592 149.139 239.316  1.00  0.00     0.000 C 
BRANCH   3   4
ATOM      4  C   UNL     1     -95.317 148.222 240.314  1.00  0.00     0.000 C 
BRANCH   4   5
ATOM      5  C   UNL     1     -96.685 148.779 240.744  1.00  0.00     0.006 C 
BRANCH   5   6
ATOM      6  C   UNL     1     -96.893 150.226 240.274  1.00  0.00     0.053 C 
BRANCH   6   7
ATOM      7  C   UNL     1     -98.344 150.587 240.210  1.00  0.00     0.041 C 
ATOM      8  O   UNL     1     -98.805 151.193 239.206  1.00  0.00    -0.550 OA
ATOM      9  O   UNL     1     -99.197 150.228 241.247  1.00  0.00    -0.550 OA
ENDBRANCH   6   7
ENDBRANCH   5   6
ENDBRANCH   4   5
ENDBRANCH   3   4
ENDBRANCH   2   3
ENDBRANCH   1   2
BRANCH   1  10
ATOM     10  C   UNL     1     -96.619 149.370 236.712  1.00  0.00     0.000 C 
BRANCH  10  11
ATOM     11  C   UNL     1     -97.174 150.114 235.486  1.00  0.00    -0.000 C 
BRANCH  11  12
ATOM     12  C   UNL     1     -96.426 149.758 234.191  1.00  0.00    -0.000 C 
BRANCH  12  13
ATOM     13  C   UNL     1     -95.858 150.993 233.467  1.00  0.00    -0.000 C 
BRANCH  13  14
ATOM     14  C   UNL     1     -96.024 152.326 234.221  1.00  0.00    -0.000 C 
BRANCH  14  15
ATOM     15  C   UNL     1     -97.094 153.236 233.601  1.00  0.00    -0.003 C 
ATOM     16  C   UNL     1     -97.390 154.430 234.503  1.00  0.00     0.004 C 
ENDBRANCH  14  15
ENDBRANCH  13  14
ENDBRANCH  12  13
ENDBRANCH  11  12
ENDBRANCH  10  11
ENDBRANCH   1  10
TORSDOF 12
ENDMDL
