MODEL 1
REMARK VINA RESULT:    -5.186      0.000      0.000
REMARK INTER + INTRA:          -6.528
REMARK INTER:                  -6.247
REMARK INTRA:                  -0.281
REMARK UNBOUND:                -0.281
REMARK SMILES O=c1c(O)c(-c2ccc(O)c(O)c2)oc2cc(O)cc(O)c12
REMARK SMILES IDX 5 1 3 2 2 3 1 4 22 5 20 6 19 7 17 8 16 9 15 10 14 11 6 12
REMARK SMILES IDX 7 13 8 14 9 15 13 16 11 17 10 18 12 20 4 22 21 24 18 26
REMARK H PARENT 10 19 12 21 4 23 21 25 18 27
REMARK Flexibility Score: inf
ROOT
ATOM      1  C   UNL     1     145.019 157.664 160.992  1.00  0.00     0.180 A 
ATOM      2  C   UNL     1     145.985 158.679 161.091  1.00  0.00     0.208 A 
ATOM      3  C   UNL     1     146.341 159.395 159.937  1.00  0.00     0.238 A 
ATOM      4  O   UNL     1     147.245 160.266 160.021  1.00  0.00    -0.285 OA
ATOM      5  C   UNL     1     145.715 159.096 158.703  1.00  0.00     0.111 A 
ATOM      6  C   UNL     1     145.969 159.785 157.478  1.00  0.00     0.134 A 
ATOM      7  C   UNL     1     145.390 159.320 156.292  1.00  0.00     0.093 A 
ATOM      8  C   UNL     1     144.514 158.231 156.296  1.00  0.00     0.123 A 
ATOM      9  C   UNL     1     144.213 157.590 157.495  1.00  0.00     0.094 A 
ATOM     10  C   UNL     1     144.804 158.009 158.690  1.00  0.00     0.146 A 
ATOM     11  O   UNL     1     144.499 157.363 159.809  1.00  0.00    -0.452 OA
ENDROOT
BRANCH   1  12
ATOM     12  C   UNL     1     144.574 156.882 162.170  1.00  0.00     0.025 A 
ATOM     13  C   UNL     1     143.337 157.134 162.790  1.00  0.00     0.016 A 
ATOM     14  C   UNL     1     142.926 156.368 163.883  1.00  0.00     0.051 A 
ATOM     15  C   UNL     1     143.738 155.331 164.365  1.00  0.00     0.157 A 
ATOM     16  C   UNL     1     145.373 155.829 162.644  1.00  0.00     0.062 A 
ATOM     17  C   UNL     1     144.963 155.061 163.742  1.00  0.00     0.158 A 
BRANCH  15  18
ATOM     18  O   UNL     1     143.334 154.567 165.457  1.00  0.00    -0.504 OA
ATOM     19  H   UNL     1     143.215 154.976 166.376  1.00  0.00     0.293 HD
ENDBRANCH  15  18
BRANCH  17  20
ATOM     20  O   UNL     1     145.765 154.025 164.218  1.00  0.00    -0.504 OA
ATOM     21  H   UNL     1     146.292 154.116 165.079  1.00  0.00     0.293 HD
ENDBRANCH  17  20
ENDBRANCH   1  12
BRANCH   2  22
ATOM     22  O   UNL     1     146.606 158.943 162.316  1.00  0.00    -0.502 OA
ATOM     23  H   UNL     1     146.116 159.368 163.093  1.00  0.00     0.293 HD
ENDBRANCH   2  22
BRANCH   6  24
ATOM     24  O   UNL     1     146.755 160.938 157.379  1.00  0.00    -0.507 OA
ATOM     25  H   UNL     1     147.760 160.943 157.288  1.00  0.00     0.293 HD
ENDBRANCH   6  24
BRANCH   8  26
ATOM     26  O   UNL     1     143.930 157.785 155.112  1.00  0.00    -0.508 OA
ATOM     27  H   UNL     1     142.924 157.754 154.995  1.00  0.00     0.293 HD
ENDBRANCH   8  26
TORSDOF 6
ENDMDL
MODEL 2
REMARK VINA RESULT:    -5.161     12.380     13.879
REMARK INTER + INTRA:          -6.498
REMARK INTER:                  -6.311
REMARK INTRA:                  -0.187
REMARK UNBOUND:                -0.281
REMARK SMILES O=c1c(O)c(-c2ccc(O)c(O)c2)oc2cc(O)cc(O)c12
REMARK SMILES IDX 5 1 3 2 2 3 1 4 22 5 20 6 19 7 17 8 16 9 15 10 14 11 6 12
REMARK SMILES IDX 7 13 8 14 9 15 13 16 11 17 10 18 12 20 4 22 21 24 18 26
REMARK H PARENT 10 19 12 21 4 23 21 25 18 27
REMARK Flexibility Score: inf
ROOT
ATOM      1  C   UNL     1     153.457 151.138 153.110  1.00  0.00     0.180 A 
ATOM      2  C   UNL     1     152.786 152.372 153.128  1.00  0.00     0.208 A 
ATOM      3  C   UNL     1     153.474 153.515 153.566  1.00  0.00     0.238 A 
ATOM      4  O   UNL     1     152.851 154.607 153.632  1.00  0.00    -0.285 OA
ATOM      5  C   UNL     1     154.828 153.411 153.967  1.00  0.00     0.111 A 
ATOM      6  C   UNL     1     155.634 154.511 154.391  1.00  0.00     0.134 A 
ATOM      7  C   UNL     1     156.920 154.272 154.887  1.00  0.00     0.093 A 
ATOM      8  C   UNL     1     157.455 152.981 154.915  1.00  0.00     0.123 A 
ATOM      9  C   UNL     1     156.698 151.910 154.448  1.00  0.00     0.094 A 
ATOM     10  C   UNL     1     155.396 152.112 153.979  1.00  0.00     0.146 A 
ATOM     11  O   UNL     1     154.705 151.061 153.554  1.00  0.00    -0.452 OA
ENDROOT
BRANCH   1  12
ATOM     12  C   UNL     1     152.806 149.893 152.638  1.00  0.00     0.025 A 
ATOM     13  C   UNL     1     152.383 149.750 151.305  1.00  0.00     0.016 A 
ATOM     14  C   UNL     1     151.794 148.558 150.875  1.00  0.00     0.051 A 
ATOM     15  C   UNL     1     151.631 147.489 151.766  1.00  0.00     0.157 A 
ATOM     16  C   UNL     1     152.658 148.811 153.521  1.00  0.00     0.062 A 
ATOM     17  C   UNL     1     152.066 147.616 153.091  1.00  0.00     0.158 A 
BRANCH  15  18
ATOM     18  O   UNL     1     151.041 146.300 151.343  1.00  0.00    -0.504 OA
ATOM     19  H   UNL     1     150.347 146.286 150.605  1.00  0.00     0.293 HD
ENDBRANCH  15  18
BRANCH  17  20
ATOM     20  O   UNL     1     151.909 146.548 153.974  1.00  0.00    -0.504 OA
ATOM     21  H   UNL     1     152.663 145.897 154.157  1.00  0.00     0.293 HD
ENDBRANCH  17  20
ENDBRANCH   1  12
BRANCH   2  22
ATOM     22  O   UNL     1     151.442 152.448 152.749  1.00  0.00    -0.502 OA
ATOM     23  H   UNL     1     150.788 151.692 152.911  1.00  0.00     0.293 HD
ENDBRANCH   2  22
BRANCH   6  24
ATOM     24  O   UNL     1     155.231 155.848 154.318  1.00  0.00    -0.507 OA
ATOM     25  H   UNL     1     154.963 156.411 155.111  1.00  0.00     0.293 HD
ENDBRANCH   6  24
BRANCH   8  26
ATOM     26  O   UNL     1     158.742 152.755 155.397  1.00  0.00    -0.508 OA
ATOM     27  H   UNL     1     159.550 152.790 154.788  1.00  0.00     0.293 HD
ENDBRANCH   8  26
TORSDOF 6
ENDMDL
MODEL 3
REMARK VINA RESULT:    -5.150      9.664     12.442
REMARK INTER + INTRA:          -6.484
REMARK INTER:                  -6.165
REMARK INTRA:                  -0.319
REMARK UNBOUND:                -0.281
REMARK SMILES O=c1c(O)c(-c2ccc(O)c(O)c2)oc2cc(O)cc(O)c12
REMARK SMILES IDX 5 1 3 2 2 3 1 4 22 5 20 6 19 7 17 8 16 9 15 10 14 11 6 12
REMARK SMILES IDX 7 13 8 14 9 15 13 16 11 17 10 18 12 20 4 22 21 24 18 26
REMARK H PARENT 10 19 12 21 4 23 21 25 18 27
REMARK Flexibility Score: inf
ROOT
ATOM      1  C   UNL     1     153.638 156.776 168.193  1.00  0.00     0.180 A 
ATOM      2  C   UNL     1     154.605 155.765 168.327  1.00  0.00     0.208 A 
ATOM      3  C   UNL     1     154.305 154.471 167.874  1.00  0.00     0.238 A 
ATOM      4  O   UNL     1     155.155 153.558 168.045  1.00  0.00    -0.285 OA
ATOM      5  C   UNL     1     153.048 154.207 167.279  1.00  0.00     0.111 A 
ATOM      6  C   UNL     1     152.652 152.941 166.749  1.00  0.00     0.134 A 
ATOM      7  C   UNL     1     151.338 152.762 166.302  1.00  0.00     0.093 A 
ATOM      8  C   UNL     1     150.423 153.819 166.307  1.00  0.00     0.123 A 
ATOM      9  C   UNL     1     150.818 155.072 166.767  1.00  0.00     0.094 A 
ATOM     10  C   UNL     1     152.113 155.273 167.252  1.00  0.00     0.146 A 
ATOM     11  O   UNL     1     152.445 156.481 167.692  1.00  0.00    -0.452 OA
ENDROOT
BRANCH   1  12
ATOM     12  C   UNL     1     153.890 158.170 168.625  1.00  0.00     0.025 A 
ATOM     13  C   UNL     1     153.665 158.577 169.952  1.00  0.00     0.016 A 
ATOM     14  C   UNL     1     153.934 159.891 170.343  1.00  0.00     0.051 A 
ATOM     15  C   UNL     1     154.443 160.813 169.419  1.00  0.00     0.157 A 
ATOM     16  C   UNL     1     154.420 159.093 167.708  1.00  0.00     0.062 A 
ATOM     17  C   UNL     1     154.689 160.412 168.100  1.00  0.00     0.158 A 
BRANCH  15  18
ATOM     18  O   UNL     1     154.710 162.125 169.804  1.00  0.00    -0.504 OA
ATOM     19  H   UNL     1     155.230 162.335 170.648  1.00  0.00     0.293 HD
ENDBRANCH  15  18
BRANCH  17  20
ATOM     20  O   UNL     1     155.202 161.330 167.184  1.00  0.00    -0.504 OA
ATOM     21  H   UNL     1     154.807 161.430 166.256  1.00  0.00     0.293 HD
ENDBRANCH  17  20
ENDBRANCH   1  12
BRANCH   2  22
ATOM     22  O   UNL     1     155.833 156.042 168.936  1.00  0.00    -0.502 OA
ATOM     23  H   UNL     1     155.927 156.713 169.689  1.00  0.00     0.293 HD
ENDBRANCH   2  22
BRANCH   6  24
ATOM     24  O   UNL     1     153.512 151.848 166.614  1.00  0.00    -0.507 OA
ATOM     25  H   UNL     1     153.526 151.048 167.229  1.00  0.00     0.293 HD
ENDBRANCH   6  24
BRANCH   8  26
ATOM     26  O   UNL     1     149.122 153.634 165.847  1.00  0.00    -0.508 OA
ATOM     27  H   UNL     1     148.444 154.387 165.853  1.00  0.00     0.293 HD
ENDBRANCH   8  26
TORSDOF 6
ENDMDL
MODEL 4
REMARK VINA RESULT:    -5.096      1.908      6.896
REMARK INTER + INTRA:          -6.419
REMARK INTER:                  -6.100
REMARK INTRA:                  -0.319
REMARK UNBOUND:                -0.281
REMARK SMILES O=c1c(O)c(-c2ccc(O)c(O)c2)oc2cc(O)cc(O)c12
REMARK SMILES IDX 5 1 3 2 2 3 1 4 22 5 20 6 19 7 17 8 16 9 15 10 14 11 6 12
REMARK SMILES IDX 7 13 8 14 9 15 13 16 11 17 10 18 12 20 4 22 21 24 18 26
REMARK H PARENT 10 19 12 21 4 23 21 25 18 27
REMARK Flexibility Score: inf
ROOT
ATOM      1  C   UNL     1     145.052 157.544 159.118  1.00  0.00     0.180 A 
ATOM      2  C   UNL     1     146.312 156.999 159.420  1.00  0.00     0.208 A 
ATOM      3  C   UNL     1     146.601 156.647 160.749  1.00  0.00     0.238 A 
ATOM      4  O   UNL     1     147.749 156.210 161.022  1.00  0.00    -0.285 OA
ATOM      5  C   UNL     1     145.621 156.829 161.754  1.00  0.00     0.111 A 
ATOM      6  C   UNL     1     145.791 156.470 163.126  1.00  0.00     0.134 A 
ATOM      7  C   UNL     1     144.805 156.815 164.057  1.00  0.00     0.093 A 
ATOM      8  C   UNL     1     143.625 157.449 163.656  1.00  0.00     0.123 A 
ATOM      9  C   UNL     1     143.425 157.750 162.311  1.00  0.00     0.094 A 
ATOM     10  C   UNL     1     144.407 157.449 161.363  1.00  0.00     0.146 A 
ATOM     11  O   UNL     1     144.180 157.764 160.094  1.00  0.00    -0.452 OA
ENDROOT
BRANCH   1  12
ATOM     12  C   UNL     1     144.666 157.917 157.737  1.00  0.00     0.025 A 
ATOM     13  C   UNL     1     143.942 157.034 156.917  1.00  0.00     0.016 A 
ATOM     14  C   UNL     1     143.566 157.416 155.627  1.00  0.00     0.051 A 
ATOM     15  C   UNL     1     143.896 158.689 155.143  1.00  0.00     0.157 A 
ATOM     16  C   UNL     1     144.976 159.199 157.255  1.00  0.00     0.062 A 
ATOM     17  C   UNL     1     144.600 159.583 155.960  1.00  0.00     0.158 A 
BRANCH  15  18
ATOM     18  O   UNL     1     143.526 159.073 153.856  1.00  0.00    -0.504 OA
ATOM     19  H   UNL     1     143.821 159.958 153.461  1.00  0.00     0.293 HD
ENDBRANCH  15  18
BRANCH  17  20
ATOM     20  O   UNL     1     144.921 160.852 155.479  1.00  0.00    -0.504 OA
ATOM     21  H   UNL     1     145.637 160.986 154.775  1.00  0.00     0.293 HD
ENDBRANCH  17  20
ENDBRANCH   1  12
BRANCH   2  22
ATOM     22  O   UNL     1     147.272 156.848 158.416  1.00  0.00    -0.502 OA
ATOM     23  H   UNL     1     147.099 156.312 157.574  1.00  0.00     0.293 HD
ENDBRANCH   2  22
BRANCH   6  24
ATOM     24  O   UNL     1     146.888 155.755 163.615  1.00  0.00    -0.507 OA
ATOM     25  H   UNL     1     147.081 155.595 164.592  1.00  0.00     0.293 HD
ENDBRANCH   6  24
BRANCH   8  26
ATOM     26  O   UNL     1     142.643 157.775 164.588  1.00  0.00    -0.508 OA
ATOM     27  H   UNL     1     142.012 158.555 164.444  1.00  0.00     0.293 HD
ENDBRANCH   8  26
TORSDOF 6
ENDMDL
MODEL 5
REMARK VINA RESULT:    -5.091      1.473      2.212
REMARK INTER + INTRA:          -6.413
REMARK INTER:                  -6.111
REMARK INTRA:                  -0.302
REMARK UNBOUND:                -0.281
REMARK SMILES O=c1c(O)c(-c2ccc(O)c(O)c2)oc2cc(O)cc(O)c12
REMARK SMILES IDX 5 1 3 2 2 3 1 4 22 5 20 6 19 7 17 8 16 9 15 10 14 11 6 12
REMARK SMILES IDX 7 13 8 14 9 15 13 16 11 17 10 18 12 20 4 22 21 24 18 26
REMARK H PARENT 10 19 12 21 4 23 21 25 18 27
REMARK Flexibility Score: inf
ROOT
ATOM      1  C   UNL     1     144.844 158.019 159.241  1.00  0.00     0.180 A 
ATOM      2  C   UNL     1     145.631 159.115 158.853  1.00  0.00     0.208 A 
ATOM      3  C   UNL     1     145.748 159.421 157.487  1.00  0.00     0.238 A 
ATOM      4  O   UNL     1     146.498 160.370 157.142  1.00  0.00    -0.285 OA
ATOM      5  C   UNL     1     145.064 158.634 156.529  1.00  0.00     0.111 A 
ATOM      6  C   UNL     1     145.078 158.876 155.122  1.00  0.00     0.134 A 
ATOM      7  C   UNL     1     144.472 157.958 154.257  1.00  0.00     0.093 A 
ATOM      8  C   UNL     1     143.795 156.840 154.753  1.00  0.00     0.123 A 
ATOM      9  C   UNL     1     143.724 156.627 156.127  1.00  0.00     0.094 A 
ATOM     10  C   UNL     1     144.351 157.508 157.014  1.00  0.00     0.146 A 
ATOM     11  O   UNL     1     144.268 157.261 158.315  1.00  0.00    -0.452 OA
ENDROOT
BRANCH   1  12
ATOM     12  C   UNL     1     144.653 157.650 160.663  1.00  0.00     0.025 A 
ATOM     13  C   UNL     1     143.487 158.010 161.362  1.00  0.00     0.016 A 
ATOM     14  C   UNL     1     143.318 157.630 162.696  1.00  0.00     0.051 A 
ATOM     15  C   UNL     1     144.303 156.874 163.346  1.00  0.00     0.157 A 
ATOM     16  C   UNL     1     145.627 156.875 161.314  1.00  0.00     0.062 A 
ATOM     17  C   UNL     1     145.459 156.495 162.653  1.00  0.00     0.158 A 
BRANCH  15  18
ATOM     18  O   UNL     1     144.139 156.496 164.677  1.00  0.00    -0.504 OA
ATOM     19  H   UNL     1     143.945 155.535 164.935  1.00  0.00     0.293 HD
ENDBRANCH  15  18
BRANCH  17  20
ATOM     20  O   UNL     1     146.434 155.737 163.299  1.00  0.00    -0.504 OA
ATOM     21  H   UNL     1     146.252 154.788 163.604  1.00  0.00     0.293 HD
ENDBRANCH  17  20
ENDBRANCH   1  12
BRANCH   2  22
ATOM     22  O   UNL     1     146.316 159.865 159.813  1.00  0.00    -0.502 OA
ATOM     23  H   UNL     1     147.310 160.049 159.753  1.00  0.00     0.293 HD
ENDBRANCH   2  22
BRANCH   6  24
ATOM     24  O   UNL     1     145.646 160.009 154.531  1.00  0.00    -0.507 OA
ATOM     25  H   UNL     1     145.470 160.314 153.586  1.00  0.00     0.293 HD
ENDBRANCH   6  24
BRANCH   8  26
ATOM     26  O   UNL     1     143.181 155.940 153.885  1.00  0.00    -0.508 OA
ATOM     27  H   UNL     1     143.703 155.197 153.435  1.00  0.00     0.293 HD
ENDBRANCH   8  26
TORSDOF 6
ENDMDL
MODEL 6
REMARK VINA RESULT:    -5.065      2.064      6.863
REMARK INTER + INTRA:          -6.382
REMARK INTER:                  -6.053
REMARK INTRA:                  -0.329
REMARK UNBOUND:                -0.281
REMARK SMILES O=c1c(O)c(-c2ccc(O)c(O)c2)oc2cc(O)cc(O)c12
REMARK SMILES IDX 5 1 3 2 2 3 1 4 22 5 20 6 19 7 17 8 16 9 15 10 14 11 6 12
REMARK SMILES IDX 7 13 8 14 9 15 13 16 11 17 10 18 12 20 4 22 21 24 18 26
REMARK H PARENT 10 19 12 21 4 23 21 25 18 27
REMARK Flexibility Score: inf
ROOT
ATOM      1  C   UNL     1     144.694 157.774 159.590  1.00  0.00     0.180 A 
ATOM      2  C   UNL     1     143.791 158.278 160.541  1.00  0.00     0.208 A 
ATOM      3  C   UNL     1     143.935 157.898 161.886  1.00  0.00     0.238 A 
ATOM      4  O   UNL     1     143.090 158.309 162.723  1.00  0.00    -0.285 OA
ATOM      5  C   UNL     1     144.989 157.032 162.263  1.00  0.00     0.111 A 
ATOM      6  C   UNL     1     145.253 156.613 163.603  1.00  0.00     0.134 A 
ATOM      7  C   UNL     1     146.243 155.653 163.843  1.00  0.00     0.093 A 
ATOM      8  C   UNL     1     147.021 155.143 162.800  1.00  0.00     0.123 A 
ATOM      9  C   UNL     1     146.810 155.589 161.498  1.00  0.00     0.094 A 
ATOM     10  C   UNL     1     145.805 156.522 161.222  1.00  0.00     0.146 A 
ATOM     11  O   UNL     1     145.631 156.912 159.965  1.00  0.00    -0.452 OA
ENDROOT
BRANCH   1  12
ATOM     12  C   UNL     1     144.621 158.148 158.159  1.00  0.00     0.025 A 
ATOM     13  C   UNL     1     145.232 159.319 157.677  1.00  0.00     0.016 A 
ATOM     14  C   UNL     1     145.171 159.640 156.319  1.00  0.00     0.051 A 
ATOM     15  C   UNL     1     144.513 158.789 155.421  1.00  0.00     0.157 A 
ATOM     16  C   UNL     1     143.980 157.289 157.251  1.00  0.00     0.062 A 
ATOM     17  C   UNL     1     143.917 157.611 155.888  1.00  0.00     0.158 A 
BRANCH  15  18
ATOM     18  O   UNL     1     144.448 159.107 154.066  1.00  0.00    -0.504 OA
ATOM     19  H   UNL     1     145.057 158.664 153.388  1.00  0.00     0.293 HD
ENDBRANCH  15  18
BRANCH  17  20
ATOM     20  O   UNL     1     143.269 156.762 154.991  1.00  0.00    -0.504 OA
ATOM     21  H   UNL     1     142.942 157.093 154.092  1.00  0.00     0.293 HD
ENDBRANCH  17  20
ENDBRANCH   1  12
BRANCH   2  22
ATOM     22  O   UNL     1     142.744 159.114 160.144  1.00  0.00    -0.502 OA
ATOM     23  H   UNL     1     142.004 158.804 159.525  1.00  0.00     0.293 HD
ENDBRANCH   2  22
BRANCH   6  24
ATOM     24  O   UNL     1     144.597 157.128 164.725  1.00  0.00    -0.507 OA
ATOM     25  H   UNL     1     143.697 156.816 165.057  1.00  0.00     0.293 HD
ENDBRANCH   6  24
BRANCH   8  26
ATOM     26  O   UNL     1     148.013 154.198 163.050  1.00  0.00    -0.508 OA
ATOM     27  H   UNL     1     147.798 153.211 163.131  1.00  0.00     0.293 HD
ENDBRANCH   8  26
TORSDOF 6
ENDMDL
MODEL 7
REMARK VINA RESULT:    -5.052      1.630      6.481
REMARK INTER + INTRA:          -6.367
REMARK INTER:                  -6.032
REMARK INTRA:                  -0.335
REMARK UNBOUND:                -0.281
REMARK SMILES O=c1c(O)c(-c2ccc(O)c(O)c2)oc2cc(O)cc(O)c12
REMARK SMILES IDX 5 1 3 2 2 3 1 4 22 5 20 6 19 7 17 8 16 9 15 10 14 11 6 12
REMARK SMILES IDX 7 13 8 14 9 15 13 16 11 17 10 18 12 20 4 22 21 24 18 26
REMARK H PARENT 10 19 12 21 4 23 21 25 18 27
REMARK Flexibility Score: inf
ROOT
ATOM      1  C   UNL     1     145.084 157.898 159.351  1.00  0.00     0.180 A 
ATOM      2  C   UNL     1     145.760 159.083 159.684  1.00  0.00     0.208 A 
ATOM      3  C   UNL     1     145.806 159.486 161.029  1.00  0.00     0.238 A 
ATOM      4  O   UNL     1     146.365 160.576 161.315  1.00  0.00    -0.285 OA
ATOM      5  C   UNL     1     145.188 158.690 162.023  1.00  0.00     0.111 A 
ATOM      6  C   UNL     1     145.207 158.980 163.421  1.00  0.00     0.134 A 
ATOM      7  C   UNL     1     144.453 158.193 164.300  1.00  0.00     0.093 A 
ATOM      8  C   UNL     1     143.734 157.086 163.840  1.00  0.00     0.123 A 
ATOM      9  C   UNL     1     143.758 156.760 162.486  1.00  0.00     0.094 A 
ATOM     10  C   UNL     1     144.472 157.548 161.580  1.00  0.00     0.146 A 
ATOM     11  O   UNL     1     144.460 157.208 160.297  1.00  0.00    -0.452 OA
ENDROOT
BRANCH   1  12
ATOM     12  C   UNL     1     145.014 157.396 157.958  1.00  0.00     0.025 A 
ATOM     13  C   UNL     1     146.004 156.544 157.438  1.00  0.00     0.016 A 
ATOM     14  C   UNL     1     145.904 156.062 156.130  1.00  0.00     0.051 A 
ATOM     15  C   UNL     1     144.810 156.414 155.329  1.00  0.00     0.157 A 
ATOM     16  C   UNL     1     143.909 157.729 157.158  1.00  0.00     0.062 A 
ATOM     17  C   UNL     1     143.810 157.248 155.845  1.00  0.00     0.158 A 
BRANCH  15  18
ATOM     18  O   UNL     1     144.709 155.939 154.023  1.00  0.00    -0.504 OA
ATOM     19  H   UNL     1     145.252 155.146 153.704  1.00  0.00     0.293 HD
ENDBRANCH  15  18
BRANCH  17  20
ATOM     20  O   UNL     1     142.718 157.591 155.048  1.00  0.00    -0.504 OA
ATOM     21  H   UNL     1     142.288 156.921 154.422  1.00  0.00     0.293 HD
ENDBRANCH  17  20
ENDBRANCH   1  12
BRANCH   2  22
ATOM     22  O   UNL     1     146.344 159.866 158.684  1.00  0.00    -0.502 OA
ATOM     23  H   UNL     1     147.096 160.517 158.873  1.00  0.00     0.293 HD
ENDBRANCH   2  22
BRANCH   6  24
ATOM     24  O   UNL     1     145.965 160.005 163.995  1.00  0.00    -0.507 OA
ATOM     25  H   UNL     1     145.672 160.567 164.780  1.00  0.00     0.293 HD
ENDBRANCH   6  24
BRANCH   8  26
ATOM     26  O   UNL     1     142.999 156.300 164.724  1.00  0.00    -0.508 OA
ATOM     27  H   UNL     1     143.012 156.470 165.723  1.00  0.00     0.293 HD
ENDBRANCH   8  26
TORSDOF 6
ENDMDL
MODEL 8
REMARK VINA RESULT:    -4.996      2.468      4.684
REMARK INTER + INTRA:          -6.299
REMARK INTER:                  -6.096
REMARK INTRA:                  -0.202
REMARK UNBOUND:                -0.281
REMARK SMILES O=c1c(O)c(-c2ccc(O)c(O)c2)oc2cc(O)cc(O)c12
REMARK SMILES IDX 5 1 3 2 2 3 1 4 22 5 20 6 19 7 17 8 16 9 15 10 14 11 6 12
REMARK SMILES IDX 7 13 8 14 9 15 13 16 11 17 10 18 12 20 4 22 21 24 18 26
REMARK H PARENT 10 19 12 21 4 23 21 25 18 27
REMARK Flexibility Score: inf
ROOT
ATOM      1  C   UNL     1     144.434 157.640 157.349  1.00  0.00     0.180 A 
ATOM      2  C   UNL     1     144.474 158.852 156.640  1.00  0.00     0.208 A 
ATOM      3  C   UNL     1     144.164 158.849 155.270  1.00  0.00     0.238 A 
ATOM      4  O   UNL     1     144.254 159.928 154.628  1.00  0.00    -0.285 OA
ATOM      5  C   UNL     1     143.804 157.638 154.632  1.00  0.00     0.111 A 
ATOM      6  C   UNL     1     143.431 157.525 153.258  1.00  0.00     0.134 A 
ATOM      7  C   UNL     1     143.220 156.258 152.702  1.00  0.00     0.093 A 
ATOM      8  C   UNL     1     143.305 155.104 153.486  1.00  0.00     0.123 A 
ATOM      9  C   UNL     1     143.609 155.209 154.840  1.00  0.00     0.094 A 
ATOM     10  C   UNL     1     143.860 156.457 155.416  1.00  0.00     0.146 A 
ATOM     11  O   UNL     1     144.157 156.511 156.708  1.00  0.00    -0.452 OA
ENDROOT
BRANCH   1  12
ATOM     12  C   UNL     1     144.724 157.566 158.801  1.00  0.00     0.025 A 
ATOM     13  C   UNL     1     145.898 156.959 159.282  1.00  0.00     0.016 A 
ATOM     14  C   UNL     1     146.163 156.924 160.653  1.00  0.00     0.051 A 
ATOM     15  C   UNL     1     145.268 157.506 161.561  1.00  0.00     0.157 A 
ATOM     16  C   UNL     1     143.841 158.165 159.714  1.00  0.00     0.062 A 
ATOM     17  C   UNL     1     144.106 158.129 161.090  1.00  0.00     0.158 A 
BRANCH  15  18
ATOM     18  O   UNL     1     145.528 157.470 162.929  1.00  0.00    -0.504 OA
ATOM     19  H   UNL     1     145.035 156.835 163.546  1.00  0.00     0.293 HD
ENDBRANCH  15  18
BRANCH  17  20
ATOM     20  O   UNL     1     143.221 158.713 161.995  1.00  0.00    -0.504 OA
ATOM     21  H   UNL     1     142.625 159.488 161.728  1.00  0.00     0.293 HD
ENDBRANCH  17  20
ENDBRANCH   1  12
BRANCH   2  22
ATOM     22  O   UNL     1     144.853 160.033 157.284  1.00  0.00    -0.502 OA
ATOM     23  H   UNL     1     145.743 160.133 157.757  1.00  0.00     0.293 HD
ENDBRANCH   2  22
BRANCH   6  24
ATOM     24  O   UNL     1     143.230 158.620 152.412  1.00  0.00    -0.507 OA
ATOM     25  H   UNL     1     142.634 158.615 151.598  1.00  0.00     0.293 HD
ENDBRANCH   6  24
BRANCH   8  26
ATOM     26  O   UNL     1     143.078 153.848 152.926  1.00  0.00    -0.508 OA
ATOM     27  H   UNL     1     143.413 153.612 152.000  1.00  0.00     0.293 HD
ENDBRANCH   8  26
TORSDOF 6
ENDMDL
