MODEL 1
REMARK VINA RESULT:    -1.644      0.000      0.000
REMARK INTER + INTRA:          -1.938
REMARK INTER:                  -1.788
REMARK INTRA:                  -0.151
REMARK UNBOUND:                -0.151
REMARK SMILES C[C@@H]1[C@@H](C)CC[C@@]2(C(=O)[O-])CC[C@@]3(C)C(=CC[C@@H]4[C@]5(C)CC[C@H](O)C(C)(C)[C@@H]5CC[C@]43C)[C@@H]12
REMARK SMILES IDX 7 1 6 2 11 3 33 4 5 5 12 6 15 7 2 8 3 9 13 10 16 11 1 12
REMARK SMILES IDX 4 13 14 14 31 15 17 16 18 17 30 18 32 19 19 20 29 21 28 22
REMARK SMILES IDX 21 23 20 24 25 25 22 26 23 27 26 28 27 29 8 30 9 31 10 32
REMARK SMILES IDX 24 33
REMARK H PARENT 24 34
REMARK Flexibility Score: inf
ROOT
ATOM      1  C   UNL     1      42.988  13.940  35.024  1.00  0.00     0.017 C 
ATOM      2  C   UNL     1      43.234  13.680  33.497  1.00  0.00     0.014 C 
ATOM      3  C   UNL     1      44.376  14.183  35.690  1.00  0.00     0.014 C 
ATOM      4  C   UNL     1      41.993  15.153  35.210  1.00  0.00     0.030 C 
ATOM      5  C   UNL     1      41.999  13.987  32.646  1.00  0.00     0.004 C 
ATOM      6  C   UNL     1      44.313  14.767  37.117  1.00  0.00     0.013 C 
ATOM      7  C   UNL     1      42.093  15.775  36.614  1.00  0.00    -0.063 C 
ATOM      8  C   UNL     1      42.022  16.183  34.039  1.00  0.00    -0.003 C 
ATOM      9  C   UNL     1      41.656  15.499  32.675  1.00  0.00    -0.011 C 
ATOM     10  C   UNL     1      43.483  16.089  37.228  1.00  0.00    -0.006 C 
ATOM     11  C   UNL     1      40.942  15.815  37.344  1.00  0.00    -0.027 C 
ATOM     12  C   UNL     1      41.070  17.369  34.300  1.00  0.00     0.008 C 
ATOM     13  C   UNL     1      42.329  16.230  31.499  1.00  0.00     0.008 C 
ATOM     14  C   UNL     1      44.212  17.190  36.381  1.00  0.00     0.017 C 
ATOM     15  C   UNL     1      43.326  16.617  38.752  1.00  0.00    -0.020 C 
ATOM     16  C   UNL     1      40.875  15.979  38.844  1.00  0.00     0.032 C 
ATOM     17  C   UNL     1      42.254  15.715  39.475  1.00  0.00     0.006 C 
ATOM     18  C   UNL     1      44.667  16.588  39.555  1.00  0.00     0.008 C 
ATOM     19  C   UNL     1      42.853  18.119  38.698  1.00  0.00     0.012 C 
ATOM     20  C   UNL     1      42.308  15.600  41.065  1.00  0.00    -0.025 C 
ATOM     21  C   UNL     1      44.848  15.344  40.435  1.00  0.00     0.005 C 
ATOM     22  C   UNL     1      43.777  15.228  41.557  1.00  0.00     0.003 C 
ATOM     23  C   UNL     1      41.826  16.890  41.770  1.00  0.00     0.010 C 
ATOM     24  C   UNL     1      41.328  14.445  41.474  1.00  0.00     0.012 C 
ATOM     25  C   UNL     1      44.229  15.843  42.962  1.00  0.00    -0.006 C 
ATOM     26  C   UNL     1      41.815  16.792  43.305  1.00  0.00     0.033 C 
ATOM     27  C   UNL     1      42.999  15.996  43.913  1.00  0.00     0.120 C 
ATOM     28  C   UNL     1      45.211  14.848  43.644  1.00  0.00     0.014 C 
ATOM     29  C   UNL     1      44.984  17.200  42.855  1.00  0.00     0.014 C 
ENDROOT
BRANCH   1  30
ATOM     30  C   UNL     1      42.384  12.693  35.677  1.00  0.00     0.048 C 
ATOM     31  O   UNL     1      41.201  12.701  36.115  1.00  0.00    -0.550 OA
ATOM     32  O   UNL     1      43.093  11.500  35.710  1.00  0.00    -0.550 OA
ENDBRANCH   1  30
BRANCH  27  33
ATOM     33  O   UNL     1      43.386  16.600  45.124  1.00  0.00    -0.393 OA
ATOM     34  H   UNL     1      44.347  16.833  45.039  1.00  0.00     0.210 HD
ENDBRANCH  27  33
TORSDOF 2
ENDMDL
MODEL 2
REMARK VINA RESULT:     0.176      1.986      7.887
REMARK INTER + INTRA:           0.041
REMARK INTER:                   0.319
REMARK INTRA:                  -0.278
REMARK UNBOUND:                -0.151
REMARK SMILES C[C@@H]1[C@@H](C)CC[C@@]2(C(=O)[O-])CC[C@@]3(C)C(=CC[C@@H]4[C@]5(C)CC[C@H](O)C(C)(C)[C@@H]5CC[C@]43C)[C@@H]12
REMARK SMILES IDX 7 1 6 2 11 3 33 4 5 5 12 6 15 7 2 8 3 9 13 10 16 11 1 12
REMARK SMILES IDX 4 13 14 14 31 15 17 16 18 17 30 18 32 19 19 20 29 21 28 22
REMARK SMILES IDX 21 23 20 24 25 25 22 26 23 27 26 28 27 29 8 30 9 31 10 32
REMARK SMILES IDX 24 33
REMARK H PARENT 24 34
REMARK Flexibility Score: inf
ROOT
ATOM      1  C   UNL     1      44.210  14.784  42.366  1.00  0.00     0.017 C 
ATOM      2  C   UNL     1      44.218  15.070  43.907  1.00  0.00     0.014 C 
ATOM      3  C   UNL     1      43.347  13.508  42.128  1.00  0.00     0.014 C 
ATOM      4  C   UNL     1      43.672  16.048  41.584  1.00  0.00     0.030 C 
ATOM      5  C   UNL     1      44.517  16.538  44.227  1.00  0.00     0.004 C 
ATOM      6  C   UNL     1      42.963  13.255  40.655  1.00  0.00     0.013 C 
ATOM      7  C   UNL     1      43.171  15.689  40.175  1.00  0.00    -0.063 C 
ATOM      8  C   UNL     1      42.695  16.937  42.415  1.00  0.00    -0.003 C 
ATOM      9  C   UNL     1      43.384  17.467  43.721  1.00  0.00    -0.011 C 
ATOM     10  C   UNL     1      42.242  14.463  39.968  1.00  0.00    -0.006 C 
ATOM     11  C   UNL     1      43.758  16.349  39.136  1.00  0.00    -0.027 C 
ATOM     12  C   UNL     1      42.163  18.125  41.586  1.00  0.00     0.008 C 
ATOM     13  C   UNL     1      42.344  17.707  44.829  1.00  0.00     0.008 C 
ATOM     14  C   UNL     1      40.875  14.691  40.701  1.00  0.00     0.017 C 
ATOM     15  C   UNL     1      41.960  14.223  38.390  1.00  0.00    -0.020 C 
ATOM     16  C   UNL     1      43.742  15.886  37.698  1.00  0.00     0.032 C 
ATOM     17  C   UNL     1      43.320  14.408  37.614  1.00  0.00     0.006 C 
ATOM     18  C   UNL     1      41.364  12.811  38.079  1.00  0.00     0.008 C 
ATOM     19  C   UNL     1      40.896  15.286  37.922  1.00  0.00     0.012 C 
ATOM     20  C   UNL     1      43.490  13.689  36.201  1.00  0.00    -0.025 C 
ATOM     21  C   UNL     1      42.402  11.773  37.634  1.00  0.00     0.005 C 
ATOM     22  C   UNL     1      43.107  12.146  36.300  1.00  0.00     0.003 C 
ATOM     23  C   UNL     1      42.660  14.369  35.086  1.00  0.00     0.010 C 
ATOM     24  C   UNL     1      45.003  13.813  35.804  1.00  0.00     0.012 C 
ATOM     25  C   UNL     1      42.437  11.500  35.000  1.00  0.00    -0.006 C 
ATOM     26  C   UNL     1      42.846  13.732  33.698  1.00  0.00     0.033 C 
ATOM     27  C   UNL     1      42.979  12.187  33.706  1.00  0.00     0.120 C 
ATOM     28  C   UNL     1      42.848  10.001  34.926  1.00  0.00     0.014 C 
ATOM     29  C   UNL     1      40.880  11.529  35.000  1.00  0.00     0.014 C 
ENDROOT
BRANCH   1  30
ATOM     30  C   UNL     1      45.629  14.467  41.884  1.00  0.00     0.048 C 
ATOM     31  O   UNL     1      46.344  15.356  41.346  1.00  0.00    -0.550 OA
ATOM     32  O   UNL     1      46.194  13.221  42.123  1.00  0.00    -0.550 OA
ENDBRANCH   1  30
BRANCH  27  33
ATOM     33  O   UNL     1      42.338  11.664  32.567  1.00  0.00    -0.393 OA
ATOM     34  H   UNL     1      41.862  10.842  32.852  1.00  0.00     0.210 HD
ENDBRANCH  27  33
TORSDOF 2
ENDMDL
MODEL 3
REMARK VINA RESULT:     0.369      0.947      1.098
REMARK INTER + INTRA:           0.251
REMARK INTER:                   0.041
REMARK INTRA:                   0.210
REMARK UNBOUND:                -0.151
REMARK SMILES C[C@@H]1[C@@H](C)CC[C@@]2(C(=O)[O-])CC[C@@]3(C)C(=CC[C@@H]4[C@]5(C)CC[C@H](O)C(C)(C)[C@@H]5CC[C@]43C)[C@@H]12
REMARK SMILES IDX 7 1 6 2 11 3 33 4 5 5 12 6 15 7 2 8 3 9 13 10 16 11 1 12
REMARK SMILES IDX 4 13 14 14 31 15 17 16 18 17 30 18 32 19 19 20 29 21 28 22
REMARK SMILES IDX 21 23 20 24 25 25 22 26 23 27 26 28 27 29 8 30 9 31 10 32
REMARK SMILES IDX 24 33
REMARK H PARENT 24 34
REMARK Flexibility Score: inf
ROOT
ATOM      1  C   UNL     1      43.596  13.632  34.785  1.00  0.00     0.017 C 
ATOM      2  C   UNL     1      43.959  13.598  33.260  1.00  0.00     0.014 C 
ATOM      3  C   UNL     1      44.846  14.156  35.556  1.00  0.00     0.014 C 
ATOM      4  C   UNL     1      42.311  14.523  35.015  1.00  0.00     0.030 C 
ATOM      5  C   UNL     1      42.719  13.662  32.363  1.00  0.00     0.004 C 
ATOM      6  C   UNL     1      44.577  14.556  37.022  1.00  0.00     0.013 C 
ATOM      7  C   UNL     1      42.192  15.005  36.471  1.00  0.00    -0.063 C 
ATOM      8  C   UNL     1      42.114  15.638  33.942  1.00  0.00    -0.003 C 
ATOM      9  C   UNL     1      41.992  15.024  32.503  1.00  0.00    -0.011 C 
ATOM     10  C   UNL     1      43.427  15.603  37.196  1.00  0.00    -0.006 C 
ATOM     11  C   UNL     1      41.044  14.674  37.128  1.00  0.00    -0.027 C 
ATOM     12  C   UNL     1      40.875  16.507  34.245  1.00  0.00     0.008 C 
ATOM     13  C   UNL     1      42.494  16.018  31.440  1.00  0.00     0.008 C 
ATOM     14  C   UNL     1      43.873  16.933  36.495  1.00  0.00     0.017 C 
ATOM     15  C   UNL     1      43.079  15.916  38.747  1.00  0.00    -0.020 C 
ATOM     16  C   UNL     1      40.879  14.664  38.629  1.00  0.00     0.032 C 
ATOM     17  C   UNL     1      42.254  14.701  39.320  1.00  0.00     0.006 C 
ATOM     18  C   UNL     1      44.350  16.152  39.627  1.00  0.00     0.008 C 
ATOM     19  C   UNL     1      42.232  17.244  38.795  1.00  0.00     0.012 C 
ATOM     20  C   UNL     1      42.277  14.445  40.894  1.00  0.00    -0.025 C 
ATOM     21  C   UNL     1      44.817  14.915  40.405  1.00  0.00     0.005 C 
ATOM     22  C   UNL     1      43.772  14.415  41.443  1.00  0.00     0.003 C 
ATOM     23  C   UNL     1      41.447  15.490  41.677  1.00  0.00     0.010 C 
ATOM     24  C   UNL     1      41.619  13.042  41.139  1.00  0.00     0.012 C 
ATOM     25  C   UNL     1      43.994  14.981  42.921  1.00  0.00    -0.006 C 
ATOM     26  C   UNL     1      41.404  15.238  43.194  1.00  0.00     0.033 C 
ATOM     27  C   UNL     1      42.731  14.716  43.803  1.00  0.00     0.120 C 
ATOM     28  C   UNL     1      45.175  14.208  43.575  1.00  0.00     0.014 C 
ATOM     29  C   UNL     1      44.370  16.491  42.981  1.00  0.00     0.014 C 
ENDROOT
BRANCH   1  30
ATOM     30  C   UNL     1      43.315  12.213  35.289  1.00  0.00     0.048 C 
ATOM     31  O   UNL     1      43.821  11.210  34.716  1.00  0.00    -0.550 OA
ATOM     32  O   UNL     1      42.579  12.009  36.448  1.00  0.00    -0.550 OA
ENDBRANCH   1  30
BRANCH  27  33
ATOM     33  O   UNL     1      42.901  15.274  45.084  1.00  0.00    -0.393 OA
ATOM     34  H   UNL     1      42.838  16.259  44.984  1.00  0.00     0.210 HD
ENDBRANCH  27  33
TORSDOF 2
ENDMDL
