MODEL 1
REMARK VINA RESULT:     1.819      0.000      0.000
REMARK INTER + INTRA:           2.654
REMARK INTER:                   3.415
REMARK INTRA:                  -0.761
REMARK UNBOUND:                -0.761
REMARK SMILES CCCCCCCCC=CCCCCCCCC(=O)[O-]
REMARK SMILES IDX 10 1 9 2 11 3 12 4 13 5 14 6 15 7 16 8 17 9 18 10 19 11
REMARK SMILES IDX 20 12 8 13 7 14 6 15 5 16 4 17 3 18 2 19 1 20
REMARK H PARENT
REMARK Flexibility Score: inf
ROOT
ATOM      1  C   UNL     1      99.299  72.211  81.222  1.00  0.00    -0.031 C 
ATOM      2  C   UNL     1      99.194  72.279  79.882  1.00  0.00    -0.031 C 
ENDROOT
BRANCH   1   3
ATOM      3  C   UNL     1     100.444  71.563  81.959  1.00  0.00     0.027 C 
BRANCH   3   4
ATOM      4  C   UNL     1     100.050  71.251  83.407  1.00  0.00     0.004 C 
BRANCH   4   5
ATOM      5  C   UNL     1      98.797  72.038  83.817  1.00  0.00     0.000 C 
BRANCH   5   6
ATOM      6  C   UNL     1      97.833  71.218  84.694  1.00  0.00     0.000 C 
BRANCH   6   7
ATOM      7  C   UNL     1      97.139  70.047  83.975  1.00  0.00     0.000 C 
BRANCH   7   8
ATOM      8  C   UNL     1      95.619  70.023  84.198  1.00  0.00     0.006 C 
BRANCH   8   9
ATOM      9  C   UNL     1      95.150  71.287  84.923  1.00  0.00     0.053 C 
BRANCH   9  10
ATOM     10  C   UNL     1      94.336  72.146  84.007  1.00  0.00     0.041 C 
ATOM     11  O   UNL     1      93.875  71.670  82.936  1.00  0.00    -0.550 OA
ATOM     12  O   UNL     1      94.042  73.456  84.360  1.00  0.00    -0.550 OA
ENDBRANCH   9  10
ENDBRANCH   8   9
ENDBRANCH   7   8
ENDBRANCH   6   7
ENDBRANCH   5   6
ENDBRANCH   4   5
ENDBRANCH   3   4
ENDBRANCH   1   3
BRANCH   2  13
ATOM     13  C   UNL     1     100.247  71.803  78.911  1.00  0.00     0.027 C 
BRANCH  13  14
ATOM     14  C   UNL     1      99.654  71.473  77.531  1.00  0.00     0.004 C 
BRANCH  14  15
ATOM     15  C   UNL     1     100.536  70.549  76.669  1.00  0.00     0.000 C 
BRANCH  15  16
ATOM     16  C   UNL     1     101.453  71.271  75.664  1.00  0.00     0.000 C 
BRANCH  16  17
ATOM     17  C   UNL     1     102.750  70.501  75.336  1.00  0.00    -0.000 C 
BRANCH  17  18
ATOM     18  C   UNL     1     102.477  69.040  74.935  1.00  0.00    -0.000 C 
BRANCH  18  19
ATOM     19  C   UNL     1     102.223  68.880  73.428  1.00  0.00    -0.003 C 
ATOM     20  C   UNL     1     100.928  69.554  72.973  1.00  0.00     0.004 C 
ENDBRANCH  18  19
ENDBRANCH  17  18
ENDBRANCH  16  17
ENDBRANCH  15  16
ENDBRANCH  14  15
ENDBRANCH  13  14
ENDBRANCH   2  13
TORSDOF 15
ENDMDL
MODEL 2
REMARK VINA RESULT:     1.934      1.331      1.979
REMARK INTER + INTRA:           2.870
REMARK INTER:                   3.802
REMARK INTRA:                  -0.932
REMARK UNBOUND:                -0.761
REMARK SMILES CCCCCCCCC=CCCCCCCCC(=O)[O-]
REMARK SMILES IDX 10 1 9 2 11 3 12 4 13 5 14 6 15 7 16 8 17 9 18 10 19 11
REMARK SMILES IDX 20 12 8 13 7 14 6 15 5 16 4 17 3 18 2 19 1 20
REMARK H PARENT
REMARK Flexibility Score: inf
ROOT
ATOM      1  C   UNL     1      99.357  72.244  80.939  1.00  0.00    -0.031 C 
ATOM      2  C   UNL     1      99.212  72.337  79.604  1.00  0.00    -0.031 C 
ENDROOT
BRANCH   1   3
ATOM      3  C   UNL     1     100.632  71.838  81.635  1.00  0.00     0.027 C 
BRANCH   3   4
ATOM      4  C   UNL     1     100.325  71.063  82.921  1.00  0.00     0.004 C 
BRANCH   4   5
ATOM      5  C   UNL     1      99.888  72.015  84.045  1.00  0.00     0.000 C 
BRANCH   5   6
ATOM      6  C   UNL     1      98.397  71.877  84.402  1.00  0.00     0.000 C 
BRANCH   6   7
ATOM      7  C   UNL     1      97.638  70.792  83.617  1.00  0.00     0.000 C 
BRANCH   7   8
ATOM      8  C   UNL     1      96.746  69.918  84.512  1.00  0.00     0.006 C 
BRANCH   8   9
ATOM      9  C   UNL     1      95.533  70.706  85.015  1.00  0.00     0.053 C 
BRANCH   9  10
ATOM     10  C   UNL     1      94.609  71.027  83.882  1.00  0.00     0.041 C 
ATOM     11  O   UNL     1      94.083  70.100  83.212  1.00  0.00    -0.550 OA
ATOM     12  O   UNL     1      94.289  72.349  83.598  1.00  0.00    -0.550 OA
ENDBRANCH   9  10
ENDBRANCH   8   9
ENDBRANCH   7   8
ENDBRANCH   6   7
ENDBRANCH   5   6
ENDBRANCH   4   5
ENDBRANCH   3   4
ENDBRANCH   1   3
BRANCH   2  13
ATOM     13  C   UNL     1     100.324  72.144  78.603  1.00  0.00     0.027 C 
BRANCH  13  14
ATOM     14  C   UNL     1      99.831  71.456  77.317  1.00  0.00     0.004 C 
BRANCH  14  15
ATOM     15  C   UNL     1     100.789  70.380  76.771  1.00  0.00     0.000 C 
BRANCH  15  16
ATOM     16  C   UNL     1     100.975  70.386  75.242  1.00  0.00     0.000 C 
BRANCH  16  17
ATOM     17  C   UNL     1     102.392  70.796  74.787  1.00  0.00    -0.000 C 
BRANCH  17  18
ATOM     18  C   UNL     1     102.798  72.183  75.316  1.00  0.00    -0.000 C 
BRANCH  18  19
ATOM     19  C   UNL     1     103.691  72.952  74.330  1.00  0.00    -0.003 C 
ATOM     20  C   UNL     1     105.036  73.349  74.939  1.00  0.00     0.004 C 
ENDBRANCH  18  19
ENDBRANCH  17  18
ENDBRANCH  16  17
ENDBRANCH  15  16
ENDBRANCH  14  15
ENDBRANCH  13  14
ENDBRANCH   2  13
TORSDOF 15
ENDMDL
MODEL 3
REMARK VINA RESULT:     2.000      4.496     10.036
REMARK INTER + INTRA:           2.993
REMARK INTER:                   3.850
REMARK INTRA:                  -0.857
REMARK UNBOUND:                -0.761
REMARK SMILES CCCCCCCCC=CCCCCCCCC(=O)[O-]
REMARK SMILES IDX 10 1 9 2 11 3 12 4 13 5 14 6 15 7 16 8 17 9 18 10 19 11
REMARK SMILES IDX 20 12 8 13 7 14 6 15 5 16 4 17 3 18 2 19 1 20
REMARK H PARENT
REMARK Flexibility Score: inf
ROOT
ATOM      1  C   UNL     1      99.232  72.407  79.748  1.00  0.00    -0.031 C 
ATOM      2  C   UNL     1      99.374  72.278  81.080  1.00  0.00    -0.031 C 
ENDROOT
BRANCH   1   3
ATOM      3  C   UNL     1     100.309  72.100  78.738  1.00  0.00     0.027 C 
BRANCH   3   4
ATOM      4  C   UNL     1      99.701  71.533  77.451  1.00  0.00     0.004 C 
BRANCH   4   5
ATOM      5  C   UNL     1     100.575  70.406  76.881  1.00  0.00     0.000 C 
BRANCH   5   6
ATOM      6  C   UNL     1     100.919  70.605  75.394  1.00  0.00     0.000 C 
BRANCH   6   7
ATOM      7  C   UNL     1     102.184  69.870  74.916  1.00  0.00     0.000 C 
BRANCH   7   8
ATOM      8  C   UNL     1     103.423  70.776  74.868  1.00  0.00     0.006 C 
BRANCH   8   9
ATOM      9  C   UNL     1     103.082  72.197  75.326  1.00  0.00     0.053 C 
BRANCH   9  10
ATOM     10  C   UNL     1     103.879  73.202  74.556  1.00  0.00     0.041 C 
ATOM     11  O   UNL     1     103.361  73.809  73.582  1.00  0.00    -0.550 OA
ATOM     12  O   UNL     1     105.177  73.507  74.946  1.00  0.00    -0.550 OA
ENDBRANCH   9  10
ENDBRANCH   8   9
ENDBRANCH   7   8
ENDBRANCH   6   7
ENDBRANCH   5   6
ENDBRANCH   4   5
ENDBRANCH   3   4
ENDBRANCH   1   3
BRANCH   2  13
ATOM     13  C   UNL     1     100.597  71.717  81.764  1.00  0.00     0.027 C 
BRANCH  13  14
ATOM     14  C   UNL     1     100.308  71.302  83.217  1.00  0.00     0.004 C 
BRANCH  14  15
ATOM     15  C   UNL     1      98.814  71.082  83.525  1.00  0.00     0.000 C 
BRANCH  15  16
ATOM     16  C   UNL     1      98.228  72.007  84.609  1.00  0.00     0.000 C 
BRANCH  16  17
ATOM     17  C   UNL     1      96.840  71.565  85.122  1.00  0.00    -0.000 C 
BRANCH  17  18
ATOM     18  C   UNL     1      95.879  71.205  83.976  1.00  0.00    -0.000 C 
BRANCH  18  19
ATOM     19  C   UNL     1      94.510  71.887  84.118  1.00  0.00    -0.003 C 
ATOM     20  C   UNL     1      94.547  73.097  85.051  1.00  0.00     0.004 C 
ENDBRANCH  18  19
ENDBRANCH  17  18
ENDBRANCH  16  17
ENDBRANCH  15  16
ENDBRANCH  14  15
ENDBRANCH  13  14
ENDBRANCH   2  13
TORSDOF 15
ENDMDL
MODEL 4
REMARK VINA RESULT:     2.025      4.260      9.937
REMARK INTER + INTRA:           3.040
REMARK INTER:                   3.713
REMARK INTRA:                  -0.673
REMARK UNBOUND:                -0.761
REMARK SMILES CCCCCCCCC=CCCCCCCCC(=O)[O-]
REMARK SMILES IDX 10 1 9 2 11 3 12 4 13 5 14 6 15 7 16 8 17 9 18 10 19 11
REMARK SMILES IDX 20 12 8 13 7 14 6 15 5 16 4 17 3 18 2 19 1 20
REMARK H PARENT
REMARK Flexibility Score: inf
ROOT
ATOM      1  C   UNL     1     100.573  71.852  81.450  1.00  0.00    -0.031 C 
ATOM      2  C   UNL     1     100.482  71.524  82.752  1.00  0.00    -0.031 C 
ENDROOT
BRANCH   1   3
ATOM      3  C   UNL     1      99.404  72.240  80.580  1.00  0.00     0.027 C 
BRANCH   3   4
ATOM      4  C   UNL     1      99.879  72.654  79.183  1.00  0.00     0.004 C 
BRANCH   4   5
ATOM      5  C   UNL     1      99.747  71.489  78.191  1.00  0.00     0.000 C 
BRANCH   5   6
ATOM      6  C   UNL     1     100.512  71.731  76.876  1.00  0.00     0.000 C 
BRANCH   6   7
ATOM      7  C   UNL     1     101.060  70.461  76.201  1.00  0.00     0.000 C 
BRANCH   7   8
ATOM      8  C   UNL     1     101.783  70.750  74.877  1.00  0.00     0.006 C 
BRANCH   8   9
ATOM      9  C   UNL     1     103.274  71.009  75.111  1.00  0.00     0.053 C 
BRANCH   9  10
ATOM     10  C   UNL     1     103.619  72.425  74.773  1.00  0.00     0.041 C 
ATOM     11  O   UNL     1     102.725  73.216  74.370  1.00  0.00    -0.550 OA
ATOM     12  O   UNL     1     104.917  72.887  74.952  1.00  0.00    -0.550 OA
ENDBRANCH   9  10
ENDBRANCH   8   9
ENDBRANCH   7   8
ENDBRANCH   6   7
ENDBRANCH   5   6
ENDBRANCH   4   5
ENDBRANCH   3   4
ENDBRANCH   1   3
BRANCH   2  13
ATOM     13  C   UNL     1      99.213  71.583  83.566  1.00  0.00     0.027 C 
BRANCH  13  14
ATOM     14  C   UNL     1      98.290  70.384  83.286  1.00  0.00     0.004 C 
BRANCH  14  15
ATOM     15  C   UNL     1      97.168  70.195  84.326  1.00  0.00     0.000 C 
BRANCH  15  16
ATOM     16  C   UNL     1      96.136  69.105  83.982  1.00  0.00     0.000 C 
BRANCH  16  17
ATOM     17  C   UNL     1      94.824  69.210  84.790  1.00  0.00    -0.000 C 
BRANCH  17  18
ATOM     18  C   UNL     1      93.881  70.294  84.236  1.00  0.00    -0.000 C 
BRANCH  18  19
ATOM     19  C   UNL     1      93.875  71.566  85.097  1.00  0.00    -0.003 C 
ATOM     20  C   UNL     1      94.797  72.655  84.548  1.00  0.00     0.004 C 
ENDBRANCH  18  19
ENDBRANCH  17  18
ENDBRANCH  16  17
ENDBRANCH  15  16
ENDBRANCH  14  15
ENDBRANCH  13  14
ENDBRANCH   2  13
TORSDOF 15
ENDMDL
MODEL 5
REMARK VINA RESULT:     2.399      2.251      4.905
REMARK INTER + INTRA:           3.742
REMARK INTER:                   4.363
REMARK INTRA:                  -0.621
REMARK UNBOUND:                -0.761
REMARK SMILES CCCCCCCCC=CCCCCCCCC(=O)[O-]
REMARK SMILES IDX 10 1 9 2 11 3 12 4 13 5 14 6 15 7 16 8 17 9 18 10 19 11
REMARK SMILES IDX 20 12 8 13 7 14 6 15 5 16 4 17 3 18 2 19 1 20
REMARK H PARENT
REMARK Flexibility Score: inf
ROOT
ATOM      1  C   UNL     1     101.371  71.754  76.058  1.00  0.00    -0.031 C 
ATOM      2  C   UNL     1     102.387  71.106  75.460  1.00  0.00    -0.031 C 
ENDROOT
BRANCH   1   3
ATOM      3  C   UNL     1     100.147  71.084  76.632  1.00  0.00     0.027 C 
BRANCH   3   4
ATOM      4  C   UNL     1     100.223  71.032  78.161  1.00  0.00     0.004 C 
BRANCH   4   5
ATOM      5  C   UNL     1      99.823  72.380  78.778  1.00  0.00     0.000 C 
BRANCH   5   6
ATOM      6  C   UNL     1      99.486  72.280  80.276  1.00  0.00     0.000 C 
BRANCH   6   7
ATOM      7  C   UNL     1     100.662  71.870  81.181  1.00  0.00     0.000 C 
BRANCH   7   8
ATOM      8  C   UNL     1     100.212  71.375  82.563  1.00  0.00     0.006 C 
BRANCH   8   9
ATOM      9  C   UNL     1      98.718  71.631  82.779  1.00  0.00     0.053 C 
BRANCH   9  10
ATOM     10  C   UNL     1      98.421  71.807  84.235  1.00  0.00     0.041 C 
ATOM     11  O   UNL     1      99.162  72.533  84.949  1.00  0.00    -0.550 OA
ATOM     12  O   UNL     1      97.297  71.211  84.792  1.00  0.00    -0.550 OA
ENDBRANCH   9  10
ENDBRANCH   8   9
ENDBRANCH   7   8
ENDBRANCH   6   7
ENDBRANCH   5   6
ENDBRANCH   4   5
ENDBRANCH   3   4
ENDBRANCH   1   3
BRANCH   2  13
ATOM     13  C   UNL     1     102.506  69.605  75.353  1.00  0.00     0.027 C 
BRANCH  13  14
ATOM     14  C   UNL     1     102.308  69.111  73.910  1.00  0.00     0.004 C 
BRANCH  14  15
ATOM     15  C   UNL     1     101.015  69.618  73.241  1.00  0.00     0.000 C 
BRANCH  15  16
ATOM     16  C   UNL     1     100.612  68.875  71.953  1.00  0.00     0.000 C 
BRANCH  16  17
ATOM     17  C   UNL     1     101.447  69.272  70.716  1.00  0.00    -0.000 C 
BRANCH  17  18
ATOM     18  C   UNL     1     100.762  68.877  69.396  1.00  0.00    -0.000 C 
BRANCH  18  19
ATOM     19  C   UNL     1      99.749  69.928  68.919  1.00  0.00    -0.003 C 
ATOM     20  C   UNL     1      99.593  71.088  69.904  1.00  0.00     0.004 C 
ENDBRANCH  18  19
ENDBRANCH  17  18
ENDBRANCH  16  17
ENDBRANCH  15  16
ENDBRANCH  14  15
ENDBRANCH  13  14
ENDBRANCH   2  13
TORSDOF 15
ENDMDL
MODEL 6
REMARK VINA RESULT:     2.476      1.715      3.613
REMARK INTER + INTRA:           3.887
REMARK INTER:                   4.586
REMARK INTRA:                  -0.700
REMARK UNBOUND:                -0.761
REMARK SMILES CCCCCCCCC=CCCCCCCCC(=O)[O-]
REMARK SMILES IDX 10 1 9 2 11 3 12 4 13 5 14 6 15 7 16 8 17 9 18 10 19 11
REMARK SMILES IDX 20 12 8 13 7 14 6 15 5 16 4 17 3 18 2 19 1 20
REMARK H PARENT
REMARK Flexibility Score: inf
ROOT
ATOM      1  C   UNL     1      99.845  71.189  77.482  1.00  0.00    -0.031 C 
ATOM      2  C   UNL     1     100.623  70.735  76.482  1.00  0.00    -0.031 C 
ENDROOT
BRANCH   1   3
ATOM      3  C   UNL     1     100.093  72.463  78.250  1.00  0.00     0.027 C 
BRANCH   3   4
ATOM      4  C   UNL     1      99.196  72.533  79.490  1.00  0.00     0.004 C 
BRANCH   4   5
ATOM      5  C   UNL     1      99.985  72.180  80.760  1.00  0.00     0.000 C 
BRANCH   5   6
ATOM      6  C   UNL     1      99.110  71.537  81.851  1.00  0.00     0.000 C 
BRANCH   6   7
ATOM      7  C   UNL     1      99.327  72.094  83.270  1.00  0.00     0.000 C 
BRANCH   7   8
ATOM      8  C   UNL     1      98.303  71.564  84.285  1.00  0.00     0.006 C 
BRANCH   8   9
ATOM      9  C   UNL     1      97.285  70.642  83.608  1.00  0.00     0.053 C 
BRANCH   9  10
ATOM     10  C   UNL     1      95.921  70.856  84.184  1.00  0.00     0.041 C 
ATOM     11  O   UNL     1      95.301  71.929  83.964  1.00  0.00    -0.550 OA
ATOM     12  O   UNL     1      95.311  69.849  84.922  1.00  0.00    -0.550 OA
ENDBRANCH   9  10
ENDBRANCH   8   9
ENDBRANCH   7   8
ENDBRANCH   6   7
ENDBRANCH   5   6
ENDBRANCH   4   5
ENDBRANCH   3   4
ENDBRANCH   1   3
BRANCH   2  13
ATOM     13  C   UNL     1     101.809  71.475  75.912  1.00  0.00     0.027 C 
BRANCH  13  14
ATOM     14  C   UNL     1     102.412  70.751  74.696  1.00  0.00     0.004 C 
BRANCH  14  15
ATOM     15  C   UNL     1     101.516  69.641  74.114  1.00  0.00     0.000 C 
BRANCH  15  16
ATOM     16  C   UNL     1     101.908  69.158  72.705  1.00  0.00     0.000 C 
BRANCH  16  17
ATOM     17  C   UNL     1     100.701  68.891  71.778  1.00  0.00    -0.000 C 
BRANCH  17  18
ATOM     18  C   UNL     1     101.097  68.876  70.291  1.00  0.00    -0.000 C 
BRANCH  18  19
ATOM     19  C   UNL     1      99.973  69.384  69.376  1.00  0.00    -0.003 C 
ATOM     20  C   UNL     1      99.616  70.848  69.637  1.00  0.00     0.004 C 
ENDBRANCH  18  19
ENDBRANCH  17  18
ENDBRANCH  16  17
ENDBRANCH  15  16
ENDBRANCH  14  15
ENDBRANCH  13  14
ENDBRANCH   2  13
TORSDOF 15
ENDMDL
MODEL 7
REMARK VINA RESULT:     2.636      4.948     10.726
REMARK INTER + INTRA:           4.187
REMARK INTER:                   4.790
REMARK INTRA:                  -0.603
REMARK UNBOUND:                -0.761
REMARK SMILES CCCCCCCCC=CCCCCCCCC(=O)[O-]
REMARK SMILES IDX 10 1 9 2 11 3 12 4 13 5 14 6 15 7 16 8 17 9 18 10 19 11
REMARK SMILES IDX 20 12 8 13 7 14 6 15 5 16 4 17 3 18 2 19 1 20
REMARK H PARENT
REMARK Flexibility Score: inf
ROOT
ATOM      1  C   UNL     1      99.800  71.997  77.762  1.00  0.00    -0.031 C 
ATOM      2  C   UNL     1      99.523  72.546  78.959  1.00  0.00    -0.031 C 
ENDROOT
BRANCH   1   3
ATOM      3  C   UNL     1     100.676  70.787  77.557  1.00  0.00     0.027 C 
BRANCH   3   4
ATOM      4  C   UNL     1     100.885  70.514  76.063  1.00  0.00     0.004 C 
BRANCH   4   5
ATOM      5  C   UNL     1     102.295  69.965  75.797  1.00  0.00     0.000 C 
BRANCH   5   6
ATOM      6  C   UNL     1     102.452  69.371  74.386  1.00  0.00     0.000 C 
BRANCH   6   7
ATOM      7  C   UNL     1     101.343  69.759  73.391  1.00  0.00     0.000 C 
BRANCH   7   8
ATOM      8  C   UNL     1     101.538  69.133  72.002  1.00  0.00     0.006 C 
BRANCH   8   9
ATOM      9  C   UNL     1     100.195  68.943  71.291  1.00  0.00     0.053 C 
BRANCH   9  10
ATOM     10  C   UNL     1     100.254  69.495  69.902  1.00  0.00     0.041 C 
ATOM     11  O   UNL     1     100.876  68.875  69.000  1.00  0.00    -0.550 OA
ATOM     12  O   UNL     1      99.579  70.668  69.590  1.00  0.00    -0.550 OA
ENDBRANCH   9  10
ENDBRANCH   8   9
ENDBRANCH   7   8
ENDBRANCH   6   7
ENDBRANCH   5   6
ENDBRANCH   4   5
ENDBRANCH   3   4
ENDBRANCH   1   3
BRANCH   2  13
ATOM     13  C   UNL     1      99.967  71.983  80.286  1.00  0.00     0.027 C 
BRANCH  13  14
ATOM     14  C   UNL     1      98.949  72.266  81.404  1.00  0.00     0.004 C 
BRANCH  14  15
ATOM     15  C   UNL     1      99.302  71.621  82.758  1.00  0.00     0.000 C 
BRANCH  15  16
ATOM     16  C   UNL     1      98.159  70.832  83.424  1.00  0.00     0.000 C 
BRANCH  16  17
ATOM     17  C   UNL     1      97.644  71.465  84.735  1.00  0.00    -0.000 C 
BRANCH  17  18
ATOM     18  C   UNL     1      96.167  71.130  85.006  1.00  0.00    -0.000 C 
BRANCH  18  19
ATOM     19  C   UNL     1      95.210  71.882  84.068  1.00  0.00    -0.003 C 
ATOM     20  C   UNL     1      94.115  70.981  83.496  1.00  0.00     0.004 C 
ENDBRANCH  18  19
ENDBRANCH  17  18
ENDBRANCH  16  17
ENDBRANCH  15  16
ENDBRANCH  14  15
ENDBRANCH  13  14
ENDBRANCH   2  13
TORSDOF 15
ENDMDL
MODEL 8
REMARK VINA RESULT:     2.729      3.993      9.272
REMARK INTER + INTRA:           4.362
REMARK INTER:                   5.517
REMARK INTRA:                  -1.155
REMARK UNBOUND:                -0.761
REMARK SMILES CCCCCCCCC=CCCCCCCCC(=O)[O-]
REMARK SMILES IDX 10 1 9 2 11 3 12 4 13 5 14 6 15 7 16 8 17 9 18 10 19 11
REMARK SMILES IDX 20 12 8 13 7 14 6 15 5 16 4 17 3 18 2 19 1 20
REMARK H PARENT
REMARK Flexibility Score: inf
ROOT
ATOM      1  C   UNL     1      98.708  71.694  82.754  1.00  0.00    -0.031 C 
ATOM      2  C   UNL     1      97.682  71.366  83.560  1.00  0.00    -0.031 C 
ENDROOT
BRANCH   1   3
ATOM      3  C   UNL     1     100.113  71.165  82.897  1.00  0.00     0.027 C 
BRANCH   3   4
ATOM      4  C   UNL     1     101.029  71.754  81.819  1.00  0.00     0.004 C 
BRANCH   4   5
ATOM      5  C   UNL     1     100.213  72.248  80.616  1.00  0.00     0.000 C 
BRANCH   5   6
ATOM      6  C   UNL     1     100.433  71.400  79.350  1.00  0.00     0.000 C 
BRANCH   6   7
ATOM      7  C   UNL     1     100.109  72.113  78.025  1.00  0.00     0.000 C 
BRANCH   7   8
ATOM      8  C   UNL     1      99.868  71.139  76.863  1.00  0.00     0.006 C 
BRANCH   8   9
ATOM      9  C   UNL     1     101.161  70.417  76.474  1.00  0.00     0.053 C 
BRANCH   9  10
ATOM     10  C   UNL     1     101.754  71.029  75.244  1.00  0.00     0.041 C 
ATOM     11  O   UNL     1     101.600  70.476  74.124  1.00  0.00    -0.550 OA
ATOM     12  O   UNL     1     102.434  72.238  75.327  1.00  0.00    -0.550 OA
ENDBRANCH   9  10
ENDBRANCH   8   9
ENDBRANCH   7   8
ENDBRANCH   6   7
ENDBRANCH   5   6
ENDBRANCH   4   5
ENDBRANCH   3   4
ENDBRANCH   1   3
BRANCH   2  13
ATOM     13  C   UNL     1      97.753  70.347  84.671  1.00  0.00     0.027 C 
BRANCH  13  14
ATOM     14  C   UNL     1      97.202  68.978  84.236  1.00  0.00     0.004 C 
BRANCH  14  15
ATOM     15  C   UNL     1      96.234  69.039  83.039  1.00  0.00     0.000 C 
BRANCH  15  16
ATOM     16  C   UNL     1      94.759  69.292  83.403  1.00  0.00     0.000 C 
BRANCH  16  17
ATOM     17  C   UNL     1      94.529  69.594  84.900  1.00  0.00    -0.000 C 
BRANCH  17  18
ATOM     18  C   UNL     1      93.875  70.970  85.125  1.00  0.00    -0.000 C 
BRANCH  18  19
ATOM     19  C   UNL     1      94.343  72.019  84.106  1.00  0.00    -0.003 C 
ATOM     20  C   UNL     1      94.206  73.450  84.626  1.00  0.00     0.004 C 
ENDBRANCH  18  19
ENDBRANCH  17  18
ENDBRANCH  16  17
ENDBRANCH  15  16
ENDBRANCH  14  15
ENDBRANCH  13  14
ENDBRANCH   2  13
TORSDOF 15
ENDMDL
MODEL 9
REMARK VINA RESULT:     2.732      4.081      9.943
REMARK INTER + INTRA:           4.366
REMARK INTER:                   4.725
REMARK INTRA:                  -0.358
REMARK UNBOUND:                -0.761
REMARK SMILES CCCCCCCCC=CCCCCCCCC(=O)[O-]
REMARK SMILES IDX 10 1 9 2 11 3 12 4 13 5 14 6 15 7 16 8 17 9 18 10 19 11
REMARK SMILES IDX 20 12 8 13 7 14 6 15 5 16 4 17 3 18 2 19 1 20
REMARK H PARENT
REMARK Flexibility Score: inf
ROOT
ATOM      1  C   UNL     1     100.083  71.922  81.315  1.00  0.00    -0.031 C 
ATOM      2  C   UNL     1      99.533  71.571  82.492  1.00  0.00    -0.031 C 
ENDROOT
BRANCH   1   3
ATOM      3  C   UNL     1      99.307  72.145  80.041  1.00  0.00     0.027 C 
BRANCH   3   4
ATOM      4  C   UNL     1     100.252  72.240  78.839  1.00  0.00     0.004 C 
BRANCH   4   5
ATOM      5  C   UNL     1      99.731  71.404  77.661  1.00  0.00     0.000 C 
BRANCH   5   6
ATOM      6  C   UNL     1     100.729  71.321  76.493  1.00  0.00     0.000 C 
BRANCH   6   7
ATOM      7  C   UNL     1     101.365  69.936  76.278  1.00  0.00     0.000 C 
BRANCH   7   8
ATOM      8  C   UNL     1     102.584  69.973  75.344  1.00  0.00     0.006 C 
BRANCH   8   9
ATOM      9  C   UNL     1     102.495  68.875  74.281  1.00  0.00     0.053 C 
BRANCH   9  10
ATOM     10  C   UNL     1     101.411  69.184  73.298  1.00  0.00     0.041 C 
ATOM     11  O   UNL     1     100.299  69.619  73.697  1.00  0.00    -0.550 OA
ATOM     12  O   UNL     1     101.645  69.040  71.936  1.00  0.00    -0.550 OA
ENDBRANCH   9  10
ENDBRANCH   8   9
ENDBRANCH   7   8
ENDBRANCH   6   7
ENDBRANCH   5   6
ENDBRANCH   4   5
ENDBRANCH   3   4
ENDBRANCH   1   3
BRANCH   2  13
ATOM     13  C   UNL     1      98.051  71.439  82.744  1.00  0.00     0.027 C 
BRANCH  13  14
ATOM     14  C   UNL     1      97.745  71.040  84.198  1.00  0.00     0.004 C 
BRANCH  14  15
ATOM     15  C   UNL     1      97.088  69.655  84.348  1.00  0.00     0.000 C 
BRANCH  15  16
ATOM     16  C   UNL     1      96.068  69.294  83.252  1.00  0.00     0.000 C 
BRANCH  16  17
ATOM     17  C   UNL     1      94.620  69.718  83.583  1.00  0.00    -0.000 C 
BRANCH  17  18
ATOM     18  C   UNL     1      94.486  70.277  85.011  1.00  0.00    -0.000 C 
BRANCH  18  19
ATOM     19  C   UNL     1      93.892  71.693  85.036  1.00  0.00    -0.003 C 
ATOM     20  C   UNL     1      94.155  72.467  83.744  1.00  0.00     0.004 C 
ENDBRANCH  18  19
ENDBRANCH  17  18
ENDBRANCH  16  17
ENDBRANCH  15  16
ENDBRANCH  14  15
ENDBRANCH  13  14
ENDBRANCH   2  13
TORSDOF 15
ENDMDL
