MODEL 1
REMARK VINA RESULT:    -5.106      0.000      0.000
REMARK INTER + INTRA:          -6.290
REMARK INTER:                  -6.002
REMARK INTRA:                  -0.288
REMARK UNBOUND:                -0.288
REMARK SMILES O=c1cc(-c2ccc(O)c(O)c2)oc2cc(O)cc(O)c12
REMARK SMILES IDX 4 1 3 2 2 3 1 4 21 5 19 6 18 7 16 8 15 9 14 10 13 11 5 12
REMARK SMILES IDX 6 13 7 14 8 15 12 16 10 17 9 18 11 20 20 22 17 24
REMARK H PARENT 9 19 11 21 20 23 17 25
REMARK Flexibility Score: inf
ROOT
ATOM      1  C   UNL     1       4.815   6.516   2.889  1.00  0.00     0.138 A 
ATOM      2  C   UNL     1       4.342   6.216   1.600  1.00  0.00     0.100 A 
ATOM      3  C   UNL     1       3.050   6.596   1.237  1.00  0.00     0.197 A 
ATOM      4  O   UNL     1       2.635   6.323   0.078  1.00  0.00    -0.289 OA
ATOM      5  C   UNL     1       2.239   7.278   2.165  1.00  0.00     0.107 A 
ATOM      6  C   UNL     1       0.918   7.697   1.879  1.00  0.00     0.134 A 
ATOM      7  C   UNL     1       0.177   8.377   2.857  1.00  0.00     0.093 A 
ATOM      8  C   UNL     1       0.732   8.645   4.115  1.00  0.00     0.123 A 
ATOM      9  C   UNL     1       2.034   8.233   4.400  1.00  0.00     0.094 A 
ATOM     10  C   UNL     1       2.789   7.553   3.439  1.00  0.00     0.146 A 
ATOM     11  O   UNL     1       4.026   7.171   3.739  1.00  0.00    -0.456 OA
ENDROOT
BRANCH   1  12
ATOM     12  C   UNL     1       6.181   6.138   3.329  1.00  0.00     0.021 A 
ATOM     13  C   UNL     1       6.861   6.856   4.332  1.00  0.00     0.016 A 
ATOM     14  C   UNL     1       8.151   6.483   4.719  1.00  0.00     0.051 A 
ATOM     15  C   UNL     1       8.787   5.395   4.108  1.00  0.00     0.157 A 
ATOM     16  C   UNL     1       6.833   5.055   2.711  1.00  0.00     0.062 A 
ATOM     17  C   UNL     1       8.127   4.681   3.101  1.00  0.00     0.158 A 
BRANCH  15  18
ATOM     18  O   UNL     1      10.073   5.020   4.493  1.00  0.00    -0.504 OA
ATOM     19  H   UNL     1      10.228   4.322   5.211  1.00  0.00     0.293 HD
ENDBRANCH  15  18
BRANCH  17  20
ATOM     20  O   UNL     1       8.764   3.601   2.491  1.00  0.00    -0.504 OA
ATOM     21  H   UNL     1       9.768   3.584   2.360  1.00  0.00     0.293 HD
ENDBRANCH  17  20
ENDBRANCH   1  12
BRANCH   6  22
ATOM     22  O   UNL     1       0.339   7.446   0.635  1.00  0.00    -0.507 OA
ATOM     23  H   UNL     1      -0.130   8.173   0.108  1.00  0.00     0.293 HD
ENDBRANCH   6  22
BRANCH   8  24
ATOM     24  O   UNL     1      -0.003   9.320   5.086  1.00  0.00    -0.508 OA
ATOM     25  H   UNL     1      -1.005   9.195   5.174  1.00  0.00     0.293 HD
ENDBRANCH   8  24
TORSDOF 5
ENDMDL
MODEL 2
REMARK VINA RESULT:    -5.046      4.599      6.707
REMARK INTER + INTRA:          -6.220
REMARK INTER:                  -5.954
REMARK INTRA:                  -0.265
REMARK UNBOUND:                -0.288
REMARK SMILES O=c1cc(-c2ccc(O)c(O)c2)oc2cc(O)cc(O)c12
REMARK SMILES IDX 4 1 3 2 2 3 1 4 21 5 19 6 18 7 16 8 15 9 14 10 13 11 5 12
REMARK SMILES IDX 6 13 7 14 8 15 12 16 10 17 9 18 11 20 20 22 17 24
REMARK H PARENT 9 19 11 21 20 23 17 25
REMARK Flexibility Score: inf
ROOT
ATOM      1  C   UNL     1       0.999   7.763   4.702  1.00  0.00     0.138 A 
ATOM      2  C   UNL     1       0.142   8.818   5.061  1.00  0.00     0.100 A 
ATOM      3  C   UNL     1       0.020   9.177   6.404  1.00  0.00     0.197 A 
ATOM      4  O   UNL     1      -0.751  10.125   6.716  1.00  0.00    -0.289 OA
ATOM      5  C   UNL     1       0.760   8.481   7.380  1.00  0.00     0.107 A 
ATOM      6  C   UNL     1       0.695   8.780   8.761  1.00  0.00     0.134 A 
ATOM      7  C   UNL     1       1.468   8.042   9.670  1.00  0.00     0.093 A 
ATOM      8  C   UNL     1       2.306   7.013   9.222  1.00  0.00     0.123 A 
ATOM      9  C   UNL     1       2.374   6.716   7.860  1.00  0.00     0.094 A 
ATOM     10  C   UNL     1       1.610   7.438   6.939  1.00  0.00     0.146 A 
ATOM     11  O   UNL     1       1.691   7.133   5.648  1.00  0.00    -0.456 OA
ENDROOT
BRANCH   1  12
ATOM     12  C   UNL     1       1.169   7.339   3.290  1.00  0.00     0.021 A 
ATOM     13  C   UNL     1       0.871   6.029   2.870  1.00  0.00     0.016 A 
ATOM     14  C   UNL     1       1.050   5.655   1.535  1.00  0.00     0.051 A 
ATOM     15  C   UNL     1       1.537   6.578   0.601  1.00  0.00     0.157 A 
ATOM     16  C   UNL     1       1.670   8.256   2.348  1.00  0.00     0.062 A 
ATOM     17  C   UNL     1       1.849   7.880   1.008  1.00  0.00     0.158 A 
BRANCH  15  18
ATOM     18  O   UNL     1       1.716   6.208  -0.731  1.00  0.00    -0.504 OA
ATOM     19  H   UNL     1       1.863   6.899  -1.457  1.00  0.00     0.293 HD
ENDBRANCH  15  18
BRANCH  17  20
ATOM     20  O   UNL     1       2.338   8.795   0.077  1.00  0.00    -0.504 OA
ATOM     21  H   UNL     1       3.327   9.003   0.008  1.00  0.00     0.293 HD
ENDBRANCH  17  20
ENDBRANCH   1  12
BRANCH   6  22
ATOM     22  O   UNL     1      -0.130   9.800   9.236  1.00  0.00    -0.507 OA
ATOM     23  H   UNL     1      -1.043   9.978   8.834  1.00  0.00     0.293 HD
ENDBRANCH   6  22
BRANCH   8  24
ATOM     24  O   UNL     1       3.076   6.282  10.124  1.00  0.00    -0.508 OA
ATOM     25  H   UNL     1       3.205   5.282  10.021  1.00  0.00     0.293 HD
ENDBRANCH   8  24
TORSDOF 5
ENDMDL
MODEL 3
REMARK VINA RESULT:    -4.950      1.674      6.970
REMARK INTER + INTRA:          -6.106
REMARK INTER:                  -5.795
REMARK INTRA:                  -0.311
REMARK UNBOUND:                -0.288
REMARK SMILES O=c1cc(-c2ccc(O)c(O)c2)oc2cc(O)cc(O)c12
REMARK SMILES IDX 4 1 3 2 2 3 1 4 21 5 19 6 18 7 16 8 15 9 14 10 13 11 5 12
REMARK SMILES IDX 6 13 7 14 8 15 12 16 10 17 9 18 11 20 20 22 17 24
REMARK H PARENT 9 19 11 21 20 23 17 25
REMARK Flexibility Score: inf
ROOT
ATOM      1  C   UNL     1       4.878   6.352   2.251  1.00  0.00     0.138 A 
ATOM      2  C   UNL     1       5.262   5.985   0.950  1.00  0.00     0.100 A 
ATOM      3  C   UNL     1       6.585   5.620   0.702  1.00  0.00     0.197 A 
ATOM      4  O   UNL     1       6.920   5.292  -0.469  1.00  0.00    -0.289 OA
ATOM      5  C   UNL     1       7.517   5.620   1.759  1.00  0.00     0.107 A 
ATOM      6  C   UNL     1       8.876   5.264   1.594  1.00  0.00     0.134 A 
ATOM      7  C   UNL     1       9.739   5.284   2.699  1.00  0.00     0.093 A 
ATOM      8  C   UNL     1       9.268   5.652   3.965  1.00  0.00     0.123 A 
ATOM      9  C   UNL     1       7.928   6.003   4.132  1.00  0.00     0.094 A 
ATOM     10  C   UNL     1       7.052   5.991   3.043  1.00  0.00     0.146 A 
ATOM     11  O   UNL     1       5.781   6.331   3.229  1.00  0.00    -0.456 OA
ENDROOT
BRANCH   1  12
ATOM     12  C   UNL     1       3.484   6.748   2.573  1.00  0.00     0.021 A 
ATOM     13  C   UNL     1       2.400   6.372   1.757  1.00  0.00     0.016 A 
ATOM     14  C   UNL     1       1.099   6.768   2.080  1.00  0.00     0.051 A 
ATOM     15  C   UNL     1       0.860   7.552   3.216  1.00  0.00     0.157 A 
ATOM     16  C   UNL     1       3.236   7.547   3.705  1.00  0.00     0.062 A 
ATOM     17  C   UNL     1       1.930   7.943   4.029  1.00  0.00     0.158 A 
BRANCH  15  18
ATOM     18  O   UNL     1      -0.436   7.947   3.541  1.00  0.00    -0.504 OA
ATOM     19  H   UNL     1      -0.650   8.382   4.431  1.00  0.00     0.293 HD
ENDBRANCH  15  18
BRANCH  17  20
ATOM     20  O   UNL     1       1.689   8.726   5.156  1.00  0.00    -0.504 OA
ATOM     21  H   UNL     1       1.895   9.718   5.165  1.00  0.00     0.293 HD
ENDBRANCH  17  20
ENDBRANCH   1  12
BRANCH   6  22
ATOM     22  O   UNL     1       9.374   4.892   0.344  1.00  0.00    -0.507 OA
ATOM     23  H   UNL     1      10.266   4.422   0.244  1.00  0.00     0.293 HD
ENDBRANCH   6  22
BRANCH   8  24
ATOM     24  O   UNL     1      10.125   5.671   5.064  1.00  0.00    -0.508 OA
ATOM     25  H   UNL     1      10.309   6.525   5.578  1.00  0.00     0.293 HD
ENDBRANCH   8  24
TORSDOF 5
ENDMDL
MODEL 4
REMARK VINA RESULT:    -4.922      1.278      2.744
REMARK INTER + INTRA:          -6.073
REMARK INTER:                  -5.758
REMARK INTRA:                  -0.315
REMARK UNBOUND:                -0.288
REMARK SMILES O=c1cc(-c2ccc(O)c(O)c2)oc2cc(O)cc(O)c12
REMARK SMILES IDX 4 1 3 2 2 3 1 4 21 5 19 6 18 7 16 8 15 9 14 10 13 11 5 12
REMARK SMILES IDX 6 13 7 14 8 15 12 16 10 17 9 18 11 20 20 22 17 24
REMARK H PARENT 9 19 11 21 20 23 17 25
REMARK Flexibility Score: inf
ROOT
ATOM      1  C   UNL     1       4.915   6.877   3.691  1.00  0.00     0.138 A 
ATOM      2  C   UNL     1       4.161   7.835   4.391  1.00  0.00     0.100 A 
ATOM      3  C   UNL     1       2.894   8.185   3.926  1.00  0.00     0.197 A 
ATOM      4  O   UNL     1       2.225   9.045   4.560  1.00  0.00    -0.289 OA
ATOM      5  C   UNL     1       2.386   7.571   2.763  1.00  0.00     0.107 A 
ATOM      6  C   UNL     1       1.112   7.869   2.224  1.00  0.00     0.134 A 
ATOM      7  C   UNL     1       0.676   7.210   1.065  1.00  0.00     0.093 A 
ATOM      8  C   UNL     1       1.490   6.258   0.437  1.00  0.00     0.123 A 
ATOM      9  C   UNL     1       2.746   5.962   0.967  1.00  0.00     0.094 A 
ATOM     10  C   UNL     1       3.200   6.609   2.120  1.00  0.00     0.146 A 
ATOM     11  O   UNL     1       4.401   6.309   2.602  1.00  0.00    -0.456 OA
ENDROOT
BRANCH   1  12
ATOM     12  C   UNL     1       6.268   6.465   4.141  1.00  0.00     0.021 A 
ATOM     13  C   UNL     1       7.011   7.235   5.056  1.00  0.00     0.016 A 
ATOM     14  C   UNL     1       8.287   6.827   5.454  1.00  0.00     0.051 A 
ATOM     15  C   UNL     1       8.846   5.651   4.939  1.00  0.00     0.157 A 
ATOM     16  C   UNL     1       6.844   5.292   3.618  1.00  0.00     0.062 A 
ATOM     17  C   UNL     1       8.124   4.883   4.018  1.00  0.00     0.158 A 
BRANCH  15  18
ATOM     18  O   UNL     1      10.119   5.241   5.335  1.00  0.00    -0.504 OA
ATOM     19  H   UNL     1      10.333   4.265   5.499  1.00  0.00     0.293 HD
ENDBRANCH  15  18
BRANCH  17  20
ATOM     20  O   UNL     1       8.685   3.716   3.504  1.00  0.00    -0.504 OA
ATOM     21  H   UNL     1       9.201   3.072   4.093  1.00  0.00     0.293 HD
ENDBRANCH  17  20
ENDBRANCH   1  12
BRANCH   6  22
ATOM     22  O   UNL     1       0.279   8.812   2.828  1.00  0.00    -0.507 OA
ATOM     23  H   UNL     1       0.420   9.110   3.786  1.00  0.00     0.293 HD
ENDBRANCH   6  22
BRANCH   8  24
ATOM     24  O   UNL     1       1.057   5.602  -0.713  1.00  0.00    -0.508 OA
ATOM     25  H   UNL     1       1.689   5.405  -1.480  1.00  0.00     0.293 HD
ENDBRANCH   8  24
TORSDOF 5
ENDMDL
MODEL 5
REMARK VINA RESULT:    -4.821      1.613      2.366
REMARK INTER + INTRA:          -5.955
REMARK INTER:                  -5.679
REMARK INTRA:                  -0.276
REMARK UNBOUND:                -0.288
REMARK SMILES O=c1cc(-c2ccc(O)c(O)c2)oc2cc(O)cc(O)c12
REMARK SMILES IDX 4 1 3 2 2 3 1 4 21 5 19 6 18 7 16 8 15 9 14 10 13 11 5 12
REMARK SMILES IDX 6 13 7 14 8 15 12 16 10 17 9 18 11 20 20 22 17 24
REMARK H PARENT 9 19 11 21 20 23 17 25
REMARK Flexibility Score: inf
ROOT
ATOM      1  C   UNL     1       4.254   6.584   2.402  1.00  0.00     0.138 A 
ATOM      2  C   UNL     1       3.070   6.367   1.676  1.00  0.00     0.100 A 
ATOM      3  C   UNL     1       1.848   6.756   2.224  1.00  0.00     0.197 A 
ATOM      4  O   UNL     1       0.791   6.558   1.565  1.00  0.00    -0.289 OA
ATOM      5  C   UNL     1       1.817   7.363   3.495  1.00  0.00     0.107 A 
ATOM      6  C   UNL     1       0.621   7.786   4.123  1.00  0.00     0.134 A 
ATOM      7  C   UNL     1       0.676   8.388   5.389  1.00  0.00     0.093 A 
ATOM      8  C   UNL     1       1.903   8.575   6.037  1.00  0.00     0.123 A 
ATOM      9  C   UNL     1       3.084   8.160   5.421  1.00  0.00     0.094 A 
ATOM     10  C   UNL     1       3.051   7.557   4.160  1.00  0.00     0.146 A 
ATOM     11  O   UNL     1       4.191   7.169   3.597  1.00  0.00    -0.456 OA
ENDROOT
BRANCH   1  12
ATOM     12  C   UNL     1       5.582   6.192   1.869  1.00  0.00     0.021 A 
ATOM     13  C   UNL     1       6.092   6.741   0.676  1.00  0.00     0.016 A 
ATOM     14  C   UNL     1       7.343   6.346   0.193  1.00  0.00     0.051 A 
ATOM     15  C   UNL     1       8.099   5.391   0.884  1.00  0.00     0.157 A 
ATOM     16  C   UNL     1       6.343   5.223   2.549  1.00  0.00     0.062 A 
ATOM     17  C   UNL     1       7.598   4.828   2.063  1.00  0.00     0.158 A 
BRANCH  15  18
ATOM     18  O   UNL     1       9.347   4.996   0.404  1.00  0.00    -0.504 OA
ATOM     19  H   UNL     1      10.204   5.397   0.766  1.00  0.00     0.293 HD
ENDBRANCH  15  18
BRANCH  17  20
ATOM     20  O   UNL     1       8.352   3.876   2.746  1.00  0.00    -0.504 OA
ATOM     21  H   UNL     1       8.639   4.018   3.707  1.00  0.00     0.293 HD
ENDBRANCH  17  20
ENDBRANCH   1  12
BRANCH   6  22
ATOM     22  O   UNL     1      -0.616   7.613   3.501  1.00  0.00    -0.507 OA
ATOM     23  H   UNL     1      -1.081   6.713   3.481  1.00  0.00     0.293 HD
ENDBRANCH   6  22
BRANCH   8  24
ATOM     24  O   UNL     1       1.958   9.174   7.294  1.00  0.00    -0.508 OA
ATOM     25  H   UNL     1       1.404   9.994   7.515  1.00  0.00     0.293 HD
ENDBRANCH   8  24
TORSDOF 5
ENDMDL
MODEL 6
REMARK VINA RESULT:    -4.712      1.819      1.997
REMARK INTER + INTRA:          -5.826
REMARK INTER:                  -5.509
REMARK INTRA:                  -0.317
REMARK UNBOUND:                -0.288
REMARK SMILES O=c1cc(-c2ccc(O)c(O)c2)oc2cc(O)cc(O)c12
REMARK SMILES IDX 4 1 3 2 2 3 1 4 21 5 19 6 18 7 16 8 15 9 14 10 13 11 5 12
REMARK SMILES IDX 6 13 7 14 8 15 12 16 10 17 9 18 11 20 20 22 17 24
REMARK H PARENT 9 19 11 21 20 23 17 25
REMARK Flexibility Score: inf
ROOT
ATOM      1  C   UNL     1       5.441   6.602   2.305  1.00  0.00     0.138 A 
ATOM      2  C   UNL     1       5.628   7.464   1.211  1.00  0.00     0.100 A 
ATOM      3  C   UNL     1       4.560   8.236   0.755  1.00  0.00     0.197 A 
ATOM      4  O   UNL     1       4.737   9.007  -0.227  1.00  0.00    -0.289 OA
ATOM      5  C   UNL     1       3.310   8.143   1.398  1.00  0.00     0.107 A 
ATOM      6  C   UNL     1       2.175   8.889   0.999  1.00  0.00     0.134 A 
ATOM      7  C   UNL     1       0.967   8.744   1.696  1.00  0.00     0.093 A 
ATOM      8  C   UNL     1       0.873   7.868   2.785  1.00  0.00     0.123 A 
ATOM      9  C   UNL     1       1.989   7.131   3.182  1.00  0.00     0.094 A 
ATOM     10  C   UNL     1       3.202   7.261   2.499  1.00  0.00     0.146 A 
ATOM     11  O   UNL     1       4.249   6.546   2.897  1.00  0.00    -0.456 OA
ENDROOT
BRANCH   1  12
ATOM     12  C   UNL     1       6.541   5.759   2.834  1.00  0.00     0.021 A 
ATOM     13  C   UNL     1       7.870   5.914   2.394  1.00  0.00     0.016 A 
ATOM     14  C   UNL     1       8.885   5.099   2.904  1.00  0.00     0.051 A 
ATOM     15  C   UNL     1       8.590   4.110   3.851  1.00  0.00     0.157 A 
ATOM     16  C   UNL     1       6.252   4.754   3.776  1.00  0.00     0.062 A 
ATOM     17  C   UNL     1       7.271   3.937   4.287  1.00  0.00     0.158 A 
BRANCH  15  18
ATOM     18  O   UNL     1       9.600   3.296   4.361  1.00  0.00    -0.504 OA
ATOM     19  H   UNL     1      10.358   3.678   4.916  1.00  0.00     0.293 HD
ENDBRANCH  15  18
BRANCH  17  20
ATOM     20  O   UNL     1       6.980   2.950   5.227  1.00  0.00    -0.504 OA
ATOM     21  H   UNL     1       6.200   3.041   5.867  1.00  0.00     0.293 HD
ENDBRANCH  17  20
ENDBRANCH   1  12
BRANCH   6  22
ATOM     22  O   UNL     1       2.240   9.770  -0.081  1.00  0.00    -0.507 OA
ATOM     23  H   UNL     1       2.739   9.536  -0.931  1.00  0.00     0.293 HD
ENDBRANCH   6  22
BRANCH   8  24
ATOM     24  O   UNL     1      -0.327   7.725   3.478  1.00  0.00    -0.508 OA
ATOM     25  H   UNL     1      -0.708   8.478   4.040  1.00  0.00     0.293 HD
ENDBRANCH   8  24
TORSDOF 5
ENDMDL
MODEL 7
REMARK VINA RESULT:    -4.682      2.444      6.598
REMARK INTER + INTRA:          -5.791
REMARK INTER:                  -5.477
REMARK INTRA:                  -0.314
REMARK UNBOUND:                -0.288
REMARK SMILES O=c1cc(-c2ccc(O)c(O)c2)oc2cc(O)cc(O)c12
REMARK SMILES IDX 4 1 3 2 2 3 1 4 21 5 19 6 18 7 16 8 15 9 14 10 13 11 5 12
REMARK SMILES IDX 6 13 7 14 8 15 12 16 10 17 9 18 11 20 20 22 17 24
REMARK H PARENT 9 19 11 21 20 23 17 25
REMARK Flexibility Score: inf
ROOT
ATOM      1  C   UNL     1       1.353   7.902   4.525  1.00  0.00     0.138 A 
ATOM      2  C   UNL     1       0.512   7.820   3.402  1.00  0.00     0.100 A 
ATOM      3  C   UNL     1       1.043   7.429   2.173  1.00  0.00     0.197 A 
ATOM      4  O   UNL     1       0.280   7.358   1.172  1.00  0.00    -0.289 OA
ATOM      5  C   UNL     1       2.414   7.119   2.075  1.00  0.00     0.107 A 
ATOM      6  C   UNL     1       3.033   6.716   0.868  1.00  0.00     0.134 A 
ATOM      7  C   UNL     1       4.404   6.420   0.854  1.00  0.00     0.093 A 
ATOM      8  C   UNL     1       5.166   6.517   2.025  1.00  0.00     0.123 A 
ATOM      9  C   UNL     1       4.559   6.914   3.217  1.00  0.00     0.094 A 
ATOM     10  C   UNL     1       3.194   7.215   3.251  1.00  0.00     0.146 A 
ATOM     11  O   UNL     1       2.642   7.592   4.400  1.00  0.00    -0.456 OA
ENDROOT
BRANCH   1  12
ATOM     12  C   UNL     1       0.843   8.310   5.857  1.00  0.00     0.021 A 
ATOM     13  C   UNL     1      -0.371   9.009   6.003  1.00  0.00     0.016 A 
ATOM     14  C   UNL     1      -0.822   9.389   7.270  1.00  0.00     0.051 A 
ATOM     15  C   UNL     1      -0.066   9.088   8.410  1.00  0.00     0.157 A 
ATOM     16  C   UNL     1       1.602   8.023   7.007  1.00  0.00     0.062 A 
ATOM     17  C   UNL     1       1.148   8.405   8.278  1.00  0.00     0.158 A 
BRANCH  15  18
ATOM     18  O   UNL     1      -0.514   9.465   9.675  1.00  0.00    -0.504 OA
ATOM     19  H   UNL     1       0.134   9.696  10.418  1.00  0.00     0.293 HD
ENDBRANCH  15  18
BRANCH  17  20
ATOM     20  O   UNL     1       1.900   8.110   9.414  1.00  0.00    -0.504 OA
ATOM     21  H   UNL     1       1.643   8.468  10.327  1.00  0.00     0.293 HD
ENDBRANCH  17  20
ENDBRANCH   1  12
BRANCH   6  22
ATOM     22  O   UNL     1       2.299   6.609  -0.314  1.00  0.00    -0.507 OA
ATOM     23  H   UNL     1       1.433   7.118  -0.452  1.00  0.00     0.293 HD
ENDBRANCH   6  22
BRANCH   8  24
ATOM     24  O   UNL     1       6.527   6.221   2.012  1.00  0.00    -0.508 OA
ATOM     25  H   UNL     1       7.225   6.925   2.229  1.00  0.00     0.293 HD
ENDBRANCH   8  24
TORSDOF 5
ENDMDL
MODEL 8
REMARK VINA RESULT:    -4.659      2.529      3.319
REMARK INTER + INTRA:          -5.765
REMARK INTER:                  -5.495
REMARK INTRA:                  -0.269
REMARK UNBOUND:                -0.288
REMARK SMILES O=c1cc(-c2ccc(O)c(O)c2)oc2cc(O)cc(O)c12
REMARK SMILES IDX 4 1 3 2 2 3 1 4 21 5 19 6 18 7 16 8 15 9 14 10 13 11 5 12
REMARK SMILES IDX 6 13 7 14 8 15 12 16 10 17 9 18 11 20 20 22 17 24
REMARK H PARENT 9 19 11 21 20 23 17 25
REMARK Flexibility Score: inf
ROOT
ATOM      1  C   UNL     1       6.600   4.928   3.910  1.00  0.00     0.138 A 
ATOM      2  C   UNL     1       6.346   4.575   2.574  1.00  0.00     0.100 A 
ATOM      3  C   UNL     1       5.466   5.347   1.815  1.00  0.00     0.197 A 
ATOM      4  O   UNL     1       5.244   5.023   0.617  1.00  0.00    -0.289 OA
ATOM      5  C   UNL     1       4.846   6.470   2.398  1.00  0.00     0.107 A 
ATOM      6  C   UNL     1       3.940   7.305   1.701  1.00  0.00     0.134 A 
ATOM      7  C   UNL     1       3.370   8.409   2.352  1.00  0.00     0.093 A 
ATOM      8  C   UNL     1       3.690   8.694   3.685  1.00  0.00     0.123 A 
ATOM      9  C   UNL     1       4.582   7.874   4.375  1.00  0.00     0.094 A 
ATOM     10  C   UNL     1       5.161   6.768   3.745  1.00  0.00     0.146 A 
ATOM     11  O   UNL     1       6.006   6.002   4.427  1.00  0.00    -0.456 OA
ENDROOT
BRANCH   1  12
ATOM     12  C   UNL     1       7.528   4.145   4.763  1.00  0.00     0.021 A 
ATOM     13  C   UNL     1       8.917   4.136   4.531  1.00  0.00     0.016 A 
ATOM     14  C   UNL     1       9.766   3.381   5.345  1.00  0.00     0.051 A 
ATOM     15  C   UNL     1       9.244   2.617   6.397  1.00  0.00     0.157 A 
ATOM     16  C   UNL     1       7.011   3.364   5.814  1.00  0.00     0.062 A 
ATOM     17  C   UNL     1       7.864   2.608   6.630  1.00  0.00     0.158 A 
BRANCH  15  18
ATOM     18  O   UNL     1      10.089   1.865   7.211  1.00  0.00    -0.504 OA
ATOM     19  H   UNL     1      10.742   1.195   6.820  1.00  0.00     0.293 HD
ENDBRANCH  15  18
BRANCH  17  20
ATOM     20  O   UNL     1       7.347   1.844   7.675  1.00  0.00    -0.504 OA
ATOM     21  H   UNL     1       7.647   0.888   7.831  1.00  0.00     0.293 HD
ENDBRANCH  17  20
ENDBRANCH   1  12
BRANCH   6  22
ATOM     22  O   UNL     1       3.605   7.046   0.371  1.00  0.00    -0.507 OA
ATOM     23  H   UNL     1       2.893   6.369   0.123  1.00  0.00     0.293 HD
ENDBRANCH   6  22
BRANCH   8  24
ATOM     24  O   UNL     1       3.124   9.791   4.331  1.00  0.00    -0.508 OA
ATOM     25  H   UNL     1       2.346  10.300   3.928  1.00  0.00     0.293 HD
ENDBRANCH   8  24
TORSDOF 5
ENDMDL
MODEL 9
REMARK VINA RESULT:    -4.515      8.573     11.791
REMARK INTER + INTRA:          -5.595
REMARK INTER:                  -5.329
REMARK INTRA:                  -0.265
REMARK UNBOUND:                -0.288
REMARK SMILES O=c1cc(-c2ccc(O)c(O)c2)oc2cc(O)cc(O)c12
REMARK SMILES IDX 4 1 3 2 2 3 1 4 21 5 19 6 18 7 16 8 15 9 14 10 13 11 5 12
REMARK SMILES IDX 6 13 7 14 8 15 12 16 10 17 9 18 11 20 20 22 17 24
REMARK H PARENT 9 19 11 21 20 23 17 25
REMARK Flexibility Score: inf
ROOT
ATOM      1  C   UNL     1       6.866   4.461  -5.866  1.00  0.00     0.138 A 
ATOM      2  C   UNL     1       7.277   5.425  -4.930  1.00  0.00     0.100 A 
ATOM      3  C   UNL     1       8.202   5.075  -3.946  1.00  0.00     0.197 A 
ATOM      4  O   UNL     1       8.565   5.947  -3.110  1.00  0.00    -0.289 OA
ATOM      5  C   UNL     1       8.713   3.763  -3.906  1.00  0.00     0.107 A 
ATOM      6  C   UNL     1       9.652   3.326  -2.942  1.00  0.00     0.134 A 
ATOM      7  C   UNL     1      10.117   2.003  -2.974  1.00  0.00     0.093 A 
ATOM      8  C   UNL     1       9.662   1.111  -3.953  1.00  0.00     0.123 A 
ATOM      9  C   UNL     1       8.736   1.538  -4.905  1.00  0.00     0.094 A 
ATOM     10  C   UNL     1       8.260   2.852  -4.890  1.00  0.00     0.146 A 
ATOM     11  O   UNL     1       7.377   3.232  -5.807  1.00  0.00    -0.456 OA
ENDROOT
BRANCH   1  12
ATOM     12  C   UNL     1       5.887   4.776  -6.936  1.00  0.00     0.021 A 
ATOM     13  C   UNL     1       6.281   5.379  -8.146  1.00  0.00     0.016 A 
ATOM     14  C   UNL     1       5.334   5.674  -9.132  1.00  0.00     0.051 A 
ATOM     15  C   UNL     1       3.981   5.381  -8.923  1.00  0.00     0.157 A 
ATOM     16  C   UNL     1       4.523   4.498  -6.729  1.00  0.00     0.062 A 
ATOM     17  C   UNL     1       3.574   4.794  -7.719  1.00  0.00     0.158 A 
BRANCH  15  18
ATOM     18  O   UNL     1       3.035   5.673  -9.905  1.00  0.00    -0.504 OA
ATOM     19  H   UNL     1       3.302   5.808 -10.873  1.00  0.00     0.293 HD
ENDBRANCH  15  18
BRANCH  17  20
ATOM     20  O   UNL     1       2.226   4.507  -7.513  1.00  0.00    -0.504 OA
ATOM     21  H   UNL     1       1.695   3.952  -8.174  1.00  0.00     0.293 HD
ENDBRANCH  17  20
ENDBRANCH   1  12
BRANCH   6  22
ATOM     22  O   UNL     1      10.125   4.194  -1.956  1.00  0.00    -0.507 OA
ATOM     23  H   UNL     1      10.496   3.851  -1.078  1.00  0.00     0.293 HD
ENDBRANCH   6  22
BRANCH   8  24
ATOM     24  O   UNL     1      10.125  -0.203  -3.985  1.00  0.00    -0.508 OA
ATOM     25  H   UNL     1      11.100  -0.417  -4.161  1.00  0.00     0.293 HD
ENDBRANCH   8  24
TORSDOF 5
ENDMDL
