MODEL 1
REMARK VINA RESULT:    -2.595      0.000      0.000
REMARK INTER + INTRA:          -4.897
REMARK INTER:                  -4.113
REMARK INTRA:                  -0.784
REMARK UNBOUND:                -0.784
REMARK SMILES CCCCCCCCCCCC(=O)[O-]
REMARK SMILES IDX 7 1 8 2 9 3 10 4 11 5 12 6 13 7 14 8 6 9 5 10 4 11 3 12 2 13
REMARK SMILES IDX 1 14
REMARK H PARENT
REMARK Flexibility Score: inf
ROOT
ATOM      1  C   UNL     1       4.758  43.790  12.652  1.00  0.00     0.000 C 
ENDROOT
BRANCH   1   2
ATOM      2  C   UNL     1       4.538  45.124  11.931  1.00  0.00     0.000 C 
BRANCH   2   3
ATOM      3  C   UNL     1       4.475  44.923  10.409  1.00  0.00     0.000 C 
BRANCH   3   4
ATOM      4  C   UNL     1       3.052  44.634   9.908  1.00  0.00     0.006 C 
BRANCH   4   5
ATOM      5  C   UNL     1       2.643  43.168  10.104  1.00  0.00     0.053 C 
BRANCH   5   6
ATOM      6  C   UNL     1       1.356  43.082  10.861  1.00  0.00     0.041 C 
ATOM      7  O   UNL     1       1.242  43.641  11.984  1.00  0.00    -0.550 OA
ATOM      8  O   UNL     1       0.296  42.344  10.349  1.00  0.00    -0.550 OA
ENDBRANCH   5   6
ENDBRANCH   4   5
ENDBRANCH   3   4
ENDBRANCH   2   3
ENDBRANCH   1   2
BRANCH   1   9
ATOM      9  C   UNL     1       6.056  43.811  13.469  1.00  0.00     0.000 C 
BRANCH   9  10
ATOM     10  C   UNL     1       6.654  42.404  13.589  1.00  0.00    -0.000 C 
BRANCH  10  11
ATOM     11  C   UNL     1       7.674  42.144  12.474  1.00  0.00    -0.000 C 
BRANCH  11  12
ATOM     12  C   UNL     1       8.174  43.459  11.867  1.00  0.00    -0.000 C 
BRANCH  12  13
ATOM     13  C   UNL     1       7.823  43.544  10.376  1.00  0.00    -0.003 C 
ATOM     14  C   UNL     1       6.741  42.534  10.007  1.00  0.00     0.004 C 
ENDBRANCH  12  13
ENDBRANCH  11  12
ENDBRANCH  10  11
ENDBRANCH   9  10
ENDBRANCH   1   9
TORSDOF 10
ENDMDL
MODEL 2
REMARK VINA RESULT:    -2.474      0.823      2.224
REMARK INTER + INTRA:          -4.704
REMARK INTER:                  -5.206
REMARK INTRA:                   0.502
REMARK UNBOUND:                -0.784
REMARK SMILES CCCCCCCCCCCC(=O)[O-]
REMARK SMILES IDX 7 1 8 2 9 3 10 4 11 5 12 6 13 7 14 8 6 9 5 10 4 11 3 12 2 13
REMARK SMILES IDX 1 14
REMARK H PARENT
REMARK Flexibility Score: inf
ROOT
ATOM      1  C   UNL     1       5.794  44.982  10.166  1.00  0.00     0.000 C 
ENDROOT
BRANCH   1   2
ATOM      2  C   UNL     1       5.014  45.059  11.484  1.00  0.00     0.000 C 
BRANCH   2   3
ATOM      3  C   UNL     1       3.501  44.986  11.233  1.00  0.00     0.000 C 
BRANCH   3   4
ATOM      4  C   UNL     1       3.154  44.340   9.883  1.00  0.00     0.006 C 
BRANCH   4   5
ATOM      5  C   UNL     1       2.559  42.934  10.037  1.00  0.00     0.053 C 
BRANCH   5   6
ATOM      6  C   UNL     1       1.318  42.981  10.870  1.00  0.00     0.041 C 
ATOM      7  O   UNL     1       1.302  43.630  11.950  1.00  0.00    -0.550 OA
ATOM      8  O   UNL     1       0.191  42.268  10.480  1.00  0.00    -0.550 OA
ENDBRANCH   5   6
ENDBRANCH   4   5
ENDBRANCH   3   4
ENDBRANCH   2   3
ENDBRANCH   1   2
BRANCH   1   9
ATOM      9  C   UNL     1       6.423  43.595   9.978  1.00  0.00     0.000 C 
BRANCH   9  10
ATOM     10  C   UNL     1       7.706  43.455  10.805  1.00  0.00    -0.000 C 
BRANCH  10  11
ATOM     11  C   UNL     1       7.838  42.040  11.380  1.00  0.00    -0.000 C 
BRANCH  11  12
ATOM     12  C   UNL     1       7.578  42.034  12.891  1.00  0.00    -0.000 C 
BRANCH  12  13
ATOM     13  C   UNL     1       6.455  43.010  13.260  1.00  0.00    -0.003 C 
ATOM     14  C   UNL     1       5.631  42.485  14.431  1.00  0.00     0.004 C 
ENDBRANCH  12  13
ENDBRANCH  11  12
ENDBRANCH  10  11
ENDBRANCH   9  10
ENDBRANCH   1   9
TORSDOF 10
ENDMDL
MODEL 3
REMARK VINA RESULT:    -2.294      2.579      5.559
REMARK INTER + INTRA:          -4.419
REMARK INTER:                  -3.910
REMARK INTRA:                  -0.509
REMARK UNBOUND:                -0.784
REMARK SMILES CCCCCCCCCCCC(=O)[O-]
REMARK SMILES IDX 7 1 8 2 9 3 10 4 11 5 12 6 13 7 14 8 6 9 5 10 4 11 3 12 2 13
REMARK SMILES IDX 1 14
REMARK H PARENT
REMARK Flexibility Score: inf
ROOT
ATOM      1  C   UNL     1       4.374  44.767  12.158  1.00  0.00     0.000 C 
ENDROOT
BRANCH   1   2
ATOM      2  C   UNL     1       5.722  44.529  12.847  1.00  0.00     0.000 C 
BRANCH   2   3
ATOM      3  C   UNL     1       5.819  43.094  13.387  1.00  0.00     0.000 C 
BRANCH   3   4
ATOM      4  C   UNL     1       7.236  42.511  13.271  1.00  0.00     0.006 C 
BRANCH   4   5
ATOM      5  C   UNL     1       7.880  42.790  11.907  1.00  0.00     0.053 C 
BRANCH   5   6
ATOM      6  C   UNL     1       7.247  41.944  10.848  1.00  0.00     0.041 C 
ATOM      7  O   UNL     1       7.641  40.763  10.659  1.00  0.00    -0.550 OA
ATOM      8  O   UNL     1       6.254  42.476  10.035  1.00  0.00    -0.550 OA
ENDBRANCH   5   6
ENDBRANCH   4   5
ENDBRANCH   3   4
ENDBRANCH   2   3
ENDBRANCH   1   2
BRANCH   1   9
ATOM      9  C   UNL     1       4.559  45.029  10.658  1.00  0.00     0.000 C 
BRANCH   9  10
ATOM     10  C   UNL     1       3.293  44.664   9.875  1.00  0.00    -0.000 C 
BRANCH  10  11
ATOM     11  C   UNL     1       2.847  43.230  10.188  1.00  0.00    -0.000 C 
BRANCH  11  12
ATOM     12  C   UNL     1       1.457  43.215  10.836  1.00  0.00    -0.000 C 
BRANCH  12  13
ATOM     13  C   UNL     1       0.524  42.240  10.110  1.00  0.00    -0.003 C 
ATOM     14  C   UNL     1      -0.562  41.717  11.046  1.00  0.00     0.004 C 
ENDBRANCH  12  13
ENDBRANCH  11  12
ENDBRANCH  10  11
ENDBRANCH   9  10
ENDBRANCH   1   9
TORSDOF 10
ENDMDL
MODEL 4
REMARK VINA RESULT:    -2.066      2.496      5.417
REMARK INTER + INTRA:          -4.057
REMARK INTER:                  -3.708
REMARK INTRA:                  -0.349
REMARK UNBOUND:                -0.784
REMARK SMILES CCCCCCCCCCCC(=O)[O-]
REMARK SMILES IDX 7 1 8 2 9 3 10 4 11 5 12 6 13 7 14 8 6 9 5 10 4 11 3 12 2 13
REMARK SMILES IDX 1 14
REMARK H PARENT
REMARK Flexibility Score: inf
ROOT
ATOM      1  C   UNL     1       5.713  44.350  10.278  1.00  0.00     0.000 C 
ENDROOT
BRANCH   1   2
ATOM      2  C   UNL     1       7.168  44.824  10.178  1.00  0.00     0.000 C 
BRANCH   2   3
ATOM      3  C   UNL     1       8.133  43.755  10.711  1.00  0.00     0.000 C 
BRANCH   3   4
ATOM      4  C   UNL     1       7.432  42.423  11.017  1.00  0.00     0.006 C 
BRANCH   4   5
ATOM      5  C   UNL     1       7.988  41.737  12.272  1.00  0.00     0.053 C 
BRANCH   5   6
ATOM      6  C   UNL     1       7.141  42.060  13.462  1.00  0.00     0.041 C 
ATOM      7  O   UNL     1       7.158  41.311  14.474  1.00  0.00    -0.550 OA
ATOM      8  O   UNL     1       6.295  43.161  13.435  1.00  0.00    -0.550 OA
ENDBRANCH   5   6
ENDBRANCH   4   5
ENDBRANCH   3   4
ENDBRANCH   2   3
ENDBRANCH   1   2
BRANCH   1   9
ATOM      9  C   UNL     1       4.983  45.050  11.431  1.00  0.00     0.000 C 
BRANCH   9  10
ATOM     10  C   UNL     1       3.462  44.948  11.262  1.00  0.00    -0.000 C 
BRANCH  10  11
ATOM     11  C   UNL     1       3.098  44.405   9.875  1.00  0.00    -0.000 C 
BRANCH  11  12
ATOM     12  C   UNL     1       2.501  42.997   9.975  1.00  0.00    -0.000 C 
BRANCH  12  13
ATOM     13  C   UNL     1       1.318  42.969  10.951  1.00  0.00    -0.003 C 
ATOM     14  C   UNL     1       0.153  42.166  10.382  1.00  0.00     0.004 C 
ENDBRANCH  12  13
ENDBRANCH  11  12
ENDBRANCH  10  11
ENDBRANCH   9  10
ENDBRANCH   1   9
TORSDOF 10
ENDMDL
MODEL 5
REMARK VINA RESULT:    -2.043      2.433      5.369
REMARK INTER + INTRA:          -4.021
REMARK INTER:                  -3.258
REMARK INTRA:                  -0.764
REMARK UNBOUND:                -0.784
REMARK SMILES CCCCCCCCCCCC(=O)[O-]
REMARK SMILES IDX 7 1 8 2 9 3 10 4 11 5 12 6 13 7 14 8 6 9 5 10 4 11 3 12 2 13
REMARK SMILES IDX 1 14
REMARK H PARENT
REMARK Flexibility Score: inf
ROOT
ATOM      1  C   UNL     1       5.998  45.079  10.512  1.00  0.00     0.000 C 
ENDROOT
BRANCH   1   2
ATOM      2  C   UNL     1       7.510  45.124  10.267  1.00  0.00     0.000 C 
BRANCH   2   3
ATOM      3  C   UNL     1       8.145  43.743  10.490  1.00  0.00     0.000 C 
BRANCH   3   4
ATOM      4  C   UNL     1       8.358  43.421  11.977  1.00  0.00     0.006 C 
BRANCH   4   5
ATOM      5  C   UNL     1       7.600  42.164  12.424  1.00  0.00     0.053 C 
BRANCH   5   6
ATOM      6  C   UNL     1       6.626  42.499  13.509  1.00  0.00     0.041 C 
ATOM      7  O   UNL     1       5.862  43.493  13.390  1.00  0.00    -0.550 OA
ATOM      8  O   UNL     1       6.596  41.744  14.674  1.00  0.00    -0.550 OA
ENDBRANCH   5   6
ENDBRANCH   4   5
ENDBRANCH   3   4
ENDBRANCH   2   3
ENDBRANCH   1   2
BRANCH   1   9
ATOM      9  C   UNL     1       5.383  43.796   9.938  1.00  0.00     0.000 C 
BRANCH   9  10
ATOM     10  C   UNL     1       3.855  43.898   9.875  1.00  0.00    -0.000 C 
BRANCH  10  11
ATOM     11  C   UNL     1       3.274  44.305  11.235  1.00  0.00    -0.000 C 
BRANCH  11  12
ATOM     12  C   UNL     1       1.985  43.531  11.536  1.00  0.00    -0.000 C 
BRANCH  12  13
ATOM     13  C   UNL     1       1.352  42.994  10.247  1.00  0.00    -0.003 C 
ATOM     14  C   UNL     1       0.126  42.139  10.550  1.00  0.00     0.004 C 
ENDBRANCH  12  13
ENDBRANCH  11  12
ENDBRANCH  10  11
ENDBRANCH   9  10
ENDBRANCH   1   9
TORSDOF 10
ENDMDL
MODEL 6
REMARK VINA RESULT:    -1.733      2.336      5.136
REMARK INTER + INTRA:          -3.530
REMARK INTER:                  -3.378
REMARK INTRA:                  -0.152
REMARK UNBOUND:                -0.784
REMARK SMILES CCCCCCCCCCCC(=O)[O-]
REMARK SMILES IDX 7 1 8 2 9 3 10 4 11 5 12 6 13 7 14 8 6 9 5 10 4 11 3 12 2 13
REMARK SMILES IDX 1 14
REMARK H PARENT
REMARK Flexibility Score: inf
ROOT
ATOM      1  C   UNL     1       5.220  43.086  13.227  1.00  0.00     0.000 C 
ENDROOT
BRANCH   1   2
ATOM      2  C   UNL     1       6.634  42.710  13.684  1.00  0.00     0.000 C 
BRANCH   2   3
ATOM      3  C   UNL     1       7.515  42.321  12.488  1.00  0.00     0.000 C 
BRANCH   3   4
ATOM      4  C   UNL     1       8.498  43.432  12.088  1.00  0.00     0.006 C 
BRANCH   4   5
ATOM      5  C   UNL     1       8.507  43.697  10.577  1.00  0.00     0.053 C 
BRANCH   5   6
ATOM      6  C   UNL     1       7.117  43.946  10.082  1.00  0.00     0.041 C 
ATOM      7  O   UNL     1       6.719  45.123   9.875  1.00  0.00    -0.550 OA
ATOM      8  O   UNL     1       6.244  42.882   9.896  1.00  0.00    -0.550 OA
ENDBRANCH   5   6
ENDBRANCH   4   5
ENDBRANCH   3   4
ENDBRANCH   2   3
ENDBRANCH   1   2
BRANCH   1   9
ATOM      9  C   UNL     1       5.122  44.584  12.910  1.00  0.00     0.000 C 
BRANCH   9  10
ATOM     10  C   UNL     1       4.070  44.850  11.828  1.00  0.00    -0.000 C 
BRANCH  10  11
ATOM     11  C   UNL     1       3.633  43.545  11.152  1.00  0.00    -0.000 C 
BRANCH  11  12
ATOM     12  C   UNL     1       2.361  43.754  10.322  1.00  0.00    -0.000 C 
BRANCH  12  13
ATOM     13  C   UNL     1       1.630  42.426  10.094  1.00  0.00    -0.003 C 
ATOM     14  C   UNL     1       0.184  42.503  10.575  1.00  0.00     0.004 C 
ENDBRANCH  12  13
ENDBRANCH  11  12
ENDBRANCH  10  11
ENDBRANCH   9  10
ENDBRANCH   1   9
TORSDOF 10
ENDMDL
MODEL 7
REMARK VINA RESULT:    -1.375      3.617      6.586
REMARK INTER + INTRA:          -2.963
REMARK INTER:                  -2.472
REMARK INTRA:                  -0.491
REMARK UNBOUND:                -0.784
REMARK SMILES CCCCCCCCCCCC(=O)[O-]
REMARK SMILES IDX 7 1 8 2 9 3 10 4 11 5 12 6 13 7 14 8 6 9 5 10 4 11 3 12 2 13
REMARK SMILES IDX 1 14
REMARK H PARENT
REMARK Flexibility Score: inf
ROOT
ATOM      1  C   UNL     1       2.723  43.247  10.547  1.00  0.00     0.000 C 
ENDROOT
BRANCH   1   2
ATOM      2  C   UNL     1       3.567  44.303  11.272  1.00  0.00     0.000 C 
BRANCH   2   3
ATOM      3  C   UNL     1       4.655  44.868  10.347  1.00  0.00     0.000 C 
BRANCH   3   4
ATOM      4  C   UNL     1       6.046  44.869  10.998  1.00  0.00     0.006 C 
BRANCH   4   5
ATOM      5  C   UNL     1       6.123  43.954  12.227  1.00  0.00     0.053 C 
BRANCH   5   6
ATOM      6  C   UNL     1       7.279  43.013  12.105  1.00  0.00     0.041 C 
ATOM      7  O   UNL     1       7.429  42.081  12.938  1.00  0.00    -0.550 OA
ATOM      8  O   UNL     1       8.220  43.194  11.100  1.00  0.00    -0.550 OA
ENDBRANCH   5   6
ENDBRANCH   4   5
ENDBRANCH   3   4
ENDBRANCH   2   3
ENDBRANCH   1   2
BRANCH   1   9
ATOM      9  C   UNL     1       1.306  43.180  11.129  1.00  0.00     0.000 C 
BRANCH   9  10
ATOM     10  C   UNL     1       1.198  44.007  12.415  1.00  0.00    -0.000 C 
BRANCH  10  11
ATOM     11  C   UNL     1      -0.133  43.743  13.129  1.00  0.00    -0.000 C 
BRANCH  11  12
ATOM     12  C   UNL     1      -0.464  44.871  14.113  1.00  0.00    -0.000 C 
BRANCH  12  13
ATOM     13  C   UNL     1      -1.891  44.728  14.653  1.00  0.00    -0.003 C 
ATOM     14  C   UNL     1      -2.317  43.263  14.703  1.00  0.00     0.004 C 
ENDBRANCH  12  13
ENDBRANCH  11  12
ENDBRANCH  10  11
ENDBRANCH   9  10
ENDBRANCH   1   9
TORSDOF 10
ENDMDL
MODEL 8
REMARK VINA RESULT:    -1.366      2.855      6.009
REMARK INTER + INTRA:          -2.949
REMARK INTER:                  -2.406
REMARK INTRA:                  -0.543
REMARK UNBOUND:                -0.784
REMARK SMILES CCCCCCCCCCCC(=O)[O-]
REMARK SMILES IDX 7 1 8 2 9 3 10 4 11 5 12 6 13 7 14 8 6 9 5 10 4 11 3 12 2 13
REMARK SMILES IDX 1 14
REMARK H PARENT
REMARK Flexibility Score: inf
ROOT
ATOM      1  C   UNL     1       4.287  43.641  10.121  1.00  0.00     0.000 C 
ENDROOT
BRANCH   1   2
ATOM      2  C   UNL     1       5.251  44.829  10.028  1.00  0.00     0.000 C 
BRANCH   2   3
ATOM      3  C   UNL     1       6.708  44.351   9.939  1.00  0.00     0.000 C 
BRANCH   3   4
ATOM      4  C   UNL     1       6.919  42.968  10.574  1.00  0.00     0.006 C 
BRANCH   4   5
ATOM      5  C   UNL     1       7.734  43.033  11.873  1.00  0.00     0.053 C 
BRANCH   5   6
ATOM      6  C   UNL     1       6.859  42.747  13.052  1.00  0.00     0.041 C 
ATOM      7  O   UNL     1       5.845  43.458  13.277  1.00  0.00    -0.550 OA
ATOM      8  O   UNL     1       7.192  41.725  13.933  1.00  0.00    -0.550 OA
ENDBRANCH   5   6
ENDBRANCH   4   5
ENDBRANCH   3   4
ENDBRANCH   2   3
ENDBRANCH   1   2
BRANCH   1   9
ATOM      9  C   UNL     1       2.834  44.092   9.926  1.00  0.00     0.000 C 
BRANCH   9  10
ATOM     10  C   UNL     1       1.874  43.233  10.757  1.00  0.00    -0.000 C 
BRANCH  10  11
ATOM     11  C   UNL     1       1.653  43.843  12.147  1.00  0.00    -0.000 C 
BRANCH  11  12
ATOM     12  C   UNL     1       0.220  43.598  12.633  1.00  0.00    -0.000 C 
BRANCH  12  13
ATOM     13  C   UNL     1      -0.151  44.570  13.759  1.00  0.00    -0.003 C 
ATOM     14  C   UNL     1      -1.442  44.144  14.451  1.00  0.00     0.004 C 
ENDBRANCH  12  13
ENDBRANCH  11  12
ENDBRANCH  10  11
ENDBRANCH   9  10
ENDBRANCH   1   9
TORSDOF 10
ENDMDL
MODEL 9
REMARK VINA RESULT:    -0.432      0.954      2.170
REMARK INTER + INTRA:          -1.468
REMARK INTER:                  -0.906
REMARK INTRA:                  -0.562
REMARK UNBOUND:                -0.784
REMARK SMILES CCCCCCCCCCCC(=O)[O-]
REMARK SMILES IDX 7 1 8 2 9 3 10 4 11 5 12 6 13 7 14 8 6 9 5 10 4 11 3 12 2 13
REMARK SMILES IDX 1 14
REMARK H PARENT
REMARK Flexibility Score: inf
ROOT
ATOM      1  C   UNL     1       5.507  44.595  12.305  1.00  0.00     0.000 C 
ENDROOT
BRANCH   1   2
ATOM      2  C   UNL     1       4.084  44.226  11.871  1.00  0.00     0.000 C 
BRANCH   2   3
ATOM      3  C   UNL     1       3.938  44.298  10.344  1.00  0.00     0.000 C 
BRANCH   3   4
ATOM      4  C   UNL     1       2.474  44.236   9.884  1.00  0.00     0.006 C 
BRANCH   4   5
ATOM      5  C   UNL     1       1.910  42.809   9.894  1.00  0.00     0.053 C 
BRANCH   5   6
ATOM      6  C   UNL     1       0.770  42.705  10.857  1.00  0.00     0.041 C 
ATOM      7  O   UNL     1      -0.203  41.945  10.608  1.00  0.00    -0.550 OA
ATOM      8  O   UNL     1       0.758  43.485  12.007  1.00  0.00    -0.550 OA
ENDBRANCH   5   6
ENDBRANCH   4   5
ENDBRANCH   3   4
ENDBRANCH   2   3
ENDBRANCH   1   2
BRANCH   1   9
ATOM      9  C   UNL     1       6.325  45.125  11.120  1.00  0.00     0.000 C 
BRANCH   9  10
ATOM     10  C   UNL     1       7.595  44.291  10.911  1.00  0.00    -0.000 C 
BRANCH  10  11
ATOM     11  C   UNL     1       7.252  42.883  10.410  1.00  0.00    -0.000 C 
BRANCH  11  12
ATOM     12  C   UNL     1       7.612  41.824  11.458  1.00  0.00    -0.000 C 
BRANCH  12  13
ATOM     13  C   UNL     1       7.858  42.467  12.828  1.00  0.00    -0.003 C 
ATOM     14  C   UNL     1       7.012  41.801  13.909  1.00  0.00     0.004 C 
ENDBRANCH  12  13
ENDBRANCH  11  12
ENDBRANCH  10  11
ENDBRANCH   9  10
ENDBRANCH   1   9
TORSDOF 10
ENDMDL
