MODEL 1
REMARK VINA RESULT:    -4.142      0.000      0.000
REMARK INTER + INTRA:         -14.989
REMARK INTER:                 -10.437
REMARK INTRA:                  -4.552
REMARK UNBOUND:                -4.552
REMARK SMILES CCCCCCCCCCCCCCCCCCCCCCCCCCCC(=O)[O-]
REMARK SMILES IDX 15 1 16 2 17 3 18 4 19 5 20 6 21 7 22 8 23 9 24 10 25 11
REMARK SMILES IDX 26 12 27 13 28 14 29 15 30 16 14 17 13 18 12 19 11 20 10 21
REMARK SMILES IDX 9 22 8 23 7 24 6 25 5 26 4 27 3 28 2 29 1 30
REMARK H PARENT
REMARK Flexibility Score: inf
ROOT
ATOM      1  C   UNL     1       0.643   3.995  -6.540  1.00  0.00     0.000 C 
ENDROOT
BRANCH   1   2
ATOM      2  C   UNL     1       1.189   5.036  -5.551  1.00  0.00     0.000 C 
BRANCH   2   3
ATOM      3  C   UNL     1       1.438   4.440  -4.156  1.00  0.00     0.000 C 
BRANCH   3   4
ATOM      4  C   UNL     1       1.561   2.907  -4.192  1.00  0.00     0.000 C 
BRANCH   4   5
ATOM      5  C   UNL     1       2.418   2.354  -3.042  1.00  0.00     0.000 C 
BRANCH   5   6
ATOM      6  C   UNL     1       3.677   1.621  -3.537  1.00  0.00     0.000 C 
BRANCH   6   7
ATOM      7  C   UNL     1       4.972   2.164  -2.895  1.00  0.00     0.000 C 
BRANCH   7   8
ATOM      8  C   UNL     1       5.002   3.698  -2.748  1.00  0.00     0.000 C 
BRANCH   8   9
ATOM      9  C   UNL     1       5.756   4.452  -3.859  1.00  0.00     0.000 C 
BRANCH   9  10
ATOM     10  C   UNL     1       4.880   4.930  -5.030  1.00  0.00     0.000 C 
BRANCH  10  11
ATOM     11  C   UNL     1       5.388   4.440  -6.397  1.00  0.00     0.000 C 
BRANCH  11  12
ATOM     12  C   UNL     1       4.294   3.733  -7.217  1.00  0.00     0.006 C 
BRANCH  12  13
ATOM     13  C   UNL     1       4.134   2.238  -6.898  1.00  0.00     0.053 C 
BRANCH  13  14
ATOM     14  C   UNL     1       4.671   1.368  -7.993  1.00  0.00     0.041 C 
ATOM     15  O   UNL     1       5.528   1.818  -8.798  1.00  0.00    -0.550 OA
ATOM     16  O   UNL     1       4.246   0.050  -8.105  1.00  0.00    -0.550 OA
ENDBRANCH  13  14
ENDBRANCH  12  13
ENDBRANCH  11  12
ENDBRANCH  10  11
ENDBRANCH   9  10
ENDBRANCH   8   9
ENDBRANCH   7   8
ENDBRANCH   6   7
ENDBRANCH   5   6
ENDBRANCH   4   5
ENDBRANCH   3   4
ENDBRANCH   2   3
ENDBRANCH   1   2
BRANCH   1  17
ATOM     17  C   UNL     1      -0.678   4.463  -7.161  1.00  0.00     0.000 C 
BRANCH  17  18
ATOM     18  C   UNL     1      -1.370   3.313  -7.906  1.00  0.00     0.000 C 
BRANCH  18  19
ATOM     19  C   UNL     1      -2.555   2.719  -7.124  1.00  0.00     0.000 C 
BRANCH  19  20
ATOM     20  C   UNL     1      -2.671   3.187  -5.658  1.00  0.00     0.000 C 
BRANCH  20  21
ATOM     21  C   UNL     1      -2.189   2.171  -4.606  1.00  0.00     0.000 C 
BRANCH  21  22
ATOM     22  C   UNL     1      -1.995   2.799  -3.217  1.00  0.00    -0.000 C 
BRANCH  22  23
ATOM     23  C   UNL     1      -3.129   2.388  -2.265  1.00  0.00    -0.000 C 
BRANCH  23  24
ATOM     24  C   UNL     1      -4.464   3.066  -2.610  1.00  0.00    -0.000 C 
BRANCH  24  25
ATOM     25  C   UNL     1      -5.565   2.055  -2.976  1.00  0.00    -0.000 C 
BRANCH  25  26
ATOM     26  C   UNL     1      -5.871   2.026  -4.483  1.00  0.00    -0.000 C 
BRANCH  26  27
ATOM     27  C   UNL     1      -5.654   0.640  -5.128  1.00  0.00    -0.000 C 
BRANCH  27  28
ATOM     28  C   UNL     1      -5.410  -0.458  -4.076  1.00  0.00    -0.000 C 
BRANCH  28  29
ATOM     29  C   UNL     1      -4.002  -1.065  -4.173  1.00  0.00    -0.003 C 
ATOM     30  C   UNL     1      -3.765  -2.174  -3.150  1.00  0.00     0.004 C 
ENDBRANCH  28  29
ENDBRANCH  27  28
ENDBRANCH  26  27
ENDBRANCH  25  26
ENDBRANCH  24  25
ENDBRANCH  23  24
ENDBRANCH  22  23
ENDBRANCH  21  22
ENDBRANCH  20  21
ENDBRANCH  19  20
ENDBRANCH  18  19
ENDBRANCH  17  18
ENDBRANCH   1  17
TORSDOF 26
ENDMDL
MODEL 2
REMARK VINA RESULT:    -4.083      1.705      2.954
REMARK INTER + INTRA:         -14.842
REMARK INTER:                  -9.594
REMARK INTRA:                  -5.248
REMARK UNBOUND:                -4.552
REMARK SMILES CCCCCCCCCCCCCCCCCCCCCCCCCCCC(=O)[O-]
REMARK SMILES IDX 15 1 16 2 17 3 18 4 19 5 20 6 21 7 22 8 23 9 24 10 25 11
REMARK SMILES IDX 26 12 27 13 28 14 29 15 30 16 14 17 13 18 12 19 11 20 10 21
REMARK SMILES IDX 9 22 8 23 7 24 6 25 5 26 4 27 3 28 2 29 1 30
REMARK H PARENT
REMARK Flexibility Score: inf
ROOT
ATOM      1  C   UNL     1       1.217   5.147  -7.581  1.00  0.00     0.000 C 
ENDROOT
BRANCH   1   2
ATOM      2  C   UNL     1       1.374   5.941  -6.276  1.00  0.00     0.000 C 
BRANCH   2   3
ATOM      3  C   UNL     1       0.021   6.392  -5.700  1.00  0.00     0.000 C 
BRANCH   3   4
ATOM      4  C   UNL     1      -0.116   6.052  -4.206  1.00  0.00     0.000 C 
BRANCH   4   5
ATOM      5  C   UNL     1       1.131   5.354  -3.640  1.00  0.00     0.000 C 
BRANCH   5   6
ATOM      6  C   UNL     1       0.795   4.057  -2.882  1.00  0.00     0.000 C 
BRANCH   6   7
ATOM      7  C   UNL     1       1.317   2.795  -3.603  1.00  0.00     0.000 C 
BRANCH   7   8
ATOM      8  C   UNL     1       2.724   2.354  -3.153  1.00  0.00     0.000 C 
BRANCH   8   9
ATOM      9  C   UNL     1       3.695   1.987  -4.291  1.00  0.00     0.000 C 
BRANCH   9  10
ATOM     10  C   UNL     1       3.397   2.660  -5.642  1.00  0.00     0.000 C 
BRANCH  10  11
ATOM     11  C   UNL     1       4.634   3.330  -6.264  1.00  0.00     0.000 C 
BRANCH  11  12
ATOM     12  C   UNL     1       4.493   3.546  -7.781  1.00  0.00     0.006 C 
BRANCH  12  13
ATOM     13  C   UNL     1       4.027   2.303  -8.555  1.00  0.00     0.053 C 
BRANCH  13  14
ATOM     14  C   UNL     1       5.140   1.325  -8.772  1.00  0.00     0.041 C 
ATOM     15  O   UNL     1       6.338   1.706  -8.720  1.00  0.00    -0.550 OA
ATOM     16  O   UNL     1       4.852  -0.015  -9.000  1.00  0.00    -0.550 OA
ENDBRANCH  13  14
ENDBRANCH  12  13
ENDBRANCH  11  12
ENDBRANCH  10  11
ENDBRANCH   9  10
ENDBRANCH   8   9
ENDBRANCH   7   8
ENDBRANCH   6   7
ENDBRANCH   5   6
ENDBRANCH   4   5
ENDBRANCH   3   4
ENDBRANCH   2   3
ENDBRANCH   1   2
BRANCH   1  17
ATOM     17  C   UNL     1       0.517   3.807  -7.330  1.00  0.00     0.000 C 
BRANCH  17  18
ATOM     18  C   UNL     1      -0.741   3.675  -8.200  1.00  0.00     0.000 C 
BRANCH  18  19
ATOM     19  C   UNL     1      -2.043   3.732  -7.382  1.00  0.00     0.000 C 
BRANCH  19  20
ATOM     20  C   UNL     1      -2.224   2.592  -6.358  1.00  0.00     0.000 C 
BRANCH  20  21
ATOM     21  C   UNL     1      -2.053   3.001  -4.884  1.00  0.00     0.000 C 
BRANCH  21  22
ATOM     22  C   UNL     1      -2.385   1.864  -3.907  1.00  0.00    -0.000 C 
BRANCH  22  23
ATOM     23  C   UNL     1      -2.452   2.381  -2.462  1.00  0.00    -0.000 C 
BRANCH  23  24
ATOM     24  C   UNL     1      -3.890   2.661  -2.000  1.00  0.00    -0.000 C 
BRANCH  24  25
ATOM     25  C   UNL     1      -4.944   2.057  -2.945  1.00  0.00    -0.000 C 
BRANCH  25  26
ATOM     26  C   UNL     1      -5.874   3.118  -3.559  1.00  0.00    -0.000 C 
BRANCH  26  27
ATOM     27  C   UNL     1      -5.878   3.113  -5.102  1.00  0.00    -0.000 C 
BRANCH  27  28
ATOM     28  C   UNL     1      -5.448   4.470  -5.689  1.00  0.00    -0.000 C 
BRANCH  28  29
ATOM     29  C   UNL     1      -4.854   5.409  -4.628  1.00  0.00    -0.003 C 
ATOM     30  C   UNL     1      -3.795   6.351  -5.198  1.00  0.00     0.004 C 
ENDBRANCH  28  29
ENDBRANCH  27  28
ENDBRANCH  26  27
ENDBRANCH  25  26
ENDBRANCH  24  25
ENDBRANCH  23  24
ENDBRANCH  22  23
ENDBRANCH  21  22
ENDBRANCH  20  21
ENDBRANCH  19  20
ENDBRANCH  18  19
ENDBRANCH  17  18
ENDBRANCH   1  17
TORSDOF 26
ENDMDL
MODEL 3
REMARK VINA RESULT:    -4.070      2.304      4.602
REMARK INTER + INTRA:         -14.808
REMARK INTER:                 -11.065
REMARK INTRA:                  -3.742
REMARK UNBOUND:                -4.552
REMARK SMILES CCCCCCCCCCCCCCCCCCCCCCCCCCCC(=O)[O-]
REMARK SMILES IDX 15 1 16 2 17 3 18 4 19 5 20 6 21 7 22 8 23 9 24 10 25 11
REMARK SMILES IDX 26 12 27 13 28 14 29 15 30 16 14 17 13 18 12 19 11 20 10 21
REMARK SMILES IDX 9 22 8 23 7 24 6 25 5 26 4 27 3 28 2 29 1 30
REMARK H PARENT
REMARK Flexibility Score: inf
ROOT
ATOM      1  C   UNL     1      -1.837   2.115  -2.996  1.00  0.00     0.000 C 
ENDROOT
BRANCH   1   2
ATOM      2  C   UNL     1      -0.576   2.911  -2.627  1.00  0.00     0.000 C 
BRANCH   2   3
ATOM      3  C   UNL     1      -0.121   3.842  -3.763  1.00  0.00     0.000 C 
BRANCH   3   4
ATOM      4  C   UNL     1      -0.341   3.216  -5.150  1.00  0.00     0.000 C 
BRANCH   4   5
ATOM      5  C   UNL     1      -0.711   4.258  -6.218  1.00  0.00     0.000 C 
BRANCH   5   6
ATOM      6  C   UNL     1      -0.696   3.680  -7.645  1.00  0.00     0.000 C 
BRANCH   6   7
ATOM      7  C   UNL     1       0.282   4.426  -8.578  1.00  0.00     0.000 C 
BRANCH   7   8
ATOM      8  C   UNL     1       1.630   3.704  -8.779  1.00  0.00     0.000 C 
BRANCH   8   9
ATOM      9  C   UNL     1       2.732   4.073  -7.769  1.00  0.00     0.000 C 
BRANCH   9  10
ATOM     10  C   UNL     1       3.932   3.110  -7.735  1.00  0.00     0.000 C 
BRANCH  10  11
ATOM     11  C   UNL     1       4.002   2.285  -6.439  1.00  0.00     0.000 C 
BRANCH  11  12
ATOM     12  C   UNL     1       3.216   2.930  -5.283  1.00  0.00     0.006 C 
BRANCH  12  13
ATOM     13  C   UNL     1       4.072   3.279  -4.055  1.00  0.00     0.053 C 
BRANCH  13  14
ATOM     14  C   UNL     1       4.076   2.177  -3.041  1.00  0.00     0.041 C 
ATOM     15  O   UNL     1       3.022   1.533  -2.798  1.00  0.00    -0.550 OA
ATOM     16  O   UNL     1       5.255   1.840  -2.385  1.00  0.00    -0.550 OA
ENDBRANCH  13  14
ENDBRANCH  12  13
ENDBRANCH  11  12
ENDBRANCH  10  11
ENDBRANCH   9  10
ENDBRANCH   8   9
ENDBRANCH   7   8
ENDBRANCH   6   7
ENDBRANCH   5   6
ENDBRANCH   4   5
ENDBRANCH   3   4
ENDBRANCH   2   3
ENDBRANCH   1   2
BRANCH   1  17
ATOM     17  C   UNL     1      -3.058   2.623  -2.223  1.00  0.00     0.000 C 
BRANCH  17  18
ATOM     18  C   UNL     1      -4.257   2.821  -3.162  1.00  0.00     0.000 C 
BRANCH  18  19
ATOM     19  C   UNL     1      -3.984   3.850  -4.273  1.00  0.00     0.000 C 
BRANCH  19  20
ATOM     20  C   UNL     1      -4.268   3.356  -5.707  1.00  0.00     0.000 C 
BRANCH  20  21
ATOM     21  C   UNL     1      -3.652   1.991  -6.064  1.00  0.00     0.000 C 
BRANCH  21  22
ATOM     22  C   UNL     1      -4.584   1.123  -6.923  1.00  0.00    -0.000 C 
BRANCH  22  23
ATOM     23  C   UNL     1      -4.940  -0.184  -6.200  1.00  0.00    -0.000 C 
BRANCH  23  24
ATOM     24  C   UNL     1      -4.250  -0.311  -4.833  1.00  0.00    -0.000 C 
BRANCH  24  25
ATOM     25  C   UNL     1      -4.908  -1.372  -3.933  1.00  0.00    -0.000 C 
BRANCH  25  26
ATOM     26  C   UNL     1      -3.887  -2.160  -3.094  1.00  0.00    -0.000 C 
BRANCH  26  27
ATOM     27  C   UNL     1      -2.900  -2.987  -3.946  1.00  0.00    -0.000 C 
BRANCH  27  28
ATOM     28  C   UNL     1      -3.623  -3.874  -4.975  1.00  0.00    -0.000 C 
BRANCH  28  29
ATOM     29  C   UNL     1      -2.704  -4.313  -6.125  1.00  0.00    -0.003 C 
ATOM     30  C   UNL     1      -1.254  -4.505  -5.682  1.00  0.00     0.004 C 
ENDBRANCH  28  29
ENDBRANCH  27  28
ENDBRANCH  26  27
ENDBRANCH  25  26
ENDBRANCH  24  25
ENDBRANCH  23  24
ENDBRANCH  22  23
ENDBRANCH  21  22
ENDBRANCH  20  21
ENDBRANCH  19  20
ENDBRANCH  18  19
ENDBRANCH  17  18
ENDBRANCH   1  17
TORSDOF 26
ENDMDL
MODEL 4
REMARK VINA RESULT:    -4.043      2.784      8.605
REMARK INTER + INTRA:         -14.740
REMARK INTER:                 -10.305
REMARK INTRA:                  -4.436
REMARK UNBOUND:                -4.552
REMARK SMILES CCCCCCCCCCCCCCCCCCCCCCCCCCCC(=O)[O-]
REMARK SMILES IDX 15 1 16 2 17 3 18 4 19 5 20 6 21 7 22 8 23 9 24 10 25 11
REMARK SMILES IDX 26 12 27 13 28 14 29 15 30 16 14 17 13 18 12 19 11 20 10 21
REMARK SMILES IDX 9 22 8 23 7 24 6 25 5 26 4 27 3 28 2 29 1 30
REMARK H PARENT
REMARK Flexibility Score: inf
ROOT
ATOM      1  C   UNL     1       0.876   3.786  -2.931  1.00  0.00     0.000 C 
ENDROOT
BRANCH   1   2
ATOM      2  C   UNL     1       0.701   5.251  -3.358  1.00  0.00     0.000 C 
BRANCH   2   3
ATOM      3  C   UNL     1       0.879   5.442  -4.874  1.00  0.00     0.000 C 
BRANCH   3   4
ATOM      4  C   UNL     1      -0.467   5.448  -5.620  1.00  0.00     0.000 C 
BRANCH   4   5
ATOM      5  C   UNL     1      -0.561   4.340  -6.680  1.00  0.00     0.000 C 
BRANCH   5   6
ATOM      6  C   UNL     1      -1.193   3.047  -6.135  1.00  0.00     0.000 C 
BRANCH   6   7
ATOM      7  C   UNL     1      -2.024   3.285  -4.855  1.00  0.00     0.000 C 
BRANCH   7   8
ATOM      8  C   UNL     1      -2.310   2.003  -4.047  1.00  0.00     0.000 C 
BRANCH   8   9
ATOM      9  C   UNL     1      -3.003   2.222  -2.689  1.00  0.00     0.000 C 
BRANCH   9  10
ATOM     10  C   UNL     1      -4.328   3.002  -2.753  1.00  0.00     0.000 C 
BRANCH  10  11
ATOM     11  C   UNL     1      -5.349   2.369  -3.713  1.00  0.00     0.000 C 
BRANCH  11  12
ATOM     12  C   UNL     1      -5.663   0.903  -3.363  1.00  0.00     0.006 C 
BRANCH  12  13
ATOM     13  C   UNL     1      -5.267  -0.104  -4.454  1.00  0.00     0.053 C 
BRANCH  13  14
ATOM     14  C   UNL     1      -4.641  -1.338  -3.881  1.00  0.00     0.041 C 
ATOM     15  O   UNL     1      -3.489  -1.289  -3.376  1.00  0.00    -0.550 OA
ATOM     16  O   UNL     1      -5.344  -2.537  -3.876  1.00  0.00    -0.550 OA
ENDBRANCH  13  14
ENDBRANCH  12  13
ENDBRANCH  11  12
ENDBRANCH  10  11
ENDBRANCH   9  10
ENDBRANCH   8   9
ENDBRANCH   7   8
ENDBRANCH   6   7
ENDBRANCH   5   6
ENDBRANCH   4   5
ENDBRANCH   3   4
ENDBRANCH   2   3
ENDBRANCH   1   2
BRANCH   1  17
ATOM     17  C   UNL     1       1.800   3.036  -3.896  1.00  0.00     0.000 C 
BRANCH  17  18
ATOM     18  C   UNL     1       2.537   1.898  -3.176  1.00  0.00     0.000 C 
BRANCH  18  19
ATOM     19  C   UNL     1       4.061   1.945  -3.385  1.00  0.00     0.000 C 
BRANCH  19  20
ATOM     20  C   UNL     1       4.737   3.271  -2.981  1.00  0.00     0.000 C 
BRANCH  20  21
ATOM     21  C   UNL     1       5.466   4.009  -4.120  1.00  0.00     0.000 C 
BRANCH  21  22
ATOM     22  C   UNL     1       4.751   5.299  -4.548  1.00  0.00    -0.000 C 
BRANCH  22  23
ATOM     23  C   UNL     1       5.045   5.629  -6.019  1.00  0.00    -0.000 C 
BRANCH  23  24
ATOM     24  C   UNL     1       3.767   5.756  -6.863  1.00  0.00    -0.000 C 
BRANCH  24  25
ATOM     25  C   UNL     1       3.571   4.570  -7.824  1.00  0.00    -0.000 C 
BRANCH  25  26
ATOM     26  C   UNL     1       3.040   3.311  -7.118  1.00  0.00    -0.000 C 
BRANCH  26  27
ATOM     27  C   UNL     1       4.076   2.170  -7.036  1.00  0.00    -0.000 C 
BRANCH  27  28
ATOM     28  C   UNL     1       5.265   2.395  -7.987  1.00  0.00    -0.000 C 
BRANCH  28  29
ATOM     29  C   UNL     1       5.158   1.561  -9.273  1.00  0.00    -0.003 C 
ATOM     30  C   UNL     1       4.566   0.174  -9.031  1.00  0.00     0.004 C 
ENDBRANCH  28  29
ENDBRANCH  27  28
ENDBRANCH  26  27
ENDBRANCH  25  26
ENDBRANCH  24  25
ENDBRANCH  23  24
ENDBRANCH  22  23
ENDBRANCH  21  22
ENDBRANCH  20  21
ENDBRANCH  19  20
ENDBRANCH  18  19
ENDBRANCH  17  18
ENDBRANCH   1  17
TORSDOF 26
ENDMDL
MODEL 5
REMARK VINA RESULT:    -4.000      2.801      8.220
REMARK INTER + INTRA:         -14.631
REMARK INTER:                 -10.907
REMARK INTRA:                  -3.724
REMARK UNBOUND:                -4.552
REMARK SMILES CCCCCCCCCCCCCCCCCCCCCCCCCCCC(=O)[O-]
REMARK SMILES IDX 15 1 16 2 17 3 18 4 19 5 20 6 21 7 22 8 23 9 24 10 25 11
REMARK SMILES IDX 26 12 27 13 28 14 29 15 30 16 14 17 13 18 12 19 11 20 10 21
REMARK SMILES IDX 9 22 8 23 7 24 6 25 5 26 4 27 3 28 2 29 1 30
REMARK H PARENT
REMARK Flexibility Score: inf
ROOT
ATOM      1  C   UNL     1      -1.995   3.386  -4.109  1.00  0.00     0.000 C 
ENDROOT
BRANCH   1   2
ATOM      2  C   UNL     1      -1.799   2.634  -2.784  1.00  0.00     0.000 C 
BRANCH   2   3
ATOM      3  C   UNL     1      -3.104   2.518  -1.979  1.00  0.00     0.000 C 
BRANCH   3   4
ATOM      4  C   UNL     1      -4.334   2.928  -2.807  1.00  0.00     0.000 C 
BRANCH   4   5
ATOM      5  C   UNL     1      -5.229   1.732  -3.169  1.00  0.00     0.000 C 
BRANCH   5   6
ATOM      6  C   UNL     1      -5.043   1.269  -4.626  1.00  0.00     0.000 C 
BRANCH   6   7
ATOM      7  C   UNL     1      -4.124   0.034  -4.744  1.00  0.00     0.000 C 
BRANCH   7   8
ATOM      8  C   UNL     1      -3.948  -0.744  -3.424  1.00  0.00     0.000 C 
BRANCH   8   9
ATOM      9  C   UNL     1      -3.367  -2.163  -3.569  1.00  0.00     0.000 C 
BRANCH   9  10
ATOM     10  C   UNL     1      -4.240  -3.145  -4.371  1.00  0.00     0.000 C 
BRANCH  10  11
ATOM     11  C   UNL     1      -3.432  -3.978  -5.380  1.00  0.00     0.000 C 
BRANCH  11  12
ATOM     12  C   UNL     1      -1.961  -4.156  -4.959  1.00  0.00     0.006 C 
BRANCH  12  13
ATOM     13  C   UNL     1      -1.191  -5.199  -5.784  1.00  0.00     0.053 C 
BRANCH  13  14
ATOM     14  C   UNL     1      -1.675  -5.267  -7.199  1.00  0.00     0.041 C 
ATOM     15  O   UNL     1      -2.357  -6.251  -7.590  1.00  0.00    -0.550 OA
ATOM     16  O   UNL     1      -1.400  -4.228  -8.079  1.00  0.00    -0.550 OA
ENDBRANCH  13  14
ENDBRANCH  12  13
ENDBRANCH  11  12
ENDBRANCH  10  11
ENDBRANCH   9  10
ENDBRANCH   8   9
ENDBRANCH   7   8
ENDBRANCH   6   7
ENDBRANCH   5   6
ENDBRANCH   4   5
ENDBRANCH   3   4
ENDBRANCH   2   3
ENDBRANCH   1   2
BRANCH   1  17
ATOM     17  C   UNL     1      -1.403   2.601  -5.283  1.00  0.00     0.000 C 
BRANCH  17  18
ATOM     18  C   UNL     1      -2.032   3.044  -6.612  1.00  0.00     0.000 C 
BRANCH  18  19
ATOM     19  C   UNL     1      -1.235   4.161  -7.308  1.00  0.00     0.000 C 
BRANCH  19  20
ATOM     20  C   UNL     1      -0.568   3.757  -8.639  1.00  0.00     0.000 C 
BRANCH  20  21
ATOM     21  C   UNL     1       0.964   3.914  -8.679  1.00  0.00     0.000 C 
BRANCH  21  22
ATOM     22  C   UNL     1       1.563   4.263  -7.308  1.00  0.00    -0.000 C 
BRANCH  22  23
ATOM     23  C   UNL     1       2.731   3.328  -6.964  1.00  0.00    -0.000 C 
BRANCH  23  24
ATOM     24  C   UNL     1       3.909   4.068  -6.311  1.00  0.00    -0.000 C 
BRANCH  24  25
ATOM     25  C   UNL     1       4.539   3.274  -5.153  1.00  0.00    -0.000 C 
BRANCH  25  26
ATOM     26  C   UNL     1       3.788   1.967  -4.847  1.00  0.00    -0.000 C 
BRANCH  26  27
ATOM     27  C   UNL     1       3.125   1.952  -3.452  1.00  0.00    -0.000 C 
BRANCH  27  28
ATOM     28  C   UNL     1       1.790   2.719  -3.436  1.00  0.00    -0.000 C 
BRANCH  28  29
ATOM     29  C   UNL     1       1.961   4.194  -3.042  1.00  0.00    -0.003 C 
ATOM     30  C   UNL     1       1.052   5.128  -3.839  1.00  0.00     0.004 C 
ENDBRANCH  28  29
ENDBRANCH  27  28
ENDBRANCH  26  27
ENDBRANCH  25  26
ENDBRANCH  24  25
ENDBRANCH  23  24
ENDBRANCH  22  23
ENDBRANCH  21  22
ENDBRANCH  20  21
ENDBRANCH  19  20
ENDBRANCH  18  19
ENDBRANCH  17  18
ENDBRANCH   1  17
TORSDOF 26
ENDMDL
MODEL 6
REMARK VINA RESULT:    -3.993      1.483      3.640
REMARK INTER + INTRA:         -14.614
REMARK INTER:                 -10.071
REMARK INTRA:                  -4.543
REMARK UNBOUND:                -4.552
REMARK SMILES CCCCCCCCCCCCCCCCCCCCCCCCCCCC(=O)[O-]
REMARK SMILES IDX 15 1 16 2 17 3 18 4 19 5 20 6 21 7 22 8 23 9 24 10 25 11
REMARK SMILES IDX 26 12 27 13 28 14 29 15 30 16 14 17 13 18 12 19 11 20 10 21
REMARK SMILES IDX 9 22 8 23 7 24 6 25 5 26 4 27 3 28 2 29 1 30
REMARK H PARENT
REMARK Flexibility Score: inf
ROOT
ATOM      1  C   UNL     1       0.973   2.677  -3.299  1.00  0.00     0.000 C 
ENDROOT
BRANCH   1   2
ATOM      2  C   UNL     1       2.404   2.832  -3.835  1.00  0.00     0.000 C 
BRANCH   2   3
ATOM      3  C   UNL     1       3.342   1.728  -3.320  1.00  0.00     0.000 C 
BRANCH   3   4
ATOM      4  C   UNL     1       4.650   2.299  -2.746  1.00  0.00     0.000 C 
BRANCH   4   5
ATOM      5  C   UNL     1       4.525   3.776  -2.343  1.00  0.00     0.000 C 
BRANCH   5   6
ATOM      6  C   UNL     1       5.607   4.663  -2.985  1.00  0.00     0.000 C 
BRANCH   6   7
ATOM      7  C   UNL     1       5.864   4.308  -4.466  1.00  0.00     0.000 C 
BRANCH   7   8
ATOM      8  C   UNL     1       5.735   5.506  -5.428  1.00  0.00     0.000 C 
BRANCH   8   9
ATOM      9  C   UNL     1       4.879   5.252  -6.683  1.00  0.00     0.000 C 
BRANCH   9  10
ATOM     10  C   UNL     1       3.512   4.598  -6.417  1.00  0.00     0.000 C 
BRANCH  10  11
ATOM     11  C   UNL     1       3.256   3.364  -7.300  1.00  0.00     0.000 C 
BRANCH  11  12
ATOM     12  C   UNL     1       4.158   2.173  -6.929  1.00  0.00     0.006 C 
BRANCH  12  13
ATOM     13  C   UNL     1       4.595   1.315  -8.127  1.00  0.00     0.053 C 
BRANCH  13  14
ATOM     14  C   UNL     1       5.632   2.002  -8.962  1.00  0.00     0.041 C 
ATOM     15  O   UNL     1       6.846   1.949  -8.635  1.00  0.00    -0.550 OA
ATOM     16  O   UNL     1       5.259   2.673 -10.120  1.00  0.00    -0.550 OA
ENDBRANCH  13  14
ENDBRANCH  12  13
ENDBRANCH  11  12
ENDBRANCH  10  11
ENDBRANCH   9  10
ENDBRANCH   8   9
ENDBRANCH   7   8
ENDBRANCH   6   7
ENDBRANCH   5   6
ENDBRANCH   4   5
ENDBRANCH   3   4
ENDBRANCH   2   3
ENDBRANCH   1   2
BRANCH   1  17
ATOM     17  C   UNL     1       0.351   4.041  -2.984  1.00  0.00     0.000 C 
BRANCH  17  18
ATOM     18  C   UNL     1       1.292   5.181  -3.399  1.00  0.00     0.000 C 
BRANCH  18  19
ATOM     19  C   UNL     1       0.573   6.298  -4.176  1.00  0.00     0.000 C 
BRANCH  19  20
ATOM     20  C   UNL     1      -0.876   5.976  -4.596  1.00  0.00     0.000 C 
BRANCH  20  21
ATOM     21  C   UNL     1      -1.096   5.797  -6.109  1.00  0.00     0.000 C 
BRANCH  21  22
ATOM     22  C   UNL     1      -0.146   4.763  -6.732  1.00  0.00    -0.000 C 
BRANCH  22  23
ATOM     23  C   UNL     1      -0.776   3.363  -6.726  1.00  0.00    -0.000 C 
BRANCH  23  24
ATOM     24  C   UNL     1      -2.312   3.405  -6.701  1.00  0.00    -0.000 C 
BRANCH  24  25
ATOM     25  C   UNL     1      -2.925   2.222  -5.931  1.00  0.00    -0.000 C 
BRANCH  25  26
ATOM     26  C   UNL     1      -2.463   2.161  -4.465  1.00  0.00    -0.000 C 
BRANCH  26  27
ATOM     27  C   UNL     1      -3.082   0.988  -3.675  1.00  0.00    -0.000 C 
BRANCH  27  28
ATOM     28  C   UNL     1      -4.475   1.333  -3.118  1.00  0.00    -0.000 C 
BRANCH  28  29
ATOM     29  C   UNL     1      -4.544   2.757  -2.545  1.00  0.00    -0.003 C 
ATOM     30  C   UNL     1      -5.828   3.489  -2.934  1.00  0.00     0.004 C 
ENDBRANCH  28  29
ENDBRANCH  27  28
ENDBRANCH  26  27
ENDBRANCH  25  26
ENDBRANCH  24  25
ENDBRANCH  23  24
ENDBRANCH  22  23
ENDBRANCH  21  22
ENDBRANCH  20  21
ENDBRANCH  19  20
ENDBRANCH  18  19
ENDBRANCH  17  18
ENDBRANCH   1  17
TORSDOF 26
ENDMDL
MODEL 7
REMARK VINA RESULT:    -3.942      2.986      8.288
REMARK INTER + INTRA:         -14.486
REMARK INTER:                 -10.125
REMARK INTRA:                  -4.361
REMARK UNBOUND:                -4.552
REMARK SMILES CCCCCCCCCCCCCCCCCCCCCCCCCCCC(=O)[O-]
REMARK SMILES IDX 15 1 16 2 17 3 18 4 19 5 20 6 21 7 22 8 23 9 24 10 25 11
REMARK SMILES IDX 26 12 27 13 28 14 29 15 30 16 14 17 13 18 12 19 11 20 10 21
REMARK SMILES IDX 9 22 8 23 7 24 6 25 5 26 4 27 3 28 2 29 1 30
REMARK H PARENT
REMARK Flexibility Score: inf
ROOT
ATOM      1  C   UNL     1       0.212   3.814  -6.813  1.00  0.00     0.000 C 
ENDROOT
BRANCH   1   2
ATOM      2  C   UNL     1      -0.424   3.881  -8.209  1.00  0.00     0.000 C 
BRANCH   2   3
ATOM      3  C   UNL     1      -1.701   3.030  -8.311  1.00  0.00     0.000 C 
BRANCH   3   4
ATOM      4  C   UNL     1      -2.824   3.556  -7.402  1.00  0.00     0.000 C 
BRANCH   4   5
ATOM      5  C   UNL     1      -3.550   2.433  -6.646  1.00  0.00     0.000 C 
BRANCH   5   6
ATOM      6  C   UNL     1      -4.766   2.939  -5.850  1.00  0.00     0.000 C 
BRANCH   6   7
ATOM      7  C   UNL     1      -4.398   4.055  -4.848  1.00  0.00     0.000 C 
BRANCH   7   8
ATOM      8  C   UNL     1      -5.141   3.956  -3.500  1.00  0.00     0.000 C 
BRANCH   8   9
ATOM      9  C   UNL     1      -4.906   2.654  -2.713  1.00  0.00     0.000 C 
BRANCH   9  10
ATOM     10  C   UNL     1      -3.429   2.296  -2.473  1.00  0.00     0.000 C 
BRANCH  10  11
ATOM     11  C   UNL     1      -2.986   1.038  -3.238  1.00  0.00     0.000 C 
BRANCH  11  12
ATOM     12  C   UNL     1      -4.140   0.046  -3.467  1.00  0.00     0.006 C 
BRANCH  12  13
ATOM     13  C   UNL     1      -3.719  -1.432  -3.432  1.00  0.00     0.053 C 
BRANCH  13  14
ATOM     14  C   UNL     1      -4.226  -2.190  -4.620  1.00  0.00     0.041 C 
ATOM     15  O   UNL     1      -4.466  -3.423  -4.530  1.00  0.00    -0.550 OA
ATOM     16  O   UNL     1      -4.464  -1.528  -5.818  1.00  0.00    -0.550 OA
ENDBRANCH  13  14
ENDBRANCH  12  13
ENDBRANCH  11  12
ENDBRANCH  10  11
ENDBRANCH   9  10
ENDBRANCH   8   9
ENDBRANCH   7   8
ENDBRANCH   6   7
ENDBRANCH   5   6
ENDBRANCH   4   5
ENDBRANCH   3   4
ENDBRANCH   2   3
ENDBRANCH   1   2
BRANCH   1  17
ATOM     17  C   UNL     1       0.361   5.212  -6.206  1.00  0.00     0.000 C 
BRANCH  17  18
ATOM     18  C   UNL     1      -0.403   5.317  -4.878  1.00  0.00     0.000 C 
BRANCH  18  19
ATOM     19  C   UNL     1      -0.765   3.943  -4.285  1.00  0.00     0.000 C 
BRANCH  19  20
ATOM     20  C   UNL     1      -0.032   3.580  -2.977  1.00  0.00     0.000 C 
BRANCH  20  21
ATOM     21  C   UNL     1       1.039   2.482  -3.108  1.00  0.00     0.000 C 
BRANCH  21  22
ATOM     22  C   UNL     1       2.393   3.024  -3.587  1.00  0.00    -0.000 C 
BRANCH  22  23
ATOM     23  C   UNL     1       3.265   1.897  -4.162  1.00  0.00    -0.000 C 
BRANCH  23  24
ATOM     24  C   UNL     1       4.047   2.333  -5.411  1.00  0.00    -0.000 C 
BRANCH  24  25
ATOM     25  C   UNL     1       3.790   3.803  -5.787  1.00  0.00    -0.000 C 
BRANCH  25  26
ATOM     26  C   UNL     1       3.938   4.068  -7.295  1.00  0.00    -0.000 C 
BRANCH  26  27
ATOM     27  C   UNL     1       3.466   2.891  -8.175  1.00  0.00    -0.000 C 
BRANCH  27  28
ATOM     28  C   UNL     1       4.330   2.726  -9.438  1.00  0.00    -0.000 C 
BRANCH  28  29
ATOM     29  C   UNL     1       4.410   1.267  -9.912  1.00  0.00    -0.003 C 
ATOM     30  C   UNL     1       4.469   0.272  -8.754  1.00  0.00     0.004 C 
ENDBRANCH  28  29
ENDBRANCH  27  28
ENDBRANCH  26  27
ENDBRANCH  25  26
ENDBRANCH  24  25
ENDBRANCH  23  24
ENDBRANCH  22  23
ENDBRANCH  21  22
ENDBRANCH  20  21
ENDBRANCH  19  20
ENDBRANCH  18  19
ENDBRANCH  17  18
ENDBRANCH   1  17
TORSDOF 26
ENDMDL
MODEL 8
REMARK VINA RESULT:    -3.924      2.686      8.498
REMARK INTER + INTRA:         -14.440
REMARK INTER:                 -11.433
REMARK INTRA:                  -3.007
REMARK UNBOUND:                -4.552
REMARK SMILES CCCCCCCCCCCCCCCCCCCCCCCCCCCC(=O)[O-]
REMARK SMILES IDX 15 1 16 2 17 3 18 4 19 5 20 6 21 7 22 8 23 9 24 10 25 11
REMARK SMILES IDX 26 12 27 13 28 14 29 15 30 16 14 17 13 18 12 19 11 20 10 21
REMARK SMILES IDX 9 22 8 23 7 24 6 25 5 26 4 27 3 28 2 29 1 30
REMARK H PARENT
REMARK Flexibility Score: inf
ROOT
ATOM      1  C   UNL     1      -0.612   3.570  -4.277  1.00  0.00     0.000 C 
ENDROOT
BRANCH   1   2
ATOM      2  C   UNL     1      -0.724   2.872  -2.914  1.00  0.00     0.000 C 
BRANCH   2   3
ATOM      3  C   UNL     1      -1.949   1.946  -2.831  1.00  0.00     0.000 C 
BRANCH   3   4
ATOM      4  C   UNL     1      -3.097   2.573  -2.022  1.00  0.00     0.000 C 
BRANCH   4   5
ATOM      5  C   UNL     1      -4.266   3.030  -2.909  1.00  0.00     0.000 C 
BRANCH   5   6
ATOM      6  C   UNL     1      -5.331   1.934  -3.101  1.00  0.00     0.000 C 
BRANCH   6   7
ATOM      7  C   UNL     1      -5.517   1.540  -4.583  1.00  0.00     0.000 C 
BRANCH   7   8
ATOM      8  C   UNL     1      -4.486   0.512  -5.091  1.00  0.00     0.000 C 
BRANCH   8   9
ATOM      9  C   UNL     1      -4.664  -0.920  -4.553  1.00  0.00     0.000 C 
BRANCH   9  10
ATOM     10  C   UNL     1      -3.626  -1.354  -3.503  1.00  0.00     0.000 C 
BRANCH  10  11
ATOM     11  C   UNL     1      -3.472  -2.881  -3.409  1.00  0.00     0.000 C 
BRANCH  11  12
ATOM     12  C   UNL     1      -3.306  -3.547  -4.787  1.00  0.00     0.006 C 
BRANCH  12  13
ATOM     13  C   UNL     1      -1.936  -4.206  -5.009  1.00  0.00     0.053 C 
BRANCH  13  14
ATOM     14  C   UNL     1      -1.863  -4.925  -6.321  1.00  0.00     0.041 C 
ATOM     15  O   UNL     1      -1.276  -4.397  -7.302  1.00  0.00    -0.550 OA
ATOM     16  O   UNL     1      -2.416  -6.193  -6.450  1.00  0.00    -0.550 OA
ENDBRANCH  13  14
ENDBRANCH  12  13
ENDBRANCH  11  12
ENDBRANCH  10  11
ENDBRANCH   9  10
ENDBRANCH   8   9
ENDBRANCH   7   8
ENDBRANCH   6   7
ENDBRANCH   5   6
ENDBRANCH   4   5
ENDBRANCH   3   4
ENDBRANCH   2   3
ENDBRANCH   1   2
BRANCH   1  17
ATOM     17  C   UNL     1      -1.455   2.852  -5.336  1.00  0.00     0.000 C 
BRANCH  17  18
ATOM     18  C   UNL     1      -1.150   3.396  -6.739  1.00  0.00     0.000 C 
BRANCH  18  19
ATOM     19  C   UNL     1       0.327   3.791  -6.920  1.00  0.00     0.000 C 
BRANCH  19  20
ATOM     20  C   UNL     1       0.726   4.191  -8.356  1.00  0.00     0.000 C 
BRANCH  20  21
ATOM     21  C   UNL     1       2.240   4.342  -8.597  1.00  0.00     0.000 C 
BRANCH  21  22
ATOM     22  C   UNL     1       2.780   3.346  -9.635  1.00  0.00    -0.000 C 
BRANCH  22  23
ATOM     23  C   UNL     1       3.724   2.328  -8.980  1.00  0.00    -0.000 C 
BRANCH  23  24
ATOM     24  C   UNL     1       4.407   2.880  -7.719  1.00  0.00    -0.000 C 
BRANCH  24  25
ATOM     25  C   UNL     1       4.111   2.036  -6.467  1.00  0.00    -0.000 C 
BRANCH  25  26
ATOM     26  C   UNL     1       3.858   2.892  -5.215  1.00  0.00    -0.000 C 
BRANCH  26  27
ATOM     27  C   UNL     1       2.786   2.303  -4.273  1.00  0.00    -0.000 C 
BRANCH  27  28
ATOM     28  C   UNL     1       3.360   1.947  -2.890  1.00  0.00    -0.000 C 
BRANCH  28  29
ATOM     29  C   UNL     1       4.856   2.276  -2.770  1.00  0.00    -0.003 C 
ATOM     30  C   UNL     1       5.140   3.370  -1.742  1.00  0.00     0.004 C 
ENDBRANCH  28  29
ENDBRANCH  27  28
ENDBRANCH  26  27
ENDBRANCH  25  26
ENDBRANCH  24  25
ENDBRANCH  23  24
ENDBRANCH  22  23
ENDBRANCH  21  22
ENDBRANCH  20  21
ENDBRANCH  19  20
ENDBRANCH  18  19
ENDBRANCH  17  18
ENDBRANCH   1  17
TORSDOF 26
ENDMDL
MODEL 9
REMARK VINA RESULT:    -3.881      1.449      2.336
REMARK INTER + INTRA:         -14.333
REMARK INTER:                  -9.998
REMARK INTRA:                  -4.336
REMARK UNBOUND:                -4.552
REMARK SMILES CCCCCCCCCCCCCCCCCCCCCCCCCCCC(=O)[O-]
REMARK SMILES IDX 15 1 16 2 17 3 18 4 19 5 20 6 21 7 22 8 23 9 24 10 25 11
REMARK SMILES IDX 26 12 27 13 28 14 29 15 30 16 14 17 13 18 12 19 11 20 10 21
REMARK SMILES IDX 9 22 8 23 7 24 6 25 5 26 4 27 3 28 2 29 1 30
REMARK H PARENT
REMARK Flexibility Score: inf
ROOT
ATOM      1  C   UNL     1      -0.735   3.012  -5.711  1.00  0.00     0.000 C 
ENDROOT
BRANCH   1   2
ATOM      2  C   UNL     1      -0.260   3.862  -4.523  1.00  0.00     0.000 C 
BRANCH   2   3
ATOM      3  C   UNL     1       0.244   3.000  -3.354  1.00  0.00     0.000 C 
BRANCH   3   4
ATOM      4  C   UNL     1       1.748   3.192  -3.097  1.00  0.00     0.000 C 
BRANCH   4   5
ATOM      5  C   UNL     1       2.544   1.885  -3.239  1.00  0.00     0.000 C 
BRANCH   5   6
ATOM      6  C   UNL     1       4.034   2.054  -2.889  1.00  0.00     0.000 C 
BRANCH   6   7
ATOM      7  C   UNL     1       4.414   3.523  -2.605  1.00  0.00     0.000 C 
BRANCH   7   8
ATOM      8  C   UNL     1       5.511   4.078  -3.536  1.00  0.00     0.000 C 
BRANCH   8   9
ATOM      9  C   UNL     1       5.089   5.270  -4.415  1.00  0.00     0.000 C 
BRANCH   9  10
ATOM     10  C   UNL     1       4.730   4.911  -5.868  1.00  0.00     0.000 C 
BRANCH  10  11
ATOM     11  C   UNL     1       3.238   4.585  -6.052  1.00  0.00     0.000 C 
BRANCH  11  12
ATOM     12  C   UNL     1       3.008   3.292  -6.855  1.00  0.00     0.006 C 
BRANCH  12  13
ATOM     13  C   UNL     1       4.073   2.209  -6.625  1.00  0.00     0.053 C 
BRANCH  13  14
ATOM     14  C   UNL     1       4.416   1.480  -7.888  1.00  0.00     0.041 C 
ATOM     15  O   UNL     1       4.281   0.230  -7.956  1.00  0.00    -0.550 OA
ATOM     16  O   UNL     1       4.855   2.186  -9.001  1.00  0.00    -0.550 OA
ENDBRANCH  13  14
ENDBRANCH  12  13
ENDBRANCH  11  12
ENDBRANCH  10  11
ENDBRANCH   9  10
ENDBRANCH   8   9
ENDBRANCH   7   8
ENDBRANCH   6   7
ENDBRANCH   5   6
ENDBRANCH   4   5
ENDBRANCH   3   4
ENDBRANCH   2   3
ENDBRANCH   1   2
BRANCH   1  17
ATOM     17  C   UNL     1      -1.931   3.664  -6.413  1.00  0.00     0.000 C 
BRANCH  17  18
ATOM     18  C   UNL     1      -2.395   4.916  -5.655  1.00  0.00     0.000 C 
BRANCH  18  19
ATOM     19  C   UNL     1      -3.917   5.129  -5.725  1.00  0.00     0.000 C 
BRANCH  19  20
ATOM     20  C   UNL     1      -4.658   5.007  -4.377  1.00  0.00     0.000 C 
BRANCH  20  21
ATOM     21  C   UNL     1      -5.261   3.621  -4.084  1.00  0.00     0.000 C 
BRANCH  21  22
ATOM     22  C   UNL     1      -4.800   3.043  -2.738  1.00  0.00    -0.000 C 
BRANCH  22  23
ATOM     23  C   UNL     1      -3.398   2.427  -2.856  1.00  0.00    -0.000 C 
BRANCH  23  24
ATOM     24  C   UNL     1      -3.326   1.320  -3.920  1.00  0.00    -0.000 C 
BRANCH  24  25
ATOM     25  C   UNL     1      -3.472  -0.089  -3.319  1.00  0.00    -0.000 C 
BRANCH  25  26
ATOM     26  C   UNL     1      -4.273  -1.043  -4.221  1.00  0.00    -0.000 C 
BRANCH  26  27
ATOM     27  C   UNL     1      -5.318  -0.324  -5.101  1.00  0.00    -0.000 C 
BRANCH  27  28
ATOM     28  C   UNL     1      -6.752  -0.521  -4.577  1.00  0.00    -0.000 C 
BRANCH  28  29
ATOM     29  C   UNL     1      -7.189   0.597  -3.619  1.00  0.00    -0.003 C 
ATOM     30  C   UNL     1      -8.703   0.646  -3.418  1.00  0.00     0.004 C 
ENDBRANCH  28  29
ENDBRANCH  27  28
ENDBRANCH  26  27
ENDBRANCH  25  26
ENDBRANCH  24  25
ENDBRANCH  23  24
ENDBRANCH  22  23
ENDBRANCH  21  22
ENDBRANCH  20  21
ENDBRANCH  19  20
ENDBRANCH  18  19
ENDBRANCH  17  18
ENDBRANCH   1  17
TORSDOF 26
ENDMDL
