MODEL 1
REMARK VINA RESULT:    -7.377      0.000      0.000
REMARK INTER + INTRA:         -10.772
REMARK INTER:                  -9.749
REMARK INTRA:                  -1.023
REMARK UNBOUND:                -1.023
REMARK SMILES CC[C@H](C=C[C@H](C)[C@H]1CC[C@@H]2[C@H]3CC=C4C[C@H](O)CC[C@@]4(C)[C@H]3CC[C@@]21C)C(C)C
REMARK SMILES IDX 6 1 7 2 5 3 4 4 3 5 2 6 1 7 28 8 29 9 30 10 8 11 9 12 26 13
REMARK SMILES IDX 10 14 11 15 25 16 27 17 12 18 24 19 23 20 13 21 21 22 14 23
REMARK SMILES IDX 15 24 20 25 22 26 16 27 19 28 17 29 18 30
REMARK H PARENT 18 31
REMARK Flexibility Score: inf
ROOT
ATOM      1  C   UNL     1     185.971 192.629 189.095  1.00  0.00     0.012 C 
ATOM      2  C   UNL     1     185.548 192.482 187.619  1.00  0.00     0.012 C 
ENDROOT
BRANCH   1   3
ATOM      3  C   UNL     1     185.735 194.035 189.610  1.00  0.00    -0.028 C 
ATOM      4  C   UNL     1     186.735 194.780 190.111  1.00  0.00    -0.027 C 
BRANCH   4   5
ATOM      5  C   UNL     1     186.511 196.212 190.563  1.00  0.00     0.014 C 
BRANCH   5   6
ATOM      6  C   UNL     1     186.503 196.363 192.114  1.00  0.00     0.004 C 
ATOM      7  C   UNL     1     187.097 195.197 192.913  1.00  0.00     0.004 C 
ENDBRANCH   5   6
BRANCH   5   8
ATOM      8  C   UNL     1     187.470 197.179 189.802  1.00  0.00    -0.011 C 
ATOM      9  C   UNL     1     188.709 196.492 189.213  1.00  0.00     0.008 C 
ATOM     10  C   UNL     1     187.886 198.384 190.662  1.00  0.00     0.008 C 
ENDBRANCH   5   8
ENDBRANCH   4   5
ENDBRANCH   1   3
BRANCH   1  11
ATOM     11  C   UNL     1     185.421 191.485 190.028  1.00  0.00     0.002 C 
ATOM     12  C   UNL     1     184.116 190.903 189.453  1.00  0.00     0.005 C 
ATOM     13  C   UNL     1     186.305 190.231 190.397  1.00  0.00    -0.026 C 
ATOM     14  C   UNL     1     184.381 189.455 189.051  1.00  0.00     0.005 C 
ATOM     15  C   UNL     1     185.838 189.123 189.404  1.00  0.00    -0.001 C 
ATOM     16  C   UNL     1     185.978 189.827 191.868  1.00  0.00     0.007 C 
ATOM     17  C   UNL     1     187.822 190.516 190.294  1.00  0.00     0.012 C 
ATOM     18  C   UNL     1     185.994 187.631 189.851  1.00  0.00     0.000 C 
ATOM     19  C   UNL     1     186.362 188.389 192.233  1.00  0.00     0.005 C 
ATOM     20  C   UNL     1     185.613 187.383 191.332  1.00  0.00     0.003 C 
ATOM     21  C   UNL     1     187.394 187.080 189.525  1.00  0.00     0.031 C 
ATOM     22  C   UNL     1     185.746 185.848 191.725  1.00  0.00    -0.008 C 
ATOM     23  C   UNL     1     187.607 185.685 190.025  1.00  0.00    -0.027 C 
ATOM     24  C   UNL     1     186.974 185.173 191.098  1.00  0.00    -0.065 C 
ATOM     25  C   UNL     1     185.819 185.655 193.274  1.00  0.00     0.014 C 
ATOM     26  C   UNL     1     184.479 185.117 191.194  1.00  0.00     0.016 C 
ATOM     27  C   UNL     1     187.339 183.769 191.549  1.00  0.00     0.063 C 
ATOM     28  C   UNL     1     186.068 184.202 193.710  1.00  0.00     0.033 C 
ATOM     29  C   UNL     1     187.366 183.666 193.082  1.00  0.00     0.118 C 
BRANCH  29  30
ATOM     30  O   UNL     1     187.601 182.341 193.486  1.00  0.00    -0.393 OA
ATOM     31  H   UNL     1     186.719 181.912 193.642  1.00  0.00     0.210 HD
ENDBRANCH  29  30
ENDBRANCH   1  11
TORSDOF 6
ENDMDL
MODEL 2
REMARK VINA RESULT:    -7.342      3.149      8.693
REMARK INTER + INTRA:         -10.726
REMARK INTER:                  -9.528
REMARK INTRA:                  -1.197
REMARK UNBOUND:                -1.023
REMARK SMILES CC[C@H](C=C[C@H](C)[C@H]1CC[C@@H]2[C@H]3CC=C4C[C@H](O)CC[C@@]4(C)[C@H]3CC[C@@]21C)C(C)C
REMARK SMILES IDX 6 1 7 2 5 3 4 4 3 5 2 6 1 7 28 8 29 9 30 10 8 11 9 12 26 13
REMARK SMILES IDX 10 14 11 15 25 16 27 17 12 18 24 19 23 20 13 21 21 22 14 23
REMARK SMILES IDX 15 24 20 25 22 26 16 27 19 28 17 29 18 30
REMARK H PARENT 18 31
REMARK Flexibility Score: inf
ROOT
ATOM      1  C   UNL     1     183.796 187.377 189.475  1.00  0.00     0.012 C 
ATOM      2  C   UNL     1     183.130 187.022 188.130  1.00  0.00     0.012 C 
ENDROOT
BRANCH   1   3
ATOM      3  C   UNL     1     185.145 186.702 189.630  1.00  0.00    -0.028 C 
ATOM      4  C   UNL     1     185.559 186.215 190.812  1.00  0.00    -0.027 C 
BRANCH   4   5
ATOM      5  C   UNL     1     186.879 185.479 190.952  1.00  0.00     0.014 C 
BRANCH   5   6
ATOM      6  C   UNL     1     188.099 186.441 191.078  1.00  0.00     0.004 C 
ATOM      7  C   UNL     1     188.013 187.504 192.179  1.00  0.00     0.004 C 
ENDBRANCH   5   6
BRANCH   5   8
ATOM      8  C   UNL     1     186.776 184.382 192.055  1.00  0.00    -0.011 C 
ATOM      9  C   UNL     1     186.587 182.962 191.507  1.00  0.00     0.008 C 
ATOM     10  C   UNL     1     185.690 184.701 193.096  1.00  0.00     0.008 C 
ENDBRANCH   5   8
ENDBRANCH   4   5
ENDBRANCH   1   3
BRANCH   1  11
ATOM     11  C   UNL     1     183.791 188.919 189.796  1.00  0.00     0.002 C 
ATOM     12  C   UNL     1     183.707 189.152 191.316  1.00  0.00     0.005 C 
ATOM     13  C   UNL     1     184.953 189.863 189.297  1.00  0.00    -0.026 C 
ATOM     14  C   UNL     1     185.012 189.798 191.768  1.00  0.00     0.005 C 
ATOM     15  C   UNL     1     185.898 189.998 190.530  1.00  0.00    -0.001 C 
ATOM     16  C   UNL     1     184.326 191.244 188.930  1.00  0.00     0.007 C 
ATOM     17  C   UNL     1     185.682 189.310 188.050  1.00  0.00     0.012 C 
ATOM     18  C   UNL     1     186.763 191.298 190.648  1.00  0.00     0.000 C 
ATOM     19  C   UNL     1     185.325 192.406 188.890  1.00  0.00     0.005 C 
ATOM     20  C   UNL     1     185.997 192.590 190.269  1.00  0.00     0.003 C 
ATOM     21  C   UNL     1     188.087 191.175 189.873  1.00  0.00     0.031 C 
ATOM     22  C   UNL     1     186.903 193.884 190.445  1.00  0.00    -0.008 C 
ATOM     23  C   UNL     1     188.895 192.436 189.886  1.00  0.00    -0.027 C 
ATOM     24  C   UNL     1     188.355 193.665 190.002  1.00  0.00    -0.065 C 
ATOM     25  C   UNL     1     186.327 195.102 189.652  1.00  0.00     0.014 C 
ATOM     26  C   UNL     1     186.917 194.242 191.960  1.00  0.00     0.016 C 
ATOM     27  C   UNL     1     189.280 194.868 189.922  1.00  0.00     0.063 C 
ATOM     28  C   UNL     1     187.225 196.349 189.688  1.00  0.00     0.033 C 
ATOM     29  C   UNL     1     188.627 196.021 189.145  1.00  0.00     0.118 C 
BRANCH  29  30
ATOM     30  O   UNL     1     189.447 197.162 189.169  1.00  0.00    -0.393 OA
ATOM     31  H   UNL     1     190.022 197.103 189.977  1.00  0.00     0.210 HD
ENDBRANCH  29  30
ENDBRANCH   1  11
TORSDOF 6
ENDMDL
MODEL 3
REMARK VINA RESULT:    -7.321      2.018      3.972
REMARK INTER + INTRA:         -10.698
REMARK INTER:                  -9.440
REMARK INTRA:                  -1.258
REMARK UNBOUND:                -1.023
REMARK SMILES CC[C@H](C=C[C@H](C)[C@H]1CC[C@@H]2[C@H]3CC=C4C[C@H](O)CC[C@@]4(C)[C@H]3CC[C@@]21C)C(C)C
REMARK SMILES IDX 6 1 7 2 5 3 4 4 3 5 2 6 1 7 28 8 29 9 30 10 8 11 9 12 26 13
REMARK SMILES IDX 10 14 11 15 25 16 27 17 12 18 24 19 23 20 13 21 21 22 14 23
REMARK SMILES IDX 15 24 20 25 22 26 16 27 19 28 17 29 18 30
REMARK H PARENT 18 31
REMARK Flexibility Score: inf
ROOT
ATOM      1  C   UNL     1     188.213 195.478 190.674  1.00  0.00     0.012 C 
ATOM      2  C   UNL     1     188.403 196.193 189.320  1.00  0.00     0.012 C 
ENDROOT
BRANCH   1   3
ATOM      3  C   UNL     1     188.327 196.442 191.839  1.00  0.00    -0.028 C 
ATOM      4  C   UNL     1     187.239 196.983 192.414  1.00  0.00    -0.027 C 
BRANCH   4   5
ATOM      5  C   UNL     1     187.350 197.894 193.624  1.00  0.00     0.014 C 
BRANCH   5   6
ATOM      6  C   UNL     1     186.928 199.362 193.318  1.00  0.00     0.004 C 
ATOM      7  C   UNL     1     186.900 199.765 191.839  1.00  0.00     0.004 C 
ENDBRANCH   5   6
BRANCH   5   8
ATOM      8  C   UNL     1     186.655 197.243 194.860  1.00  0.00    -0.011 C 
ATOM      9  C   UNL     1     185.928 195.928 194.546  1.00  0.00     0.008 C 
ATOM     10  C   UNL     1     185.708 198.218 195.578  1.00  0.00     0.008 C 
ENDBRANCH   5   8
ENDBRANCH   4   5
ENDBRANCH   1   3
BRANCH   1  11
ATOM     11  C   UNL     1     186.953 194.535 190.720  1.00  0.00     0.002 C 
ATOM     12  C   UNL     1     186.142 194.656 189.416  1.00  0.00     0.005 C 
ATOM     13  C   UNL     1     187.098 192.984 190.973  1.00  0.00    -0.026 C 
ATOM     14  C   UNL     1     186.216 193.318 188.687  1.00  0.00     0.005 C 
ATOM     15  C   UNL     1     187.044 192.353 189.549  1.00  0.00    -0.001 C 
ATOM     16  C   UNL     1     185.879 192.520 191.829  1.00  0.00     0.007 C 
ATOM     17  C   UNL     1     188.396 192.620 191.732  1.00  0.00     0.012 C 
ATOM     18  C   UNL     1     186.523 190.882 189.422  1.00  0.00     0.000 C 
ATOM     19  C   UNL     1     185.596 191.015 191.768  1.00  0.00     0.005 C 
ATOM     20  C   UNL     1     185.296 190.578 190.318  1.00  0.00     0.003 C 
ATOM     21  C   UNL     1     187.651 189.856 189.637  1.00  0.00     0.031 C 
ATOM     22  C   UNL     1     184.780 189.087 190.122  1.00  0.00    -0.008 C 
ATOM     23  C   UNL     1     187.168 188.439 189.617  1.00  0.00    -0.027 C 
ATOM     24  C   UNL     1     185.921 188.072 189.969  1.00  0.00    -0.065 C 
ATOM     25  C   UNL     1     183.875 188.631 191.312  1.00  0.00     0.014 C 
ATOM     26  C   UNL     1     183.935 189.052 188.815  1.00  0.00     0.016 C 
ATOM     27  C   UNL     1     185.581 186.591 189.980  1.00  0.00     0.063 C 
ATOM     28  C   UNL     1     183.443 187.157 191.236  1.00  0.00     0.033 C 
ATOM     29  C   UNL     1     184.674 186.237 191.169  1.00  0.00     0.118 C 
BRANCH  29  30
ATOM     30  O   UNL     1     184.282 184.889 191.108  1.00  0.00    -0.393 OA
ATOM     31  H   UNL     1     184.599 184.445 191.938  1.00  0.00     0.210 HD
ENDBRANCH  29  30
ENDBRANCH   1  11
TORSDOF 6
ENDMDL
MODEL 4
REMARK VINA RESULT:    -7.214      4.308      9.241
REMARK INTER + INTRA:         -10.556
REMARK INTER:                  -9.630
REMARK INTRA:                  -0.927
REMARK UNBOUND:                -1.023
REMARK SMILES CC[C@H](C=C[C@H](C)[C@H]1CC[C@@H]2[C@H]3CC=C4C[C@H](O)CC[C@@]4(C)[C@H]3CC[C@@]21C)C(C)C
REMARK SMILES IDX 6 1 7 2 5 3 4 4 3 5 2 6 1 7 28 8 29 9 30 10 8 11 9 12 26 13
REMARK SMILES IDX 10 14 11 15 25 16 27 17 12 18 24 19 23 20 13 21 21 22 14 23
REMARK SMILES IDX 15 24 20 25 22 26 16 27 19 28 17 29 18 30
REMARK H PARENT 18 31
REMARK Flexibility Score: inf
ROOT
ATOM      1  C   UNL     1     186.200 189.632 188.905  1.00  0.00     0.012 C 
ATOM      2  C   UNL     1     185.416 188.477 189.560  1.00  0.00     0.012 C 
ENDROOT
BRANCH   1   3
ATOM      3  C   UNL     1     186.341 189.438 187.408  1.00  0.00    -0.028 C 
ATOM      4  C   UNL     1     187.520 189.124 186.845  1.00  0.00    -0.027 C 
BRANCH   4   5
ATOM      5  C   UNL     1     187.646 188.863 185.355  1.00  0.00     0.014 C 
BRANCH   5   6
ATOM      6  C   UNL     1     186.914 189.932 184.489  1.00  0.00     0.004 C 
ATOM      7  C   UNL     1     187.764 191.114 184.009  1.00  0.00     0.004 C 
ENDBRANCH   5   6
BRANCH   5   8
ATOM      8  C   UNL     1     189.135 188.599 184.973  1.00  0.00    -0.011 C 
ATOM      9  C   UNL     1     189.336 187.398 184.039  1.00  0.00     0.008 C 
ATOM     10  C   UNL     1     190.041 188.468 186.209  1.00  0.00     0.008 C 
ENDBRANCH   5   8
ENDBRANCH   4   5
ENDBRANCH   1   3
BRANCH   1  11
ATOM     11  C   UNL     1     185.702 191.062 189.340  1.00  0.00     0.002 C 
ATOM     12  C   UNL     1     184.934 190.982 190.673  1.00  0.00     0.005 C 
ATOM     13  C   UNL     1     186.709 192.263 189.515  1.00  0.00    -0.026 C 
ATOM     14  C   UNL     1     185.738 191.735 191.727  1.00  0.00     0.005 C 
ATOM     15  C   UNL     1     186.989 192.313 191.049  1.00  0.00    -0.001 C 
ATOM     16  C   UNL     1     185.992 193.566 189.043  1.00  0.00     0.007 C 
ATOM     17  C   UNL     1     188.003 192.087 188.684  1.00  0.00     0.012 C 
ATOM     18  C   UNL     1     187.394 193.691 191.672  1.00  0.00     0.000 C 
ATOM     19  C   UNL     1     186.615 194.862 189.574  1.00  0.00     0.005 C 
ATOM     20  C   UNL     1     186.580 194.887 191.117  1.00  0.00     0.003 C 
ATOM     21  C   UNL     1     188.910 193.940 191.570  1.00  0.00     0.031 C 
ATOM     22  C   UNL     1     186.999 196.255 191.811  1.00  0.00    -0.008 C 
ATOM     23  C   UNL     1     189.319 195.290 192.072  1.00  0.00    -0.027 C 
ATOM     24  C   UNL     1     188.510 196.368 192.052  1.00  0.00    -0.065 C 
ATOM     25  C   UNL     1     186.544 197.490 190.968  1.00  0.00     0.014 C 
ATOM     26  C   UNL     1     186.292 196.313 193.196  1.00  0.00     0.016 C 
ATOM     27  C   UNL     1     189.074 197.699 192.517  1.00  0.00     0.063 C 
ATOM     28  C   UNL     1     187.025 198.838 191.529  1.00  0.00     0.033 C 
ATOM     29  C   UNL     1     188.559 198.856 191.647  1.00  0.00     0.118 C 
BRANCH  29  30
ATOM     30  O   UNL     1     189.002 200.091 192.151  1.00  0.00    -0.393 OA
ATOM     31  H   UNL     1     189.485 199.914 193.001  1.00  0.00     0.210 HD
ENDBRANCH  29  30
ENDBRANCH   1  11
TORSDOF 6
ENDMDL
MODEL 5
REMARK VINA RESULT:    -7.174      4.410      6.419
REMARK INTER + INTRA:         -10.504
REMARK INTER:                  -9.213
REMARK INTRA:                  -1.291
REMARK UNBOUND:                -1.023
REMARK SMILES CC[C@H](C=C[C@H](C)[C@H]1CC[C@@H]2[C@H]3CC=C4C[C@H](O)CC[C@@]4(C)[C@H]3CC[C@@]21C)C(C)C
REMARK SMILES IDX 6 1 7 2 5 3 4 4 3 5 2 6 1 7 28 8 29 9 30 10 8 11 9 12 26 13
REMARK SMILES IDX 10 14 11 15 25 16 27 17 12 18 24 19 23 20 13 21 21 22 14 23
REMARK SMILES IDX 15 24 20 25 22 26 16 27 19 28 17 29 18 30
REMARK H PARENT 18 31
REMARK Flexibility Score: inf
ROOT
ATOM      1  C   UNL     1     186.489 195.164 193.228  1.00  0.00     0.012 C 
ATOM      2  C   UNL     1     186.126 194.602 194.618  1.00  0.00     0.012 C 
ENDROOT
BRANCH   1   3
ATOM      3  C   UNL     1     186.985 196.594 193.312  1.00  0.00    -0.028 C 
ATOM      4  C   UNL     1     188.207 196.944 192.874  1.00  0.00    -0.027 C 
BRANCH   4   5
ATOM      5  C   UNL     1     188.676 198.387 192.895  1.00  0.00     0.014 C 
BRANCH   5   6
ATOM      6  C   UNL     1     190.168 198.533 193.320  1.00  0.00     0.004 C 
ATOM      7  C   UNL     1     190.850 199.858 192.958  1.00  0.00     0.004 C 
ENDBRANCH   5   6
BRANCH   5   8
ATOM      8  C   UNL     1     188.287 199.105 191.566  1.00  0.00    -0.011 C 
ATOM      9  C   UNL     1     186.957 199.868 191.636  1.00  0.00     0.008 C 
ATOM     10  C   UNL     1     188.289 198.147 190.363  1.00  0.00     0.008 C 
ENDBRANCH   5   8
ENDBRANCH   4   5
ENDBRANCH   1   3
BRANCH   1  11
ATOM     11  C   UNL     1     187.398 194.201 192.375  1.00  0.00     0.002 C 
ATOM     12  C   UNL     1     187.391 192.782 192.974  1.00  0.00     0.005 C 
ATOM     13  C   UNL     1     187.153 193.998 190.829  1.00  0.00    -0.026 C 
ATOM     14  C   UNL     1     186.714 191.851 191.973  1.00  0.00     0.005 C 
ATOM     15  C   UNL     1     186.328 192.678 190.738  1.00  0.00    -0.001 C 
ATOM     16  C   UNL     1     188.543 193.829 190.140  1.00  0.00     0.007 C 
ATOM     17  C   UNL     1     186.425 195.196 190.175  1.00  0.00     0.012 C 
ATOM     18  C   UNL     1     186.444 191.834 189.425  1.00  0.00     0.000 C 
ATOM     19  C   UNL     1     188.491 193.159 188.762  1.00  0.00     0.005 C 
ATOM     20  C   UNL     1     187.888 191.741 188.871  1.00  0.00     0.003 C 
ATOM     21  C   UNL     1     185.454 192.315 188.348  1.00  0.00     0.031 C 
ATOM     22  C   UNL     1     187.960 190.841 187.563  1.00  0.00    -0.008 C 
ATOM     23  C   UNL     1     185.604 191.591 187.046  1.00  0.00    -0.027 C 
ATOM     24  C   UNL     1     186.764 191.049 186.625  1.00  0.00    -0.065 C 
ATOM     25  C   UNL     1     189.270 191.107 186.753  1.00  0.00     0.014 C 
ATOM     26  C   UNL     1     187.953 189.352 188.018  1.00  0.00     0.016 C 
ATOM     27  C   UNL     1     186.802 190.411 185.247  1.00  0.00     0.063 C 
ATOM     28  C   UNL     1     189.339 190.352 185.416  1.00  0.00     0.033 C 
ATOM     29  C   UNL     1     188.130 190.705 184.533  1.00  0.00     0.118 C 
BRANCH  29  30
ATOM     30  O   UNL     1     188.195 190.023 183.306  1.00  0.00    -0.393 OA
ATOM     31  H   UNL     1     187.506 189.308 183.322  1.00  0.00     0.210 HD
ENDBRANCH  29  30
ENDBRANCH   1  11
TORSDOF 6
ENDMDL
MODEL 6
REMARK VINA RESULT:    -7.171      3.862      8.653
REMARK INTER + INTRA:         -10.500
REMARK INTER:                  -9.341
REMARK INTRA:                  -1.159
REMARK UNBOUND:                -1.023
REMARK SMILES CC[C@H](C=C[C@H](C)[C@H]1CC[C@@H]2[C@H]3CC=C4C[C@H](O)CC[C@@]4(C)[C@H]3CC[C@@]21C)C(C)C
REMARK SMILES IDX 6 1 7 2 5 3 4 4 3 5 2 6 1 7 28 8 29 9 30 10 8 11 9 12 26 13
REMARK SMILES IDX 10 14 11 15 25 16 27 17 12 18 24 19 23 20 13 21 21 22 14 23
REMARK SMILES IDX 15 24 20 25 22 26 16 27 19 28 17 29 18 30
REMARK H PARENT 18 31
REMARK Flexibility Score: inf
ROOT
ATOM      1  C   UNL     1     187.003 189.487 187.575  1.00  0.00     0.012 C 
ATOM      2  C   UNL     1     188.246 188.680 187.148  1.00  0.00     0.012 C 
ENDROOT
BRANCH   1   3
ATOM      3  C   UNL     1     186.268 188.822 188.723  1.00  0.00    -0.028 C 
ATOM      4  C   UNL     1     184.928 188.872 188.825  1.00  0.00    -0.027 C 
BRANCH   4   5
ATOM      5  C   UNL     1     184.188 188.148 189.936  1.00  0.00     0.014 C 
BRANCH   5   6
ATOM      6  C   UNL     1     183.805 189.087 191.120  1.00  0.00     0.004 C 
ATOM      7  C   UNL     1     184.948 189.498 192.056  1.00  0.00     0.004 C 
ENDBRANCH   5   6
BRANCH   5   8
ATOM      8  C   UNL     1     183.018 187.302 189.348  1.00  0.00    -0.011 C 
ATOM      9  C   UNL     1     182.871 185.914 189.985  1.00  0.00     0.008 C 
ATOM     10  C   UNL     1     183.097 187.180 187.817  1.00  0.00     0.008 C 
ENDBRANCH   5   8
ENDBRANCH   4   5
ENDBRANCH   1   3
BRANCH   1  11
ATOM     11  C   UNL     1     187.285 191.024 187.777  1.00  0.00     0.002 C 
ATOM     12  C   UNL     1     186.091 191.860 187.280  1.00  0.00     0.005 C 
ATOM     13  C   UNL     1     187.640 191.612 189.197  1.00  0.00    -0.026 C 
ATOM     14  C   UNL     1     185.467 192.555 188.486  1.00  0.00     0.005 C 
ATOM     15  C   UNL     1     186.288 192.180 189.729  1.00  0.00    -0.001 C 
ATOM     16  C   UNL     1     188.679 192.759 188.997  1.00  0.00     0.007 C 
ATOM     17  C   UNL     1     188.252 190.557 190.148  1.00  0.00     0.012 C 
ATOM     18  C   UNL     1     186.346 193.362 190.754  1.00  0.00     0.000 C 
ATOM     19  C   UNL     1     188.774 193.742 190.169  1.00  0.00     0.005 C 
ATOM     20  C   UNL     1     187.414 194.431 190.411  1.00  0.00     0.003 C 
ATOM     21  C   UNL     1     186.495 192.855 192.201  1.00  0.00     0.031 C 
ATOM     22  C   UNL     1     187.405 195.628 191.456  1.00  0.00    -0.008 C 
ATOM     23  C   UNL     1     186.649 193.962 193.198  1.00  0.00    -0.027 C 
ATOM     24  C   UNL     1     187.187 195.161 192.902  1.00  0.00    -0.065 C 
ATOM     25  C   UNL     1     188.733 196.450 191.402  1.00  0.00     0.014 C 
ATOM     26  C   UNL     1     186.224 196.570 191.079  1.00  0.00     0.016 C 
ATOM     27  C   UNL     1     187.359 196.170 194.024  1.00  0.00     0.063 C 
ATOM     28  C   UNL     1     188.831 197.548 192.473  1.00  0.00     0.033 C 
ATOM     29  C   UNL     1     188.678 196.944 193.880  1.00  0.00     0.118 C 
BRANCH  29  30
ATOM     30  O   UNL     1     188.776 197.945 194.862  1.00  0.00    -0.393 OA
ATOM     31  H   UNL     1     188.872 197.496 195.742  1.00  0.00     0.210 HD
ENDBRANCH  29  30
ENDBRANCH   1  11
TORSDOF 6
ENDMDL
MODEL 7
REMARK VINA RESULT:    -6.978      3.249      9.493
REMARK INTER + INTRA:         -10.245
REMARK INTER:                  -9.273
REMARK INTRA:                  -0.972
REMARK UNBOUND:                -1.023
REMARK SMILES CC[C@H](C=C[C@H](C)[C@H]1CC[C@@H]2[C@H]3CC=C4C[C@H](O)CC[C@@]4(C)[C@H]3CC[C@@]21C)C(C)C
REMARK SMILES IDX 6 1 7 2 5 3 4 4 3 5 2 6 1 7 28 8 29 9 30 10 8 11 9 12 26 13
REMARK SMILES IDX 10 14 11 15 25 16 27 17 12 18 24 19 23 20 13 21 21 22 14 23
REMARK SMILES IDX 15 24 20 25 22 26 16 27 19 28 17 29 18 30
REMARK H PARENT 18 31
REMARK Flexibility Score: inf
ROOT
ATOM      1  C   UNL     1     184.991 187.037 190.670  1.00  0.00     0.012 C 
ATOM      2  C   UNL     1     185.430 186.735 189.223  1.00  0.00     0.012 C 
ENDROOT
BRANCH   1   3
ATOM      3  C   UNL     1     184.963 185.784 191.523  1.00  0.00    -0.028 C 
ATOM      4  C   UNL     1     185.991 184.917 191.537  1.00  0.00    -0.027 C 
BRANCH   4   5
ATOM      5  C   UNL     1     185.991 183.699 192.442  1.00  0.00     0.014 C 
BRANCH   5   6
ATOM      6  C   UNL     1     185.406 182.430 191.751  1.00  0.00     0.004 C 
ATOM      7  C   UNL     1     185.422 181.139 192.578  1.00  0.00     0.004 C 
ENDBRANCH   5   6
BRANCH   5   8
ATOM      8  C   UNL     1     187.391 183.514 193.104  1.00  0.00    -0.011 C 
ATOM      9  C   UNL     1     187.453 183.966 194.569  1.00  0.00     0.008 C 
ATOM     10  C   UNL     1     188.513 184.182 192.292  1.00  0.00     0.008 C 
ENDBRANCH   5   8
ENDBRANCH   4   5
ENDBRANCH   1   3
BRANCH   1  11
ATOM     11  C   UNL     1     185.748 188.258 191.319  1.00  0.00     0.002 C 
ATOM     12  C   UNL     1     187.258 188.170 191.030  1.00  0.00     0.005 C 
ATOM     13  C   UNL     1     185.348 189.745 190.977  1.00  0.00    -0.026 C 
ATOM     14  C   UNL     1     187.636 189.342 190.131  1.00  0.00     0.005 C 
ATOM     15  C   UNL     1     186.373 190.180 189.885  1.00  0.00    -0.001 C 
ATOM     16  C   UNL     1     185.524 190.600 192.270  1.00  0.00     0.007 C 
ATOM     17  C   UNL     1     183.883 189.878 190.498  1.00  0.00     0.012 C 
ATOM     18  C   UNL     1     186.711 191.704 189.767  1.00  0.00     0.000 C 
ATOM     19  C   UNL     1     185.648 192.108 192.023  1.00  0.00     0.005 C 
ATOM     20  C   UNL     1     186.874 192.412 191.135  1.00  0.00     0.003 C 
ATOM     21  C   UNL     1     185.707 192.443 188.862  1.00  0.00     0.031 C 
ATOM     22  C   UNL     1     187.257 193.946 190.962  1.00  0.00    -0.008 C 
ATOM     23  C   UNL     1     185.946 193.920 188.804  1.00  0.00    -0.027 C 
ATOM     24  C   UNL     1     186.514 194.623 189.803  1.00  0.00    -0.065 C 
ATOM     25  C   UNL     1     186.976 194.759 192.267  1.00  0.00     0.014 C 
ATOM     26  C   UNL     1     188.781 194.015 190.654  1.00  0.00     0.016 C 
ATOM     27  C   UNL     1     186.626 196.130 189.650  1.00  0.00     0.063 C 
ATOM     28  C   UNL     1     187.216 196.271 192.121  1.00  0.00     0.033 C 
ATOM     29  C   UNL     1     186.356 196.846 190.982  1.00  0.00     0.118 C 
BRANCH  29  30
ATOM     30  O   UNL     1     186.566 198.230 190.853  1.00  0.00    -0.393 OA
ATOM     31  H   UNL     1     187.528 198.406 191.027  1.00  0.00     0.210 HD
ENDBRANCH  29  30
ENDBRANCH   1  11
TORSDOF 6
ENDMDL
MODEL 8
REMARK VINA RESULT:    -6.954      3.062      5.991
REMARK INTER + INTRA:         -10.213
REMARK INTER:                  -9.181
REMARK INTRA:                  -1.033
REMARK UNBOUND:                -1.023
REMARK SMILES CC[C@H](C=C[C@H](C)[C@H]1CC[C@@H]2[C@H]3CC=C4C[C@H](O)CC[C@@]4(C)[C@H]3CC[C@@]21C)C(C)C
REMARK SMILES IDX 6 1 7 2 5 3 4 4 3 5 2 6 1 7 28 8 29 9 30 10 8 11 9 12 26 13
REMARK SMILES IDX 10 14 11 15 25 16 27 17 12 18 24 19 23 20 13 21 21 22 14 23
REMARK SMILES IDX 15 24 20 25 22 26 16 27 19 28 17 29 18 30
REMARK H PARENT 18 31
REMARK Flexibility Score: inf
ROOT
ATOM      1  C   UNL     1     188.243 197.113 192.373  1.00  0.00     0.012 C 
ATOM      2  C   UNL     1     188.653 197.867 191.091  1.00  0.00     0.012 C 
ENDROOT
BRANCH   1   3
ATOM      3  C   UNL     1     187.999 198.063 193.530  1.00  0.00    -0.028 C 
ATOM      4  C   UNL     1     187.154 197.754 194.529  1.00  0.00    -0.027 C 
BRANCH   4   5
ATOM      5  C   UNL     1     186.962 198.675 195.721  1.00  0.00     0.014 C 
BRANCH   5   6
ATOM      6  C   UNL     1     187.763 200.006 195.594  1.00  0.00     0.004 C 
ATOM      7  C   UNL     1     189.022 200.125 196.460  1.00  0.00     0.004 C 
ENDBRANCH   5   6
BRANCH   5   8
ATOM      8  C   UNL     1     185.445 198.836 196.045  1.00  0.00    -0.011 C 
ATOM      9  C   UNL     1     185.106 200.111 196.828  1.00  0.00     0.008 C 
ATOM     10  C   UNL     1     184.866 197.602 196.758  1.00  0.00     0.008 C 
ENDBRANCH   5   8
ENDBRANCH   4   5
ENDBRANCH   1   3
BRANCH   1  11
ATOM     11  C   UNL     1     187.105 196.049 192.144  1.00  0.00     0.002 C 
ATOM     12  C   UNL     1     186.060 196.583 191.146  1.00  0.00     0.005 C 
ATOM     13  C   UNL     1     187.437 194.587 191.650  1.00  0.00    -0.026 C 
ATOM     14  C   UNL     1     186.123 195.721 189.890  1.00  0.00     0.005 C 
ATOM     15  C   UNL     1     187.180 194.630 190.113  1.00  0.00    -0.001 C 
ATOM     16  C   UNL     1     186.445 193.606 192.348  1.00  0.00     0.007 C 
ATOM     17  C   UNL     1     188.881 194.151 191.996  1.00  0.00     0.012 C 
ATOM     18  C   UNL     1     186.783 193.293 189.401  1.00  0.00     0.000 C 
ATOM     19  C   UNL     1     186.296 192.249 191.650  1.00  0.00     0.005 C 
ATOM     20  C   UNL     1     185.776 192.436 190.208  1.00  0.00     0.003 C 
ATOM     21  C   UNL     1     188.022 192.476 188.990  1.00  0.00     0.031 C 
ATOM     22  C   UNL     1     185.372 191.112 189.426  1.00  0.00    -0.008 C 
ATOM     23  C   UNL     1     187.676 191.147 188.392  1.00  0.00    -0.027 C 
ATOM     24  C   UNL     1     186.554 190.465 188.692  1.00  0.00    -0.065 C 
ATOM     25  C   UNL     1     184.748 190.046 190.384  1.00  0.00     0.014 C 
ATOM     26  C   UNL     1     184.308 191.504 188.360  1.00  0.00     0.016 C 
ATOM     27  C   UNL     1     186.361 189.090 188.076  1.00  0.00     0.063 C 
ATOM     28  C   UNL     1     184.448 188.700 189.706  1.00  0.00     0.033 C 
ATOM     29  C   UNL     1     185.725 188.115 189.078  1.00  0.00     0.118 C 
BRANCH  29  30
ATOM     30  O   UNL     1     185.454 186.880 188.465  1.00  0.00    -0.393 OA
ATOM     31  H   UNL     1     185.764 186.163 189.080  1.00  0.00     0.210 HD
ENDBRANCH  29  30
ENDBRANCH   1  11
TORSDOF 6
ENDMDL
MODEL 9
REMARK VINA RESULT:    -6.849      3.810      6.872
REMARK INTER + INTRA:         -10.074
REMARK INTER:                  -8.791
REMARK INTRA:                  -1.283
REMARK UNBOUND:                -1.023
REMARK SMILES CC[C@H](C=C[C@H](C)[C@H]1CC[C@@H]2[C@H]3CC=C4C[C@H](O)CC[C@@]4(C)[C@H]3CC[C@@]21C)C(C)C
REMARK SMILES IDX 6 1 7 2 5 3 4 4 3 5 2 6 1 7 28 8 29 9 30 10 8 11 9 12 26 13
REMARK SMILES IDX 10 14 11 15 25 16 27 17 12 18 24 19 23 20 13 21 21 22 14 23
REMARK SMILES IDX 15 24 20 25 22 26 16 27 19 28 17 29 18 30
REMARK H PARENT 18 31
REMARK Flexibility Score: inf
ROOT
ATOM      1  C   UNL     1     188.592 198.395 191.788  1.00  0.00     0.012 C 
ATOM      2  C   UNL     1     187.479 199.462 191.786  1.00  0.00     0.012 C 
ENDROOT
BRANCH   1   3
ATOM      3  C   UNL     1     188.803 197.805 193.169  1.00  0.00    -0.028 C 
ATOM      4  C   UNL     1     187.887 197.946 194.143  1.00  0.00    -0.027 C 
BRANCH   4   5
ATOM      5  C   UNL     1     188.067 197.298 195.504  1.00  0.00     0.014 C 
BRANCH   5   6
ATOM      6  C   UNL     1     188.038 198.327 196.674  1.00  0.00     0.004 C 
ATOM      7  C   UNL     1     187.529 199.731 196.329  1.00  0.00     0.004 C 
ENDBRANCH   5   6
BRANCH   5   8
ATOM      8  C   UNL     1     187.103 196.081 195.659  1.00  0.00    -0.011 C 
ATOM      9  C   UNL     1     187.576 194.815 194.932  1.00  0.00     0.008 C 
ATOM     10  C   UNL     1     185.661 196.424 195.250  1.00  0.00     0.008 C 
ENDBRANCH   5   8
ENDBRANCH   4   5
ENDBRANCH   1   3
BRANCH   1  11
ATOM     11  C   UNL     1     188.453 197.333 190.633  1.00  0.00     0.002 C 
ATOM     12  C   UNL     1     189.788 196.597 190.415  1.00  0.00     0.005 C 
ATOM     13  C   UNL     1     187.360 196.196 190.693  1.00  0.00    -0.026 C 
ATOM     14  C   UNL     1     189.590 195.135 190.801  1.00  0.00     0.005 C 
ATOM     15  C   UNL     1     188.127 194.949 191.229  1.00  0.00    -0.001 C 
ATOM     16  C   UNL     1     186.847 195.946 189.241  1.00  0.00     0.007 C 
ATOM     17  C   UNL     1     186.150 196.573 191.581  1.00  0.00     0.012 C 
ATOM     18  C   UNL     1     187.588 193.534 190.830  1.00  0.00     0.000 C 
ATOM     19  C   UNL     1     186.160 194.591 189.033  1.00  0.00     0.005 C 
ATOM     20  C   UNL     1     187.135 193.436 189.352  1.00  0.00     0.003 C 
ATOM     21  C   UNL     1     186.490 193.049 191.794  1.00  0.00     0.031 C 
ATOM     22  C   UNL     1     186.637 191.971 188.985  1.00  0.00    -0.008 C 
ATOM     23  C   UNL     1     185.887 191.740 191.386  1.00  0.00    -0.027 C 
ATOM     24  C   UNL     1     185.824 191.315 190.109  1.00  0.00    -0.065 C 
ATOM     25  C   UNL     1     185.769 191.967 187.686  1.00  0.00     0.014 C 
ATOM     26  C   UNL     1     187.900 191.096 188.739  1.00  0.00     0.016 C 
ATOM     27  C   UNL     1     185.114 190.003 189.821  1.00  0.00     0.063 C 
ATOM     28  C   UNL     1     185.160 190.597 187.348  1.00  0.00     0.033 C 
ATOM     29  C   UNL     1     184.304 190.083 188.518  1.00  0.00     0.118 C 
BRANCH  29  30
ATOM     30  O   UNL     1     183.739 188.834 188.208  1.00  0.00    -0.393 OA
ATOM     31  H   UNL     1     183.264 188.508 189.017  1.00  0.00     0.210 HD
ENDBRANCH  29  30
ENDBRANCH   1  11
TORSDOF 6
ENDMDL
