MODEL 1
REMARK VINA RESULT:    -4.742      0.000      0.000
REMARK INTER + INTRA:         -11.707
REMARK INTER:                  -9.178
REMARK INTRA:                  -2.529
REMARK UNBOUND:                -2.529
REMARK SMILES CCCCCCCCCCCCCCCCCC(=O)[O-]
REMARK SMILES IDX 10 1 11 2 12 3 13 4 14 5 15 6 16 7 17 8 18 9 19 10 20 11
REMARK SMILES IDX 9 12 8 13 7 14 6 15 5 16 4 17 3 18 2 19 1 20
REMARK H PARENT
REMARK Flexibility Score: inf
ROOT
ATOM      1  C   UNL     1     162.560 166.358 156.757  1.00  0.00     0.000 C 
ENDROOT
BRANCH   1   2
ATOM      2  C   UNL     1     163.433 166.972 157.871  1.00  0.00     0.000 C 
BRANCH   2   3
ATOM      3  C   UNL     1     163.323 166.234 159.217  1.00  0.00     0.000 C 
BRANCH   3   4
ATOM      4  C   UNL     1     163.215 167.188 160.414  1.00  0.00     0.000 C 
BRANCH   4   5
ATOM      5  C   UNL     1     162.047 168.169 160.230  1.00  0.00     0.000 C 
BRANCH   5   6
ATOM      6  C   UNL     1     160.688 167.561 160.618  1.00  0.00     0.000 C 
BRANCH   6   7
ATOM      7  C   UNL     1     160.521 167.229 162.115  1.00  0.00     0.006 C 
BRANCH   7   8
ATOM      8  C   UNL     1     159.865 165.861 162.383  1.00  0.00     0.053 C 
BRANCH   8   9
ATOM      9  C   UNL     1     160.863 164.816 162.780  1.00  0.00     0.041 C 
ATOM     10  O   UNL     1     160.874 164.363 163.955  1.00  0.00    -0.550 OA
ATOM     11  O   UNL     1     161.755 164.312 161.843  1.00  0.00    -0.550 OA
ENDBRANCH   8   9
ENDBRANCH   7   8
ENDBRANCH   6   7
ENDBRANCH   5   6
ENDBRANCH   4   5
ENDBRANCH   3   4
ENDBRANCH   2   3
ENDBRANCH   1   2
BRANCH   1  12
ATOM     12  C   UNL     1     161.103 166.152 157.207  1.00  0.00     0.000 C 
BRANCH  12  13
ATOM     13  C   UNL     1     160.766 164.677 157.472  1.00  0.00    -0.000 C 
BRANCH  13  14
ATOM     14  C   UNL     1     159.983 164.473 158.777  1.00  0.00    -0.000 C 
BRANCH  14  15
ATOM     15  C   UNL     1     160.035 163.004 159.223  1.00  0.00    -0.000 C 
BRANCH  15  16
ATOM     16  C   UNL     1     161.028 162.167 158.399  1.00  0.00    -0.000 C 
BRANCH  16  17
ATOM     17  C   UNL     1     162.242 161.707 159.227  1.00  0.00    -0.000 C 
BRANCH  17  18
ATOM     18  C   UNL     1     163.531 161.637 158.393  1.00  0.00    -0.000 C 
BRANCH  18  19
ATOM     19  C   UNL     1     164.021 163.019 157.938  1.00  0.00    -0.003 C 
ATOM     20  C   UNL     1     165.533 163.145 158.092  1.00  0.00     0.004 C 
ENDBRANCH  18  19
ENDBRANCH  17  18
ENDBRANCH  16  17
ENDBRANCH  15  16
ENDBRANCH  14  15
ENDBRANCH  13  14
ENDBRANCH  12  13
ENDBRANCH   1  12
TORSDOF 16
ENDMDL
MODEL 2
REMARK VINA RESULT:    -4.731      2.256      5.460
REMARK INTER + INTRA:         -11.685
REMARK INTER:                  -9.773
REMARK INTRA:                  -1.912
REMARK UNBOUND:                -2.529
REMARK SMILES CCCCCCCCCCCCCCCCCC(=O)[O-]
REMARK SMILES IDX 10 1 11 2 12 3 13 4 14 5 15 6 16 7 17 8 18 9 19 10 20 11
REMARK SMILES IDX 9 12 8 13 7 14 6 15 5 16 4 17 3 18 2 19 1 20
REMARK H PARENT
REMARK Flexibility Score: inf
ROOT
ATOM      1  C   UNL     1     160.532 167.294 160.100  1.00  0.00     0.000 C 
ENDROOT
BRANCH   1   2
ATOM      2  C   UNL     1     160.172 166.509 161.379  1.00  0.00     0.000 C 
BRANCH   2   3
ATOM      3  C   UNL     1     160.188 164.982 161.191  1.00  0.00     0.000 C 
BRANCH   3   4
ATOM      4  C   UNL     1     159.077 164.484 160.257  1.00  0.00     0.000 C 
BRANCH   4   5
ATOM      5  C   UNL     1     159.660 163.987 158.926  1.00  0.00     0.000 C 
BRANCH   5   6
ATOM      6  C   UNL     1     159.908 162.470 158.909  1.00  0.00     0.000 C 
BRANCH   6   7
ATOM      7  C   UNL     1     161.369 162.040 159.156  1.00  0.00     0.006 C 
BRANCH   7   8
ATOM      8  C   UNL     1     162.402 162.831 158.332  1.00  0.00     0.053 C 
BRANCH   8   9
ATOM      9  C   UNL     1     163.719 162.123 158.234  1.00  0.00     0.041 C 
ATOM     10  O   UNL     1     164.775 162.774 158.017  1.00  0.00    -0.550 OA
ATOM     11  O   UNL     1     163.788 160.749 158.423  1.00  0.00    -0.550 OA
ENDBRANCH   8   9
ENDBRANCH   7   8
ENDBRANCH   6   7
ENDBRANCH   5   6
ENDBRANCH   4   5
ENDBRANCH   3   4
ENDBRANCH   2   3
ENDBRANCH   1   2
BRANCH   1  12
ATOM     12  C   UNL     1     161.866 168.049 160.238  1.00  0.00     0.000 C 
BRANCH  12  13
ATOM     13  C   UNL     1     163.086 167.121 160.135  1.00  0.00    -0.000 C 
BRANCH  13  14
ATOM     14  C   UNL     1     162.912 166.028 159.070  1.00  0.00    -0.000 C 
BRANCH  14  15
ATOM     15  C   UNL     1     163.508 166.473 157.726  1.00  0.00    -0.000 C 
BRANCH  15  16
ATOM     16  C   UNL     1     162.461 167.098 156.789  1.00  0.00    -0.000 C 
BRANCH  16  17
ATOM     17  C   UNL     1     161.340 166.113 156.415  1.00  0.00    -0.000 C 
BRANCH  17  18
ATOM     18  C   UNL     1     160.528 166.578 155.195  1.00  0.00    -0.000 C 
BRANCH  18  19
ATOM     19  C   UNL     1     161.385 166.713 153.929  1.00  0.00    -0.003 C 
ATOM     20  C   UNL     1     160.604 167.391 152.807  1.00  0.00     0.004 C 
ENDBRANCH  18  19
ENDBRANCH  17  18
ENDBRANCH  16  17
ENDBRANCH  15  16
ENDBRANCH  14  15
ENDBRANCH  13  14
ENDBRANCH  12  13
ENDBRANCH   1  12
TORSDOF 16
ENDMDL
MODEL 3
REMARK VINA RESULT:    -4.727      3.790      6.191
REMARK INTER + INTRA:         -11.678
REMARK INTER:                  -9.506
REMARK INTRA:                  -2.172
REMARK UNBOUND:                -2.529
REMARK SMILES CCCCCCCCCCCCCCCCCC(=O)[O-]
REMARK SMILES IDX 10 1 11 2 12 3 13 4 14 5 15 6 16 7 17 8 18 9 19 10 20 11
REMARK SMILES IDX 9 12 8 13 7 14 6 15 5 16 4 17 3 18 2 19 1 20
REMARK H PARENT
REMARK Flexibility Score: inf
ROOT
ATOM      1  C   UNL     1     162.388 163.055 158.943  1.00  0.00     0.000 C 
ENDROOT
BRANCH   1   2
ATOM      2  C   UNL     1     162.684 164.205 157.958  1.00  0.00     0.000 C 
BRANCH   2   3
ATOM      3  C   UNL     1     163.043 165.532 158.649  1.00  0.00     0.000 C 
BRANCH   3   4
ATOM      4  C   UNL     1     162.646 166.762 157.821  1.00  0.00     0.000 C 
BRANCH   4   5
ATOM      5  C   UNL     1     161.427 166.460 156.938  1.00  0.00     0.000 C 
BRANCH   5   6
ATOM      6  C   UNL     1     161.654 166.820 155.460  1.00  0.00     0.000 C 
BRANCH   6   7
ATOM      7  C   UNL     1     160.493 166.459 154.510  1.00  0.00     0.006 C 
BRANCH   7   8
ATOM      8  C   UNL     1     160.635 167.051 153.095  1.00  0.00     0.053 C 
BRANCH   8   9
ATOM      9  C   UNL     1     161.916 166.647 152.432  1.00  0.00     0.041 C 
ATOM     10  O   UNL     1     161.954 165.627 151.692  1.00  0.00    -0.550 OA
ATOM     11  O   UNL     1     163.060 167.416 152.595  1.00  0.00    -0.550 OA
ENDBRANCH   8   9
ENDBRANCH   7   8
ENDBRANCH   6   7
ENDBRANCH   5   6
ENDBRANCH   4   5
ENDBRANCH   3   4
ENDBRANCH   2   3
ENDBRANCH   1   2
BRANCH   1  12
ATOM     12  C   UNL     1     161.033 162.383 158.662  1.00  0.00     0.000 C 
BRANCH  12  13
ATOM     13  C   UNL     1     159.950 163.386 158.236  1.00  0.00    -0.000 C 
BRANCH  13  14
ATOM     14  C   UNL     1     158.666 163.263 159.069  1.00  0.00    -0.000 C 
BRANCH  14  15
ATOM     15  C   UNL     1     158.663 164.275 160.224  1.00  0.00    -0.000 C 
BRANCH  15  16
ATOM     16  C   UNL     1     159.403 165.578 159.875  1.00  0.00    -0.000 C 
BRANCH  16  17
ATOM     17  C   UNL     1     160.304 166.070 161.021  1.00  0.00    -0.000 C 
BRANCH  17  18
ATOM     18  C   UNL     1     160.234 165.160 162.259  1.00  0.00    -0.000 C 
BRANCH  18  19
ATOM     19  C   UNL     1     161.458 164.242 162.391  1.00  0.00    -0.003 C 
ATOM     20  C   UNL     1     161.691 163.845 163.846  1.00  0.00     0.004 C 
ENDBRANCH  18  19
ENDBRANCH  17  18
ENDBRANCH  16  17
ENDBRANCH  15  16
ENDBRANCH  14  15
ENDBRANCH  13  14
ENDBRANCH  12  13
ENDBRANCH   1  12
TORSDOF 16
ENDMDL
MODEL 4
REMARK VINA RESULT:    -4.597      3.136      5.435
REMARK INTER + INTRA:         -11.426
REMARK INTER:                  -9.616
REMARK INTRA:                  -1.811
REMARK UNBOUND:                -2.529
REMARK SMILES CCCCCCCCCCCCCCCCCC(=O)[O-]
REMARK SMILES IDX 10 1 11 2 12 3 13 4 14 5 15 6 16 7 17 8 18 9 19 10 20 11
REMARK SMILES IDX 9 12 8 13 7 14 6 15 5 16 4 17 3 18 2 19 1 20
REMARK H PARENT
REMARK Flexibility Score: inf
ROOT
ATOM      1  C   UNL     1     162.986 161.677 158.621  1.00  0.00     0.000 C 
ENDROOT
BRANCH   1   2
ATOM      2  C   UNL     1     164.059 162.706 158.207  1.00  0.00     0.000 C 
BRANCH   2   3
ATOM      3  C   UNL     1     163.482 164.082 157.832  1.00  0.00     0.000 C 
BRANCH   3   4
ATOM      4  C   UNL     1     164.315 165.248 158.378  1.00  0.00     0.000 C 
BRANCH   4   5
ATOM      5  C   UNL     1     163.424 166.268 159.103  1.00  0.00     0.000 C 
BRANCH   5   6
ATOM      6  C   UNL     1     162.801 167.302 158.150  1.00  0.00     0.000 C 
BRANCH   6   7
ATOM      7  C   UNL     1     162.806 166.909 156.659  1.00  0.00     0.006 C 
BRANCH   7   8
ATOM      8  C   UNL     1     161.445 166.409 156.139  1.00  0.00     0.053 C 
BRANCH   8   9
ATOM      9  C   UNL     1     161.171 166.853 154.734  1.00  0.00     0.041 C 
ATOM     10  O   UNL     1     162.111 166.937 153.900  1.00  0.00    -0.550 OA
ATOM     11  O   UNL     1     159.872 167.137 154.333  1.00  0.00    -0.550 OA
ENDBRANCH   8   9
ENDBRANCH   7   8
ENDBRANCH   6   7
ENDBRANCH   5   6
ENDBRANCH   4   5
ENDBRANCH   3   4
ENDBRANCH   2   3
ENDBRANCH   1   2
BRANCH   1  12
ATOM     12  C   UNL     1     161.867 162.313 159.464  1.00  0.00     0.000 C 
BRANCH  12  13
ATOM     13  C   UNL     1     160.464 162.004 158.918  1.00  0.00    -0.000 C 
BRANCH  13  14
ATOM     14  C   UNL     1     159.479 163.163 159.126  1.00  0.00    -0.000 C 
BRANCH  14  15
ATOM     15  C   UNL     1     160.122 164.505 158.746  1.00  0.00    -0.000 C 
BRANCH  15  16
ATOM     16  C   UNL     1     159.916 165.589 159.818  1.00  0.00    -0.000 C 
BRANCH  16  17
ATOM     17  C   UNL     1     159.201 165.051 161.070  1.00  0.00    -0.000 C 
BRANCH  17  18
ATOM     18  C   UNL     1     160.033 165.236 162.350  1.00  0.00    -0.000 C 
BRANCH  18  19
ATOM     19  C   UNL     1     161.315 164.391 162.352  1.00  0.00    -0.003 C 
ATOM     20  C   UNL     1     161.661 163.922 163.762  1.00  0.00     0.004 C 
ENDBRANCH  18  19
ENDBRANCH  17  18
ENDBRANCH  16  17
ENDBRANCH  15  16
ENDBRANCH  14  15
ENDBRANCH  13  14
ENDBRANCH  12  13
ENDBRANCH   1  12
TORSDOF 16
ENDMDL
MODEL 5
REMARK VINA RESULT:    -4.496      3.431      5.109
REMARK INTER + INTRA:         -11.230
REMARK INTER:                  -9.247
REMARK INTRA:                  -1.983
REMARK UNBOUND:                -2.529
REMARK SMILES CCCCCCCCCCCCCCCCCC(=O)[O-]
REMARK SMILES IDX 10 1 11 2 12 3 13 4 14 5 15 6 16 7 17 8 18 9 19 10 20 11
REMARK SMILES IDX 9 12 8 13 7 14 6 15 5 16 4 17 3 18 2 19 1 20
REMARK H PARENT
REMARK Flexibility Score: inf
ROOT
ATOM      1  C   UNL     1     160.405 167.089 159.972  1.00  0.00     0.000 C 
ENDROOT
BRANCH   1   2
ATOM      2  C   UNL     1     161.925 167.332 159.881  1.00  0.00     0.000 C 
BRANCH   2   3
ATOM      3  C   UNL     1     162.766 166.060 160.085  1.00  0.00     0.000 C 
BRANCH   3   4
ATOM      4  C   UNL     1     163.922 165.941 159.083  1.00  0.00     0.000 C 
BRANCH   4   5
ATOM      5  C   UNL     1     163.610 166.709 157.790  1.00  0.00     0.000 C 
BRANCH   5   6
ATOM      6  C   UNL     1     162.563 166.003 156.912  1.00  0.00     0.000 C 
BRANCH   6   7
ATOM      7  C   UNL     1     162.068 166.815 155.698  1.00  0.00     0.006 C 
BRANCH   7   8
ATOM      8  C   UNL     1     160.637 166.463 155.250  1.00  0.00     0.053 C 
BRANCH   8   9
ATOM      9  C   UNL     1     160.396 166.779 153.806  1.00  0.00     0.041 C 
ATOM     10  O   UNL     1     159.544 167.647 153.480  1.00  0.00    -0.550 OA
ATOM     11  O   UNL     1     161.140 166.145 152.819  1.00  0.00    -0.550 OA
ENDBRANCH   8   9
ENDBRANCH   7   8
ENDBRANCH   6   7
ENDBRANCH   5   6
ENDBRANCH   4   5
ENDBRANCH   3   4
ENDBRANCH   2   3
ENDBRANCH   1   2
BRANCH   1  12
ATOM     12  C   UNL     1     159.952 166.771 161.408  1.00  0.00     0.000 C 
BRANCH  12  13
ATOM     13  C   UNL     1     158.968 165.594 161.473  1.00  0.00    -0.000 C 
BRANCH  13  14
ATOM     14  C   UNL     1     159.400 164.409 160.596  1.00  0.00    -0.000 C 
BRANCH  14  15
ATOM     15  C   UNL     1     158.243 163.937 159.703  1.00  0.00    -0.000 C 
BRANCH  15  16
ATOM     16  C   UNL     1     158.680 162.885 158.670  1.00  0.00    -0.000 C 
BRANCH  16  17
ATOM     17  C   UNL     1     160.026 163.231 158.008  1.00  0.00    -0.000 C 
BRANCH  17  18
ATOM     18  C   UNL     1     161.083 162.134 158.213  1.00  0.00    -0.000 C 
BRANCH  18  19
ATOM     19  C   UNL     1     162.303 162.625 159.006  1.00  0.00    -0.003 C 
ATOM     20  C   UNL     1     163.601 162.296 158.274  1.00  0.00     0.004 C 
ENDBRANCH  18  19
ENDBRANCH  17  18
ENDBRANCH  16  17
ENDBRANCH  15  16
ENDBRANCH  14  15
ENDBRANCH  13  14
ENDBRANCH  12  13
ENDBRANCH   1  12
TORSDOF 16
ENDMDL
MODEL 6
REMARK VINA RESULT:    -4.290      3.915      6.067
REMARK INTER + INTRA:         -10.832
REMARK INTER:                  -9.271
REMARK INTRA:                  -1.560
REMARK UNBOUND:                -2.529
REMARK SMILES CCCCCCCCCCCCCCCCCC(=O)[O-]
REMARK SMILES IDX 10 1 11 2 12 3 13 4 14 5 15 6 16 7 17 8 18 9 19 10 20 11
REMARK SMILES IDX 9 12 8 13 7 14 6 15 5 16 4 17 3 18 2 19 1 20
REMARK H PARENT
REMARK Flexibility Score: inf
ROOT
ATOM      1  C   UNL     1     162.894 165.368 159.468  1.00  0.00     0.000 C 
ENDROOT
BRANCH   1   2
ATOM      2  C   UNL     1     163.774 166.045 158.398  1.00  0.00     0.000 C 
BRANCH   2   3
ATOM      3  C   UNL     1     163.051 167.156 157.617  1.00  0.00     0.000 C 
BRANCH   3   4
ATOM      4  C   UNL     1     161.797 166.653 156.887  1.00  0.00     0.000 C 
BRANCH   4   5
ATOM      5  C   UNL     1     161.961 166.777 155.365  1.00  0.00     0.000 C 
BRANCH   5   6
ATOM      6  C   UNL     1     160.667 166.462 154.596  1.00  0.00     0.000 C 
BRANCH   6   7
ATOM      7  C   UNL     1     160.635 166.956 153.135  1.00  0.00     0.006 C 
BRANCH   7   8
ATOM      8  C   UNL     1     162.019 167.317 152.565  1.00  0.00     0.053 C 
BRANCH   8   9
ATOM      9  C   UNL     1     162.655 166.170 151.839  1.00  0.00     0.041 C 
ATOM     10  O   UNL     1     163.892 166.176 151.602  1.00  0.00    -0.550 OA
ATOM     11  O   UNL     1     161.890 165.075 151.459  1.00  0.00    -0.550 OA
ENDBRANCH   8   9
ENDBRANCH   7   8
ENDBRANCH   6   7
ENDBRANCH   5   6
ENDBRANCH   4   5
ENDBRANCH   3   4
ENDBRANCH   2   3
ENDBRANCH   1   2
BRANCH   1  12
ATOM     12  C   UNL     1     162.247 166.389 160.420  1.00  0.00     0.000 C 
BRANCH  12  13
ATOM     13  C   UNL     1     160.741 166.153 160.611  1.00  0.00    -0.000 C 
BRANCH  13  14
ATOM     14  C   UNL     1     160.408 164.690 160.940  1.00  0.00    -0.000 C 
BRANCH  14  15
ATOM     15  C   UNL     1     159.046 164.293 160.351  1.00  0.00    -0.000 C 
BRANCH  15  16
ATOM     16  C   UNL     1     159.152 163.764 158.911  1.00  0.00    -0.000 C 
BRANCH  16  17
ATOM     17  C   UNL     1     159.850 162.394 158.836  1.00  0.00    -0.000 C 
BRANCH  17  18
ATOM     18  C   UNL     1     161.283 162.491 158.286  1.00  0.00    -0.000 C 
BRANCH  18  19
ATOM     19  C   UNL     1     162.290 161.670 159.105  1.00  0.00    -0.003 C 
ATOM     20  C   UNL     1     163.645 161.609 158.406  1.00  0.00     0.004 C 
ENDBRANCH  18  19
ENDBRANCH  17  18
ENDBRANCH  16  17
ENDBRANCH  15  16
ENDBRANCH  14  15
ENDBRANCH  13  14
ENDBRANCH  12  13
ENDBRANCH   1  12
TORSDOF 16
ENDMDL
MODEL 7
REMARK VINA RESULT:    -4.278      4.138      6.747
REMARK INTER + INTRA:         -10.809
REMARK INTER:                  -8.712
REMARK INTRA:                  -2.097
REMARK UNBOUND:                -2.529
REMARK SMILES CCCCCCCCCCCCCCCCCC(=O)[O-]
REMARK SMILES IDX 10 1 11 2 12 3 13 4 14 5 15 6 16 7 17 8 18 9 19 10 20 11
REMARK SMILES IDX 9 12 8 13 7 14 6 15 5 16 4 17 3 18 2 19 1 20
REMARK H PARENT
REMARK Flexibility Score: inf
ROOT
ATOM      1  C   UNL     1     163.456 165.761 158.572  1.00  0.00     0.000 C 
ENDROOT
BRANCH   1   2
ATOM      2  C   UNL     1     162.300 166.615 158.014  1.00  0.00     0.000 C 
BRANCH   2   3
ATOM      3  C   UNL     1     162.238 166.642 156.477  1.00  0.00     0.000 C 
BRANCH   3   4
ATOM      4  C   UNL     1     160.894 166.148 155.924  1.00  0.00     0.000 C 
BRANCH   4   5
ATOM      5  C   UNL     1     160.543 166.866 154.612  1.00  0.00     0.000 C 
BRANCH   5   6
ATOM      6  C   UNL     1     161.452 166.453 153.442  1.00  0.00     0.000 C 
BRANCH   6   7
ATOM      7  C   UNL     1     162.326 167.582 152.860  1.00  0.00     0.006 C 
BRANCH   7   8
ATOM      8  C   UNL     1     163.794 167.541 153.325  1.00  0.00     0.053 C 
BRANCH   8   9
ATOM      9  C   UNL     1     164.745 167.285 152.195  1.00  0.00     0.041 C 
ATOM     10  O   UNL     1     165.389 168.237 151.679  1.00  0.00    -0.550 OA
ATOM     11  O   UNL     1     164.951 165.990 151.737  1.00  0.00    -0.550 OA
ENDBRANCH   8   9
ENDBRANCH   7   8
ENDBRANCH   6   7
ENDBRANCH   5   6
ENDBRANCH   4   5
ENDBRANCH   3   4
ENDBRANCH   2   3
ENDBRANCH   1   2
BRANCH   1  12
ATOM     12  C   UNL     1     163.505 164.362 157.933  1.00  0.00     0.000 C 
BRANCH  12  13
ATOM     13  C   UNL     1     162.756 163.306 158.760  1.00  0.00    -0.000 C 
BRANCH  13  14
ATOM     14  C   UNL     1     161.549 162.716 158.016  1.00  0.00    -0.000 C 
BRANCH  14  15
ATOM     15  C   UNL     1     160.292 162.752 158.897  1.00  0.00    -0.000 C 
BRANCH  15  16
ATOM     16  C   UNL     1     159.728 164.173 159.072  1.00  0.00    -0.000 C 
BRANCH  16  17
ATOM     17  C   UNL     1     159.007 164.360 160.418  1.00  0.00    -0.000 C 
BRANCH  17  18
ATOM     18  C   UNL     1     159.402 165.668 161.122  1.00  0.00    -0.000 C 
BRANCH  18  19
ATOM     19  C   UNL     1     160.910 165.764 161.395  1.00  0.00    -0.003 C 
ATOM     20  C   UNL     1     161.361 164.678 162.368  1.00  0.00     0.004 C 
ENDBRANCH  18  19
ENDBRANCH  17  18
ENDBRANCH  16  17
ENDBRANCH  15  16
ENDBRANCH  14  15
ENDBRANCH  13  14
ENDBRANCH  12  13
ENDBRANCH   1  12
TORSDOF 16
ENDMDL
MODEL 8
REMARK VINA RESULT:    -4.233      2.409      4.990
REMARK INTER + INTRA:         -10.721
REMARK INTER:                  -9.097
REMARK INTRA:                  -1.624
REMARK UNBOUND:                -2.529
REMARK SMILES CCCCCCCCCCCCCCCCCC(=O)[O-]
REMARK SMILES IDX 10 1 11 2 12 3 13 4 14 5 15 6 16 7 17 8 18 9 19 10 20 11
REMARK SMILES IDX 9 12 8 13 7 14 6 15 5 16 4 17 3 18 2 19 1 20
REMARK H PARENT
REMARK Flexibility Score: inf
ROOT
ATOM      1  C   UNL     1     163.274 164.381 158.224  1.00  0.00     0.000 C 
ENDROOT
BRANCH   1   2
ATOM      2  C   UNL     1     162.647 163.180 158.961  1.00  0.00     0.000 C 
BRANCH   2   3
ATOM      3  C   UNL     1     161.752 162.306 158.065  1.00  0.00     0.000 C 
BRANCH   3   4
ATOM      4  C   UNL     1     160.346 162.100 158.645  1.00  0.00     0.000 C 
BRANCH   4   5
ATOM      5  C   UNL     1     159.399 163.225 158.201  1.00  0.00     0.000 C 
BRANCH   5   6
ATOM      6  C   UNL     1     158.163 163.360 159.107  1.00  0.00     0.000 C 
BRANCH   6   7
ATOM      7  C   UNL     1     158.356 164.249 160.353  1.00  0.00     0.006 C 
BRANCH   7   8
ATOM      8  C   UNL     1     159.599 165.157 160.288  1.00  0.00     0.053 C 
BRANCH   8   9
ATOM      9  C   UNL     1     160.265 165.310 161.621  1.00  0.00     0.041 C 
ATOM     10  O   UNL     1     161.311 164.659 161.886  1.00  0.00    -0.550 OA
ATOM     11  O   UNL     1     159.757 166.201 162.557  1.00  0.00    -0.550 OA
ENDBRANCH   8   9
ENDBRANCH   7   8
ENDBRANCH   6   7
ENDBRANCH   5   6
ENDBRANCH   4   5
ENDBRANCH   3   4
ENDBRANCH   2   3
ENDBRANCH   1   2
BRANCH   1  12
ATOM     12  C   UNL     1     162.822 165.727 158.818  1.00  0.00     0.000 C 
BRANCH  12  13
ATOM     13  C   UNL     1     162.433 166.750 157.741  1.00  0.00    -0.000 C 
BRANCH  13  14
ATOM     14  C   UNL     1     161.252 166.282 156.878  1.00  0.00    -0.000 C 
BRANCH  14  15
ATOM     15  C   UNL     1     161.543 166.501 155.386  1.00  0.00    -0.000 C 
BRANCH  15  16
ATOM     16  C   UNL     1     160.265 166.573 154.534  1.00  0.00    -0.000 C 
BRANCH  16  17
ATOM     17  C   UNL     1     160.536 167.072 153.104  1.00  0.00    -0.000 C 
BRANCH  17  18
ATOM     18  C   UNL     1     161.966 166.761 152.632  1.00  0.00    -0.000 C 
BRANCH  18  19
ATOM     19  C   UNL     1     162.871 168.001 152.625  1.00  0.00    -0.003 C 
ATOM     20  C   UNL     1     164.339 167.610 152.773  1.00  0.00     0.004 C 
ENDBRANCH  18  19
ENDBRANCH  17  18
ENDBRANCH  16  17
ENDBRANCH  15  16
ENDBRANCH  14  15
ENDBRANCH  13  14
ENDBRANCH  12  13
ENDBRANCH   1  12
TORSDOF 16
ENDMDL
MODEL 9
REMARK VINA RESULT:    -4.194      4.073      6.666
REMARK INTER + INTRA:         -10.646
REMARK INTER:                  -8.421
REMARK INTRA:                  -2.225
REMARK UNBOUND:                -2.529
REMARK SMILES CCCCCCCCCCCCCCCCCC(=O)[O-]
REMARK SMILES IDX 10 1 11 2 12 3 13 4 14 5 15 6 16 7 17 8 18 9 19 10 20 11
REMARK SMILES IDX 9 12 8 13 7 14 6 15 5 16 4 17 3 18 2 19 1 20
REMARK H PARENT
REMARK Flexibility Score: inf
ROOT
ATOM      1  C   UNL     1     163.478 167.094 157.598  1.00  0.00     0.000 C 
ENDROOT
BRANCH   1   2
ATOM      2  C   UNL     1     162.727 166.422 156.430  1.00  0.00     0.000 C 
BRANCH   2   3
ATOM      3  C   UNL     1     161.200 166.604 156.494  1.00  0.00     0.000 C 
BRANCH   3   4
ATOM      4  C   UNL     1     160.479 166.029 155.267  1.00  0.00     0.000 C 
BRANCH   4   5
ATOM      5  C   UNL     1     160.462 167.044 154.114  1.00  0.00     0.000 C 
BRANCH   5   6
ATOM      6  C   UNL     1     161.413 166.663 152.967  1.00  0.00     0.000 C 
BRANCH   6   7
ATOM      7  C   UNL     1     162.467 167.729 152.606  1.00  0.00     0.006 C 
BRANCH   7   8
ATOM      8  C   UNL     1     163.888 167.399 153.101  1.00  0.00     0.053 C 
BRANCH   8   9
ATOM      9  C   UNL     1     164.816 168.572 152.999  1.00  0.00     0.041 C 
ATOM     10  O   UNL     1     164.530 169.544 152.251  1.00  0.00    -0.550 OA
ATOM     11  O   UNL     1     165.976 168.611 153.761  1.00  0.00    -0.550 OA
ENDBRANCH   8   9
ENDBRANCH   7   8
ENDBRANCH   6   7
ENDBRANCH   5   6
ENDBRANCH   4   5
ENDBRANCH   3   4
ENDBRANCH   2   3
ENDBRANCH   1   2
BRANCH   1  12
ATOM     12  C   UNL     1     163.624 166.156 158.810  1.00  0.00     0.000 C 
BRANCH  12  13
ATOM     13  C   UNL     1     163.188 166.816 160.126  1.00  0.00    -0.000 C 
BRANCH  13  14
ATOM     14  C   UNL     1     161.806 167.478 160.028  1.00  0.00    -0.000 C 
BRANCH  14  15
ATOM     15  C   UNL     1     160.749 166.653 160.776  1.00  0.00    -0.000 C 
BRANCH  15  16
ATOM     16  C   UNL     1     161.343 165.416 161.471  1.00  0.00    -0.000 C 
BRANCH  16  17
ATOM     17  C   UNL     1     160.954 164.102 160.771  1.00  0.00    -0.000 C 
BRANCH  17  18
ATOM     18  C   UNL     1     160.092 164.334 159.519  1.00  0.00    -0.000 C 
BRANCH  18  19
ATOM     19  C   UNL     1     160.655 163.635 158.273  1.00  0.00    -0.003 C 
ATOM     20  C   UNL     1     161.940 162.880 158.600  1.00  0.00     0.004 C 
ENDBRANCH  18  19
ENDBRANCH  17  18
ENDBRANCH  16  17
ENDBRANCH  15  16
ENDBRANCH  14  15
ENDBRANCH  13  14
ENDBRANCH  12  13
ENDBRANCH   1  12
TORSDOF 16
ENDMDL
