MODEL 1
REMARK VINA RESULT:    -6.131      0.000      0.000
REMARK INTER + INTRA:          -7.833
REMARK INTER:                  -7.386
REMARK INTRA:                  -0.447
REMARK UNBOUND:                -0.447
REMARK SMILES O=c1c(O)c(-c2ccc(O)cc2O)oc2cc(O)cc(O)c12
REMARK SMILES IDX 5 1 3 2 2 3 1 4 22 5 20 6 19 7 17 8 16 9 15 10 14 11 6 12
REMARK SMILES IDX 8 13 7 14 9 15 11 16 12 17 10 18 13 20 4 22 21 24 18 26
REMARK H PARENT 10 19 13 21 4 23 21 25 18 27
REMARK Flexibility Score: inf
ROOT
ATOM      1  C   UNL     1      88.776  47.208  32.477  1.00  0.00     0.184 A 
ATOM      2  C   UNL     1      90.139  46.958  32.708  1.00  0.00     0.208 A 
ATOM      3  C   UNL     1      90.754  45.879  32.054  1.00  0.00     0.238 A 
ATOM      4  O   UNL     1      91.987  45.696  32.222  1.00  0.00    -0.285 OA
ATOM      5  C   UNL     1      89.994  45.051  31.194  1.00  0.00     0.111 A 
ATOM      6  C   UNL     1      90.504  43.907  30.510  1.00  0.00     0.134 A 
ATOM      7  C   UNL     1      89.694  43.237  29.585  1.00  0.00     0.093 A 
ATOM      8  C   UNL     1      88.373  43.632  29.366  1.00  0.00     0.123 A 
ATOM      9  C   UNL     1      87.846  44.711  30.072  1.00  0.00     0.094 A 
ATOM     10  C   UNL     1      88.640  45.422  30.975  1.00  0.00     0.146 A 
ATOM     11  O   UNL     1      88.103  46.451  31.618  1.00  0.00    -0.451 OA
ENDROOT
BRANCH   1  12
ATOM     12  C   UNL     1      88.058  48.314  33.154  1.00  0.00     0.063 A 
ATOM     13  C   UNL     1      87.144  49.309  35.178  1.00  0.00     0.047 A 
ATOM     14  C   UNL     1      87.843  48.281  34.544  1.00  0.00     0.020 A 
ATOM     15  C   UNL     1      86.638  50.379  34.435  1.00  0.00     0.119 A 
ATOM     16  C   UNL     1      86.834  50.416  33.049  1.00  0.00     0.093 A 
ATOM     17  C   UNL     1      87.538  49.388  32.404  1.00  0.00     0.130 A 
BRANCH  15  18
ATOM     18  O   UNL     1      85.942  51.398  35.082  1.00  0.00    -0.508 OA
ATOM     19  H   UNL     1      84.938  51.495  34.988  1.00  0.00     0.293 HD
ENDBRANCH  15  18
BRANCH  17  20
ATOM     20  O   UNL     1      87.732  49.441  31.023  1.00  0.00    -0.507 OA
ATOM     21  H   UNL     1      88.250  48.723  30.530  1.00  0.00     0.293 HD
ENDBRANCH  17  20
ENDBRANCH   1  12
BRANCH   2  22
ATOM     22  O   UNL     1      90.871  47.797  33.553  1.00  0.00    -0.502 OA
ATOM     23  H   UNL     1      91.849  47.637  33.764  1.00  0.00     0.293 HD
ENDBRANCH   2  22
BRANCH   6  24
ATOM     24  O   UNL     1      91.780  43.375  30.723  1.00  0.00    -0.507 OA
ATOM     25  H   UNL     1      92.528  43.387  30.047  1.00  0.00     0.293 HD
ENDBRANCH   6  24
BRANCH   8  26
ATOM     26  O   UNL     1      87.568  42.950  28.454  1.00  0.00    -0.508 OA
ATOM     27  H   UNL     1      86.657  42.592  28.717  1.00  0.00     0.293 HD
ENDBRANCH   8  26
TORSDOF 6
ENDMDL
MODEL 2
REMARK VINA RESULT:    -6.075      2.024      2.763
REMARK INTER + INTRA:          -7.766
REMARK INTER:                  -7.474
REMARK INTRA:                  -0.291
REMARK UNBOUND:                -0.447
REMARK SMILES O=c1c(O)c(-c2ccc(O)cc2O)oc2cc(O)cc(O)c12
REMARK SMILES IDX 5 1 3 2 2 3 1 4 22 5 20 6 19 7 17 8 16 9 15 10 14 11 6 12
REMARK SMILES IDX 8 13 7 14 9 15 11 16 12 17 10 18 13 20 4 22 21 24 18 26
REMARK H PARENT 10 19 13 21 4 23 21 25 18 27
REMARK Flexibility Score: inf
ROOT
ATOM      1  C   UNL     1      88.604  46.878  32.707  1.00  0.00     0.184 A 
ATOM      2  C   UNL     1      88.904  45.515  32.870  1.00  0.00     0.208 A 
ATOM      3  C   UNL     1      88.976  44.693  31.734  1.00  0.00     0.238 A 
ATOM      4  O   UNL     1      89.301  43.487  31.882  1.00  0.00    -0.285 OA
ATOM      5  C   UNL     1      88.727  45.240  30.452  1.00  0.00     0.111 A 
ATOM      6  C   UNL     1      88.733  44.493  29.237  1.00  0.00     0.134 A 
ATOM      7  C   UNL     1      88.600  45.162  28.014  1.00  0.00     0.093 A 
ATOM      8  C   UNL     1      88.395  46.542  27.967  1.00  0.00     0.123 A 
ATOM      9  C   UNL     1      88.328  47.273  29.150  1.00  0.00     0.094 A 
ATOM     10  C   UNL     1      88.494  46.640  30.384  1.00  0.00     0.146 A 
ATOM     11  O   UNL     1      88.435  47.375  31.488  1.00  0.00    -0.451 OA
ENDROOT
BRANCH   1  12
ATOM     12  C   UNL     1      88.488  47.796  33.865  1.00  0.00     0.063 A 
ATOM     13  C   UNL     1      87.144  49.263  35.267  1.00  0.00     0.047 A 
ATOM     14  C   UNL     1      87.249  48.377  34.193  1.00  0.00     0.020 A 
ATOM     15  C   UNL     1      88.273  49.593  36.020  1.00  0.00     0.119 A 
ATOM     16  C   UNL     1      89.514  49.032  35.694  1.00  0.00     0.093 A 
ATOM     17  C   UNL     1      89.628  48.138  34.619  1.00  0.00     0.130 A 
BRANCH  15  18
ATOM     18  O   UNL     1      88.152  50.479  37.089  1.00  0.00    -0.508 OA
ATOM     19  H   UNL     1      88.962  50.938  37.490  1.00  0.00     0.293 HD
ENDBRANCH  15  18
BRANCH  17  20
ATOM     20  O   UNL     1      90.869  47.581  34.309  1.00  0.00    -0.507 OA
ATOM     21  H   UNL     1      91.654  47.640  34.949  1.00  0.00     0.293 HD
ENDBRANCH  17  20
ENDBRANCH   1  12
BRANCH   2  22
ATOM     22  O   UNL     1      89.159  45.001  34.145  1.00  0.00    -0.502 OA
ATOM     23  H   UNL     1      89.016  45.543  34.988  1.00  0.00     0.293 HD
ENDBRANCH   2  22
BRANCH   6  24
ATOM     24  O   UNL     1      88.840  43.100  29.178  1.00  0.00    -0.507 OA
ATOM     25  H   UNL     1      88.141  42.455  29.513  1.00  0.00     0.293 HD
ENDBRANCH   6  24
BRANCH   8  26
ATOM     26  O   UNL     1      88.247  47.198  26.746  1.00  0.00    -0.508 OA
ATOM     27  H   UNL     1      87.356  47.587  26.458  1.00  0.00     0.293 HD
ENDBRANCH   8  26
TORSDOF 6
ENDMDL
MODEL 3
REMARK VINA RESULT:    -6.053      9.741     11.334
REMARK INTER + INTRA:          -7.738
REMARK INTER:                  -7.357
REMARK INTRA:                  -0.382
REMARK UNBOUND:                -0.447
REMARK SMILES O=c1c(O)c(-c2ccc(O)cc2O)oc2cc(O)cc(O)c12
REMARK SMILES IDX 5 1 3 2 2 3 1 4 22 5 20 6 19 7 17 8 16 9 15 10 14 11 6 12
REMARK SMILES IDX 8 13 7 14 9 15 11 16 12 17 10 18 13 20 4 22 21 24 18 26
REMARK H PARENT 10 19 13 21 4 23 21 25 18 27
REMARK Flexibility Score: inf
ROOT
ATOM      1  C   UNL     1      83.423  49.648  40.537  1.00  0.00     0.184 A 
ATOM      2  C   UNL     1      82.502  48.909  41.296  1.00  0.00     0.208 A 
ATOM      3  C   UNL     1      81.309  48.481  40.692  1.00  0.00     0.238 A 
ATOM      4  O   UNL     1      80.515  47.771  41.361  1.00  0.00    -0.285 OA
ATOM      5  C   UNL     1      81.044  48.816  39.343  1.00  0.00     0.111 A 
ATOM      6  C   UNL     1      79.850  48.470  38.641  1.00  0.00     0.134 A 
ATOM      7  C   UNL     1      79.750  48.744  37.271  1.00  0.00     0.093 A 
ATOM      8  C   UNL     1      80.774  49.408  36.593  1.00  0.00     0.123 A 
ATOM      9  C   UNL     1      81.918  49.803  37.282  1.00  0.00     0.094 A 
ATOM     10  C   UNL     1      82.063  49.512  38.640  1.00  0.00     0.146 A 
ATOM     11  O   UNL     1      83.175  49.896  39.256  1.00  0.00    -0.451 OA
ENDROOT
BRANCH   1  12
ATOM     12  C   UNL     1      84.690  50.152  41.118  1.00  0.00     0.063 A 
ATOM     13  C   UNL     1      87.069  49.874  41.553  1.00  0.00     0.047 A 
ATOM     14  C   UNL     1      85.880  49.414  40.982  1.00  0.00     0.020 A 
ATOM     15  C   UNL     1      87.086  51.069  42.276  1.00  0.00     0.119 A 
ATOM     16  C   UNL     1      85.905  51.805  42.429  1.00  0.00     0.093 A 
ATOM     17  C   UNL     1      84.707  51.352  41.857  1.00  0.00     0.130 A 
BRANCH  15  18
ATOM     18  O   UNL     1      88.280  51.515  42.839  1.00  0.00    -0.508 OA
ATOM     19  H   UNL     1      88.486  51.376  43.822  1.00  0.00     0.293 HD
ENDBRANCH  15  18
BRANCH  17  20
ATOM     20  O   UNL     1      83.539  52.099  42.012  1.00  0.00    -0.507 OA
ATOM     21  H   UNL     1      82.888  52.235  41.246  1.00  0.00     0.293 HD
ENDBRANCH  17  20
ENDBRANCH   1  12
BRANCH   2  22
ATOM     22  O   UNL     1      82.792  48.579  42.624  1.00  0.00    -0.502 OA
ATOM     23  H   UNL     1      83.102  47.655  42.899  1.00  0.00     0.293 HD
ENDBRANCH   2  22
BRANCH   6  24
ATOM     24  O   UNL     1      78.732  47.886  39.244  1.00  0.00    -0.507 OA
ATOM     25  H   UNL     1      77.775  48.091  39.002  1.00  0.00     0.293 HD
ENDBRANCH   6  24
BRANCH   8  26
ATOM     26  O   UNL     1      80.660  49.690  35.233  1.00  0.00    -0.508 OA
ATOM     27  H   UNL     1      79.766  49.649  34.757  1.00  0.00     0.293 HD
ENDBRANCH   8  26
TORSDOF 6
ENDMDL
MODEL 4
REMARK VINA RESULT:    -5.905      8.990     10.631
REMARK INTER + INTRA:          -7.560
REMARK INTER:                  -7.149
REMARK INTRA:                  -0.411
REMARK UNBOUND:                -0.447
REMARK SMILES O=c1c(O)c(-c2ccc(O)cc2O)oc2cc(O)cc(O)c12
REMARK SMILES IDX 5 1 3 2 2 3 1 4 22 5 20 6 19 7 17 8 16 9 15 10 14 11 6 12
REMARK SMILES IDX 8 13 7 14 9 15 11 16 12 17 10 18 13 20 4 22 21 24 18 26
REMARK H PARENT 10 19 13 21 4 23 21 25 18 27
REMARK Flexibility Score: inf
ROOT
ATOM      1  C   UNL     1      84.022  50.368  39.394  1.00  0.00     0.184 A 
ATOM      2  C   UNL     1      84.086  50.767  38.049  1.00  0.00     0.208 A 
ATOM      3  C   UNL     1      83.026  50.437  37.189  1.00  0.00     0.238 A 
ATOM      4  O   UNL     1      83.063  50.847  36.000  1.00  0.00    -0.285 OA
ATOM      5  C   UNL     1      81.926  49.694  37.681  1.00  0.00     0.111 A 
ATOM      6  C   UNL     1      80.816  49.270  36.891  1.00  0.00     0.134 A 
ATOM      7  C   UNL     1      79.724  48.650  37.510  1.00  0.00     0.093 A 
ATOM      8  C   UNL     1      79.730  48.383  38.881  1.00  0.00     0.123 A 
ATOM      9  C   UNL     1      80.834  48.740  39.651  1.00  0.00     0.094 A 
ATOM     10  C   UNL     1      81.923  49.392  39.069  1.00  0.00     0.146 A 
ATOM     11  O   UNL     1      82.950  49.725  39.841  1.00  0.00    -0.451 OA
ENDROOT
BRANCH   1  12
ATOM     12  C   UNL     1      85.117  50.661  40.349  1.00  0.00     0.063 A 
ATOM     13  C   UNL     1      87.156  49.985  41.493  1.00  0.00     0.047 A 
ATOM     14  C   UNL     1      86.139  49.721  40.574  1.00  0.00     0.020 A 
ATOM     15  C   UNL     1      87.162  51.183  42.210  1.00  0.00     0.119 A 
ATOM     16  C   UNL     1      86.142  52.121  42.006  1.00  0.00     0.093 A 
ATOM     17  C   UNL     1      85.118  51.865  41.081  1.00  0.00     0.130 A 
BRANCH  15  18
ATOM     18  O   UNL     1      88.184  51.432  43.125  1.00  0.00    -0.508 OA
ATOM     19  H   UNL     1      87.985  51.632  44.098  1.00  0.00     0.293 HD
ENDBRANCH  15  18
BRANCH  17  20
ATOM     20  O   UNL     1      84.112  52.811  40.882  1.00  0.00    -0.507 OA
ATOM     21  H   UNL     1      84.188  53.754  41.247  1.00  0.00     0.293 HD
ENDBRANCH  17  20
ENDBRANCH   1  12
BRANCH   2  22
ATOM     22  O   UNL     1      85.177  51.511  37.589  1.00  0.00    -0.502 OA
ATOM     23  H   UNL     1      85.632  52.215  38.157  1.00  0.00     0.293 HD
ENDBRANCH   2  22
BRANCH   6  24
ATOM     24  O   UNL     1      80.750  49.407  35.501  1.00  0.00    -0.507 OA
ATOM     25  H   UNL     1      80.557  50.270  35.016  1.00  0.00     0.293 HD
ENDBRANCH   6  24
BRANCH   8  26
ATOM     26  O   UNL     1      78.645  47.752  39.487  1.00  0.00    -0.508 OA
ATOM     27  H   UNL     1      77.905  48.283  39.933  1.00  0.00     0.293 HD
ENDBRANCH   8  26
TORSDOF 6
ENDMDL
MODEL 5
REMARK VINA RESULT:    -5.857      1.861      6.593
REMARK INTER + INTRA:          -7.502
REMARK INTER:                  -7.180
REMARK INTRA:                  -0.322
REMARK UNBOUND:                -0.447
REMARK SMILES O=c1c(O)c(-c2ccc(O)cc2O)oc2cc(O)cc(O)c12
REMARK SMILES IDX 5 1 3 2 2 3 1 4 22 5 20 6 19 7 17 8 16 9 15 10 14 11 6 12
REMARK SMILES IDX 8 13 7 14 9 15 11 16 12 17 10 18 13 20 4 22 21 24 18 26
REMARK H PARENT 10 19 13 21 4 23 21 25 18 27
REMARK Flexibility Score: inf
ROOT
ATOM      1  C   UNL     1      88.829  47.378  33.419  1.00  0.00     0.184 A 
ATOM      2  C   UNL     1      90.075  47.705  33.977  1.00  0.00     0.208 A 
ATOM      3  C   UNL     1      90.136  48.677  34.987  1.00  0.00     0.238 A 
ATOM      4  O   UNL     1      91.247  48.924  35.522  1.00  0.00    -0.285 OA
ATOM      5  C   UNL     1      88.951  49.326  35.411  1.00  0.00     0.111 A 
ATOM      6  C   UNL     1      88.899  50.355  36.398  1.00  0.00     0.134 A 
ATOM      7  C   UNL     1      87.657  50.836  36.831  1.00  0.00     0.093 A 
ATOM      8  C   UNL     1      86.468  50.370  36.266  1.00  0.00     0.123 A 
ATOM      9  C   UNL     1      86.510  49.408  35.260  1.00  0.00     0.094 A 
ATOM     10  C   UNL     1      87.732  48.882  34.832  1.00  0.00     0.146 A 
ATOM     11  O   UNL     1      87.727  47.959  33.879  1.00  0.00    -0.451 OA
ENDROOT
BRANCH   1  12
ATOM     12  C   UNL     1      88.696  46.378  32.333  1.00  0.00     0.063 A 
ATOM     13  C   UNL     1      89.041  44.121  31.491  1.00  0.00     0.047 A 
ATOM     14  C   UNL     1      89.140  45.056  32.522  1.00  0.00     0.020 A 
ATOM     15  C   UNL     1      88.508  44.491  30.253  1.00  0.00     0.119 A 
ATOM     16  C   UNL     1      88.075  45.807  30.049  1.00  0.00     0.093 A 
ATOM     17  C   UNL     1      88.169  46.753  31.081  1.00  0.00     0.130 A 
BRANCH  15  18
ATOM     18  O   UNL     1      88.415  43.545  29.234  1.00  0.00    -0.508 OA
ATOM     19  H   UNL     1      88.058  42.613  29.408  1.00  0.00     0.293 HD
ENDBRANCH  15  18
BRANCH  17  20
ATOM     20  O   UNL     1      87.727  48.059  30.866  1.00  0.00    -0.507 OA
ATOM     21  H   UNL     1      88.218  48.691  30.244  1.00  0.00     0.293 HD
ENDBRANCH  17  20
ENDBRANCH   1  12
BRANCH   2  22
ATOM     22  O   UNL     1      91.230  47.041  33.550  1.00  0.00    -0.502 OA
ATOM     23  H   UNL     1      91.239  46.433  32.741  1.00  0.00     0.293 HD
ENDBRANCH   2  22
BRANCH   6  24
ATOM     24  O   UNL     1      90.030  50.955  36.961  1.00  0.00    -0.507 OA
ATOM     25  H   UNL     1      90.123  51.211  37.932  1.00  0.00     0.293 HD
ENDBRANCH   6  24
BRANCH   8  26
ATOM     26  O   UNL     1      85.236  50.864  36.691  1.00  0.00    -0.508 OA
ATOM     27  H   UNL     1      84.416  50.826  36.096  1.00  0.00     0.293 HD
ENDBRANCH   8  26
TORSDOF 6
ENDMDL
MODEL 6
REMARK VINA RESULT:    -5.779      1.655      7.161
REMARK INTER + INTRA:          -7.409
REMARK INTER:                  -6.940
REMARK INTRA:                  -0.469
REMARK UNBOUND:                -0.447
REMARK SMILES O=c1c(O)c(-c2ccc(O)cc2O)oc2cc(O)cc(O)c12
REMARK SMILES IDX 5 1 3 2 2 3 1 4 22 5 20 6 19 7 17 8 16 9 15 10 14 11 6 12
REMARK SMILES IDX 8 13 7 14 9 15 11 16 12 17 10 18 13 20 4 22 21 24 18 26
REMARK H PARENT 10 19 13 21 4 23 21 25 18 27
REMARK Flexibility Score: inf
ROOT
ATOM      1  C   UNL     1      88.928  47.717  32.829  1.00  0.00     0.184 A 
ATOM      2  C   UNL     1      88.123  48.549  32.034  1.00  0.00     0.208 A 
ATOM      3  C   UNL     1      87.422  49.602  32.643  1.00  0.00     0.238 A 
ATOM      4  O   UNL     1      86.747  50.377  31.917  1.00  0.00    -0.285 OA
ATOM      5  C   UNL     1      87.518  49.796  34.042  1.00  0.00     0.111 A 
ATOM      6  C   UNL     1      86.820  50.806  34.770  1.00  0.00     0.134 A 
ATOM      7  C   UNL     1      87.090  50.986  36.132  1.00  0.00     0.093 A 
ATOM      8  C   UNL     1      87.985  50.152  36.806  1.00  0.00     0.123 A 
ATOM      9  C   UNL     1      88.627  49.126  36.117  1.00  0.00     0.094 A 
ATOM     10  C   UNL     1      88.406  48.944  34.750  1.00  0.00     0.146 A 
ATOM     11  O   UNL     1      89.047  47.961  34.129  1.00  0.00    -0.451 OA
ENDROOT
BRANCH   1  12
ATOM     12  C   UNL     1      89.676  46.573  32.256  1.00  0.00     0.063 A 
ATOM     13  C   UNL     1      89.699  44.335  31.300  1.00  0.00     0.047 A 
ATOM     14  C   UNL     1      88.994  45.424  31.815  1.00  0.00     0.020 A 
ATOM     15  C   UNL     1      91.094  44.370  31.228  1.00  0.00     0.119 A 
ATOM     16  C   UNL     1      91.785  45.503  31.676  1.00  0.00     0.093 A 
ATOM     17  C   UNL     1      91.084  46.603  32.193  1.00  0.00     0.130 A 
BRANCH  15  18
ATOM     18  O   UNL     1      91.784  43.275  30.711  1.00  0.00    -0.508 OA
ATOM     19  H   UNL     1      91.996  43.202  29.722  1.00  0.00     0.293 HD
ENDBRANCH  15  18
BRANCH  17  20
ATOM     20  O   UNL     1      91.784  47.728  32.630  1.00  0.00    -0.507 OA
ATOM     21  H   UNL     1      91.497  48.666  32.374  1.00  0.00     0.293 HD
ENDBRANCH  17  20
ENDBRANCH   1  12
BRANCH   2  22
ATOM     22  O   UNL     1      88.054  48.345  30.653  1.00  0.00    -0.502 OA
ATOM     23  H   UNL     1      87.494  47.609  30.240  1.00  0.00     0.293 HD
ENDBRANCH   2  22
BRANCH   6  24
ATOM     24  O   UNL     1      85.839  51.632  34.213  1.00  0.00    -0.507 OA
ATOM     25  H   UNL     1      85.858  51.994  33.272  1.00  0.00     0.293 HD
ENDBRANCH   6  24
BRANCH   8  26
ATOM     26  O   UNL     1      88.236  50.329  38.165  1.00  0.00    -0.508 OA
ATOM     27  H   UNL     1      89.168  50.530  38.509  1.00  0.00     0.293 HD
ENDBRANCH   8  26
TORSDOF 6
ENDMDL
MODEL 7
REMARK VINA RESULT:    -5.726      1.922      3.265
REMARK INTER + INTRA:          -7.345
REMARK INTER:                  -6.957
REMARK INTRA:                  -0.388
REMARK UNBOUND:                -0.447
REMARK SMILES O=c1c(O)c(-c2ccc(O)cc2O)oc2cc(O)cc(O)c12
REMARK SMILES IDX 5 1 3 2 2 3 1 4 22 5 20 6 19 7 17 8 16 9 15 10 14 11 6 12
REMARK SMILES IDX 8 13 7 14 9 15 11 16 12 17 10 18 13 20 4 22 21 24 18 26
REMARK H PARENT 10 19 13 21 4 23 21 25 18 27
REMARK Flexibility Score: inf
ROOT
ATOM      1  C   UNL     1      89.424  47.655  33.159  1.00  0.00     0.184 A 
ATOM      2  C   UNL     1      88.292  47.470  32.348  1.00  0.00     0.208 A 
ATOM      3  C   UNL     1      88.350  46.539  31.300  1.00  0.00     0.238 A 
ATOM      4  O   UNL     1      87.315  46.337  30.613  1.00  0.00    -0.285 OA
ATOM      5  C   UNL     1      89.546  45.820  31.062  1.00  0.00     0.111 A 
ATOM      6  C   UNL     1      89.731  44.881  30.003  1.00  0.00     0.134 A 
ATOM      7  C   UNL     1      90.914  44.134  29.941  1.00  0.00     0.093 A 
ATOM      8  C   UNL     1      91.944  44.339  30.862  1.00  0.00     0.123 A 
ATOM      9  C   UNL     1      91.797  45.295  31.863  1.00  0.00     0.094 A 
ATOM     10  C   UNL     1      90.615  46.030  31.974  1.00  0.00     0.146 A 
ATOM     11  O   UNL     1      90.511  46.923  32.951  1.00  0.00    -0.451 OA
ENDROOT
BRANCH   1  12
ATOM     12  C   UNL     1      89.439  48.639  34.268  1.00  0.00     0.063 A 
ATOM     13  C   UNL     1      88.596  49.407  36.418  1.00  0.00     0.047 A 
ATOM     14  C   UNL     1      88.602  48.467  35.385  1.00  0.00     0.020 A 
ATOM     15  C   UNL     1      89.414  50.537  36.345  1.00  0.00     0.119 A 
ATOM     16  C   UNL     1      90.242  50.726  35.231  1.00  0.00     0.093 A 
ATOM     17  C   UNL     1      90.256  49.785  34.191  1.00  0.00     0.130 A 
BRANCH  15  18
ATOM     18  O   UNL     1      89.397  51.466  37.384  1.00  0.00    -0.508 OA
ATOM     19  H   UNL     1      89.209  52.447  37.213  1.00  0.00     0.293 HD
ENDBRANCH  15  18
BRANCH  17  20
ATOM     20  O   UNL     1      91.090  49.982  33.090  1.00  0.00    -0.507 OA
ATOM     21  H   UNL     1      91.940  50.530  33.157  1.00  0.00     0.293 HD
ENDBRANCH  17  20
ENDBRANCH   1  12
BRANCH   2  22
ATOM     22  O   UNL     1      87.118  48.183  32.610  1.00  0.00    -0.502 OA
ATOM     23  H   UNL     1      86.298  48.116  32.020  1.00  0.00     0.293 HD
ENDBRANCH   2  22
BRANCH   6  24
ATOM     24  O   UNL     1      88.803  44.666  28.980  1.00  0.00    -0.507 OA
ATOM     25  H   UNL     1      87.855  44.352  29.119  1.00  0.00     0.293 HD
ENDBRANCH   6  24
BRANCH   8  26
ATOM     26  O   UNL     1      93.125  43.602  30.783  1.00  0.00    -0.508 OA
ATOM     27  H   UNL     1      93.989  43.942  31.192  1.00  0.00     0.293 HD
ENDBRANCH   8  26
TORSDOF 6
ENDMDL
MODEL 8
REMARK VINA RESULT:    -5.724      3.835      7.200
REMARK INTER + INTRA:          -7.342
REMARK INTER:                  -6.958
REMARK INTRA:                  -0.384
REMARK UNBOUND:                -0.447
REMARK SMILES O=c1c(O)c(-c2ccc(O)cc2O)oc2cc(O)cc(O)c12
REMARK SMILES IDX 5 1 3 2 2 3 1 4 22 5 20 6 19 7 17 8 16 9 15 10 14 11 6 12
REMARK SMILES IDX 8 13 7 14 9 15 11 16 12 17 10 18 13 20 4 22 21 24 18 26
REMARK H PARENT 10 19 13 21 4 23 21 25 18 27
REMARK Flexibility Score: inf
ROOT
ATOM      1  C   UNL     1      87.131  50.492  37.541  1.00  0.00     0.184 A 
ATOM      2  C   UNL     1      86.191  51.157  36.736  1.00  0.00     0.208 A 
ATOM      3  C   UNL     1      86.154  50.880  35.361  1.00  0.00     0.238 A 
ATOM      4  O   UNL     1      85.273  51.437  34.656  1.00  0.00    -0.285 OA
ATOM      5  C   UNL     1      87.073  49.959  34.803  1.00  0.00     0.111 A 
ATOM      6  C   UNL     1      87.154  49.633  33.416  1.00  0.00     0.134 A 
ATOM      7  C   UNL     1      88.015  48.612  32.995  1.00  0.00     0.093 A 
ATOM      8  C   UNL     1      88.846  47.951  33.903  1.00  0.00     0.123 A 
ATOM      9  C   UNL     1      88.818  48.303  35.250  1.00  0.00     0.094 A 
ATOM     10  C   UNL     1      87.943  49.291  35.706  1.00  0.00     0.146 A 
ATOM     11  O   UNL     1      87.939  49.588  37.000  1.00  0.00    -0.451 OA
ENDROOT
BRANCH   1  12
ATOM     12  C   UNL     1      87.240  50.754  38.996  1.00  0.00     0.063 A 
ATOM     13  C   UNL     1      86.640  50.202  41.288  1.00  0.00     0.047 A 
ATOM     14  C   UNL     1      86.560  49.940  39.919  1.00  0.00     0.020 A 
ATOM     15  C   UNL     1      87.389  51.284  41.755  1.00  0.00     0.119 A 
ATOM     16  C   UNL     1      88.059  52.110  40.844  1.00  0.00     0.093 A 
ATOM     17  C   UNL     1      87.987  51.852  39.467  1.00  0.00     0.130 A 
BRANCH  15  18
ATOM     18  O   UNL     1      87.460  51.533  43.125  1.00  0.00    -0.508 OA
ATOM     19  H   UNL     1      88.331  51.794  43.571  1.00  0.00     0.293 HD
ENDBRANCH  15  18
BRANCH  17  20
ATOM     20  O   UNL     1      88.665  52.678  38.570  1.00  0.00    -0.507 OA
ATOM     21  H   UNL     1      89.344  52.308  37.914  1.00  0.00     0.293 HD
ENDBRANCH  17  20
ENDBRANCH   1  12
BRANCH   2  22
ATOM     22  O   UNL     1      85.285  52.053  37.312  1.00  0.00    -0.502 OA
ATOM     23  H   UNL     1      84.682  52.647  36.757  1.00  0.00     0.293 HD
ENDBRANCH   2  22
BRANCH   6  24
ATOM     24  O   UNL     1      86.435  50.295  32.416  1.00  0.00    -0.507 OA
ATOM     25  H   UNL     1      86.297  49.946  31.480  1.00  0.00     0.293 HD
ENDBRANCH   6  24
BRANCH   8  26
ATOM     26  O   UNL     1      89.712  46.947  33.473  1.00  0.00    -0.508 OA
ATOM     27  H   UNL     1      90.682  47.144  33.251  1.00  0.00     0.293 HD
ENDBRANCH   8  26
TORSDOF 6
ENDMDL
MODEL 9
REMARK VINA RESULT:    -5.673      1.730      6.627
REMARK INTER + INTRA:          -7.281
REMARK INTER:                  -6.878
REMARK INTRA:                  -0.403
REMARK UNBOUND:                -0.447
REMARK SMILES O=c1c(O)c(-c2ccc(O)cc2O)oc2cc(O)cc(O)c12
REMARK SMILES IDX 5 1 3 2 2 3 1 4 22 5 20 6 19 7 17 8 16 9 15 10 14 11 6 12
REMARK SMILES IDX 8 13 7 14 9 15 11 16 12 17 10 18 13 20 4 22 21 24 18 26
REMARK H PARENT 10 19 13 21 4 23 21 25 18 27
REMARK Flexibility Score: inf
ROOT
ATOM      1  C   UNL     1      88.798  45.456  31.130  1.00  0.00     0.184 A 
ATOM      2  C   UNL     1      89.048  45.047  32.450  1.00  0.00     0.208 A 
ATOM      3  C   UNL     1      88.880  45.970  33.494  1.00  0.00     0.238 A 
ATOM      4  O   UNL     1      89.051  45.581  34.678  1.00  0.00    -0.285 OA
ATOM      5  C   UNL     1      88.485  47.298  33.202  1.00  0.00     0.111 A 
ATOM      6  C   UNL     1      88.322  48.328  34.176  1.00  0.00     0.134 A 
ATOM      7  C   UNL     1      87.804  49.570  33.788  1.00  0.00     0.093 A 
ATOM      8  C   UNL     1      87.502  49.839  32.452  1.00  0.00     0.123 A 
ATOM      9  C   UNL     1      87.713  48.859  31.484  1.00  0.00     0.094 A 
ATOM     10  C   UNL     1      88.195  47.599  31.845  1.00  0.00     0.146 A 
ATOM     11  O   UNL     1      88.370  46.690  30.893  1.00  0.00    -0.451 OA
ENDROOT
BRANCH   1  12
ATOM     12  C   UNL     1      88.980  44.540  29.979  1.00  0.00     0.063 A 
ATOM     13  C   UNL     1      88.088  42.861  28.460  1.00  0.00     0.047 A 
ATOM     14  C   UNL     1      87.911  43.744  29.527  1.00  0.00     0.020 A 
ATOM     15  C   UNL     1      89.334  42.750  27.837  1.00  0.00     0.119 A 
ATOM     16  C   UNL     1      90.408  43.527  28.288  1.00  0.00     0.093 A 
ATOM     17  C   UNL     1      90.238  44.419  29.357  1.00  0.00     0.130 A 
BRANCH  15  18
ATOM     18  O   UNL     1      89.494  41.864  26.773  1.00  0.00    -0.508 OA
ATOM     19  H   UNL     1      88.777  41.189  26.534  1.00  0.00     0.293 HD
ENDBRANCH  15  18
BRANCH  17  20
ATOM     20  O   UNL     1      91.315  45.193  29.792  1.00  0.00    -0.507 OA
ATOM     21  H   UNL     1      91.775  45.014  30.678  1.00  0.00     0.293 HD
ENDBRANCH  17  20
ENDBRANCH   1  12
BRANCH   2  22
ATOM     22  O   UNL     1      89.426  43.726  32.715  1.00  0.00    -0.502 OA
ATOM     23  H   UNL     1      89.670  43.407  33.644  1.00  0.00     0.293 HD
ENDBRANCH   2  22
BRANCH   6  24
ATOM     24  O   UNL     1      88.679  48.193  35.521  1.00  0.00    -0.507 OA
ATOM     25  H   UNL     1      88.307  47.496  36.148  1.00  0.00     0.293 HD
ENDBRANCH   6  24
BRANCH   8  26
ATOM     26  O   UNL     1      87.001  51.082  32.071  1.00  0.00    -0.508 OA
ATOM     27  H   UNL     1      86.544  51.218  31.177  1.00  0.00     0.293 HD
ENDBRANCH   8  26
TORSDOF 6
ENDMDL
