MODEL 1
REMARK VINA RESULT:    -6.313      0.000      0.000
REMARK INTER + INTRA:          -7.565
REMARK INTER:                  -7.420
REMARK INTRA:                  -0.145
REMARK UNBOUND:                -0.145
REMARK SMILES O=C([O-])C=Cc1ccc(O)c(O)c1
REMARK SMILES IDX 6 1 13 2 7 3 11 4 8 5 9 6 5 7 4 8 2 9 1 10 3 11 12 12 10 14
REMARK H PARENT 12 13 10 15
REMARK Flexibility Score: inf
ROOT
ATOM      1  C   UNL     1      81.699  61.076  10.730  1.00  0.00    -0.022 A 
ATOM      2  C   UNL     1      81.197  62.393  10.775  1.00  0.00     0.058 A 
ATOM      3  C   UNL     1      80.792  60.006  10.667  1.00  0.00     0.012 A 
ATOM      4  C   UNL     1      79.815  62.629  10.733  1.00  0.00     0.157 A 
ATOM      5  C   UNL     1      79.416  60.242  10.623  1.00  0.00     0.051 A 
ATOM      6  C   UNL     1      78.924  61.552  10.653  1.00  0.00     0.157 A 
ENDROOT
BRANCH   1   7
ATOM      7  C   UNL     1      83.152  60.774  10.783  1.00  0.00     0.010 C 
ATOM      8  C   UNL     1      83.670  59.726  11.438  1.00  0.00     0.025 C 
BRANCH   8   9
ATOM      9  C   UNL     1      85.119  59.472  11.474  1.00  0.00     0.064 C 
ATOM     10  O   UNL     1      85.905  60.402  11.791  1.00  0.00    -0.545 OA
ATOM     11  O   UNL     1      85.636  58.218  11.166  1.00  0.00    -0.545 OA
ENDBRANCH   8   9
ENDBRANCH   1   7
BRANCH   4  12
ATOM     12  O   UNL     1      79.321  63.932  10.775  1.00  0.00    -0.504 OA
ATOM     13  H   UNL     1      78.458  64.187  10.307  1.00  0.00     0.293 HD
ENDBRANCH   4  12
BRANCH   6  14
ATOM     14  O   UNL     1      77.551  61.792  10.608  1.00  0.00    -0.504 OA
ATOM     15  H   UNL     1      76.986  61.799  11.449  1.00  0.00     0.293 HD
ENDBRANCH   6  14
TORSDOF 4
ENDMDL
MODEL 2
REMARK VINA RESULT:    -5.922      2.010      5.668
REMARK INTER + INTRA:          -7.106
REMARK INTER:                  -6.981
REMARK INTRA:                  -0.124
REMARK UNBOUND:                -0.145
REMARK SMILES O=C([O-])C=Cc1ccc(O)c(O)c1
REMARK SMILES IDX 6 1 13 2 7 3 11 4 8 5 9 6 5 7 4 8 2 9 1 10 3 11 12 12 10 14
REMARK H PARENT 12 13 10 15
REMARK Flexibility Score: inf
ROOT
ATOM      1  C   UNL     1      81.314  60.015  12.084  1.00  0.00    -0.022 A 
ATOM      2  C   UNL     1      81.695  61.295  11.631  1.00  0.00     0.058 A 
ATOM      3  C   UNL     1      82.305  59.038  12.271  1.00  0.00     0.012 A 
ATOM      4  C   UNL     1      83.045  61.593  11.395  1.00  0.00     0.157 A 
ATOM      5  C   UNL     1      83.650  59.336  12.038  1.00  0.00     0.051 A 
ATOM      6  C   UNL     1      84.024  60.613  11.602  1.00  0.00     0.157 A 
ENDROOT
BRANCH   1   7
ATOM      7  C   UNL     1      79.898  59.647  12.337  1.00  0.00     0.010 C 
ATOM      8  C   UNL     1      78.878  60.034  11.560  1.00  0.00     0.025 C 
BRANCH   8   9
ATOM      9  C   UNL     1      77.487  59.656  11.856  1.00  0.00     0.064 C 
ATOM     10  O   UNL     1      77.031  58.570  11.412  1.00  0.00    -0.545 OA
ATOM     11  O   UNL     1      76.667  60.476  12.623  1.00  0.00    -0.545 OA
ENDBRANCH   8   9
ENDBRANCH   1   7
BRANCH   4  12
ATOM     12  O   UNL     1      83.421  62.859  10.950  1.00  0.00    -0.504 OA
ATOM     13  H   UNL     1      84.172  62.984  10.281  1.00  0.00     0.293 HD
ENDBRANCH   4  12
BRANCH   6  14
ATOM     14  O   UNL     1      85.365  60.915  11.369  1.00  0.00    -0.504 OA
ATOM     15  H   UNL     1      85.731  61.848  11.515  1.00  0.00     0.293 HD
ENDBRANCH   6  14
TORSDOF 4
ENDMDL
MODEL 3
REMARK VINA RESULT:    -5.907      1.981      5.791
REMARK INTER + INTRA:          -7.088
REMARK INTER:                  -6.948
REMARK INTRA:                  -0.140
REMARK UNBOUND:                -0.145
REMARK SMILES O=C([O-])C=Cc1ccc(O)c(O)c1
REMARK SMILES IDX 6 1 13 2 7 3 11 4 8 5 9 6 5 7 4 8 2 9 1 10 3 11 12 12 10 14
REMARK H PARENT 12 13 10 15
REMARK Flexibility Score: inf
ROOT
ATOM      1  C   UNL     1      81.442  60.302  11.883  1.00  0.00    -0.022 A 
ATOM      2  C   UNL     1      82.621  59.528  11.863  1.00  0.00     0.058 A 
ATOM      3  C   UNL     1      81.538  61.690  11.695  1.00  0.00     0.012 A 
ATOM      4  C   UNL     1      83.866  60.134  11.636  1.00  0.00     0.157 A 
ATOM      5  C   UNL     1      82.778  62.293  11.467  1.00  0.00     0.051 A 
ATOM      6  C   UNL     1      83.943  61.518  11.434  1.00  0.00     0.157 A 
ENDROOT
BRANCH   1   7
ATOM      7  C   UNL     1      80.104  59.710  12.130  1.00  0.00     0.010 C 
ATOM      8  C   UNL     1      79.008  60.026  11.427  1.00  0.00     0.025 C 
BRANCH   8   9
ATOM      9  C   UNL     1      77.698  59.422  11.715  1.00  0.00     0.064 C 
ATOM     10  O   UNL     1      76.840  60.080  12.361  1.00  0.00    -0.545 OA
ATOM     11  O   UNL     1      77.388  58.137  11.285  1.00  0.00    -0.545 OA
ENDBRANCH   8   9
ENDBRANCH   1   7
BRANCH   4  12
ATOM     12  O   UNL     1      85.030  59.368  11.614  1.00  0.00    -0.504 OA
ATOM     13  H   UNL     1      85.409  58.956  12.458  1.00  0.00     0.293 HD
ENDBRANCH   4  12
BRANCH   6  14
ATOM     14  O   UNL     1      85.182  62.115  11.206  1.00  0.00    -0.504 OA
ATOM     15  H   UNL     1      85.539  62.844  11.812  1.00  0.00     0.293 HD
ENDBRANCH   6  14
TORSDOF 4
ENDMDL
MODEL 4
REMARK VINA RESULT:    -5.887      1.201      6.019
REMARK INTER + INTRA:          -7.065
REMARK INTER:                  -6.939
REMARK INTRA:                  -0.126
REMARK UNBOUND:                -0.145
REMARK SMILES O=C([O-])C=Cc1ccc(O)c(O)c1
REMARK SMILES IDX 6 1 13 2 7 3 11 4 8 5 9 6 5 7 4 8 2 9 1 10 3 11 12 12 10 14
REMARK H PARENT 12 13 10 15
REMARK Flexibility Score: inf
ROOT
ATOM      1  C   UNL     1      82.024  61.684  10.933  1.00  0.00    -0.022 A 
ATOM      2  C   UNL     1      82.506  60.360  10.893  1.00  0.00     0.058 A 
ATOM      3  C   UNL     1      82.915  62.721  11.259  1.00  0.00     0.012 A 
ATOM      4  C   UNL     1      83.857  60.086  11.150  1.00  0.00     0.157 A 
ATOM      5  C   UNL     1      84.262  62.447  11.512  1.00  0.00     0.051 A 
ATOM      6  C   UNL     1      84.737  61.131  11.456  1.00  0.00     0.157 A 
ENDROOT
BRANCH   1   7
ATOM      7  C   UNL     1      80.602  62.025  10.681  1.00  0.00     0.010 C 
ATOM      8  C   UNL     1      79.594  61.150  10.800  1.00  0.00     0.025 C 
BRANCH   8   9
ATOM      9  C   UNL     1      78.199  61.528  10.528  1.00  0.00     0.064 C 
ATOM     10  O   UNL     1      77.461  60.749   9.869  1.00  0.00    -0.545 OA
ATOM     11  O   UNL     1      77.679  62.733  10.988  1.00  0.00    -0.545 OA
ENDBRANCH   8   9
ENDBRANCH   1   7
BRANCH   4  12
ATOM     12  O   UNL     1      84.332  58.776  11.106  1.00  0.00    -0.504 OA
ATOM     13  H   UNL     1      83.975  58.062  11.730  1.00  0.00     0.293 HD
ENDBRANCH   4  12
BRANCH   6  14
ATOM     14  O   UNL     1      86.080  60.854  11.707  1.00  0.00    -0.504 OA
ATOM     15  H   UNL     1      86.407  59.907  11.852  1.00  0.00     0.293 HD
ENDBRANCH   6  14
TORSDOF 4
ENDMDL
MODEL 5
REMARK VINA RESULT:    -5.883      1.295      5.678
REMARK INTER + INTRA:          -7.060
REMARK INTER:                  -6.909
REMARK INTRA:                  -0.151
REMARK UNBOUND:                -0.145
REMARK SMILES O=C([O-])C=Cc1ccc(O)c(O)c1
REMARK SMILES IDX 6 1 13 2 7 3 11 4 8 5 9 6 5 7 4 8 2 9 1 10 3 11 12 12 10 14
REMARK H PARENT 12 13 10 15
REMARK Flexibility Score: inf
ROOT
ATOM      1  C   UNL     1      82.043  61.270  11.382  1.00  0.00    -0.022 A 
ATOM      2  C   UNL     1      83.042  62.262  11.472  1.00  0.00     0.058 A 
ATOM      3  C   UNL     1      82.423  59.919  11.429  1.00  0.00     0.012 A 
ATOM      4  C   UNL     1      84.388  61.904  11.629  1.00  0.00     0.157 A 
ATOM      5  C   UNL     1      83.765  59.562  11.588  1.00  0.00     0.051 A 
ATOM      6  C   UNL     1      84.749  60.552  11.690  1.00  0.00     0.157 A 
ENDROOT
BRANCH   1   7
ATOM      7  C   UNL     1      80.607  61.598  11.204  1.00  0.00     0.010 C 
ATOM      8  C   UNL     1      79.734  60.801  10.572  1.00  0.00     0.025 C 
BRANCH   8   9
ATOM      9  C   UNL     1      78.320  61.173  10.408  1.00  0.00     0.064 C 
ATOM     10  O   UNL     1      77.886  62.222  10.952  1.00  0.00    -0.545 OA
ATOM     11  O   UNL     1      77.453  60.386   9.658  1.00  0.00    -0.545 OA
ENDBRANCH   8   9
ENDBRANCH   1   7
BRANCH   4  12
ATOM     12  O   UNL     1      85.374  62.885  11.720  1.00  0.00    -0.504 OA
ATOM     13  H   UNL     1      85.672  63.256  12.615  1.00  0.00     0.293 HD
ENDBRANCH   4  12
BRANCH   6  14
ATOM     14  O   UNL     1      86.089  60.201  11.850  1.00  0.00    -0.504 OA
ATOM     15  H   UNL     1      86.361  59.277  12.165  1.00  0.00     0.293 HD
ENDBRANCH   6  14
TORSDOF 4
ENDMDL
MODEL 6
REMARK VINA RESULT:    -5.865      2.428      5.784
REMARK INTER + INTRA:          -7.039
REMARK INTER:                  -6.914
REMARK INTRA:                  -0.125
REMARK UNBOUND:                -0.145
REMARK SMILES O=C([O-])C=Cc1ccc(O)c(O)c1
REMARK SMILES IDX 6 1 13 2 7 3 11 4 8 5 9 6 5 7 4 8 2 9 1 10 3 11 12 12 10 14
REMARK H PARENT 12 13 10 15
REMARK Flexibility Score: inf
ROOT
ATOM      1  C   UNL     1      80.120  60.011  11.667  1.00  0.00    -0.022 A 
ATOM      2  C   UNL     1      80.377  60.930  10.628  1.00  0.00     0.058 A 
ATOM      3  C   UNL     1      81.204  59.461  12.371  1.00  0.00     0.012 A 
ATOM      4  C   UNL     1      81.692  61.306  10.321  1.00  0.00     0.157 A 
ATOM      5  C   UNL     1      82.514  59.838  12.065  1.00  0.00     0.051 A 
ATOM      6  C   UNL     1      82.762  60.762  11.043  1.00  0.00     0.157 A 
ENDROOT
BRANCH   1   7
ATOM      7  C   UNL     1      78.747  59.572  12.022  1.00  0.00     0.010 C 
ATOM      8  C   UNL     1      77.894  59.016  11.151  1.00  0.00     0.025 C 
BRANCH   8   9
ATOM      9  C   UNL     1      76.536  58.607  11.546  1.00  0.00     0.064 C 
ATOM     10  O   UNL     1      76.039  57.557  11.062  1.00  0.00    -0.545 OA
ATOM     11  O   UNL     1      75.793  59.360  12.448  1.00  0.00    -0.545 OA
ENDBRANCH   8   9
ENDBRANCH   1   7
BRANCH   4  12
ATOM     12  O   UNL     1      81.944  62.217   9.297  1.00  0.00    -0.504 OA
ATOM     13  H   UNL     1      81.214  62.815   8.927  1.00  0.00     0.293 HD
ENDBRANCH   4  12
BRANCH   6  14
ATOM     14  O   UNL     1      84.067  61.142  10.736  1.00  0.00    -0.504 OA
ATOM     15  H   UNL     1      84.537  61.883  11.243  1.00  0.00     0.293 HD
ENDBRANCH   6  14
TORSDOF 4
ENDMDL
MODEL 7
REMARK VINA RESULT:    -5.808      2.306      2.939
REMARK INTER + INTRA:          -6.972
REMARK INTER:                  -6.848
REMARK INTRA:                  -0.125
REMARK UNBOUND:                -0.145
REMARK SMILES O=C([O-])C=Cc1ccc(O)c(O)c1
REMARK SMILES IDX 6 1 13 2 7 3 11 4 8 5 9 6 5 7 4 8 2 9 1 10 3 11 12 12 10 14
REMARK H PARENT 12 13 10 15
REMARK Flexibility Score: inf
ROOT
ATOM      1  C   UNL     1      80.062  59.793  11.121  1.00  0.00    -0.022 A 
ATOM      2  C   UNL     1      79.638  59.651   9.783  1.00  0.00     0.058 A 
ATOM      3  C   UNL     1      79.101  59.758  12.145  1.00  0.00     0.012 A 
ATOM      4  C   UNL     1      78.282  59.454   9.484  1.00  0.00     0.157 A 
ATOM      5  C   UNL     1      77.751  59.560  11.846  1.00  0.00     0.051 A 
ATOM      6  C   UNL     1      77.338  59.405  10.517  1.00  0.00     0.157 A 
ENDROOT
BRANCH   1   7
ATOM      7  C   UNL     1      81.483  60.014  11.488  1.00  0.00     0.010 C 
ATOM      8  C   UNL     1      82.192  61.085  11.108  1.00  0.00     0.025 C 
BRANCH   8   9
ATOM      9  C   UNL     1      83.604  61.258  11.486  1.00  0.00     0.064 C 
ATOM     10  O   UNL     1      83.969  62.319  12.056  1.00  0.00    -0.545 OA
ATOM     11  O   UNL     1      84.543  60.265  11.227  1.00  0.00    -0.545 OA
ENDBRANCH   8   9
ENDBRANCH   1   7
BRANCH   4  12
ATOM     12  O   UNL     1      77.865  59.311   8.162  1.00  0.00    -0.504 OA
ATOM     13  H   UNL     1      77.921  60.078   7.502  1.00  0.00     0.293 HD
ENDBRANCH   4  12
BRANCH   6  14
ATOM     14  O   UNL     1      75.992  59.206  10.215  1.00  0.00    -0.504 OA
ATOM     15  H   UNL     1      75.700  58.814   9.328  1.00  0.00     0.293 HD
ENDBRANCH   6  14
TORSDOF 4
ENDMDL
MODEL 8
REMARK VINA RESULT:    -5.797      1.124      2.202
REMARK INTER + INTRA:          -6.959
REMARK INTER:                  -6.834
REMARK INTRA:                  -0.125
REMARK UNBOUND:                -0.145
REMARK SMILES O=C([O-])C=Cc1ccc(O)c(O)c1
REMARK SMILES IDX 6 1 13 2 7 3 11 4 8 5 9 6 5 7 4 8 2 9 1 10 3 11 12 12 10 14
REMARK H PARENT 12 13 10 15
REMARK Flexibility Score: inf
ROOT
ATOM      1  C   UNL     1      81.623  61.393  11.348  1.00  0.00    -0.022 A 
ATOM      2  C   UNL     1      80.808  60.271  11.603  1.00  0.00     0.058 A 
ATOM      3  C   UNL     1      81.034  62.553  10.816  1.00  0.00     0.012 A 
ATOM      4  C   UNL     1      79.429  60.321  11.352  1.00  0.00     0.157 A 
ATOM      5  C   UNL     1      79.660  62.602  10.568  1.00  0.00     0.051 A 
ATOM      6  C   UNL     1      78.855  61.490  10.837  1.00  0.00     0.157 A 
ENDROOT
BRANCH   1   7
ATOM      7  C   UNL     1      83.088  61.387  11.586  1.00  0.00     0.010 C 
ATOM      8  C   UNL     1      83.896  60.380  11.228  1.00  0.00     0.025 C 
BRANCH   8   9
ATOM      9  C   UNL     1      85.343  60.411  11.495  1.00  0.00     0.064 C 
ATOM     10  O   UNL     1      85.980  59.330  11.587  1.00  0.00    -0.545 OA
ATOM     11  O   UNL     1      86.019  61.616  11.645  1.00  0.00    -0.545 OA
ENDBRANCH   8   9
ENDBRANCH   1   7
BRANCH   4  12
ATOM     12  O   UNL     1      78.625  59.212  11.607  1.00  0.00    -0.504 OA
ATOM     13  H   UNL     1      78.778  58.327  11.138  1.00  0.00     0.293 HD
ENDBRANCH   4  12
BRANCH   6  14
ATOM     14  O   UNL     1      77.483  61.535  10.592  1.00  0.00    -0.504 OA
ATOM     15  H   UNL     1      77.081  61.138   9.751  1.00  0.00     0.293 HD
ENDBRANCH   6  14
TORSDOF 4
ENDMDL
MODEL 9
REMARK VINA RESULT:    -5.787      2.346      5.700
REMARK INTER + INTRA:          -6.947
REMARK INTER:                  -6.823
REMARK INTRA:                  -0.124
REMARK UNBOUND:                -0.145
REMARK SMILES O=C([O-])C=Cc1ccc(O)c(O)c1
REMARK SMILES IDX 6 1 13 2 7 3 11 4 8 5 9 6 5 7 4 8 2 9 1 10 3 11 12 12 10 14
REMARK H PARENT 12 13 10 15
REMARK Flexibility Score: inf
ROOT
ATOM      1  C   UNL     1      79.968  60.641  10.541  1.00  0.00    -0.022 A 
ATOM      2  C   UNL     1      81.242  60.041  10.470  1.00  0.00     0.058 A 
ATOM      3  C   UNL     1      79.882  62.032  10.719  1.00  0.00     0.012 A 
ATOM      4  C   UNL     1      82.402  60.824  10.551  1.00  0.00     0.157 A 
ATOM      5  C   UNL     1      81.038  62.812  10.798  1.00  0.00     0.051 A 
ATOM      6  C   UNL     1      82.300  62.212  10.712  1.00  0.00     0.157 A 
ENDROOT
BRANCH   1   7
ATOM      7  C   UNL     1      78.711  59.855  10.472  1.00  0.00     0.010 C 
ATOM      8  C   UNL     1      78.179  59.207  11.517  1.00  0.00     0.025 C 
BRANCH   8   9
ATOM      9  C   UNL     1      76.936  58.429  11.399  1.00  0.00     0.064 C 
ATOM     10  O   UNL     1      76.917  57.393  10.685  1.00  0.00    -0.545 OA
ATOM     11  O   UNL     1      75.780  58.818  12.066  1.00  0.00    -0.545 OA
ENDBRANCH   8   9
ENDBRANCH   1   7
BRANCH   4  12
ATOM     12  O   UNL     1      83.661  60.230  10.477  1.00  0.00    -0.504 OA
ATOM     13  H   UNL     1      84.482  60.678  10.867  1.00  0.00     0.293 HD
ENDBRANCH   4  12
BRANCH   6  14
ATOM     14  O   UNL     1      83.457  62.986  10.788  1.00  0.00    -0.504 OA
ATOM     15  H   UNL     1      83.486  63.843  11.328  1.00  0.00     0.293 HD
ENDBRANCH   6  14
TORSDOF 4
ENDMDL
