MODEL 1
REMARK VINA RESULT:    -4.836      0.000      0.000
REMARK INTER + INTRA:          -5.980
REMARK INTER:                  -5.684
REMARK INTRA:                  -0.295
REMARK UNBOUND:                -0.295
REMARK SMILES O=c1cc(-c2ccc(O)c(O)c2)oc2cc(O)cc(O)c12
REMARK SMILES IDX 4 1 3 2 2 3 1 4 21 5 19 6 18 7 16 8 15 9 14 10 13 11 5 12
REMARK SMILES IDX 6 13 7 14 8 15 12 16 10 17 9 18 11 20 20 22 17 24
REMARK H PARENT 9 19 11 21 20 23 17 25
REMARK Flexibility Score: inf
ROOT
ATOM      1  C   UNL     1       1.728  22.559   5.015  1.00  0.00     0.138 A 
ATOM      2  C   UNL     1       1.880  21.694   6.107  1.00  0.00     0.100 A 
ATOM      3  C   UNL     1       3.060  21.722   6.851  1.00  0.00     0.197 A 
ATOM      4  O   UNL     1       3.193  20.891   7.786  1.00  0.00    -0.289 OA
ATOM      5  C   UNL     1       4.080  22.646   6.519  1.00  0.00     0.107 A 
ATOM      6  C   UNL     1       5.307  22.792   7.231  1.00  0.00     0.134 A 
ATOM      7  C   UNL     1       6.291  23.659   6.739  1.00  0.00     0.093 A 
ATOM      8  C   UNL     1       6.068  24.428   5.594  1.00  0.00     0.123 A 
ATOM      9  C   UNL     1       4.851  24.332   4.922  1.00  0.00     0.094 A 
ATOM     10  C   UNL     1       3.864  23.451   5.369  1.00  0.00     0.146 A 
ATOM     11  O   UNL     1       2.723  23.378   4.690  1.00  0.00    -0.456 OA
ENDROOT
BRANCH   1  12
ATOM     12  C   UNL     1       0.494  22.571   4.189  1.00  0.00     0.021 A 
ATOM     13  C   UNL     1      -0.160  21.381   3.820  1.00  0.00     0.016 A 
ATOM     14  C   UNL     1      -1.326  21.422   3.050  1.00  0.00     0.051 A 
ATOM     15  C   UNL     1      -1.863  22.650   2.644  1.00  0.00     0.157 A 
ATOM     16  C   UNL     1      -0.059  23.801   3.788  1.00  0.00     0.062 A 
ATOM     17  C   UNL     1      -1.226  23.845   3.017  1.00  0.00     0.158 A 
BRANCH  15  18
ATOM     18  O   UNL     1      -3.026  22.687   1.875  1.00  0.00    -0.504 OA
ATOM     19  H   UNL     1      -3.728  23.404   2.011  1.00  0.00     0.293 HD
ENDBRANCH  15  18
BRANCH  17  20
ATOM     20  O   UNL     1      -1.737  25.084   2.632  1.00  0.00    -0.504 OA
ATOM     21  H   UNL     1      -2.601  25.171   2.110  1.00  0.00     0.293 HD
ENDBRANCH  17  20
ENDBRANCH   1  12
BRANCH   6  22
ATOM     22  O   UNL     1       5.598  22.135   8.431  1.00  0.00    -0.507 OA
ATOM     23  H   UNL     1       5.641  21.134   8.544  1.00  0.00     0.293 HD
ENDBRANCH   6  22
BRANCH   8  24
ATOM     24  O   UNL     1       7.047  25.299   5.121  1.00  0.00    -0.508 OA
ATOM     25  H   UNL     1       6.819  26.237   4.814  1.00  0.00     0.293 HD
ENDBRANCH   8  24
TORSDOF 5
ENDMDL
MODEL 2
REMARK VINA RESULT:    -4.622      1.939      3.291
REMARK INTER + INTRA:          -5.728
REMARK INTER:                  -5.418
REMARK INTRA:                  -0.310
REMARK UNBOUND:                -0.295
REMARK SMILES O=c1cc(-c2ccc(O)c(O)c2)oc2cc(O)cc(O)c12
REMARK SMILES IDX 4 1 3 2 2 3 1 4 21 5 19 6 18 7 16 8 15 9 14 10 13 11 5 12
REMARK SMILES IDX 6 13 7 14 8 15 12 16 10 17 9 18 11 20 20 22 17 24
REMARK H PARENT 9 19 11 21 20 23 17 25
REMARK Flexibility Score: inf
ROOT
ATOM      1  C   UNL     1       2.355  23.191   4.666  1.00  0.00     0.138 A 
ATOM      2  C   UNL     1       2.833  23.881   3.544  1.00  0.00     0.100 A 
ATOM      3  C   UNL     1       4.120  24.420   3.562  1.00  0.00     0.197 A 
ATOM      4  O   UNL     1       4.498  25.088   2.565  1.00  0.00    -0.289 OA
ATOM      5  C   UNL     1       4.944  24.239   4.699  1.00  0.00     0.107 A 
ATOM      6  C   UNL     1       6.286  24.709   4.813  1.00  0.00     0.134 A 
ATOM      7  C   UNL     1       6.963  24.572   6.032  1.00  0.00     0.093 A 
ATOM      8  C   UNL     1       6.368  23.929   7.119  1.00  0.00     0.123 A 
ATOM      9  C   UNL     1       5.077  23.418   7.000  1.00  0.00     0.094 A 
ATOM     10  C   UNL     1       4.363  23.570   5.809  1.00  0.00     0.146 A 
ATOM     11  O   UNL     1       3.128  23.082   5.742  1.00  0.00    -0.456 OA
ENDROOT
BRANCH   1  12
ATOM     12  C   UNL     1       0.995  22.597   4.701  1.00  0.00     0.021 A 
ATOM     13  C   UNL     1       0.331  22.200   3.525  1.00  0.00     0.016 A 
ATOM     14  C   UNL     1      -0.945  21.635   3.587  1.00  0.00     0.051 A 
ATOM     15  C   UNL     1      -1.577  21.447   4.823  1.00  0.00     0.157 A 
ATOM     16  C   UNL     1       0.359  22.393   5.939  1.00  0.00     0.062 A 
ATOM     17  C   UNL     1      -0.919  21.827   6.005  1.00  0.00     0.158 A 
BRANCH  15  18
ATOM     18  O   UNL     1      -2.850  20.883   4.882  1.00  0.00    -0.504 OA
ATOM     19  H   UNL     1      -3.409  20.922   5.725  1.00  0.00     0.293 HD
ENDBRANCH  15  18
BRANCH  17  20
ATOM     20  O   UNL     1      -1.518  21.650   7.251  1.00  0.00    -0.504 OA
ATOM     21  H   UNL     1      -1.363  22.293   8.019  1.00  0.00     0.293 HD
ENDBRANCH  17  20
ENDBRANCH   1  12
BRANCH   6  22
ATOM     22  O   UNL     1       7.003  25.290   3.762  1.00  0.00    -0.507 OA
ATOM     23  H   UNL     1       7.420  24.780   2.999  1.00  0.00     0.293 HD
ENDBRANCH   6  22
BRANCH   8  24
ATOM     24  O   UNL     1       7.055  23.784   8.322  1.00  0.00    -0.508 OA
ATOM     25  H   UNL     1       6.806  24.322   9.144  1.00  0.00     0.293 HD
ENDBRANCH   8  24
TORSDOF 5
ENDMDL
MODEL 3
REMARK VINA RESULT:    -4.521      2.243      6.430
REMARK INTER + INTRA:          -5.609
REMARK INTER:                  -5.291
REMARK INTRA:                  -0.318
REMARK UNBOUND:                -0.295
REMARK SMILES O=c1cc(-c2ccc(O)c(O)c2)oc2cc(O)cc(O)c12
REMARK SMILES IDX 4 1 3 2 2 3 1 4 21 5 19 6 18 7 16 8 15 9 14 10 13 11 5 12
REMARK SMILES IDX 6 13 7 14 8 15 12 16 10 17 9 18 11 20 20 22 17 24
REMARK H PARENT 9 19 11 21 20 23 17 25
REMARK Flexibility Score: inf
ROOT
ATOM      1  C   UNL     1       2.108  23.045   4.374  1.00  0.00     0.138 A 
ATOM      2  C   UNL     1       1.135  22.620   3.459  1.00  0.00     0.100 A 
ATOM      3  C   UNL     1      -0.026  22.001   3.925  1.00  0.00     0.197 A 
ATOM      4  O   UNL     1      -0.852  21.573   3.077  1.00  0.00    -0.289 OA
ATOM      5  C   UNL     1      -0.227  21.836   5.316  1.00  0.00     0.107 A 
ATOM      6  C   UNL     1      -1.389  21.256   5.906  1.00  0.00     0.134 A 
ATOM      7  C   UNL     1      -1.425  21.039   7.289  1.00  0.00     0.093 A 
ATOM      8  C   UNL     1      -0.366  21.436   8.109  1.00  0.00     0.123 A 
ATOM      9  C   UNL     1       0.750  22.053   7.548  1.00  0.00     0.094 A 
ATOM     10  C   UNL     1       0.831  22.251   6.168  1.00  0.00     0.146 A 
ATOM     11  O   UNL     1       1.920  22.829   5.672  1.00  0.00    -0.456 OA
ENDROOT
BRANCH   1  12
ATOM     12  C   UNL     1       3.360  23.710   3.934  1.00  0.00     0.021 A 
ATOM     13  C   UNL     1       3.587  24.041   2.585  1.00  0.00     0.016 A 
ATOM     14  C   UNL     1       4.772  24.675   2.200  1.00  0.00     0.051 A 
ATOM     15  C   UNL     1       5.745  24.997   3.155  1.00  0.00     0.157 A 
ATOM     16  C   UNL     1       4.337  24.049   4.888  1.00  0.00     0.062 A 
ATOM     17  C   UNL     1       5.524  24.683   4.505  1.00  0.00     0.158 A 
BRANCH  15  18
ATOM     18  O   UNL     1       6.925  25.629   2.767  1.00  0.00    -0.504 OA
ATOM     19  H   UNL     1       7.103  26.602   2.987  1.00  0.00     0.293 HD
ENDBRANCH  15  18
BRANCH  17  20
ATOM     20  O   UNL     1       6.470  24.994   5.481  1.00  0.00    -0.504 OA
ATOM     21  H   UNL     1       6.781  24.314   6.165  1.00  0.00     0.293 HD
ENDBRANCH  17  20
ENDBRANCH   1  12
BRANCH   6  22
ATOM     22  O   UNL     1      -2.536  20.902   5.189  1.00  0.00    -0.507 OA
ATOM     23  H   UNL     1      -3.068  20.058   5.334  1.00  0.00     0.293 HD
ENDBRANCH   6  22
BRANCH   8  24
ATOM     24  O   UNL     1      -0.418  21.230   9.486  1.00  0.00    -0.508 OA
ATOM     25  H   UNL     1      -0.402  22.004  10.139  1.00  0.00     0.293 HD
ENDBRANCH   8  24
TORSDOF 5
ENDMDL
MODEL 4
REMARK VINA RESULT:    -4.315      1.619      2.218
REMARK INTER + INTRA:          -5.367
REMARK INTER:                  -5.051
REMARK INTRA:                  -0.316
REMARK UNBOUND:                -0.295
REMARK SMILES O=c1cc(-c2ccc(O)c(O)c2)oc2cc(O)cc(O)c12
REMARK SMILES IDX 4 1 3 2 2 3 1 4 21 5 19 6 18 7 16 8 15 9 14 10 13 11 5 12
REMARK SMILES IDX 6 13 7 14 8 15 12 16 10 17 9 18 11 20 20 22 17 24
REMARK H PARENT 9 19 11 21 20 23 17 25
REMARK Flexibility Score: inf
ROOT
ATOM      1  C   UNL     1       2.329  22.733   5.498  1.00  0.00     0.138 A 
ATOM      2  C   UNL     1       3.054  22.539   6.681  1.00  0.00     0.100 A 
ATOM      3  C   UNL     1       4.356  23.032   6.781  1.00  0.00     0.197 A 
ATOM      4  O   UNL     1       5.004  22.788   7.832  1.00  0.00    -0.289 OA
ATOM      5  C   UNL     1       4.921  23.753   5.702  1.00  0.00     0.107 A 
ATOM      6  C   UNL     1       6.223  24.337   5.708  1.00  0.00     0.134 A 
ATOM      7  C   UNL     1       6.720  24.926   4.538  1.00  0.00     0.093 A 
ATOM      8  C   UNL     1       5.938  25.005   3.383  1.00  0.00     0.123 A 
ATOM      9  C   UNL     1       4.645  24.486   3.384  1.00  0.00     0.094 A 
ATOM     10  C   UNL     1       4.135  23.861   4.524  1.00  0.00     0.146 A 
ATOM     11  O   UNL     1       2.902  23.365   4.479  1.00  0.00    -0.456 OA
ENDROOT
BRANCH   1  12
ATOM     12  C   UNL     1       0.941  22.231   5.337  1.00  0.00     0.021 A 
ATOM     13  C   UNL     1       0.370  21.330   6.256  1.00  0.00     0.016 A 
ATOM     14  C   UNL     1      -0.942  20.880   6.086  1.00  0.00     0.051 A 
ATOM     15  C   UNL     1      -1.708  21.327   5.002  1.00  0.00     0.157 A 
ATOM     16  C   UNL     1       0.160  22.684   4.258  1.00  0.00     0.062 A 
ATOM     17  C   UNL     1      -1.154  22.234   4.085  1.00  0.00     0.158 A 
BRANCH  15  18
ATOM     18  O   UNL     1      -3.017  20.875   4.834  1.00  0.00    -0.504 OA
ATOM     19  H   UNL     1      -3.495  20.952   3.945  1.00  0.00     0.293 HD
ENDBRANCH  15  18
BRANCH  17  20
ATOM     20  O   UNL     1      -1.891  22.701   2.997  1.00  0.00    -0.504 OA
ATOM     21  H   UNL     1      -2.800  22.322   2.761  1.00  0.00     0.293 HD
ENDBRANCH  17  20
ENDBRANCH   1  12
BRANCH   6  22
ATOM     22  O   UNL     1       7.052  24.387   6.833  1.00  0.00    -0.507 OA
ATOM     23  H   UNL     1       8.046  24.222   6.824  1.00  0.00     0.293 HD
ENDBRANCH   6  22
BRANCH   8  24
ATOM     24  O   UNL     1       6.436  25.607   2.229  1.00  0.00    -0.508 OA
ATOM     25  H   UNL     1       6.771  25.057   1.447  1.00  0.00     0.293 HD
ENDBRANCH   8  24
TORSDOF 5
ENDMDL
MODEL 5
REMARK VINA RESULT:    -3.988     23.376     24.926
REMARK INTER + INTRA:          -4.983
REMARK INTER:                  -4.665
REMARK INTRA:                  -0.318
REMARK UNBOUND:                -0.295
REMARK SMILES O=c1cc(-c2ccc(O)c(O)c2)oc2cc(O)cc(O)c12
REMARK SMILES IDX 4 1 3 2 2 3 1 4 21 5 19 6 18 7 16 8 15 9 14 10 13 11 5 12
REMARK SMILES IDX 6 13 7 14 8 15 12 16 10 17 9 18 11 20 20 22 17 24
REMARK H PARENT 9 19 11 21 20 23 17 25
REMARK Flexibility Score: inf
ROOT
ATOM      1  C   UNL     1      -6.112  40.737  18.065  1.00  0.00     0.138 A 
ATOM      2  C   UNL     1      -6.794  40.954  16.860  1.00  0.00     0.100 A 
ATOM      3  C   UNL     1      -8.186  40.856  16.828  1.00  0.00     0.197 A 
ATOM      4  O   UNL     1      -8.766  40.994  15.720  1.00  0.00    -0.289 OA
ATOM      5  C   UNL     1      -8.899  40.570  18.017  1.00  0.00     0.107 A 
ATOM      6  C   UNL     1     -10.320  40.486  18.112  1.00  0.00     0.134 A 
ATOM      7  C   UNL     1     -10.908  40.081  19.317  1.00  0.00     0.093 A 
ATOM      8  C   UNL     1     -10.130  39.816  20.446  1.00  0.00     0.123 A 
ATOM      9  C   UNL     1      -8.744  39.947  20.378  1.00  0.00     0.094 A 
ATOM     10  C   UNL     1      -8.126  40.316  19.181  1.00  0.00     0.146 A 
ATOM     11  O   UNL     1      -6.801  40.415  19.155  1.00  0.00    -0.456 OA
ENDROOT
BRANCH   1  12
ATOM     12  C   UNL     1      -4.633  40.829  18.156  1.00  0.00     0.021 A 
ATOM     13  C   UNL     1      -3.833  41.032  17.016  1.00  0.00     0.016 A 
ATOM     14  C   UNL     1      -2.443  41.125  17.131  1.00  0.00     0.051 A 
ATOM     15  C   UNL     1      -1.830  41.025  18.386  1.00  0.00     0.157 A 
ATOM     16  C   UNL     1      -4.009  40.743  19.414  1.00  0.00     0.062 A 
ATOM     17  C   UNL     1      -2.618  40.835  19.533  1.00  0.00     0.158 A 
BRANCH  15  18
ATOM     18  O   UNL     1      -0.443  41.118  18.498  1.00  0.00    -0.504 OA
ATOM     19  H   UNL     1       0.020  42.010  18.627  1.00  0.00     0.293 HD
ENDBRANCH  15  18
BRANCH  17  20
ATOM     20  O   UNL     1      -2.039  40.735  20.797  1.00  0.00    -0.504 OA
ATOM     21  H   UNL     1      -1.076  41.002  20.971  1.00  0.00     0.293 HD
ENDBRANCH  17  20
ENDBRANCH   1  12
BRANCH   6  22
ATOM     22  O   UNL     1     -11.194  40.811  17.069  1.00  0.00    -0.507 OA
ATOM     23  H   UNL     1     -10.959  41.394  16.281  1.00  0.00     0.293 HD
ENDBRANCH   6  22
BRANCH   8  24
ATOM     24  O   UNL     1     -10.725  39.428  21.644  1.00  0.00    -0.508 OA
ATOM     25  H   UNL     1     -10.855  38.451  21.880  1.00  0.00     0.293 HD
ENDBRANCH   8  24
TORSDOF 5
ENDMDL
MODEL 6
REMARK VINA RESULT:    -3.906      1.988      6.626
REMARK INTER + INTRA:          -4.886
REMARK INTER:                  -4.591
REMARK INTRA:                  -0.295
REMARK UNBOUND:                -0.295
REMARK SMILES O=c1cc(-c2ccc(O)c(O)c2)oc2cc(O)cc(O)c12
REMARK SMILES IDX 4 1 3 2 2 3 1 4 21 5 19 6 18 7 16 8 15 9 14 10 13 11 5 12
REMARK SMILES IDX 6 13 7 14 8 15 12 16 10 17 9 18 11 20 20 22 17 24
REMARK H PARENT 9 19 11 21 20 23 17 25
REMARK Flexibility Score: inf
ROOT
ATOM      1  C   UNL     1       2.196  23.167   4.434  1.00  0.00     0.138 A 
ATOM      2  C   UNL     1       1.928  22.893   5.782  1.00  0.00     0.100 A 
ATOM      3  C   UNL     1       0.707  22.319   6.140  1.00  0.00     0.197 A 
ATOM      4  O   UNL     1       0.471  22.143   7.364  1.00  0.00    -0.289 OA
ATOM      5  C   UNL     1      -0.237  21.989   5.139  1.00  0.00     0.107 A 
ATOM      6  C   UNL     1      -1.496  21.364   5.383  1.00  0.00     0.134 A 
ATOM      7  C   UNL     1      -2.397  21.192   4.325  1.00  0.00     0.093 A 
ATOM      8  C   UNL     1      -2.061  21.568   3.023  1.00  0.00     0.123 A 
ATOM      9  C   UNL     1      -0.812  22.129   2.765  1.00  0.00     0.094 A 
ATOM     10  C   UNL     1       0.095  22.346   3.805  1.00  0.00     0.146 A 
ATOM     11  O   UNL     1       1.270  22.898   3.519  1.00  0.00    -0.456 OA
ENDROOT
BRANCH   1  12
ATOM     12  C   UNL     1       3.477  23.775   3.997  1.00  0.00     0.021 A 
ATOM     13  C   UNL     1       3.733  24.069   2.644  1.00  0.00     0.016 A 
ATOM     14  C   UNL     1       4.945  24.650   2.261  1.00  0.00     0.051 A 
ATOM     15  C   UNL     1       5.917  24.957   3.221  1.00  0.00     0.157 A 
ATOM     16  C   UNL     1       4.454  24.098   4.956  1.00  0.00     0.062 A 
ATOM     17  C   UNL     1       5.669  24.680   4.575  1.00  0.00     0.158 A 
BRANCH  15  18
ATOM     18  O   UNL     1       7.125  25.536   2.835  1.00  0.00    -0.504 OA
ATOM     19  H   UNL     1       7.621  25.226   2.008  1.00  0.00     0.293 HD
ENDBRANCH  15  18
BRANCH  17  20
ATOM     20  O   UNL     1       6.614  24.976   5.556  1.00  0.00    -0.504 OA
ATOM     21  H   UNL     1       6.645  24.482   6.440  1.00  0.00     0.293 HD
ENDBRANCH  17  20
ENDBRANCH   1  12
BRANCH   6  22
ATOM     22  O   UNL     1      -1.896  20.875   6.631  1.00  0.00    -0.507 OA
ATOM     23  H   UNL     1      -2.849  20.849   6.961  1.00  0.00     0.293 HD
ENDBRANCH   6  22
BRANCH   8  24
ATOM     24  O   UNL     1      -2.958  21.379   1.975  1.00  0.00    -0.508 OA
ATOM     25  H   UNL     1      -2.649  21.349   1.010  1.00  0.00     0.293 HD
ENDBRANCH   8  24
TORSDOF 5
ENDMDL
MODEL 7
REMARK VINA RESULT:    -3.889      2.568      4.092
REMARK INTER + INTRA:          -4.867
REMARK INTER:                  -4.549
REMARK INTRA:                  -0.318
REMARK UNBOUND:                -0.295
REMARK SMILES O=c1cc(-c2ccc(O)c(O)c2)oc2cc(O)cc(O)c12
REMARK SMILES IDX 4 1 3 2 2 3 1 4 21 5 19 6 18 7 16 8 15 9 14 10 13 11 5 12
REMARK SMILES IDX 6 13 7 14 8 15 12 16 10 17 9 18 11 20 20 22 17 24
REMARK H PARENT 9 19 11 21 20 23 17 25
REMARK Flexibility Score: inf
ROOT
ATOM      1  C   UNL     1       1.652  22.608   5.359  1.00  0.00     0.138 A 
ATOM      2  C   UNL     1       1.613  22.567   3.959  1.00  0.00     0.100 A 
ATOM      3  C   UNL     1       2.718  23.000   3.225  1.00  0.00     0.197 A 
ATOM      4  O   UNL     1       2.630  23.010   1.970  1.00  0.00    -0.289 OA
ATOM      5  C   UNL     1       3.881  23.446   3.899  1.00  0.00     0.107 A 
ATOM      6  C   UNL     1       5.080  23.872   3.254  1.00  0.00     0.134 A 
ATOM      7  C   UNL     1       6.124  24.404   4.022  1.00  0.00     0.093 A 
ATOM      8  C   UNL     1       6.034  24.468   5.415  1.00  0.00     0.123 A 
ATOM      9  C   UNL     1       4.888  24.005   6.057  1.00  0.00     0.094 A 
ATOM     10  C   UNL     1       3.816  23.502   5.316  1.00  0.00     0.146 A 
ATOM     11  O   UNL     1       2.735  23.084   5.967  1.00  0.00    -0.456 OA
ENDROOT
BRANCH   1  12
ATOM     12  C   UNL     1       0.506  22.160   6.189  1.00  0.00     0.021 A 
ATOM     13  C   UNL     1      -0.646  21.592   5.614  1.00  0.00     0.016 A 
ATOM     14  C   UNL     1      -1.707  21.169   6.420  1.00  0.00     0.051 A 
ATOM     15  C   UNL     1      -1.632  21.297   7.812  1.00  0.00     0.157 A 
ATOM     16  C   UNL     1       0.579  22.273   7.590  1.00  0.00     0.062 A 
ATOM     17  C   UNL     1      -0.483  21.851   8.399  1.00  0.00     0.158 A 
BRANCH  15  18
ATOM     18  O   UNL     1      -2.692  20.875   8.613  1.00  0.00    -0.504 OA
ATOM     19  H   UNL     1      -3.132  19.973   8.477  1.00  0.00     0.293 HD
ENDBRANCH  15  18
BRANCH  17  20
ATOM     20  O   UNL     1      -0.375  21.990   9.782  1.00  0.00    -0.504 OA
ATOM     21  H   UNL     1       0.358  21.534  10.313  1.00  0.00     0.293 HD
ENDBRANCH  17  20
ENDBRANCH   1  12
BRANCH   6  22
ATOM     22  O   UNL     1       5.306  23.773   1.878  1.00  0.00    -0.507 OA
ATOM     23  H   UNL     1       5.732  22.982   1.420  1.00  0.00     0.293 HD
ENDBRANCH   6  22
BRANCH   8  24
ATOM     24  O   UNL     1       7.084  24.985   6.171  1.00  0.00    -0.508 OA
ATOM     25  H   UNL     1       6.926  25.674   6.897  1.00  0.00     0.293 HD
ENDBRANCH   8  24
TORSDOF 5
ENDMDL
MODEL 8
REMARK VINA RESULT:    -3.848     22.899     24.485
REMARK INTER + INTRA:          -4.818
REMARK INTER:                  -4.499
REMARK INTRA:                  -0.318
REMARK UNBOUND:                -0.295
REMARK SMILES O=c1cc(-c2ccc(O)c(O)c2)oc2cc(O)cc(O)c12
REMARK SMILES IDX 4 1 3 2 2 3 1 4 21 5 19 6 18 7 16 8 15 9 14 10 13 11 5 12
REMARK SMILES IDX 6 13 7 14 8 15 12 16 10 17 9 18 11 20 20 22 17 24
REMARK H PARENT 9 19 11 21 20 23 17 25
REMARK Flexibility Score: inf
ROOT
ATOM      1  C   UNL     1      -6.636  40.515  18.241  1.00  0.00     0.138 A 
ATOM      2  C   UNL     1      -7.418  40.323  19.388  1.00  0.00     0.100 A 
ATOM      3  C   UNL     1      -8.800  40.171  19.263  1.00  0.00     0.197 A 
ATOM      4  O   UNL     1      -9.482  40.063  20.315  1.00  0.00    -0.289 OA
ATOM      5  C   UNL     1      -9.397  40.178  17.980  1.00  0.00     0.107 A 
ATOM      6  C   UNL     1     -10.789  39.991  17.730  1.00  0.00     0.134 A 
ATOM      7  C   UNL     1     -11.281  40.135  16.426  1.00  0.00     0.093 A 
ATOM      8  C   UNL     1     -10.422  40.399  15.357  1.00  0.00     0.123 A 
ATOM      9  C   UNL     1      -9.054  40.530  15.583  1.00  0.00     0.094 A 
ATOM     10  C   UNL     1      -8.537  40.426  16.877  1.00  0.00     0.146 A 
ATOM     11  O   UNL     1      -7.228  40.573  17.052  1.00  0.00    -0.456 OA
ENDROOT
BRANCH   1  12
ATOM     12  C   UNL     1      -5.163  40.682  18.315  1.00  0.00     0.021 A 
ATOM     13  C   UNL     1      -4.478  40.670  19.545  1.00  0.00     0.016 A 
ATOM     14  C   UNL     1      -3.089  40.820  19.585  1.00  0.00     0.051 A 
ATOM     15  C   UNL     1      -2.360  40.975  18.399  1.00  0.00     0.157 A 
ATOM     16  C   UNL     1      -4.421  40.825  17.128  1.00  0.00     0.062 A 
ATOM     17  C   UNL     1      -3.030  40.976  17.165  1.00  0.00     0.158 A 
BRANCH  15  18
ATOM     18  O   UNL     1      -0.975  41.125  18.443  1.00  0.00    -0.504 OA
ATOM     19  H   UNL     1      -0.490  41.325  19.310  1.00  0.00     0.293 HD
ENDBRANCH  15  18
BRANCH  17  20
ATOM     20  O   UNL     1      -2.334  41.125  15.967  1.00  0.00    -0.504 OA
ATOM     21  H   UNL     1      -2.097  42.036  15.591  1.00  0.00     0.293 HD
ENDBRANCH  17  20
ENDBRANCH   1  12
BRANCH   6  22
ATOM     22  O   UNL     1     -11.719  39.640  18.713  1.00  0.00    -0.507 OA
ATOM     23  H   UNL     1     -12.720  39.663  18.594  1.00  0.00     0.293 HD
ENDBRANCH   6  22
BRANCH   8  24
ATOM     24  O   UNL     1     -10.919  40.526  14.062  1.00  0.00    -0.508 OA
ATOM     25  H   UNL     1     -11.629  39.898  13.702  1.00  0.00     0.293 HD
ENDBRANCH   8  24
TORSDOF 5
ENDMDL
