MODEL 1
REMARK VINA RESULT:    -4.880      0.000      0.000
REMARK INTER + INTRA:          -8.235
REMARK INTER:                  -7.733
REMARK INTRA:                  -0.503
REMARK UNBOUND:                -0.503
REMARK SMILES CCCCCCCCCCCC(=O)[O-]
REMARK SMILES IDX 7 1 8 2 9 3 10 4 11 5 12 6 13 7 14 8 6 9 5 10 4 11 3 12 2 13
REMARK SMILES IDX 1 14
REMARK H PARENT
REMARK Flexibility Score: inf
ROOT
ATOM      1  C   UNL     1      17.555 117.079 296.064  1.00  0.00     0.000 C 
ENDROOT
BRANCH   1   2
ATOM      2  C   UNL     1      19.050 117.431 295.959  1.00  0.00     0.000 C 
BRANCH   2   3
ATOM      3  C   UNL     1      19.942 116.857 297.076  1.00  0.00     0.000 C 
BRANCH   3   4
ATOM      4  C   UNL     1      21.295 117.580 297.195  1.00  0.00     0.006 C 
BRANCH   4   5
ATOM      5  C   UNL     1      22.380 116.924 296.329  1.00  0.00     0.053 C 
BRANCH   5   6
ATOM      6  C   UNL     1      22.819 117.819 295.211  1.00  0.00     0.041 C 
ATOM      7  O   UNL     1      22.118 118.812 294.882  1.00  0.00    -0.550 OA
ATOM      8  O   UNL     1      24.016 117.572 294.550  1.00  0.00    -0.550 OA
ENDBRANCH   5   6
ENDBRANCH   4   5
ENDBRANCH   3   4
ENDBRANCH   2   3
ENDBRANCH   1   2
BRANCH   1   9
ATOM      9  C   UNL     1      16.782 117.347 294.762  1.00  0.00     0.000 C 
BRANCH   9  10
ATOM     10  C   UNL     1      17.684 117.346 293.514  1.00  0.00    -0.000 C 
BRANCH  10  11
ATOM     11  C   UNL     1      17.449 116.187 292.529  1.00  0.00    -0.000 C 
BRANCH  11  12
ATOM     12  C   UNL     1      18.425 116.199 291.341  1.00  0.00    -0.000 C 
BRANCH  12  13
ATOM     13  C   UNL     1      17.869 115.460 290.114  1.00  0.00    -0.003 C 
ATOM     14  C   UNL     1      16.918 114.322 290.487  1.00  0.00     0.004 C 
ENDBRANCH  12  13
ENDBRANCH  11  12
ENDBRANCH  10  11
ENDBRANCH   9  10
ENDBRANCH   1   9
TORSDOF 10
ENDMDL
MODEL 2
REMARK VINA RESULT:    -4.784      2.720      5.847
REMARK INTER + INTRA:          -8.084
REMARK INTER:                  -7.385
REMARK INTRA:                  -0.699
REMARK UNBOUND:                -0.503
REMARK SMILES CCCCCCCCCCCC(=O)[O-]
REMARK SMILES IDX 7 1 8 2 9 3 10 4 11 5 12 6 13 7 14 8 6 9 5 10 4 11 3 12 2 13
REMARK SMILES IDX 1 14
REMARK H PARENT
REMARK Flexibility Score: inf
ROOT
ATOM      1  C   UNL     1      18.005 116.705 296.150  1.00  0.00     0.000 C 
ENDROOT
BRANCH   1   2
ATOM      2  C   UNL     1      16.934 116.663 295.045  1.00  0.00     0.000 C 
BRANCH   2   3
ATOM      3  C   UNL     1      17.148 117.650 293.882  1.00  0.00     0.000 C 
BRANCH   3   4
ATOM      4  C   UNL     1      18.008 117.065 292.748  1.00  0.00     0.006 C 
BRANCH   4   5
ATOM      5  C   UNL     1      17.306 115.903 292.031  1.00  0.00     0.053 C 
BRANCH   5   6
ATOM      6  C   UNL     1      18.087 115.426 290.846  1.00  0.00     0.041 C 
ATOM      7  O   UNL     1      17.525 114.740 289.951  1.00  0.00    -0.550 OA
ATOM      8  O   UNL     1      19.429 115.761 290.714  1.00  0.00    -0.550 OA
ENDBRANCH   5   6
ENDBRANCH   4   5
ENDBRANCH   3   4
ENDBRANCH   2   3
ENDBRANCH   1   2
BRANCH   1   9
ATOM      9  C   UNL     1      18.605 118.106 296.352  1.00  0.00     0.000 C 
BRANCH   9  10
ATOM     10  C   UNL     1      19.921 118.088 297.152  1.00  0.00    -0.000 C 
BRANCH  10  11
ATOM     11  C   UNL     1      20.648 116.731 297.198  1.00  0.00    -0.000 C 
BRANCH  11  12
ATOM     12  C   UNL     1      22.127 116.826 296.788  1.00  0.00    -0.000 C 
BRANCH  12  13
ATOM     13  C   UNL     1      22.459 118.149 296.082  1.00  0.00    -0.003 C 
ATOM     14  C   UNL     1      22.761 117.968 294.593  1.00  0.00     0.004 C 
ENDBRANCH  12  13
ENDBRANCH  11  12
ENDBRANCH  10  11
ENDBRANCH   9  10
ENDBRANCH   1   9
TORSDOF 10
ENDMDL
MODEL 3
REMARK VINA RESULT:    -4.724      2.090      2.453
REMARK INTER + INTRA:          -7.988
REMARK INTER:                  -7.478
REMARK INTRA:                  -0.510
REMARK UNBOUND:                -0.503
REMARK SMILES CCCCCCCCCCCC(=O)[O-]
REMARK SMILES IDX 7 1 8 2 9 3 10 4 11 5 12 6 13 7 14 8 6 9 5 10 4 11 3 12 2 13
REMARK SMILES IDX 1 14
REMARK H PARENT
REMARK Flexibility Score: inf
ROOT
ATOM      1  C   UNL     1      17.961 117.212 295.734  1.00  0.00     0.000 C 
ENDROOT
BRANCH   1   2
ATOM      2  C   UNL     1      19.206 118.102 295.572  1.00  0.00     0.000 C 
BRANCH   2   3
ATOM      3  C   UNL     1      20.520 117.501 296.108  1.00  0.00     0.000 C 
BRANCH   3   4
ATOM      4  C   UNL     1      20.429 117.083 297.586  1.00  0.00     0.006 C 
BRANCH   4   5
ATOM      5  C   UNL     1      20.556 118.283 298.535  1.00  0.00     0.053 C 
BRANCH   5   6
ATOM      6  C   UNL     1      21.819 118.230 299.338  1.00  0.00     0.041 C 
ATOM      7  O   UNL     1      21.778 118.330 300.592  1.00  0.00    -0.550 OA
ATOM      8  O   UNL     1      23.041 118.042 298.702  1.00  0.00    -0.550 OA
ENDBRANCH   5   6
ENDBRANCH   4   5
ENDBRANCH   3   4
ENDBRANCH   2   3
ENDBRANCH   1   2
BRANCH   1   9
ATOM      9  C   UNL     1      16.801 117.628 294.814  1.00  0.00     0.000 C 
BRANCH   9  10
ATOM     10  C   UNL     1      17.182 117.621 293.323  1.00  0.00    -0.000 C 
BRANCH  10  11
ATOM     11  C   UNL     1      17.358 116.227 292.692  1.00  0.00    -0.000 C 
BRANCH  11  12
ATOM     12  C   UNL     1      18.386 116.209 291.548  1.00  0.00    -0.000 C 
BRANCH  12  13
ATOM     13  C   UNL     1      17.763 115.808 290.203  1.00  0.00    -0.003 C 
ATOM     14  C   UNL     1      17.247 114.368 290.193  1.00  0.00     0.004 C 
ENDBRANCH  12  13
ENDBRANCH  11  12
ENDBRANCH  10  11
ENDBRANCH   9  10
ENDBRANCH   1   9
TORSDOF 10
ENDMDL
MODEL 4
REMARK VINA RESULT:    -4.539      2.017      2.612
REMARK INTER + INTRA:          -7.695
REMARK INTER:                  -6.926
REMARK INTRA:                  -0.769
REMARK UNBOUND:                -0.503
REMARK SMILES CCCCCCCCCCCC(=O)[O-]
REMARK SMILES IDX 7 1 8 2 9 3 10 4 11 5 12 6 13 7 14 8 6 9 5 10 4 11 3 12 2 13
REMARK SMILES IDX 1 14
REMARK H PARENT
REMARK Flexibility Score: inf
ROOT
ATOM      1  C   UNL     1      19.946 118.385 294.483  1.00  0.00     0.000 C 
ENDROOT
BRANCH   1   2
ATOM      2  C   UNL     1      20.104 119.878 294.821  1.00  0.00     0.000 C 
BRANCH   2   3
ATOM      3  C   UNL     1      20.942 120.185 296.077  1.00  0.00     0.000 C 
BRANCH   3   4
ATOM      4  C   UNL     1      22.416 119.770 295.931  1.00  0.00     0.006 C 
BRANCH   4   5
ATOM      5  C   UNL     1      22.957 119.100 297.201  1.00  0.00     0.053 C 
BRANCH   5   6
ATOM      6  C   UNL     1      22.183 117.868 297.556  1.00  0.00     0.041 C 
ATOM      7  O   UNL     1      22.203 116.866 296.794  1.00  0.00    -0.550 OA
ATOM      8  O   UNL     1      21.459 117.816 298.741  1.00  0.00    -0.550 OA
ENDBRANCH   5   6
ENDBRANCH   4   5
ENDBRANCH   3   4
ENDBRANCH   2   3
ENDBRANCH   1   2
BRANCH   1   9
ATOM      9  C   UNL     1      18.950 117.662 295.405  1.00  0.00     0.000 C 
BRANCH   9  10
ATOM     10  C   UNL     1      17.629 117.303 294.700  1.00  0.00    -0.000 C 
BRANCH  10  11
ATOM     11  C   UNL     1      17.642 117.434 293.165  1.00  0.00    -0.000 C 
BRANCH  11  12
ATOM     12  C   UNL     1      17.279 116.123 292.447  1.00  0.00    -0.000 C 
BRANCH  12  13
ATOM     13  C   UNL     1      18.072 115.926 291.146  1.00  0.00    -0.003 C 
ATOM     14  C   UNL     1      17.646 114.675 290.376  1.00  0.00     0.004 C 
ENDBRANCH  12  13
ENDBRANCH  11  12
ENDBRANCH  10  11
ENDBRANCH   9  10
ENDBRANCH   1   9
TORSDOF 10
ENDMDL
MODEL 5
REMARK VINA RESULT:    -4.475      3.219      5.732
REMARK INTER + INTRA:          -7.594
REMARK INTER:                  -6.714
REMARK INTRA:                  -0.880
REMARK UNBOUND:                -0.503
REMARK SMILES CCCCCCCCCCCC(=O)[O-]
REMARK SMILES IDX 7 1 8 2 9 3 10 4 11 5 12 6 13 7 14 8 6 9 5 10 4 11 3 12 2 13
REMARK SMILES IDX 1 14
REMARK H PARENT
REMARK Flexibility Score: inf
ROOT
ATOM      1  C   UNL     1      17.295 117.241 296.477  1.00  0.00     0.000 C 
ENDROOT
BRANCH   1   2
ATOM      2  C   UNL     1      16.922 116.740 295.070  1.00  0.00     0.000 C 
BRANCH   2   3
ATOM      3  C   UNL     1      17.235 117.715 293.919  1.00  0.00     0.000 C 
BRANCH   3   4
ATOM      4  C   UNL     1      18.128 117.092 292.832  1.00  0.00     0.006 C 
BRANCH   4   5
ATOM      5  C   UNL     1      17.354 116.112 291.939  1.00  0.00     0.053 C 
BRANCH   5   6
ATOM      6  C   UNL     1      18.215 115.545 290.853  1.00  0.00     0.041 C 
ATOM      7  O   UNL     1      19.438 115.841 290.795  1.00  0.00    -0.550 OA
ATOM      8  O   UNL     1      17.675 114.669 289.921  1.00  0.00    -0.550 OA
ENDBRANCH   5   6
ENDBRANCH   4   5
ENDBRANCH   3   4
ENDBRANCH   2   3
ENDBRANCH   1   2
BRANCH   1   9
ATOM      9  C   UNL     1      18.436 118.271 296.466  1.00  0.00     0.000 C 
BRANCH   9  10
ATOM     10  C   UNL     1      19.832 117.623 296.489  1.00  0.00    -0.000 C 
BRANCH  10  11
ATOM     11  C   UNL     1      20.914 118.352 295.671  1.00  0.00    -0.000 C 
BRANCH  11  12
ATOM     12  C   UNL     1      20.770 119.883 295.712  1.00  0.00    -0.000 C 
BRANCH  12  13
ATOM     13  C   UNL     1      20.288 120.466 294.375  1.00  0.00    -0.003 C 
ATOM     14  C   UNL     1      19.566 121.804 294.536  1.00  0.00     0.004 C 
ENDBRANCH  12  13
ENDBRANCH  11  12
ENDBRANCH  10  11
ENDBRANCH   9  10
ENDBRANCH   1   9
TORSDOF 10
ENDMDL
MODEL 6
REMARK VINA RESULT:    -4.435      4.256      5.693
REMARK INTER + INTRA:          -7.530
REMARK INTER:                  -7.064
REMARK INTRA:                  -0.467
REMARK UNBOUND:                -0.503
REMARK SMILES CCCCCCCCCCCC(=O)[O-]
REMARK SMILES IDX 7 1 8 2 9 3 10 4 11 5 12 6 13 7 14 8 6 9 5 10 4 11 3 12 2 13
REMARK SMILES IDX 1 14
REMARK H PARENT
REMARK Flexibility Score: inf
ROOT
ATOM      1  C   UNL     1      16.448 119.444 293.467  1.00  0.00     0.000 C 
ENDROOT
BRANCH   1   2
ATOM      2  C   UNL     1      16.064 120.898 293.794  1.00  0.00     0.000 C 
BRANCH   2   3
ATOM      3  C   UNL     1      15.315 121.649 292.676  1.00  0.00     0.000 C 
BRANCH   3   4
ATOM      4  C   UNL     1      15.922 123.029 292.370  1.00  0.00     0.006 C 
BRANCH   4   5
ATOM      5  C   UNL     1      17.236 123.265 293.128  1.00  0.00     0.053 C 
BRANCH   5   6
ATOM      6  C   UNL     1      18.366 123.583 292.199  1.00  0.00     0.041 C 
ATOM      7  O   UNL     1      19.549 123.620 292.629  1.00  0.00    -0.550 OA
ATOM      8  O   UNL     1      18.118 123.813 290.851  1.00  0.00    -0.550 OA
ENDBRANCH   5   6
ENDBRANCH   4   5
ENDBRANCH   3   4
ENDBRANCH   2   3
ENDBRANCH   1   2
BRANCH   1   9
ATOM      9  C   UNL     1      16.346 118.508 294.684  1.00  0.00     0.000 C 
BRANCH   9  10
ATOM     10  C   UNL     1      17.011 117.139 294.447  1.00  0.00    -0.000 C 
BRANCH  10  11
ATOM     11  C   UNL     1      17.803 117.008 293.133  1.00  0.00    -0.000 C 
BRANCH  11  12
ATOM     12  C   UNL     1      17.327 115.836 292.258  1.00  0.00    -0.000 C 
BRANCH  12  13
ATOM     13  C   UNL     1      17.994 115.825 290.874  1.00  0.00    -0.003 C 
ATOM     14  C   UNL     1      17.462 114.714 289.968  1.00  0.00     0.004 C 
ENDBRANCH  12  13
ENDBRANCH  11  12
ENDBRANCH  10  11
ENDBRANCH   9  10
ENDBRANCH   1   9
TORSDOF 10
ENDMDL
MODEL 7
REMARK VINA RESULT:    -4.420      2.173      2.685
REMARK INTER + INTRA:          -7.506
REMARK INTER:                  -6.784
REMARK INTRA:                  -0.722
REMARK UNBOUND:                -0.503
REMARK SMILES CCCCCCCCCCCC(=O)[O-]
REMARK SMILES IDX 7 1 8 2 9 3 10 4 11 5 12 6 13 7 14 8 6 9 5 10 4 11 3 12 2 13
REMARK SMILES IDX 1 14
REMARK H PARENT
REMARK Flexibility Score: inf
ROOT
ATOM      1  C   UNL     1      18.719 116.540 296.619  1.00  0.00     0.000 C 
ENDROOT
BRANCH   1   2
ATOM      2  C   UNL     1      20.121 116.538 297.254  1.00  0.00     0.000 C 
BRANCH   2   3
ATOM      3  C   UNL     1      21.195 117.331 296.485  1.00  0.00     0.000 C 
BRANCH   3   4
ATOM      4  C   UNL     1      21.813 118.467 297.318  1.00  0.00     0.006 C 
BRANCH   4   5
ATOM      5  C   UNL     1      21.475 119.852 296.748  1.00  0.00     0.053 C 
BRANCH   5   6
ATOM      6  C   UNL     1      20.157 120.356 297.251  1.00  0.00     0.041 C 
ATOM      7  O   UNL     1      19.480 121.160 296.559  1.00  0.00    -0.550 OA
ATOM      8  O   UNL     1      19.663 119.916 298.474  1.00  0.00    -0.550 OA
ENDBRANCH   5   6
ENDBRANCH   4   5
ENDBRANCH   3   4
ENDBRANCH   2   3
ENDBRANCH   1   2
BRANCH   1   9
ATOM      9  C   UNL     1      18.608 117.487 295.412  1.00  0.00     0.000 C 
BRANCH   9  10
ATOM     10  C   UNL     1      17.276 117.340 294.653  1.00  0.00    -0.000 C 
BRANCH  10  11
ATOM     11  C   UNL     1      17.266 116.281 293.535  1.00  0.00    -0.000 C 
BRANCH  11  12
ATOM     12  C   UNL     1      17.707 116.840 292.172  1.00  0.00    -0.000 C 
BRANCH  12  13
ATOM     13  C   UNL     1      18.253 115.751 291.237  1.00  0.00    -0.003 C 
ATOM     14  C   UNL     1      17.212 114.683 290.897  1.00  0.00     0.004 C 
ENDBRANCH  12  13
ENDBRANCH  11  12
ENDBRANCH  10  11
ENDBRANCH   9  10
ENDBRANCH   1   9
TORSDOF 10
ENDMDL
MODEL 8
REMARK VINA RESULT:    -4.418      3.665      4.268
REMARK INTER + INTRA:          -7.503
REMARK INTER:                  -6.980
REMARK INTRA:                  -0.523
REMARK UNBOUND:                -0.503
REMARK SMILES CCCCCCCCCCCC(=O)[O-]
REMARK SMILES IDX 7 1 8 2 9 3 10 4 11 5 12 6 13 7 14 8 6 9 5 10 4 11 3 12 2 13
REMARK SMILES IDX 1 14
REMARK H PARENT
REMARK Flexibility Score: inf
ROOT
ATOM      1  C   UNL     1      19.463 118.615 294.744  1.00  0.00     0.000 C 
ENDROOT
BRANCH   1   2
ATOM      2  C   UNL     1      19.671 119.280 296.116  1.00  0.00     0.000 C 
BRANCH   2   3
ATOM      3  C   UNL     1      19.664 120.821 296.110  1.00  0.00     0.000 C 
BRANCH   3   4
ATOM      4  C   UNL     1      18.874 121.412 294.930  1.00  0.00     0.006 C 
BRANCH   4   5
ATOM      5  C   UNL     1      19.780 122.175 293.953  1.00  0.00     0.053 C 
BRANCH   5   6
ATOM      6  C   UNL     1      19.167 123.471 293.520  1.00  0.00     0.041 C 
ATOM      7  O   UNL     1      18.608 124.221 294.362  1.00  0.00    -0.550 OA
ATOM      8  O   UNL     1      19.237 123.864 292.188  1.00  0.00    -0.550 OA
ENDBRANCH   5   6
ENDBRANCH   4   5
ENDBRANCH   3   4
ENDBRANCH   2   3
ENDBRANCH   1   2
BRANCH   1   9
ATOM      9  C   UNL     1      18.313 117.594 294.740  1.00  0.00     0.000 C 
BRANCH   9  10
ATOM     10  C   UNL     1      17.386 117.737 293.518  1.00  0.00    -0.000 C 
BRANCH  10  11
ATOM     11  C   UNL     1      17.257 116.482 292.635  1.00  0.00    -0.000 C 
BRANCH  11  12
ATOM     12  C   UNL     1      18.431 116.313 291.656  1.00  0.00    -0.000 C 
BRANCH  12  13
ATOM     13  C   UNL     1      17.999 115.687 290.321  1.00  0.00    -0.003 C 
ATOM     14  C   UNL     1      17.089 114.471 290.502  1.00  0.00     0.004 C 
ENDBRANCH  12  13
ENDBRANCH  11  12
ENDBRANCH  10  11
ENDBRANCH   9  10
ENDBRANCH   1   9
TORSDOF 10
ENDMDL
MODEL 9
REMARK VINA RESULT:    -4.384      3.408      5.109
REMARK INTER + INTRA:          -7.450
REMARK INTER:                  -6.557
REMARK INTRA:                  -0.893
REMARK UNBOUND:                -0.503
REMARK SMILES CCCCCCCCCCCC(=O)[O-]
REMARK SMILES IDX 7 1 8 2 9 3 10 4 11 5 12 6 13 7 14 8 6 9 5 10 4 11 3 12 2 13
REMARK SMILES IDX 1 14
REMARK H PARENT
REMARK Flexibility Score: inf
ROOT
ATOM      1  C   UNL     1      16.513 117.686 296.795  1.00  0.00     0.000 C 
ENDROOT
BRANCH   1   2
ATOM      2  C   UNL     1      15.160 117.641 296.062  1.00  0.00     0.000 C 
BRANCH   2   3
ATOM      3  C   UNL     1      14.163 118.750 296.449  1.00  0.00     0.000 C 
BRANCH   3   4
ATOM      4  C   UNL     1      14.472 120.097 295.773  1.00  0.00     0.006 C 
BRANCH   4   5
ATOM      5  C   UNL     1      14.506 119.982 294.242  1.00  0.00     0.053 C 
BRANCH   5   6
ATOM      6  C   UNL     1      15.751 120.582 293.665  1.00  0.00     0.041 C 
ATOM      7  O   UNL     1      15.694 121.268 292.611  1.00  0.00    -0.550 OA
ATOM      8  O   UNL     1      16.971 120.406 294.306  1.00  0.00    -0.550 OA
ENDBRANCH   5   6
ENDBRANCH   4   5
ENDBRANCH   3   4
ENDBRANCH   2   3
ENDBRANCH   1   2
BRANCH   1   9
ATOM      9  C   UNL     1      17.693 117.264 295.905  1.00  0.00     0.000 C 
BRANCH   9  10
ATOM     10  C   UNL     1      17.247 116.610 294.584  1.00  0.00    -0.000 C 
BRANCH  10  11
ATOM     11  C   UNL     1      17.852 117.221 293.306  1.00  0.00    -0.000 C 
BRANCH  11  12
ATOM     12  C   UNL     1      17.259 116.628 292.017  1.00  0.00    -0.000 C 
BRANCH  12  13
ATOM     13  C   UNL     1      18.283 115.805 291.222  1.00  0.00    -0.003 C 
ATOM     14  C   UNL     1      17.631 114.734 290.344  1.00  0.00     0.004 C 
ENDBRANCH  12  13
ENDBRANCH  11  12
ENDBRANCH  10  11
ENDBRANCH   9  10
ENDBRANCH   1   9
TORSDOF 10
ENDMDL
