MODEL 1
REMARK VINA RESULT:    -6.335      0.000      0.000
REMARK INTER + INTRA:          -7.802
REMARK INTER:                  -7.632
REMARK INTRA:                  -0.171
REMARK UNBOUND:                -0.171
REMARK SMILES O=c1c(O)c(-c2ccc(O)cc2O)oc2cc(O)cc(O)c12
REMARK SMILES IDX 5 1 3 2 2 3 1 4 22 5 20 6 19 7 17 8 16 9 15 10 14 11 6 12
REMARK SMILES IDX 8 13 7 14 9 15 11 16 12 17 10 18 13 20 4 22 21 24 18 26
REMARK H PARENT 10 19 13 21 4 23 21 25 18 27
REMARK Flexibility Score: inf
ROOT
ATOM      1  C   UNL     1      25.278  30.461 -13.752  1.00  0.00     0.184 A 
ATOM      2  C   UNL     1      24.908  31.473 -14.650  1.00  0.00     0.208 A 
ATOM      3  C   UNL     1      23.625  31.445 -15.218  1.00  0.00     0.238 A 
ATOM      4  O   UNL     1      23.328  32.314 -16.079  1.00  0.00    -0.285 OA
ATOM      5  C   UNL     1      22.709  30.433 -14.838  1.00  0.00     0.111 A 
ATOM      6  C   UNL     1      21.367  30.331 -15.317  1.00  0.00     0.134 A 
ATOM      7  C   UNL     1      20.587  29.227 -14.952  1.00  0.00     0.093 A 
ATOM      8  C   UNL     1      21.077  28.255 -14.076  1.00  0.00     0.123 A 
ATOM      9  C   UNL     1      22.365  28.374 -13.561  1.00  0.00     0.094 A 
ATOM     10  C   UNL     1      23.182  29.444 -13.935  1.00  0.00     0.146 A 
ATOM     11  O   UNL     1      24.411  29.507 -13.437  1.00  0.00    -0.451 OA
ENDROOT
BRANCH   1  12
ATOM     12  C   UNL     1      26.615  30.428 -13.124  1.00  0.00     0.063 A 
ATOM     13  C   UNL     1      27.957  30.378 -11.098  1.00  0.00     0.047 A 
ATOM     14  C   UNL     1      26.708  30.414 -11.723  1.00  0.00     0.020 A 
ATOM     15  C   UNL     1      29.126  30.341 -11.861  1.00  0.00     0.119 A 
ATOM     16  C   UNL     1      29.043  30.331 -13.260  1.00  0.00     0.093 A 
ATOM     17  C   UNL     1      27.793  30.362 -13.896  1.00  0.00     0.130 A 
BRANCH  15  18
ATOM     18  O   UNL     1      30.364  30.309 -11.223  1.00  0.00    -0.508 OA
ATOM     19  H   UNL     1      30.762  29.442 -10.882  1.00  0.00     0.293 HD
ENDBRANCH  15  18
BRANCH  17  20
ATOM     20  O   UNL     1      27.721  30.302 -15.288  1.00  0.00    -0.507 OA
ATOM     21  H   UNL     1      26.938  30.695 -15.798  1.00  0.00     0.293 HD
ENDBRANCH  17  20
ENDBRANCH   1  12
BRANCH   2  22
ATOM     22  O   UNL     1      25.806  32.501 -14.953  1.00  0.00    -0.502 OA
ATOM     23  H   UNL     1      25.517  33.468 -15.035  1.00  0.00     0.293 HD
ENDBRANCH   2  22
BRANCH   6  24
ATOM     24  O   UNL     1      20.749  31.290 -16.125  1.00  0.00    -0.507 OA
ATOM     25  H   UNL     1      21.057  31.554 -17.048  1.00  0.00     0.293 HD
ENDBRANCH   6  24
BRANCH   8  26
ATOM     26  O   UNL     1      20.286  27.169 -13.706  1.00  0.00    -0.508 OA
ATOM     27  H   UNL     1      20.548  26.560 -12.940  1.00  0.00     0.293 HD
ENDBRANCH   8  26
TORSDOF 6
ENDMDL
MODEL 2
REMARK VINA RESULT:    -6.328      5.342      6.792
REMARK INTER + INTRA:          -7.793
REMARK INTER:                  -7.472
REMARK INTRA:                  -0.321
REMARK UNBOUND:                -0.171
REMARK SMILES O=c1c(O)c(-c2ccc(O)cc2O)oc2cc(O)cc(O)c12
REMARK SMILES IDX 5 1 3 2 2 3 1 4 22 5 20 6 19 7 17 8 16 9 15 10 14 11 6 12
REMARK SMILES IDX 8 13 7 14 9 15 11 16 12 17 10 18 13 20 4 22 21 24 18 26
REMARK H PARENT 10 19 13 21 4 23 21 25 18 27
REMARK Flexibility Score: inf
ROOT
ATOM      1  C   UNL     1      26.696  25.515 -12.711  1.00  0.00     0.184 A 
ATOM      2  C   UNL     1      26.373  25.780 -14.049  1.00  0.00     0.208 A 
ATOM      3  C   UNL     1      26.271  27.114 -14.473  1.00  0.00     0.238 A 
ATOM      4  O   UNL     1      25.907  27.345 -15.656  1.00  0.00    -0.285 OA
ATOM      5  C   UNL     1      26.547  28.166 -13.564  1.00  0.00     0.111 A 
ATOM      6  C   UNL     1      26.516  29.554 -13.895  1.00  0.00     0.134 A 
ATOM      7  C   UNL     1      26.704  30.508 -12.886  1.00  0.00     0.093 A 
ATOM      8  C   UNL     1      26.984  30.124 -11.573  1.00  0.00     0.123 A 
ATOM      9  C   UNL     1      27.069  28.771 -11.251  1.00  0.00     0.094 A 
ATOM     10  C   UNL     1      26.850  27.795 -12.226  1.00  0.00     0.146 A 
ATOM     11  O   UNL     1      26.920  26.518 -11.872  1.00  0.00    -0.451 OA
ENDROOT
BRANCH   1  12
ATOM     12  C   UNL     1      26.813  24.133 -12.199  1.00  0.00     0.063 A 
ATOM     13  C   UNL     1      25.898  22.339 -10.837  1.00  0.00     0.047 A 
ATOM     14  C   UNL     1      25.821  23.643 -11.334  1.00  0.00     0.020 A 
ATOM     15  C   UNL     1      26.957  21.506 -11.206  1.00  0.00     0.119 A 
ATOM     16  C   UNL     1      27.938  21.978 -12.088  1.00  0.00     0.093 A 
ATOM     17  C   UNL     1      27.865  23.284 -12.596  1.00  0.00     0.130 A 
BRANCH  15  18
ATOM     18  O   UNL     1      27.021  20.210 -10.699  1.00  0.00    -0.508 OA
ATOM     19  H   UNL     1      26.409  19.903  -9.952  1.00  0.00     0.293 HD
ENDBRANCH  15  18
BRANCH  17  20
ATOM     20  O   UNL     1      28.821  23.727 -13.511  1.00  0.00    -0.507 OA
ATOM     21  H   UNL     1      28.559  24.090 -14.420  1.00  0.00     0.293 HD
ENDBRANCH  17  20
ENDBRANCH   1  12
BRANCH   2  22
ATOM     22  O   UNL     1      26.176  24.725 -14.944  1.00  0.00    -0.502 OA
ATOM     23  H   UNL     1      26.935  24.137 -15.267  1.00  0.00     0.293 HD
ENDBRANCH   2  22
BRANCH   6  24
ATOM     24  O   UNL     1      26.333  30.048 -15.190  1.00  0.00    -0.507 OA
ATOM     25  H   UNL     1      25.455  30.061 -15.684  1.00  0.00     0.293 HD
ENDBRANCH   6  24
BRANCH   8  26
ATOM     26  O   UNL     1      27.185  31.080 -10.579  1.00  0.00    -0.508 OA
ATOM     27  H   UNL     1      27.400  32.043 -10.808  1.00  0.00     0.293 HD
ENDBRANCH   8  26
TORSDOF 6
ENDMDL
MODEL 3
REMARK VINA RESULT:    -6.250      3.215      6.481
REMARK INTER + INTRA:          -7.700
REMARK INTER:                  -7.312
REMARK INTRA:                  -0.388
REMARK UNBOUND:                -0.171
REMARK SMILES O=c1c(O)c(-c2ccc(O)cc2O)oc2cc(O)cc(O)c12
REMARK SMILES IDX 5 1 3 2 2 3 1 4 22 5 20 6 19 7 17 8 16 9 15 10 14 11 6 12
REMARK SMILES IDX 8 13 7 14 9 15 11 16 12 17 10 18 13 20 4 22 21 24 18 26
REMARK H PARENT 10 19 13 21 4 23 21 25 18 27
REMARK Flexibility Score: inf
ROOT
ATOM      1  C   UNL     1      24.310  30.752 -11.448  1.00  0.00     0.184 A 
ATOM      2  C   UNL     1      24.108  30.859 -12.832  1.00  0.00     0.208 A 
ATOM      3  C   UNL     1      25.216  30.790 -13.689  1.00  0.00     0.238 A 
ATOM      4  O   UNL     1      25.036  30.962 -14.923  1.00  0.00    -0.285 OA
ATOM      5  C   UNL     1      26.508  30.560 -13.154  1.00  0.00     0.111 A 
ATOM      6  C   UNL     1      27.698  30.429 -13.933  1.00  0.00     0.134 A 
ATOM      7  C   UNL     1      28.935  30.308 -13.286  1.00  0.00     0.093 A 
ATOM      8  C   UNL     1      29.019  30.249 -11.893  1.00  0.00     0.123 A 
ATOM      9  C   UNL     1      27.858  30.322 -11.127  1.00  0.00     0.094 A 
ATOM     10  C   UNL     1      26.613  30.481 -11.740  1.00  0.00     0.146 A 
ATOM     11  O   UNL     1      25.534  30.567 -10.970  1.00  0.00    -0.451 OA
ENDROOT
BRANCH   1  12
ATOM     12  C   UNL     1      23.187  30.823 -10.490  1.00  0.00     0.063 A 
ATOM     13  C   UNL     1      21.426  32.136  -9.449  1.00  0.00     0.047 A 
ATOM     14  C   UNL     1      22.496  32.036 -10.341  1.00  0.00     0.020 A 
ATOM     15  C   UNL     1      21.024  31.024  -8.705  1.00  0.00     0.119 A 
ATOM     16  C   UNL     1      21.691  29.802  -8.864  1.00  0.00     0.093 A 
ATOM     17  C   UNL     1      22.763  29.693  -9.762  1.00  0.00     0.130 A 
BRANCH  15  18
ATOM     18  O   UNL     1      19.957  31.141  -7.816  1.00  0.00    -0.508 OA
ATOM     19  H   UNL     1      19.254  30.416  -7.735  1.00  0.00     0.293 HD
ENDBRANCH  15  18
BRANCH  17  20
ATOM     20  O   UNL     1      23.389  28.459  -9.947  1.00  0.00    -0.507 OA
ATOM     21  H   UNL     1      24.266  28.378 -10.449  1.00  0.00     0.293 HD
ENDBRANCH  17  20
ENDBRANCH   1  12
BRANCH   2  22
ATOM     22  O   UNL     1      22.815  31.013 -13.339  1.00  0.00    -0.502 OA
ATOM     23  H   UNL     1      22.103  31.549 -12.858  1.00  0.00     0.293 HD
ENDBRANCH   2  22
BRANCH   6  24
ATOM     24  O   UNL     1      27.719  30.386 -15.330  1.00  0.00    -0.507 OA
ATOM     25  H   UNL     1      27.057  29.887 -15.903  1.00  0.00     0.293 HD
ENDBRANCH   6  24
BRANCH   8  26
ATOM     26  O   UNL     1      30.253  30.113 -11.261  1.00  0.00    -0.508 OA
ATOM     27  H   UNL     1      30.344  29.625 -10.377  1.00  0.00     0.293 HD
ENDBRANCH   8  26
TORSDOF 6
ENDMDL
MODEL 4
REMARK VINA RESULT:    -5.945      1.566      1.654
REMARK INTER + INTRA:          -7.332
REMARK INTER:                  -6.898
REMARK INTRA:                  -0.434
REMARK UNBOUND:                -0.171
REMARK SMILES O=c1c(O)c(-c2ccc(O)cc2O)oc2cc(O)cc(O)c12
REMARK SMILES IDX 5 1 3 2 2 3 1 4 22 5 20 6 19 7 17 8 16 9 15 10 14 11 6 12
REMARK SMILES IDX 8 13 7 14 9 15 11 16 12 17 10 18 13 20 4 22 21 24 18 26
REMARK H PARENT 10 19 13 21 4 23 21 25 18 27
REMARK Flexibility Score: inf
ROOT
ATOM      1  C   UNL     1      25.427  29.903 -13.108  1.00  0.00     0.184 A 
ATOM      2  C   UNL     1      24.479  30.926 -12.959  1.00  0.00     0.208 A 
ATOM      3  C   UNL     1      23.192  30.743 -13.488  1.00  0.00     0.238 A 
ATOM      4  O   UNL     1      22.370  31.693 -13.416  1.00  0.00    -0.285 OA
ATOM      5  C   UNL     1      22.854  29.516 -14.111  1.00  0.00     0.111 A 
ATOM      6  C   UNL     1      21.567  29.204 -14.645  1.00  0.00     0.134 A 
ATOM      7  C   UNL     1      21.379  27.998 -15.333  1.00  0.00     0.093 A 
ATOM      8  C   UNL     1      22.413  27.067 -15.452  1.00  0.00     0.123 A 
ATOM      9  C   UNL     1      23.657  27.339 -14.888  1.00  0.00     0.094 A 
ATOM     10  C   UNL     1      23.887  28.548 -14.228  1.00  0.00     0.146 A 
ATOM     11  O   UNL     1      25.094  28.776 -13.724  1.00  0.00    -0.451 OA
ENDROOT
BRANCH   1  12
ATOM     12  C   UNL     1      26.802  30.034 -12.581  1.00  0.00     0.063 A 
ATOM     13  C   UNL     1      28.309  29.976 -10.675  1.00  0.00     0.047 A 
ATOM     14  C   UNL     1      27.021  29.864 -11.205  1.00  0.00     0.020 A 
ATOM     15  C   UNL     1      29.394  30.246 -11.512  1.00  0.00     0.119 A 
ATOM     16  C   UNL     1      29.189  30.394 -12.891  1.00  0.00     0.093 A 
ATOM     17  C   UNL     1      27.900  30.277 -13.431  1.00  0.00     0.130 A 
BRANCH  15  18
ATOM     18  O   UNL     1      30.672  30.358 -10.968  1.00  0.00    -0.508 OA
ATOM     19  H   UNL     1      31.376  30.953 -11.389  1.00  0.00     0.293 HD
ENDBRANCH  15  18
BRANCH  17  20
ATOM     20  O   UNL     1      27.714  30.378 -14.811  1.00  0.00    -0.507 OA
ATOM     21  H   UNL     1      27.385  29.594 -15.362  1.00  0.00     0.293 HD
ENDBRANCH  17  20
ENDBRANCH   1  12
BRANCH   2  22
ATOM     22  O   UNL     1      24.816  32.097 -12.276  1.00  0.00    -0.502 OA
ATOM     23  H   UNL     1      24.136  32.637 -11.755  1.00  0.00     0.293 HD
ENDBRANCH   2  22
BRANCH   6  24
ATOM     24  O   UNL     1      20.441  30.022 -14.506  1.00  0.00    -0.507 OA
ATOM     25  H   UNL     1      19.978  30.500 -15.263  1.00  0.00     0.293 HD
ENDBRANCH   6  24
BRANCH   8  26
ATOM     26  O   UNL     1      22.212  25.863 -16.125  1.00  0.00    -0.508 OA
ATOM     27  H   UNL     1      22.120  25.829 -17.133  1.00  0.00     0.293 HD
ENDBRANCH   8  26
TORSDOF 6
ENDMDL
MODEL 5
REMARK VINA RESULT:    -5.931      3.611      6.020
REMARK INTER + INTRA:          -7.315
REMARK INTER:                  -6.907
REMARK INTRA:                  -0.409
REMARK UNBOUND:                -0.171
REMARK SMILES O=c1c(O)c(-c2ccc(O)cc2O)oc2cc(O)cc(O)c12
REMARK SMILES IDX 5 1 3 2 2 3 1 4 22 5 20 6 19 7 17 8 16 9 15 10 14 11 6 12
REMARK SMILES IDX 8 13 7 14 9 15 11 16 12 17 10 18 13 20 4 22 21 24 18 26
REMARK H PARENT 10 19 13 21 4 23 21 25 18 27
REMARK Flexibility Score: inf
ROOT
ATOM      1  C   UNL     1      25.676  29.476 -11.199  1.00  0.00     0.184 A 
ATOM      2  C   UNL     1      26.615  29.652 -10.172  1.00  0.00     0.208 A 
ATOM      3  C   UNL     1      26.664  28.717  -9.127  1.00  0.00     0.238 A 
ATOM      4  O   UNL     1      27.457  28.922  -8.171  1.00  0.00    -0.285 OA
ATOM      5  C   UNL     1      25.809  27.587  -9.151  1.00  0.00     0.111 A 
ATOM      6  C   UNL     1      25.802  26.553  -8.167  1.00  0.00     0.134 A 
ATOM      7  C   UNL     1      24.838  25.539  -8.240  1.00  0.00     0.093 A 
ATOM      8  C   UNL     1      23.924  25.486  -9.294  1.00  0.00     0.123 A 
ATOM      9  C   UNL     1      23.958  26.461 -10.288  1.00  0.00     0.094 A 
ATOM     10  C   UNL     1      24.882  27.507 -10.225  1.00  0.00     0.146 A 
ATOM     11  O   UNL     1      24.865  28.426 -11.182  1.00  0.00    -0.451 OA
ENDROOT
BRANCH   1  12
ATOM     12  C   UNL     1      25.568  30.428 -12.325  1.00  0.00     0.063 A 
ATOM     13  C   UNL     1      24.597  32.460 -13.240  1.00  0.00     0.047 A 
ATOM     14  C   UNL     1      24.718  31.538 -12.197  1.00  0.00     0.020 A 
ATOM     15  C   UNL     1      25.332  32.293 -14.416  1.00  0.00     0.119 A 
ATOM     16  C   UNL     1      26.201  31.201 -14.544  1.00  0.00     0.093 A 
ATOM     17  C   UNL     1      26.332  30.274 -13.499  1.00  0.00     0.130 A 
BRANCH  15  18
ATOM     18  O   UNL     1      25.198  33.218 -15.449  1.00  0.00    -0.508 OA
ATOM     19  H   UNL     1      24.779  32.965 -16.336  1.00  0.00     0.293 HD
ENDBRANCH  15  18
BRANCH  17  20
ATOM     20  O   UNL     1      27.237  29.218 -13.618  1.00  0.00    -0.507 OA
ATOM     21  H   UNL     1      27.513  28.854 -14.523  1.00  0.00     0.293 HD
ENDBRANCH  17  20
ENDBRANCH   1  12
BRANCH   2  22
ATOM     22  O   UNL     1      27.497  30.736 -10.209  1.00  0.00    -0.502 OA
ATOM     23  H   UNL     1      27.186  31.683 -10.387  1.00  0.00     0.293 HD
ENDBRANCH   2  22
BRANCH   6  24
ATOM     24  O   UNL     1      26.725  26.460  -7.121  1.00  0.00    -0.507 OA
ATOM     25  H   UNL     1      27.538  25.865  -7.120  1.00  0.00     0.293 HD
ENDBRANCH   6  24
BRANCH   8  26
ATOM     26  O   UNL     1      22.980  24.464  -9.366  1.00  0.00    -0.508 OA
ATOM     27  H   UNL     1      23.229  23.534  -9.684  1.00  0.00     0.293 HD
ENDBRANCH   8  26
TORSDOF 6
ENDMDL
MODEL 6
REMARK VINA RESULT:    -5.828      1.412      6.587
REMARK INTER + INTRA:          -7.191
REMARK INTER:                  -6.774
REMARK INTRA:                  -0.417
REMARK UNBOUND:                -0.171
REMARK SMILES O=c1c(O)c(-c2ccc(O)cc2O)oc2cc(O)cc(O)c12
REMARK SMILES IDX 5 1 3 2 2 3 1 4 22 5 20 6 19 7 17 8 16 9 15 10 14 11 6 12
REMARK SMILES IDX 8 13 7 14 9 15 11 16 12 17 10 18 13 20 4 22 21 24 18 26
REMARK H PARENT 10 19 13 21 4 23 21 25 18 27
REMARK Flexibility Score: inf
ROOT
ATOM      1  C   UNL     1      24.823  29.936 -13.791  1.00  0.00     0.184 A 
ATOM      2  C   UNL     1      25.879  30.129 -14.693  1.00  0.00     0.208 A 
ATOM      3  C   UNL     1      27.182  30.282 -14.193  1.00  0.00     0.238 A 
ATOM      4  O   UNL     1      28.113  30.529 -15.003  1.00  0.00    -0.285 OA
ATOM      5  C   UNL     1      27.418  30.186 -12.799  1.00  0.00     0.111 A 
ATOM      6  C   UNL     1      28.703  30.282 -12.184  1.00  0.00     0.134 A 
ATOM      7  C   UNL     1      28.801  30.278 -10.787  1.00  0.00     0.093 A 
ATOM      8  C   UNL     1      27.669  30.116  -9.985  1.00  0.00     0.123 A 
ATOM      9  C   UNL     1      26.417  29.968 -10.577  1.00  0.00     0.094 A 
ATOM     10  C   UNL     1      26.281  30.005 -11.966  1.00  0.00     0.146 A 
ATOM     11  O   UNL     1      25.066  29.881 -12.488  1.00  0.00    -0.451 OA
ENDROOT
BRANCH   1  12
ATOM     12  C   UNL     1      23.428  29.775 -14.251  1.00  0.00     0.063 A 
ATOM     13  C   UNL     1      21.599  28.291 -14.854  1.00  0.00     0.047 A 
ATOM     14  C   UNL     1      22.915  28.479 -14.426  1.00  0.00     0.020 A 
ATOM     15  C   UNL     1      20.774  29.392 -15.099  1.00  0.00     0.119 A 
ATOM     16  C   UNL     1      21.268  30.688 -14.904  1.00  0.00     0.093 A 
ATOM     17  C   UNL     1      22.588  30.885 -14.469  1.00  0.00     0.130 A 
BRANCH  15  18
ATOM     18  O   UNL     1      19.465  29.188 -15.530  1.00  0.00    -0.508 OA
ATOM     19  H   UNL     1      18.815  28.620 -14.998  1.00  0.00     0.293 HD
ENDBRANCH  15  18
BRANCH  17  20
ATOM     20  O   UNL     1      23.054  32.179 -14.232  1.00  0.00    -0.507 OA
ATOM     21  H   UNL     1      22.877  32.655 -13.355  1.00  0.00     0.293 HD
ENDBRANCH  17  20
ENDBRANCH   1  12
BRANCH   2  22
ATOM     22  O   UNL     1      25.630  30.147 -16.068  1.00  0.00    -0.502 OA
ATOM     23  H   UNL     1      26.320  30.457 -16.741  1.00  0.00     0.293 HD
ENDBRANCH   2  22
BRANCH   6  24
ATOM     24  O   UNL     1      29.906  30.358 -12.892  1.00  0.00    -0.507 OA
ATOM     25  H   UNL     1      30.824  30.318 -12.477  1.00  0.00     0.293 HD
ENDBRANCH   6  24
BRANCH   8  26
ATOM     26  O   UNL     1      27.779  30.097  -8.596  1.00  0.00    -0.508 OA
ATOM     27  H   UNL     1      28.272  30.826  -8.093  1.00  0.00     0.293 HD
ENDBRANCH   8  26
TORSDOF 6
ENDMDL
MODEL 7
REMARK VINA RESULT:    -5.827      3.271      4.144
REMARK INTER + INTRA:          -7.189
REMARK INTER:                  -6.874
REMARK INTRA:                  -0.316
REMARK UNBOUND:                -0.171
REMARK SMILES O=c1c(O)c(-c2ccc(O)cc2O)oc2cc(O)cc(O)c12
REMARK SMILES IDX 5 1 3 2 2 3 1 4 22 5 20 6 19 7 17 8 16 9 15 10 14 11 6 12
REMARK SMILES IDX 8 13 7 14 9 15 11 16 12 17 10 18 13 20 4 22 21 24 18 26
REMARK H PARENT 10 19 13 21 4 23 21 25 18 27
REMARK Flexibility Score: inf
ROOT
ATOM      1  C   UNL     1      25.685  28.218 -13.249  1.00  0.00     0.184 A 
ATOM      2  C   UNL     1      26.653  29.197 -13.515  1.00  0.00     0.208 A 
ATOM      3  C   UNL     1      26.261  30.389 -14.143  1.00  0.00     0.238 A 
ATOM      4  O   UNL     1      27.146  31.231 -14.446  1.00  0.00    -0.285 OA
ATOM      5  C   UNL     1      24.895  30.608 -14.449  1.00  0.00     0.111 A 
ATOM      6  C   UNL     1      24.377  31.797 -15.047  1.00  0.00     0.134 A 
ATOM      7  C   UNL     1      23.023  31.858 -15.400  1.00  0.00     0.093 A 
ATOM      8  C   UNL     1      22.155  30.800 -15.118  1.00  0.00     0.123 A 
ATOM      9  C   UNL     1      22.640  29.657 -14.486  1.00  0.00     0.094 A 
ATOM     10  C   UNL     1      23.993  29.550 -14.156  1.00  0.00     0.146 A 
ATOM     11  O   UNL     1      24.417  28.435 -13.573  1.00  0.00    -0.451 OA
ENDROOT
BRANCH   1  12
ATOM     12  C   UNL     1      26.032  26.938 -12.596  1.00  0.00     0.063 A 
ATOM     13  C   UNL     1      25.870  25.489 -10.651  1.00  0.00     0.047 A 
ATOM     14  C   UNL     1      25.565  26.690 -11.295  1.00  0.00     0.020 A 
ATOM     15  C   UNL     1      26.633  24.515 -11.301  1.00  0.00     0.119 A 
ATOM     16  C   UNL     1      27.084  24.744 -12.608  1.00  0.00     0.093 A 
ATOM     17  C   UNL     1      26.777  25.945 -13.263  1.00  0.00     0.130 A 
BRANCH  15  18
ATOM     18  O   UNL     1      26.933  23.324 -10.644  1.00  0.00    -0.508 OA
ATOM     19  H   UNL     1      26.203  22.705 -10.310  1.00  0.00     0.293 HD
ENDBRANCH  15  18
BRANCH  17  20
ATOM     20  O   UNL     1      27.191  26.142 -14.582  1.00  0.00    -0.507 OA
ATOM     21  H   UNL     1      27.078  27.035 -15.047  1.00  0.00     0.293 HD
ENDBRANCH  17  20
ENDBRANCH   1  12
BRANCH   2  22
ATOM     22  O   UNL     1      27.982  28.987 -13.137  1.00  0.00    -0.502 OA
ATOM     23  H   UNL     1      28.757  29.126 -13.775  1.00  0.00     0.293 HD
ENDBRANCH   2  22
BRANCH   6  24
ATOM     24  O   UNL     1      25.135  32.946 -15.291  1.00  0.00    -0.507 OA
ATOM     25  H   UNL     1      25.441  33.254 -16.201  1.00  0.00     0.293 HD
ENDBRANCH   6  24
BRANCH   8  26
ATOM     26  O   UNL     1      20.806  30.877 -15.458  1.00  0.00    -0.508 OA
ATOM     27  H   UNL     1      20.479  31.497 -16.189  1.00  0.00     0.293 HD
ENDBRANCH   8  26
TORSDOF 6
ENDMDL
MODEL 8
REMARK VINA RESULT:    -5.735      3.359      4.441
REMARK INTER + INTRA:          -7.080
REMARK INTER:                  -6.668
REMARK INTRA:                  -0.411
REMARK UNBOUND:                -0.171
REMARK SMILES O=c1c(O)c(-c2ccc(O)cc2O)oc2cc(O)cc(O)c12
REMARK SMILES IDX 5 1 3 2 2 3 1 4 22 5 20 6 19 7 17 8 16 9 15 10 14 11 6 12
REMARK SMILES IDX 8 13 7 14 9 15 11 16 12 17 10 18 13 20 4 22 21 24 18 26
REMARK H PARENT 10 19 13 21 4 23 21 25 18 27
REMARK Flexibility Score: inf
ROOT
ATOM      1  C   UNL     1      25.816  28.028 -13.556  1.00  0.00     0.184 A 
ATOM      2  C   UNL     1      26.728  29.092 -13.623  1.00  0.00     0.208 A 
ATOM      3  C   UNL     1      26.306  30.317 -14.163  1.00  0.00     0.238 A 
ATOM      4  O   UNL     1      27.149  31.243 -14.288  1.00  0.00    -0.285 OA
ATOM      5  C   UNL     1      24.961  30.478 -14.580  1.00  0.00     0.111 A 
ATOM      6  C   UNL     1      24.412  31.688 -15.103  1.00  0.00     0.134 A 
ATOM      7  C   UNL     1      23.096  31.697 -15.581  1.00  0.00     0.093 A 
ATOM      8  C   UNL     1      22.289  30.561 -15.497  1.00  0.00     0.123 A 
ATOM      9  C   UNL     1      22.798  29.391 -14.939  1.00  0.00     0.094 A 
ATOM     10  C   UNL     1      24.119  29.337 -14.487  1.00  0.00     0.146 A 
ATOM     11  O   UNL     1      24.570  28.195 -13.982  1.00  0.00    -0.451 OA
ENDROOT
BRANCH   1  12
ATOM     12  C   UNL     1      26.197  26.711 -13.005  1.00  0.00     0.063 A 
ATOM     13  C   UNL     1      27.376  24.604 -13.290  1.00  0.00     0.047 A 
ATOM     14  C   UNL     1      26.992  25.853 -13.783  1.00  0.00     0.020 A 
ATOM     15  C   UNL     1      26.983  24.200 -12.011  1.00  0.00     0.119 A 
ATOM     16  C   UNL     1      26.210  25.059 -11.218  1.00  0.00     0.093 A 
ATOM     17  C   UNL     1      25.825  26.318 -11.704  1.00  0.00     0.130 A 
BRANCH  15  18
ATOM     18  O   UNL     1      27.370  22.950 -11.535  1.00  0.00    -0.508 OA
ATOM     19  H   UNL     1      27.133  22.098 -12.030  1.00  0.00     0.293 HD
ENDBRANCH  15  18
BRANCH  17  20
ATOM     20  O   UNL     1      25.096  27.183 -10.887  1.00  0.00    -0.507 OA
ATOM     21  H   UNL     1      24.117  27.381 -11.061  1.00  0.00     0.293 HD
ENDBRANCH  17  20
ENDBRANCH   1  12
BRANCH   2  22
ATOM     22  O   UNL     1      28.028  28.930 -13.138  1.00  0.00    -0.502 OA
ATOM     23  H   UNL     1      28.237  28.876 -12.149  1.00  0.00     0.293 HD
ENDBRANCH   2  22
BRANCH   6  24
ATOM     24  O   UNL     1      25.101  32.903 -15.152  1.00  0.00    -0.507 OA
ATOM     25  H   UNL     1      24.729  33.764 -15.522  1.00  0.00     0.293 HD
ENDBRANCH   6  24
BRANCH   8  26
ATOM     26  O   UNL     1      20.975  30.585 -15.960  1.00  0.00    -0.508 OA
ATOM     27  H   UNL     1      20.213  30.905 -15.374  1.00  0.00     0.293 HD
ENDBRANCH   8  26
TORSDOF 6
ENDMDL
MODEL 9
REMARK VINA RESULT:    -5.715      5.026      6.791
REMARK INTER + INTRA:          -7.055
REMARK INTER:                  -6.623
REMARK INTRA:                  -0.432
REMARK UNBOUND:                -0.171
REMARK SMILES O=c1c(O)c(-c2ccc(O)cc2O)oc2cc(O)cc(O)c12
REMARK SMILES IDX 5 1 3 2 2 3 1 4 22 5 20 6 19 7 17 8 16 9 15 10 14 11 6 12
REMARK SMILES IDX 8 13 7 14 9 15 11 16 12 17 10 18 13 20 4 22 21 24 18 26
REMARK H PARENT 10 19 13 21 4 23 21 25 18 27
REMARK Flexibility Score: inf
ROOT
ATOM      1  C   UNL     1      26.451  26.905 -12.364  1.00  0.00     0.184 A 
ATOM      2  C   UNL     1      27.011  25.771 -12.971  1.00  0.00     0.208 A 
ATOM      3  C   UNL     1      27.017  24.556 -12.270  1.00  0.00     0.238 A 
ATOM      4  O   UNL     1      27.587  23.562 -12.790  1.00  0.00    -0.285 OA
ATOM      5  C   UNL     1      26.413  24.478 -10.990  1.00  0.00     0.111 A 
ATOM      6  C   UNL     1      26.323  23.288 -10.205  1.00  0.00     0.134 A 
ATOM      7  C   UNL     1      25.798  23.356  -8.908  1.00  0.00     0.093 A 
ATOM      8  C   UNL     1      25.302  24.555  -8.392  1.00  0.00     0.123 A 
ATOM      9  C   UNL     1      25.337  25.710  -9.170  1.00  0.00     0.094 A 
ATOM     10  C   UNL     1      25.888  25.684 -10.453  1.00  0.00     0.146 A 
ATOM     11  O   UNL     1      25.920  26.812 -11.152  1.00  0.00    -0.451 OA
ENDROOT
BRANCH   1  12
ATOM     12  C   UNL     1      26.419  28.216 -13.045  1.00  0.00     0.063 A 
ATOM     13  C   UNL     1      25.433  29.650 -14.743  1.00  0.00     0.047 A 
ATOM     14  C   UNL     1      25.494  28.421 -14.082  1.00  0.00     0.020 A 
ATOM     15  C   UNL     1      26.284  30.693 -14.370  1.00  0.00     0.119 A 
ATOM     16  C   UNL     1      27.194  30.506 -13.321  1.00  0.00     0.093 A 
ATOM     17  C   UNL     1      27.258  29.277 -12.648  1.00  0.00     0.130 A 
BRANCH  15  18
ATOM     18  O   UNL     1      26.214  31.912 -15.041  1.00  0.00    -0.508 OA
ATOM     19  H   UNL     1      25.743  31.997 -15.935  1.00  0.00     0.293 HD
ENDBRANCH  15  18
BRANCH  17  20
ATOM     20  O   UNL     1      28.134  29.118 -11.574  1.00  0.00    -0.507 OA
ATOM     21  H   UNL     1      29.092  28.817 -11.709  1.00  0.00     0.293 HD
ENDBRANCH  17  20
ENDBRANCH   1  12
BRANCH   2  22
ATOM     22  O   UNL     1      27.535  25.857 -14.264  1.00  0.00    -0.502 OA
ATOM     23  H   UNL     1      28.097  25.121 -14.673  1.00  0.00     0.293 HD
ENDBRANCH   2  22
BRANCH   6  24
ATOM     24  O   UNL     1      26.707  22.022 -10.656  1.00  0.00    -0.507 OA
ATOM     25  H   UNL     1      27.634  21.635 -10.571  1.00  0.00     0.293 HD
ENDBRANCH   6  24
BRANCH   8  26
ATOM     26  O   UNL     1      24.766  24.608  -7.107  1.00  0.00    -0.508 OA
ATOM     27  H   UNL     1      24.833  23.820  -6.472  1.00  0.00     0.293 HD
ENDBRANCH   8  26
TORSDOF 6
ENDMDL
