MODEL 1
REMARK VINA RESULT:    -3.204      0.000      0.000
REMARK INTER + INTRA:          -7.843
REMARK INTER:                  -5.827
REMARK INTRA:                  -2.017
REMARK UNBOUND:                -2.017
REMARK SMILES CCCCCCCCCCCCCCCC(=O)[O-]
REMARK SMILES IDX 9 1 10 2 11 3 12 4 13 5 14 6 15 7 16 8 17 9 18 10 8 11 7 12
REMARK SMILES IDX 6 13 5 14 4 15 3 16 2 17 1 18
REMARK H PARENT
REMARK Flexibility Score: inf
ROOT
ATOM      1  C   UNL     1     -16.793 -13.763  27.556  1.00  0.00     0.000 C 
ENDROOT
BRANCH   1   2
ATOM      2  C   UNL     1     -15.858 -14.440  26.538  1.00  0.00     0.000 C 
BRANCH   2   3
ATOM      3  C   UNL     1     -15.720 -15.954  26.772  1.00  0.00     0.000 C 
BRANCH   3   4
ATOM      4  C   UNL     1     -16.848 -16.528  27.645  1.00  0.00     0.000 C 
BRANCH   4   5
ATOM      5  C   UNL     1     -16.397 -17.104  29.003  1.00  0.00     0.000 C 
BRANCH   5   6
ATOM      6  C   UNL     1     -14.939 -17.610  29.012  1.00  0.00     0.006 C 
BRANCH   6   7
ATOM      7  C   UNL     1     -14.049 -16.805  29.968  1.00  0.00     0.053 C 
BRANCH   7   8
ATOM      8  C   UNL     1     -12.610 -16.941  29.583  1.00  0.00     0.041 C 
ATOM      9  O   UNL     1     -11.904 -17.855  30.086  1.00  0.00    -0.550 OA
ATOM     10  O   UNL     1     -12.060 -16.091  28.633  1.00  0.00    -0.550 OA
ENDBRANCH   7   8
ENDBRANCH   6   7
ENDBRANCH   5   6
ENDBRANCH   4   5
ENDBRANCH   3   4
ENDBRANCH   2   3
ENDBRANCH   1   2
BRANCH   1  11
ATOM     11  C   UNL     1     -17.998 -13.021  26.943  1.00  0.00     0.000 C 
BRANCH  11  12
ATOM     12  C   UNL     1     -17.656 -12.073  25.777  1.00  0.00    -0.000 C 
BRANCH  12  13
ATOM     13  C   UNL     1     -18.342 -12.411  24.438  1.00  0.00    -0.000 C 
BRANCH  13  14
ATOM     14  C   UNL     1     -17.576 -13.406  23.548  1.00  0.00    -0.000 C 
BRANCH  14  15
ATOM     15  C   UNL     1     -18.428 -14.616  23.134  1.00  0.00    -0.000 C 
BRANCH  15  16
ATOM     16  C   UNL     1     -18.001 -15.875  23.904  1.00  0.00    -0.000 C 
BRANCH  16  17
ATOM     17  C   UNL     1     -19.196 -16.642  24.489  1.00  0.00    -0.003 C 
ATOM     18  C   UNL     1     -19.869 -15.899  25.643  1.00  0.00     0.004 C 
ENDBRANCH  16  17
ENDBRANCH  15  16
ENDBRANCH  14  15
ENDBRANCH  13  14
ENDBRANCH  12  13
ENDBRANCH  11  12
ENDBRANCH   1  11
TORSDOF 14
ENDMDL
MODEL 2
REMARK VINA RESULT:    -3.187      3.678      7.155
REMARK INTER + INTRA:          -7.811
REMARK INTER:                  -5.878
REMARK INTRA:                  -1.934
REMARK UNBOUND:                -2.017
REMARK SMILES CCCCCCCCCCCCCCCC(=O)[O-]
REMARK SMILES IDX 9 1 10 2 11 3 12 4 13 5 14 6 15 7 16 8 17 9 18 10 8 11 7 12
REMARK SMILES IDX 6 13 5 14 4 15 3 16 2 17 1 18
REMARK H PARENT
REMARK Flexibility Score: inf
ROOT
ATOM      1  C   UNL     1     -15.752 -17.581  28.715  1.00  0.00     0.000 C 
ENDROOT
BRANCH   1   2
ATOM      2  C   UNL     1     -16.457 -16.517  27.854  1.00  0.00     0.000 C 
BRANCH   2   3
ATOM      3  C   UNL     1     -15.541 -15.927  26.768  1.00  0.00     0.000 C 
BRANCH   3   4
ATOM      4  C   UNL     1     -16.055 -14.586  26.218  1.00  0.00     0.000 C 
BRANCH   4   5
ATOM      5  C   UNL     1     -17.042 -13.837  27.136  1.00  0.00     0.000 C 
BRANCH   5   6
ATOM      6  C   UNL     1     -18.296 -13.313  26.407  1.00  0.00     0.006 C 
BRANCH   6   7
ATOM      7  C   UNL     1     -17.943 -12.398  25.227  1.00  0.00     0.053 C 
BRANCH   7   8
ATOM      8  C   UNL     1     -18.634 -12.858  23.983  1.00  0.00     0.041 C 
ATOM      9  O   UNL     1     -18.257 -12.439  22.856  1.00  0.00    -0.550 OA
ATOM     10  O   UNL     1     -19.663 -13.788  24.062  1.00  0.00    -0.550 OA
ENDBRANCH   7   8
ENDBRANCH   6   7
ENDBRANCH   5   6
ENDBRANCH   4   5
ENDBRANCH   3   4
ENDBRANCH   2   3
ENDBRANCH   1   2
BRANCH   1  11
ATOM     11  C   UNL     1     -15.066 -17.043  29.986  1.00  0.00     0.000 C 
BRANCH  11  12
ATOM     12  C   UNL     1     -15.518 -15.637  30.425  1.00  0.00    -0.000 C 
BRANCH  12  13
ATOM     13  C   UNL     1     -14.378 -14.615  30.614  1.00  0.00    -0.000 C 
BRANCH  13  14
ATOM     14  C   UNL     1     -14.009 -13.813  29.353  1.00  0.00    -0.000 C 
BRANCH  14  15
ATOM     15  C   UNL     1     -12.532 -13.965  28.959  1.00  0.00    -0.000 C 
BRANCH  15  16
ATOM     16  C   UNL     1     -12.176 -15.441  28.725  1.00  0.00    -0.000 C 
BRANCH  16  17
ATOM     17  C   UNL     1     -11.107 -15.953  29.703  1.00  0.00    -0.003 C 
ATOM     18  C   UNL     1     -11.319 -17.412  30.102  1.00  0.00     0.004 C 
ENDBRANCH  16  17
ENDBRANCH  15  16
ENDBRANCH  14  15
ENDBRANCH  13  14
ENDBRANCH  12  13
ENDBRANCH  11  12
ENDBRANCH   1  11
TORSDOF 14
ENDMDL
MODEL 3
REMARK VINA RESULT:    -3.131      8.996     10.744
REMARK INTER + INTRA:          -7.711
REMARK INTER:                  -5.091
REMARK INTRA:                  -2.620
REMARK UNBOUND:                -2.017
REMARK SMILES CCCCCCCCCCCCCCCC(=O)[O-]
REMARK SMILES IDX 9 1 10 2 11 3 12 4 13 5 14 6 15 7 16 8 17 9 18 10 8 11 7 12
REMARK SMILES IDX 6 13 5 14 4 15 3 16 2 17 1 18
REMARK H PARENT
REMARK Flexibility Score: inf
ROOT
ATOM      1  C   UNL     1     -14.197 -24.489  20.887  1.00  0.00     0.000 C 
ENDROOT
BRANCH   1   2
ATOM      2  C   UNL     1     -12.725 -24.796  21.215  1.00  0.00     0.000 C 
BRANCH   2   3
ATOM      3  C   UNL     1     -11.752 -24.243  20.159  1.00  0.00     0.000 C 
BRANCH   3   4
ATOM      4  C   UNL     1     -10.886 -23.089  20.692  1.00  0.00     0.000 C 
BRANCH   4   5
ATOM      5  C   UNL     1     -10.691 -21.912  19.716  1.00  0.00     0.000 C 
BRANCH   5   6
ATOM      6  C   UNL     1     -10.442 -20.558  20.413  1.00  0.00     0.006 C 
BRANCH   6   7
ATOM      7  C   UNL     1     -10.435 -19.386  19.423  1.00  0.00     0.053 C 
BRANCH   7   8
ATOM      8  C   UNL     1     -11.827 -18.899  19.176  1.00  0.00     0.041 C 
ATOM      9  O   UNL     1     -12.474 -19.310  18.176  1.00  0.00    -0.550 OA
ATOM     10  O   UNL     1     -12.430 -18.030  20.077  1.00  0.00    -0.550 OA
ENDBRANCH   7   8
ENDBRANCH   6   7
ENDBRANCH   5   6
ENDBRANCH   4   5
ENDBRANCH   3   4
ENDBRANCH   2   3
ENDBRANCH   1   2
BRANCH   1  11
ATOM     11  C   UNL     1     -14.425 -23.242  20.010  1.00  0.00     0.000 C 
BRANCH  11  12
ATOM     12  C   UNL     1     -15.042 -22.034  20.742  1.00  0.00    -0.000 C 
BRANCH  12  13
ATOM     13  C   UNL     1     -14.024 -21.012  21.287  1.00  0.00    -0.000 C 
BRANCH  13  14
ATOM     14  C   UNL     1     -13.940 -20.934  22.822  1.00  0.00    -0.000 C 
BRANCH  14  15
ATOM     15  C   UNL     1     -12.559 -21.331  23.366  1.00  0.00    -0.000 C 
BRANCH  15  16
ATOM     16  C   UNL     1     -12.649 -22.614  24.205  1.00  0.00    -0.000 C 
BRANCH  16  17
ATOM     17  C   UNL     1     -14.091 -23.121  24.356  1.00  0.00    -0.003 C 
ATOM     18  C   UNL     1     -14.164 -24.621  24.639  1.00  0.00     0.004 C 
ENDBRANCH  16  17
ENDBRANCH  15  16
ENDBRANCH  14  15
ENDBRANCH  13  14
ENDBRANCH  12  13
ENDBRANCH  11  12
ENDBRANCH   1  11
TORSDOF 14
ENDMDL
MODEL 4
REMARK VINA RESULT:    -3.075      1.587      2.602
REMARK INTER + INTRA:          -7.608
REMARK INTER:                  -5.433
REMARK INTRA:                  -2.175
REMARK UNBOUND:                -2.017
REMARK SMILES CCCCCCCCCCCCCCCC(=O)[O-]
REMARK SMILES IDX 9 1 10 2 11 3 12 4 13 5 14 6 15 7 16 8 17 9 18 10 8 11 7 12
REMARK SMILES IDX 6 13 5 14 4 15 3 16 2 17 1 18
REMARK H PARENT
REMARK Flexibility Score: inf
ROOT
ATOM      1  C   UNL     1     -17.871 -12.785  25.782  1.00  0.00     0.000 C 
ENDROOT
BRANCH   1   2
ATOM      2  C   UNL     1     -17.931 -13.382  27.200  1.00  0.00     0.000 C 
BRANCH   2   3
ATOM      3  C   UNL     1     -16.712 -13.001  28.058  1.00  0.00     0.000 C 
BRANCH   3   4
ATOM      4  C   UNL     1     -16.018 -14.222  28.684  1.00  0.00     0.000 C 
BRANCH   4   5
ATOM      5  C   UNL     1     -14.802 -14.757  27.902  1.00  0.00     0.000 C 
BRANCH   5   6
ATOM      6  C   UNL     1     -14.940 -16.230  27.465  1.00  0.00     0.006 C 
BRANCH   6   7
ATOM      7  C   UNL     1     -16.075 -16.952  28.202  1.00  0.00     0.053 C 
BRANCH   7   8
ATOM      8  C   UNL     1     -15.520 -17.902  29.216  1.00  0.00     0.041 C 
ATOM      9  O   UNL     1     -16.211 -18.876  29.616  1.00  0.00    -0.550 OA
ATOM     10  O   UNL     1     -14.221 -17.742  29.682  1.00  0.00    -0.550 OA
ENDBRANCH   7   8
ENDBRANCH   6   7
ENDBRANCH   5   6
ENDBRANCH   4   5
ENDBRANCH   3   4
ENDBRANCH   2   3
ENDBRANCH   1   2
BRANCH   1  11
ATOM     11  C   UNL     1     -16.754 -13.350  24.882  1.00  0.00     0.000 C 
BRANCH  11  12
ATOM     12  C   UNL     1     -17.122 -13.478  23.390  1.00  0.00    -0.000 C 
BRANCH  12  13
ATOM     13  C   UNL     1     -18.517 -12.941  23.013  1.00  0.00    -0.000 C 
BRANCH  13  14
ATOM     14  C   UNL     1     -19.544 -14.018  22.623  1.00  0.00    -0.000 C 
BRANCH  14  15
ATOM     15  C   UNL     1     -18.982 -15.445  22.724  1.00  0.00    -0.000 C 
BRANCH  15  16
ATOM     16  C   UNL     1     -19.697 -16.238  23.828  1.00  0.00    -0.000 C 
BRANCH  16  17
ATOM     17  C   UNL     1     -18.840 -16.392  25.094  1.00  0.00    -0.003 C 
ATOM     18  C   UNL     1     -17.457 -16.976  24.805  1.00  0.00     0.004 C 
ENDBRANCH  16  17
ENDBRANCH  15  16
ENDBRANCH  14  15
ENDBRANCH  13  14
ENDBRANCH  12  13
ENDBRANCH  11  12
ENDBRANCH   1  11
TORSDOF 14
ENDMDL
MODEL 5
REMARK VINA RESULT:    -3.035      3.661      7.324
REMARK INTER + INTRA:          -7.536
REMARK INTER:                  -5.603
REMARK INTRA:                  -1.933
REMARK UNBOUND:                -2.017
REMARK SMILES CCCCCCCCCCCCCCCC(=O)[O-]
REMARK SMILES IDX 9 1 10 2 11 3 12 4 13 5 14 6 15 7 16 8 17 9 18 10 8 11 7 12
REMARK SMILES IDX 6 13 5 14 4 15 3 16 2 17 1 18
REMARK H PARENT
REMARK Flexibility Score: inf
ROOT
ATOM      1  C   UNL     1     -15.363 -16.198  26.972  1.00  0.00     0.000 C 
ENDROOT
BRANCH   1   2
ATOM      2  C   UNL     1     -15.381 -14.666  27.118  1.00  0.00     0.000 C 
BRANCH   2   3
ATOM      3  C   UNL     1     -16.607 -14.156  27.894  1.00  0.00     0.000 C 
BRANCH   3   4
ATOM      4  C   UNL     1     -17.536 -13.282  27.035  1.00  0.00     0.000 C 
BRANCH   4   5
ATOM      5  C   UNL     1     -18.713 -14.029  26.377  1.00  0.00     0.000 C 
BRANCH   5   6
ATOM      6  C   UNL     1     -18.365 -14.665  25.015  1.00  0.00     0.006 C 
BRANCH   6   7
ATOM      7  C   UNL     1     -17.861 -13.630  24.001  1.00  0.00     0.053 C 
BRANCH   7   8
ATOM      8  C   UNL     1     -18.955 -12.678  23.637  1.00  0.00     0.041 C 
ATOM      9  O   UNL     1     -18.838 -11.450  23.894  1.00  0.00    -0.550 OA
ATOM     10  O   UNL     1     -20.083 -13.136  22.969  1.00  0.00    -0.550 OA
ENDBRANCH   7   8
ENDBRANCH   6   7
ENDBRANCH   5   6
ENDBRANCH   4   5
ENDBRANCH   3   4
ENDBRANCH   2   3
ENDBRANCH   1   2
BRANCH   1  11
ATOM     11  C   UNL     1     -16.292 -16.958  27.939  1.00  0.00     0.000 C 
BRANCH  11  12
ATOM     12  C   UNL     1     -15.570 -17.787  29.020  1.00  0.00    -0.000 C 
BRANCH  12  13
ATOM     13  C   UNL     1     -14.552 -17.003  29.872  1.00  0.00    -0.000 C 
BRANCH  13  14
ATOM     14  C   UNL     1     -13.076 -17.323  29.578  1.00  0.00    -0.000 C 
BRANCH  14  15
ATOM     15  C   UNL     1     -12.232 -16.067  29.313  1.00  0.00    -0.000 C 
BRANCH  15  16
ATOM     16  C   UNL     1     -12.958 -14.806  29.805  1.00  0.00    -0.000 C 
BRANCH  16  17
ATOM     17  C   UNL     1     -12.396 -13.519  29.182  1.00  0.00    -0.003 C 
ATOM     18  C   UNL     1     -13.183 -12.273  29.585  1.00  0.00     0.004 C 
ENDBRANCH  16  17
ENDBRANCH  15  16
ENDBRANCH  14  15
ENDBRANCH  13  14
ENDBRANCH  12  13
ENDBRANCH  11  12
ENDBRANCH   1  11
TORSDOF 14
ENDMDL
MODEL 6
REMARK VINA RESULT:    -3.024      1.985      3.533
REMARK INTER + INTRA:          -7.516
REMARK INTER:                  -5.355
REMARK INTRA:                  -2.162
REMARK UNBOUND:                -2.017
REMARK SMILES CCCCCCCCCCCCCCCC(=O)[O-]
REMARK SMILES IDX 9 1 10 2 11 3 12 4 13 5 14 6 15 7 16 8 17 9 18 10 8 11 7 12
REMARK SMILES IDX 6 13 5 14 4 15 3 16 2 17 1 18
REMARK H PARENT
REMARK Flexibility Score: inf
ROOT
ATOM      1  C   UNL     1     -16.218 -14.529  28.234  1.00  0.00     0.000 C 
ENDROOT
BRANCH   1   2
ATOM      2  C   UNL     1     -15.839 -13.157  28.819  1.00  0.00     0.000 C 
BRANCH   2   3
ATOM      3  C   UNL     1     -14.797 -13.257  29.947  1.00  0.00     0.000 C 
BRANCH   3   4
ATOM      4  C   UNL     1     -13.383 -12.863  29.489  1.00  0.00     0.000 C 
BRANCH   4   5
ATOM      5  C   UNL     1     -12.516 -14.026  28.966  1.00  0.00     0.000 C 
BRANCH   5   6
ATOM      6  C   UNL     1     -12.589 -15.298  29.836  1.00  0.00     0.006 C 
BRANCH   6   7
ATOM      7  C   UNL     1     -13.116 -16.508  29.053  1.00  0.00     0.053 C 
BRANCH   7   8
ATOM      8  C   UNL     1     -14.231 -17.169  29.799  1.00  0.00     0.041 C 
ATOM      9  O   UNL     1     -14.960 -18.021  29.224  1.00  0.00    -0.550 OA
ATOM     10  O   UNL     1     -14.436 -16.882  31.143  1.00  0.00    -0.550 OA
ENDBRANCH   7   8
ENDBRANCH   6   7
ENDBRANCH   5   6
ENDBRANCH   4   5
ENDBRANCH   3   4
ENDBRANCH   2   3
ENDBRANCH   1   2
BRANCH   1  11
ATOM     11  C   UNL     1     -15.579 -14.857  26.870  1.00  0.00     0.000 C 
BRANCH  11  12
ATOM     12  C   UNL     1     -15.954 -16.234  26.289  1.00  0.00    -0.000 C 
BRANCH  12  13
ATOM     13  C   UNL     1     -17.046 -16.209  25.200  1.00  0.00    -0.000 C 
BRANCH  13  14
ATOM     14  C   UNL     1     -18.484 -16.057  25.726  1.00  0.00    -0.000 C 
BRANCH  14  15
ATOM     15  C   UNL     1     -19.043 -14.638  25.539  1.00  0.00    -0.000 C 
BRANCH  15  16
ATOM     16  C   UNL     1     -18.487 -13.995  24.260  1.00  0.00    -0.000 C 
BRANCH  16  17
ATOM     17  C   UNL     1     -18.267 -12.482  24.407  1.00  0.00    -0.003 C 
ATOM     18  C   UNL     1     -17.799 -12.085  25.807  1.00  0.00     0.004 C 
ENDBRANCH  16  17
ENDBRANCH  15  16
ENDBRANCH  14  15
ENDBRANCH  13  14
ENDBRANCH  12  13
ENDBRANCH  11  12
ENDBRANCH   1  11
TORSDOF 14
ENDMDL
MODEL 7
REMARK VINA RESULT:    -3.013      8.594     10.131
REMARK INTER + INTRA:          -7.496
REMARK INTER:                  -4.858
REMARK INTRA:                  -2.638
REMARK UNBOUND:                -2.017
REMARK SMILES CCCCCCCCCCCCCCCC(=O)[O-]
REMARK SMILES IDX 9 1 10 2 11 3 12 4 13 5 14 6 15 7 16 8 17 9 18 10 8 11 7 12
REMARK SMILES IDX 6 13 5 14 4 15 3 16 2 17 1 18
REMARK H PARENT
REMARK Flexibility Score: inf
ROOT
ATOM      1  C   UNL     1     -11.231 -22.728  20.789  1.00  0.00     0.000 C 
ENDROOT
BRANCH   1   2
ATOM      2  C   UNL     1     -12.565 -23.404  20.426  1.00  0.00     0.000 C 
BRANCH   2   3
ATOM      3  C   UNL     1     -13.359 -22.623  19.364  1.00  0.00     0.000 C 
BRANCH   3   4
ATOM      4  C   UNL     1     -14.427 -21.702  19.976  1.00  0.00     0.000 C 
BRANCH   4   5
ATOM      5  C   UNL     1     -15.420 -22.395  20.931  1.00  0.00     0.000 C 
BRANCH   5   6
ATOM      6  C   UNL     1     -15.572 -21.688  22.293  1.00  0.00     0.006 C 
BRANCH   6   7
ATOM      7  C   UNL     1     -14.281 -20.984  22.731  1.00  0.00     0.053 C 
BRANCH   7   8
ATOM      8  C   UNL     1     -13.504 -21.852  23.669  1.00  0.00     0.041 C 
ATOM      9  O   UNL     1     -12.309 -21.569  23.952  1.00  0.00    -0.550 OA
ATOM     10  O   UNL     1     -14.113 -22.945  24.272  1.00  0.00    -0.550 OA
ENDBRANCH   7   8
ENDBRANCH   6   7
ENDBRANCH   5   6
ENDBRANCH   4   5
ENDBRANCH   3   4
ENDBRANCH   2   3
ENDBRANCH   1   2
BRANCH   1  11
ATOM     11  C   UNL     1     -10.562 -21.944  19.642  1.00  0.00     0.000 C 
BRANCH  11  12
ATOM     12  C   UNL     1     -10.227 -20.475  19.965  1.00  0.00    -0.000 C 
BRANCH  12  13
ATOM     13  C   UNL     1     -11.153 -19.807  21.001  1.00  0.00    -0.000 C 
BRANCH  13  14
ATOM     14  C   UNL     1     -12.300 -18.972  20.403  1.00  0.00    -0.000 C 
BRANCH  14  15
ATOM     15  C   UNL     1     -11.972 -18.416  19.009  1.00  0.00    -0.000 C 
BRANCH  15  16
ATOM     16  C   UNL     1     -13.064 -18.795  17.998  1.00  0.00    -0.000 C 
BRANCH  16  17
ATOM     17  C   UNL     1     -12.648 -19.962  17.088  1.00  0.00    -0.003 C 
ATOM     18  C   UNL     1     -11.293 -19.737  16.419  1.00  0.00     0.004 C 
ENDBRANCH  16  17
ENDBRANCH  15  16
ENDBRANCH  14  15
ENDBRANCH  13  14
ENDBRANCH  12  13
ENDBRANCH  11  12
ENDBRANCH   1  11
TORSDOF 14
ENDMDL
MODEL 8
REMARK VINA RESULT:    -3.001      3.540      6.399
REMARK INTER + INTRA:          -7.475
REMARK INTER:                  -5.505
REMARK INTRA:                  -1.970
REMARK UNBOUND:                -2.017
REMARK SMILES CCCCCCCCCCCCCCCC(=O)[O-]
REMARK SMILES IDX 9 1 10 2 11 3 12 4 13 5 14 6 15 7 16 8 17 9 18 10 8 11 7 12
REMARK SMILES IDX 6 13 5 14 4 15 3 16 2 17 1 18
REMARK H PARENT
REMARK Flexibility Score: inf
ROOT
ATOM      1  C   UNL     1     -14.097 -17.243  29.069  1.00  0.00     0.000 C 
ENDROOT
BRANCH   1   2
ATOM      2  C   UNL     1     -15.584 -17.625  29.184  1.00  0.00     0.000 C 
BRANCH   2   3
ATOM      3  C   UNL     1     -16.431 -17.077  28.023  1.00  0.00     0.000 C 
BRANCH   3   4
ATOM      4  C   UNL     1     -15.589 -16.347  26.963  1.00  0.00     0.000 C 
BRANCH   4   5
ATOM      5  C   UNL     1     -16.394 -15.711  25.812  1.00  0.00     0.000 C 
BRANCH   5   6
ATOM      6  C   UNL     1     -16.477 -14.172  25.885  1.00  0.00     0.006 C 
BRANCH   6   7
ATOM      7  C   UNL     1     -16.938 -13.551  24.561  1.00  0.00     0.053 C 
BRANCH   7   8
ATOM      8  C   UNL     1     -18.319 -12.991  24.696  1.00  0.00     0.041 C 
ATOM      9  O   UNL     1     -19.317 -13.760  24.699  1.00  0.00    -0.550 OA
ATOM     10  O   UNL     1     -18.502 -11.625  24.870  1.00  0.00    -0.550 OA
ENDBRANCH   7   8
ENDBRANCH   6   7
ENDBRANCH   5   6
ENDBRANCH   4   5
ENDBRANCH   3   4
ENDBRANCH   2   3
ENDBRANCH   1   2
BRANCH   1  11
ATOM     11  C   UNL     1     -13.612 -16.188  30.084  1.00  0.00     0.000 C 
BRANCH  11  12
ATOM     12  C   UNL     1     -13.066 -14.888  29.462  1.00  0.00    -0.000 C 
BRANCH  12  13
ATOM     13  C   UNL     1     -14.129 -13.812  29.160  1.00  0.00    -0.000 C 
BRANCH  13  14
ATOM     14  C   UNL     1     -15.454 -13.976  29.926  1.00  0.00    -0.000 C 
BRANCH  14  15
ATOM     15  C   UNL     1     -16.545 -13.005  29.448  1.00  0.00    -0.000 C 
BRANCH  15  16
ATOM     16  C   UNL     1     -15.930 -11.825  28.680  1.00  0.00    -0.000 C 
BRANCH  16  17
ATOM     17  C   UNL     1     -16.973 -11.042  27.867  1.00  0.00    -0.003 C 
ATOM     18  C   UNL     1     -16.479  -9.657  27.449  1.00  0.00     0.004 C 
ENDBRANCH  16  17
ENDBRANCH  15  16
ENDBRANCH  14  15
ENDBRANCH  13  14
ENDBRANCH  12  13
ENDBRANCH  11  12
ENDBRANCH   1  11
TORSDOF 14
ENDMDL
MODEL 9
REMARK VINA RESULT:    -2.972      8.852     10.340
REMARK INTER + INTRA:          -7.421
REMARK INTER:                  -4.795
REMARK INTRA:                  -2.626
REMARK UNBOUND:                -2.017
REMARK SMILES CCCCCCCCCCCCCCCC(=O)[O-]
REMARK SMILES IDX 9 1 10 2 11 3 12 4 13 5 14 6 15 7 16 8 17 9 18 10 8 11 7 12
REMARK SMILES IDX 6 13 5 14 4 15 3 16 2 17 1 18
REMARK H PARENT
REMARK Flexibility Score: inf
ROOT
ATOM      1  C   UNL     1     -12.387 -24.242  22.757  1.00  0.00     0.000 C 
ENDROOT
BRANCH   1   2
ATOM      2  C   UNL     1     -11.698 -24.152  21.384  1.00  0.00     0.000 C 
BRANCH   2   3
ATOM      3  C   UNL     1     -12.656 -23.710  20.265  1.00  0.00     0.000 C 
BRANCH   3   4
ATOM      4  C   UNL     1     -12.028 -22.677  19.315  1.00  0.00     0.000 C 
BRANCH   4   5
ATOM      5  C   UNL     1     -10.805 -21.927  19.880  1.00  0.00     0.000 C 
BRANCH   5   6
ATOM      6  C   UNL     1     -10.924 -20.391  19.801  1.00  0.00     0.006 C 
BRANCH   6   7
ATOM      7  C   UNL     1      -9.981 -19.683  20.783  1.00  0.00     0.053 C 
BRANCH   7   8
ATOM      8  C   UNL     1      -8.718 -19.274  20.094  1.00  0.00     0.041 C 
ATOM      9  O   UNL     1      -8.692 -19.148  18.841  1.00  0.00    -0.550 OA
ATOM     10  O   UNL     1      -7.581 -18.984  20.838  1.00  0.00    -0.550 OA
ENDBRANCH   7   8
ENDBRANCH   6   7
ENDBRANCH   5   6
ENDBRANCH   4   5
ENDBRANCH   3   4
ENDBRANCH   2   3
ENDBRANCH   1   2
BRANCH   1  11
ATOM     11  C   UNL     1     -11.880 -23.237  23.810  1.00  0.00     0.000 C 
BRANCH  11  12
ATOM     12  C   UNL     1     -12.826 -22.052  24.088  1.00  0.00    -0.000 C 
BRANCH  12  13
ATOM     13  C   UNL     1     -12.651 -20.842  23.148  1.00  0.00    -0.000 C 
BRANCH  13  14
ATOM     14  C   UNL     1     -13.799 -20.628  22.145  1.00  0.00    -0.000 C 
BRANCH  14  15
ATOM     15  C   UNL     1     -15.126 -21.243  22.614  1.00  0.00    -0.000 C 
BRANCH  15  16
ATOM     16  C   UNL     1     -15.660 -22.245  21.580  1.00  0.00    -0.000 C 
BRANCH  16  17
ATOM     17  C   UNL     1     -16.014 -23.605  22.203  1.00  0.00    -0.003 C 
ATOM     18  C   UNL     1     -16.106 -23.551  23.728  1.00  0.00     0.004 C 
ENDBRANCH  16  17
ENDBRANCH  15  16
ENDBRANCH  14  15
ENDBRANCH  13  14
ENDBRANCH  12  13
ENDBRANCH  11  12
ENDBRANCH   1  11
TORSDOF 14
ENDMDL
