MODEL 1
REMARK VINA RESULT:     6.866      0.000      0.000
REMARK INTER + INTRA:           8.804
REMARK INTER:                   8.472
REMARK INTRA:                   0.333
REMARK UNBOUND:                 0.333
REMARK SMILES Oc1cc(O)c2cc(O)c(-c3cc(O)c(O)c(O)c3)[o+]c2c1
REMARK SMILES IDX 10 1 20 2 21 3 22 4 2 5 3 6 4 7 6 8 7 9 8 10 11 11 12 12
REMARK SMILES IDX 13 13 19 14 15 15 17 16 14 17 16 19 18 21 9 23 1 25 5 27
REMARK H PARENT 14 18 16 20 18 22 9 24 1 26 5 28
REMARK Flexibility Score: inf
ROOT
ATOM      1  C   UNL     1    -116.694 -98.790  36.702  1.00  0.00     0.402 A 
ATOM      2  O   UNL     1    -117.552 -98.248  35.841  1.00  0.00    -0.202 OA
ATOM      3  C   UNL     1    -117.397 -98.308  34.523  1.00  0.00     0.368 A 
ATOM      4  C   UNL     1    -118.341 -97.708  33.685  1.00  0.00     0.162 A 
ATOM      5  C   UNL     1    -118.186 -97.762  32.294  1.00  0.00     0.128 A 
ATOM      6  C   UNL     1    -117.082 -98.419  31.740  1.00  0.00     0.093 A 
ATOM      7  C   UNL     1    -116.126 -99.028  32.567  1.00  0.00     0.136 A 
ATOM      8  C   UNL     1    -116.283 -98.973  33.966  1.00  0.00     0.125 A 
ATOM      9  C   UNL     1    -115.365 -99.568  34.839  1.00  0.00     0.078 A 
ATOM     10  C   UNL     1    -115.569 -99.491  36.220  1.00  0.00     0.223 A 
ENDROOT
BRANCH   1  11
ATOM     11  C   UNL     1    -116.971 -98.649  38.150  1.00  0.00     0.091 A 
ATOM     12  C   UNL     1    -117.853 -97.649  38.590  1.00  0.00     0.068 A 
ATOM     13  C   UNL     1    -118.116 -97.481  39.955  1.00  0.00     0.162 A 
ATOM     14  C   UNL     1    -116.326 -99.457  39.102  1.00  0.00     0.068 A 
ATOM     15  C   UNL     1    -117.486 -98.304  40.898  1.00  0.00     0.200 A 
ATOM     16  C   UNL     1    -116.584 -99.292  40.470  1.00  0.00     0.162 A 
BRANCH  13  17
ATOM     17  O   UNL     1    -119.004 -96.496  40.385  1.00  0.00    -0.504 OA
ATOM     18  H   UNL     1    -119.278 -95.730  39.782  1.00  0.00     0.293 HD
ENDBRANCH  13  17
BRANCH  15  19
ATOM     19  O   UNL     1    -117.762 -98.123  42.254  1.00  0.00    -0.502 OA
ATOM     20  H   UNL     1    -118.129 -98.869  42.832  1.00  0.00     0.293 HD
ENDBRANCH  15  19
BRANCH  16  21
ATOM     21  O   UNL     1    -115.943-100.104  41.405  1.00  0.00    -0.504 OA
ATOM     22  H   UNL     1    -115.025 -99.874  41.768  1.00  0.00     0.293 HD
ENDBRANCH  16  21
ENDBRANCH   1  11
BRANCH  10  23
ATOM     23  O   UNL     1    -114.688-100.125  37.094  1.00  0.00    -0.500 OA
ATOM     24  H   UNL     1    -114.835-101.081  37.398  1.00  0.00     0.294 HD
ENDBRANCH  10  23
BRANCH   5  25
ATOM     25  O   UNL     1    -119.123 -97.166  31.452  1.00  0.00    -0.507 OA
ATOM     26  H   UNL     1    -120.078 -97.498  31.403  1.00  0.00     0.293 HD
ENDBRANCH   5  25
BRANCH   7  27
ATOM     27  O   UNL     1    -115.031 -99.681  32.003  1.00  0.00    -0.507 OA
ATOM     28  H   UNL     1    -114.670 -99.424  31.092  1.00  0.00     0.293 HD
ENDBRANCH   7  27
TORSDOF 7
ENDMDL
MODEL 2
REMARK VINA RESULT:     7.379      1.102      2.100
REMARK INTER + INTRA:           9.437
REMARK INTER:                   9.577
REMARK INTRA:                  -0.140
REMARK UNBOUND:                 0.333
REMARK SMILES Oc1cc(O)c2cc(O)c(-c3cc(O)c(O)c(O)c3)[o+]c2c1
REMARK SMILES IDX 10 1 20 2 21 3 22 4 2 5 3 6 4 7 6 8 7 9 8 10 11 11 12 12
REMARK SMILES IDX 13 13 19 14 15 15 17 16 14 17 16 19 18 21 9 23 1 25 5 27
REMARK H PARENT 14 18 16 20 18 22 9 24 1 26 5 28
REMARK Flexibility Score: inf
ROOT
ATOM      1  C   UNL     1    -116.461 -98.833  36.876  1.00  0.00     0.402 A 
ATOM      2  O   UNL     1    -117.428 -99.125  36.008  1.00  0.00    -0.202 OA
ATOM      3  C   UNL     1    -117.208 -99.321  34.712  1.00  0.00     0.368 A 
ATOM      4  C   UNL     1    -118.278 -99.620  33.865  1.00  0.00     0.162 A 
ATOM      5  C   UNL     1    -118.059 -99.825  32.497  1.00  0.00     0.128 A 
ATOM      6  C   UNL     1    -116.765 -99.732  31.976  1.00  0.00     0.093 A 
ATOM      7  C   UNL     1    -115.679 -99.434  32.813  1.00  0.00     0.136 A 
ATOM      8  C   UNL     1    -115.900 -99.228  34.189  1.00  0.00     0.125 A 
ATOM      9  C   UNL     1    -114.855 -98.935  35.073  1.00  0.00     0.078 A 
ATOM     10  C   UNL     1    -115.126 -98.745  36.431  1.00  0.00     0.223 A 
ENDROOT
BRANCH   1  11
ATOM     11  C   UNL     1    -116.832 -98.627  38.295  1.00  0.00     0.091 A 
ATOM     12  C   UNL     1    -116.280 -99.461  39.280  1.00  0.00     0.068 A 
ATOM     13  C   UNL     1    -116.630 -99.301  40.627  1.00  0.00     0.162 A 
ATOM     14  C   UNL     1    -117.768 -97.649  38.673  1.00  0.00     0.068 A 
ATOM     15  C   UNL     1    -117.548 -98.311  41.001  1.00  0.00     0.200 A 
ATOM     16  C   UNL     1    -118.122 -97.485  40.020  1.00  0.00     0.162 A 
BRANCH  13  17
ATOM     17  O   UNL     1    -116.069-100.124  41.602  1.00  0.00    -0.504 OA
ATOM     18  H   UNL     1    -116.515-100.260  42.501  1.00  0.00     0.293 HD
ENDBRANCH  13  17
BRANCH  15  19
ATOM     19  O   UNL     1    -117.882 -98.164  42.347  1.00  0.00    -0.502 OA
ATOM     20  H   UNL     1    -117.599 -98.838  43.049  1.00  0.00     0.293 HD
ENDBRANCH  15  19
BRANCH  16  21
ATOM     21  O   UNL     1    -119.047 -96.508  40.385  1.00  0.00    -0.504 OA
ATOM     22  H   UNL     1    -118.944 -95.970  41.238  1.00  0.00     0.293 HD
ENDBRANCH  16  21
ENDBRANCH   1  11
BRANCH  10  23
ATOM     23  O   UNL     1    -114.084 -98.504  37.325  1.00  0.00    -0.500 OA
ATOM     24  H   UNL     1    -114.140 -97.770  38.022  1.00  0.00     0.294 HD
ENDBRANCH  10  23
BRANCH   5  25
ATOM     25  O   UNL     1    -119.122-100.123  31.645  1.00  0.00    -0.507 OA
ATOM     26  H   UNL     1    -119.874-100.738  31.932  1.00  0.00     0.293 HD
ENDBRANCH   5  25
BRANCH   7  27
ATOM     27  O   UNL     1    -114.393 -99.346  32.282  1.00  0.00    -0.507 OA
ATOM     28  H   UNL     1    -114.121 -98.584  31.673  1.00  0.00     0.293 HD
ENDBRANCH   7  27
TORSDOF 7
ENDMDL
