MODEL 1
REMARK VINA RESULT:    -2.831      0.000      0.000
REMARK INTER + INTRA:         -12.401
REMARK INTER:                  -7.134
REMARK INTRA:                  -5.267
REMARK UNBOUND:                -5.267
REMARK SMILES CCCCCCCCCCCCCCCCCCCCCCCCCCCC(=O)[O-]
REMARK SMILES IDX 15 1 16 2 17 3 18 4 19 5 20 6 21 7 22 8 23 9 24 10 25 11
REMARK SMILES IDX 26 12 27 13 28 14 29 15 30 16 14 17 13 18 12 19 11 20 10 21
REMARK SMILES IDX 9 22 8 23 7 24 6 25 5 26 4 27 3 28 2 29 1 30
REMARK H PARENT
REMARK Flexibility Score: inf
ROOT
ATOM      1  C   UNL     1     148.822 160.997 152.204  1.00  0.00     0.000 C 
ENDROOT
BRANCH   1   2
ATOM      2  C   UNL     1     147.412 161.124 151.597  1.00  0.00     0.000 C 
BRANCH   2   3
ATOM      3  C   UNL     1     146.509 162.184 152.259  1.00  0.00     0.000 C 
BRANCH   3   4
ATOM      4  C   UNL     1     146.087 163.349 151.341  1.00  0.00     0.000 C 
BRANCH   4   5
ATOM      5  C   UNL     1     146.173 164.747 151.985  1.00  0.00     0.000 C 
BRANCH   5   6
ATOM      6  C   UNL     1     147.443 165.002 152.815  1.00  0.00     0.000 C 
BRANCH   6   7
ATOM      7  C   UNL     1     147.208 165.973 153.982  1.00  0.00     0.000 C 
BRANCH   7   8
ATOM      8  C   UNL     1     147.602 165.333 155.321  1.00  0.00     0.000 C 
BRANCH   8   9
ATOM      9  C   UNL     1     147.036 163.912 155.501  1.00  0.00     0.000 C 
BRANCH   9  10
ATOM     10  C   UNL     1     148.091 162.803 155.684  1.00  0.00     0.000 C 
BRANCH  10  11
ATOM     11  C   UNL     1     147.492 161.388 155.622  1.00  0.00     0.000 C 
BRANCH  11  12
ATOM     12  C   UNL     1     147.168 160.817 157.015  1.00  0.00     0.006 C 
BRANCH  12  13
ATOM     13  C   UNL     1     146.980 159.292 157.048  1.00  0.00     0.053 C 
BRANCH  13  14
ATOM     14  C   UNL     1     147.661 158.667 158.226  1.00  0.00     0.041 C 
ATOM     15  O   UNL     1     148.686 157.955 158.059  1.00  0.00    -0.550 OA
ATOM     16  O   UNL     1     147.177 158.888 159.509  1.00  0.00    -0.550 OA
ENDBRANCH  13  14
ENDBRANCH  12  13
ENDBRANCH  11  12
ENDBRANCH  10  11
ENDBRANCH   9  10
ENDBRANCH   8   9
ENDBRANCH   7   8
ENDBRANCH   6   7
ENDBRANCH   5   6
ENDBRANCH   4   5
ENDBRANCH   3   4
ENDBRANCH   2   3
ENDBRANCH   1   2
BRANCH   1  17
ATOM     17  C   UNL     1     149.687 162.247 151.965  1.00  0.00     0.000 C 
BRANCH  17  18
ATOM     18  C   UNL     1     149.882 162.551 150.472  1.00  0.00     0.000 C 
BRANCH  18  19
ATOM     19  C   UNL     1     149.575 164.020 150.127  1.00  0.00     0.000 C 
BRANCH  19  20
ATOM     20  C   UNL     1     149.112 164.201 148.673  1.00  0.00     0.000 C 
BRANCH  20  21
ATOM     21  C   UNL     1     147.774 164.952 148.565  1.00  0.00     0.000 C 
BRANCH  21  22
ATOM     22  C   UNL     1     147.970 166.476 148.405  1.00  0.00    -0.000 C 
BRANCH  22  23
ATOM     23  C   UNL     1     147.439 167.302 149.593  1.00  0.00    -0.000 C 
BRANCH  23  24
ATOM     24  C   UNL     1     148.456 168.273 150.215  1.00  0.00    -0.000 C 
BRANCH  24  25
ATOM     25  C   UNL     1     149.387 167.591 151.231  1.00  0.00    -0.000 C 
BRANCH  25  26
ATOM     26  C   UNL     1     150.775 167.345 150.623  1.00  0.00    -0.000 C 
BRANCH  26  27
ATOM     27  C   UNL     1     151.814 166.912 151.670  1.00  0.00    -0.000 C 
BRANCH  27  28
ATOM     28  C   UNL     1     151.222 166.791 153.083  1.00  0.00    -0.000 C 
BRANCH  28  29
ATOM     29  C   UNL     1     150.995 165.322 153.457  1.00  0.00    -0.003 C 
ATOM     30  C   UNL     1     152.315 164.560 153.525  1.00  0.00     0.004 C 
ENDBRANCH  28  29
ENDBRANCH  27  28
ENDBRANCH  26  27
ENDBRANCH  25  26
ENDBRANCH  24  25
ENDBRANCH  23  24
ENDBRANCH  22  23
ENDBRANCH  21  22
ENDBRANCH  20  21
ENDBRANCH  19  20
ENDBRANCH  18  19
ENDBRANCH  17  18
ENDBRANCH   1  17
TORSDOF 26
ENDMDL
MODEL 2
REMARK VINA RESULT:    -2.830      3.477      9.865
REMARK INTER + INTRA:         -12.398
REMARK INTER:                  -8.103
REMARK INTRA:                  -4.295
REMARK UNBOUND:                -5.267
REMARK SMILES CCCCCCCCCCCCCCCCCCCCCCCCCCCC(=O)[O-]
REMARK SMILES IDX 15 1 16 2 17 3 18 4 19 5 20 6 21 7 22 8 23 9 24 10 25 11
REMARK SMILES IDX 26 12 27 13 28 14 29 15 30 16 14 17 13 18 12 19 11 20 10 21
REMARK SMILES IDX 9 22 8 23 7 24 6 25 5 26 4 27 3 28 2 29 1 30
REMARK H PARENT
REMARK Flexibility Score: inf
ROOT
ATOM      1  C   UNL     1     147.197 159.825 159.641  1.00  0.00     0.000 C 
ENDROOT
BRANCH   1   2
ATOM      2  C   UNL     1     146.529 158.930 158.581  1.00  0.00     0.000 C 
BRANCH   2   3
ATOM      3  C   UNL     1     146.993 159.176 157.132  1.00  0.00     0.000 C 
BRANCH   3   4
ATOM      4  C   UNL     1     147.368 160.636 156.805  1.00  0.00     0.000 C 
BRANCH   4   5
ATOM      5  C   UNL     1     148.175 160.824 155.505  1.00  0.00     0.000 C 
BRANCH   5   6
ATOM      6  C   UNL     1     148.610 162.271 155.216  1.00  0.00     0.000 C 
BRANCH   6   7
ATOM      7  C   UNL     1     147.592 163.310 155.708  1.00  0.00     0.000 C 
BRANCH   7   8
ATOM      8  C   UNL     1     146.544 163.612 154.628  1.00  0.00     0.000 C 
BRANCH   8   9
ATOM      9  C   UNL     1     147.137 164.304 153.386  1.00  0.00     0.000 C 
BRANCH   9  10
ATOM     10  C   UNL     1     146.831 163.615 152.042  1.00  0.00     0.000 C 
BRANCH  10  11
ATOM     11  C   UNL     1     146.282 162.188 152.209  1.00  0.00     0.000 C 
BRANCH  11  12
ATOM     12  C   UNL     1     147.306 161.107 151.820  1.00  0.00     0.006 C 
BRANCH  12  13
ATOM     13  C   UNL     1     148.715 161.644 151.524  1.00  0.00     0.053 C 
BRANCH  13  14
ATOM     14  C   UNL     1     149.751 160.564 151.578  1.00  0.00     0.041 C 
ATOM     15  O   UNL     1     149.998 159.977 152.664  1.00  0.00    -0.550 OA
ATOM     16  O   UNL     1     150.429 160.193 150.423  1.00  0.00    -0.550 OA
ENDBRANCH  13  14
ENDBRANCH  12  13
ENDBRANCH  11  12
ENDBRANCH  10  11
ENDBRANCH   9  10
ENDBRANCH   8   9
ENDBRANCH   7   8
ENDBRANCH   6   7
ENDBRANCH   5   6
ENDBRANCH   4   5
ENDBRANCH   3   4
ENDBRANCH   2   3
ENDBRANCH   1   2
BRANCH   1  17
ATOM     17  C   UNL     1     146.191 160.410 160.645  1.00  0.00     0.000 C 
BRANCH  17  18
ATOM     18  C   UNL     1     146.289 159.751 162.030  1.00  0.00     0.000 C 
BRANCH  18  19
ATOM     19  C   UNL     1     147.594 158.954 162.209  1.00  0.00     0.000 C 
BRANCH  19  20
ATOM     20  C   UNL     1     147.398 157.677 163.041  1.00  0.00     0.000 C 
BRANCH  20  21
ATOM     21  C   UNL     1     146.269 156.783 162.501  1.00  0.00     0.000 C 
BRANCH  21  22
ATOM     22  C   UNL     1     146.528 156.328 161.048  1.00  0.00    -0.000 C 
BRANCH  22  23
ATOM     23  C   UNL     1     147.809 155.488 160.875  1.00  0.00    -0.000 C 
BRANCH  23  24
ATOM     24  C   UNL     1     148.977 156.217 160.189  1.00  0.00    -0.000 C 
BRANCH  24  25
ATOM     25  C   UNL     1     148.942 156.090 158.658  1.00  0.00    -0.000 C 
BRANCH  25  26
ATOM     26  C   UNL     1     149.989 157.006 158.008  1.00  0.00    -0.000 C 
BRANCH  26  27
ATOM     27  C   UNL     1     150.303 158.247 158.859  1.00  0.00    -0.000 C 
BRANCH  27  28
ATOM     28  C   UNL     1     150.754 159.450 158.015  1.00  0.00    -0.000 C 
BRANCH  28  29
ATOM     29  C   UNL     1     151.777 160.300 158.778  1.00  0.00    -0.003 C 
ATOM     30  C   UNL     1     151.728 160.011 160.275  1.00  0.00     0.004 C 
ENDBRANCH  28  29
ENDBRANCH  27  28
ENDBRANCH  26  27
ENDBRANCH  25  26
ENDBRANCH  24  25
ENDBRANCH  23  24
ENDBRANCH  22  23
ENDBRANCH  21  22
ENDBRANCH  20  21
ENDBRANCH  19  20
ENDBRANCH  18  19
ENDBRANCH  17  18
ENDBRANCH   1  17
TORSDOF 26
ENDMDL
MODEL 3
REMARK VINA RESULT:    -2.813      5.907     10.611
REMARK INTER + INTRA:         -12.355
REMARK INTER:                  -6.419
REMARK INTRA:                  -5.936
REMARK UNBOUND:                -5.267
REMARK SMILES CCCCCCCCCCCCCCCCCCCCCCCCCCCC(=O)[O-]
REMARK SMILES IDX 15 1 16 2 17 3 18 4 19 5 20 6 21 7 22 8 23 9 24 10 25 11
REMARK SMILES IDX 26 12 27 13 28 14 29 15 30 16 14 17 13 18 12 19 11 20 10 21
REMARK SMILES IDX 9 22 8 23 7 24 6 25 5 26 4 27 3 28 2 29 1 30
REMARK H PARENT
REMARK Flexibility Score: inf
ROOT
ATOM      1  C   UNL     1     150.374 156.083 162.381  1.00  0.00     0.000 C 
ENDROOT
BRANCH   1   2
ATOM      2  C   UNL     1     149.830 155.199 161.244  1.00  0.00     0.000 C 
BRANCH   2   3
ATOM      3  C   UNL     1     149.675 155.908 159.884  1.00  0.00     0.000 C 
BRANCH   3   4
ATOM      4  C   UNL     1     148.513 155.398 159.009  1.00  0.00     0.000 C 
BRANCH   4   5
ATOM      5  C   UNL     1     147.511 154.475 159.732  1.00  0.00     0.000 C 
BRANCH   5   6
ATOM      6  C   UNL     1     146.152 155.120 160.054  1.00  0.00     0.000 C 
BRANCH   6   7
ATOM      7  C   UNL     1     146.042 155.584 161.513  1.00  0.00     0.000 C 
BRANCH   7   8
ATOM      8  C   UNL     1     145.882 157.109 161.597  1.00  0.00     0.000 C 
BRANCH   8   9
ATOM      9  C   UNL     1     145.963 157.802 160.225  1.00  0.00     0.000 C 
BRANCH   9  10
ATOM     10  C   UNL     1     147.110 158.819 160.069  1.00  0.00     0.000 C 
BRANCH  10  11
ATOM     11  C   UNL     1     147.730 158.815 158.661  1.00  0.00     0.000 C 
BRANCH  11  12
ATOM     12  C   UNL     1     146.876 159.578 157.632  1.00  0.00     0.006 C 
BRANCH  12  13
ATOM     13  C   UNL     1     147.656 160.081 156.407  1.00  0.00     0.053 C 
BRANCH  13  14
ATOM     14  C   UNL     1     147.359 161.517 156.103  1.00  0.00     0.041 C 
ATOM     15  O   UNL     1     147.999 162.118 155.200  1.00  0.00    -0.550 OA
ATOM     16  O   UNL     1     146.362 162.185 156.803  1.00  0.00    -0.550 OA
ENDBRANCH  13  14
ENDBRANCH  12  13
ENDBRANCH  11  12
ENDBRANCH  10  11
ENDBRANCH   9  10
ENDBRANCH   8   9
ENDBRANCH   7   8
ENDBRANCH   6   7
ENDBRANCH   5   6
ENDBRANCH   4   5
ENDBRANCH   3   4
ENDBRANCH   2   3
ENDBRANCH   1   2
BRANCH   1  17
ATOM     17  C   UNL     1     149.330 157.080 162.911  1.00  0.00     0.000 C 
BRANCH  17  18
ATOM     18  C   UNL     1     149.701 158.540 162.607  1.00  0.00     0.000 C 
BRANCH  18  19
ATOM     19  C   UNL     1     151.069 158.665 161.910  1.00  0.00     0.000 C 
BRANCH  19  20
ATOM     20  C   UNL     1     150.991 159.455 160.594  1.00  0.00     0.000 C 
BRANCH  20  21
ATOM     21  C   UNL     1     152.365 159.958 160.121  1.00  0.00     0.000 C 
BRANCH  21  22
ATOM     22  C   UNL     1     152.330 160.472 158.665  1.00  0.00    -0.000 C 
BRANCH  22  23
ATOM     23  C   UNL     1     151.087 160.021 157.873  1.00  0.00    -0.000 C 
BRANCH  23  24
ATOM     24  C   UNL     1     151.386 159.200 156.607  1.00  0.00    -0.000 C 
BRANCH  24  25
ATOM     25  C   UNL     1     151.107 157.700 156.789  1.00  0.00    -0.000 C 
BRANCH  25  26
ATOM     26  C   UNL     1     152.400 156.882 156.659  1.00  0.00    -0.000 C 
BRANCH  26  27
ATOM     27  C   UNL     1     152.719 156.067 157.923  1.00  0.00    -0.000 C 
BRANCH  27  28
ATOM     28  C   UNL     1     153.685 156.793 158.871  1.00  0.00    -0.000 C 
BRANCH  28  29
ATOM     29  C   UNL     1     153.465 156.347 160.322  1.00  0.00    -0.003 C 
ATOM     30  C   UNL     1     153.443 154.826 160.435  1.00  0.00     0.004 C 
ENDBRANCH  28  29
ENDBRANCH  27  28
ENDBRANCH  26  27
ENDBRANCH  25  26
ENDBRANCH  24  25
ENDBRANCH  23  24
ENDBRANCH  22  23
ENDBRANCH  21  22
ENDBRANCH  20  21
ENDBRANCH  19  20
ENDBRANCH  18  19
ENDBRANCH  17  18
ENDBRANCH   1  17
TORSDOF 26
ENDMDL
MODEL 4
REMARK VINA RESULT:    -2.787      4.100      6.773
REMARK INTER + INTRA:         -12.291
REMARK INTER:                  -6.477
REMARK INTRA:                  -5.814
REMARK UNBOUND:                -5.267
REMARK SMILES CCCCCCCCCCCCCCCCCCCCCCCCCCCC(=O)[O-]
REMARK SMILES IDX 15 1 16 2 17 3 18 4 19 5 20 6 21 7 22 8 23 9 24 10 25 11
REMARK SMILES IDX 26 12 27 13 28 14 29 15 30 16 14 17 13 18 12 19 11 20 10 21
REMARK SMILES IDX 9 22 8 23 7 24 6 25 5 26 4 27 3 28 2 29 1 30
REMARK H PARENT
REMARK Flexibility Score: inf
ROOT
ATOM      1  C   UNL     1     148.261 162.547 151.354  1.00  0.00     0.000 C 
ENDROOT
BRANCH   1   2
ATOM      2  C   UNL     1     147.680 161.354 152.136  1.00  0.00     0.000 C 
BRANCH   2   3
ATOM      3  C   UNL     1     147.430 161.616 153.635  1.00  0.00     0.000 C 
BRANCH   3   4
ATOM      4  C   UNL     1     146.222 162.522 153.947  1.00  0.00     0.000 C 
BRANCH   4   5
ATOM      5  C   UNL     1     146.454 163.550 155.073  1.00  0.00     0.000 C 
BRANCH   5   6
ATOM      6  C   UNL     1     147.923 163.955 155.288  1.00  0.00     0.000 C 
BRANCH   6   7
ATOM      7  C   UNL     1     148.229 165.375 154.789  1.00  0.00     0.000 C 
BRANCH   7   8
ATOM      8  C   UNL     1     147.016 165.982 154.070  1.00  0.00     0.000 C 
BRANCH   8   9
ATOM      9  C   UNL     1     147.163 165.989 152.537  1.00  0.00     0.000 C 
BRANCH   9  10
ATOM     10  C   UNL     1     145.938 165.473 151.757  1.00  0.00     0.000 C 
BRANCH  10  11
ATOM     11  C   UNL     1     146.205 165.326 150.249  1.00  0.00     0.000 C 
BRANCH  11  12
ATOM     12  C   UNL     1     147.429 166.132 149.780  1.00  0.00     0.006 C 
BRANCH  12  13
ATOM     13  C   UNL     1     147.088 167.372 148.938  1.00  0.00     0.053 C 
BRANCH  13  14
ATOM     14  C   UNL     1     147.830 168.588 149.403  1.00  0.00     0.041 C 
ATOM     15  O   UNL     1     147.814 169.641 148.713  1.00  0.00    -0.550 OA
ATOM     16  O   UNL     1     148.521 168.564 150.608  1.00  0.00    -0.550 OA
ENDBRANCH  13  14
ENDBRANCH  12  13
ENDBRANCH  11  12
ENDBRANCH  10  11
ENDBRANCH   9  10
ENDBRANCH   8   9
ENDBRANCH   7   8
ENDBRANCH   6   7
ENDBRANCH   5   6
ENDBRANCH   4   5
ENDBRANCH   3   4
ENDBRANCH   2   3
ENDBRANCH   1   2
BRANCH   1  17
ATOM     17  C   UNL     1     149.526 163.127 152.008  1.00  0.00     0.000 C 
BRANCH  17  18
ATOM     18  C   UNL     1     150.565 163.590 150.974  1.00  0.00     0.000 C 
BRANCH  18  19
ATOM     19  C   UNL     1     150.028 163.523 149.532  1.00  0.00     0.000 C 
BRANCH  19  20
ATOM     20  C   UNL     1     150.778 162.497 148.669  1.00  0.00     0.000 C 
BRANCH  20  21
ATOM     21  C   UNL     1     151.999 161.896 149.386  1.00  0.00     0.000 C 
BRANCH  21  22
ATOM     22  C   UNL     1     151.887 160.364 149.547  1.00  0.00    -0.000 C 
BRANCH  22  23
ATOM     23  C   UNL     1     150.680 159.910 150.392  1.00  0.00    -0.000 C 
BRANCH  23  24
ATOM     24  C   UNL     1     151.027 159.424 151.810  1.00  0.00    -0.000 C 
BRANCH  24  25
ATOM     25  C   UNL     1     152.439 159.837 152.253  1.00  0.00    -0.000 C 
BRANCH  25  26
ATOM     26  C   UNL     1     152.400 160.557 153.608  1.00  0.00    -0.000 C 
BRANCH  26  27
ATOM     27  C   UNL     1     151.003 160.543 154.249  1.00  0.00    -0.000 C 
BRANCH  27  28
ATOM     28  C   UNL     1     150.788 161.701 155.236  1.00  0.00    -0.000 C 
BRANCH  28  29
ATOM     29  C   UNL     1     152.027 162.603 155.299  1.00  0.00    -0.003 C 
ATOM     30  C   UNL     1     151.690 164.032 154.882  1.00  0.00     0.004 C 
ENDBRANCH  28  29
ENDBRANCH  27  28
ENDBRANCH  26  27
ENDBRANCH  25  26
ENDBRANCH  24  25
ENDBRANCH  23  24
ENDBRANCH  22  23
ENDBRANCH  21  22
ENDBRANCH  20  21
ENDBRANCH  19  20
ENDBRANCH  18  19
ENDBRANCH  17  18
ENDBRANCH   1  17
TORSDOF 26
ENDMDL
MODEL 5
REMARK VINA RESULT:    -2.768      3.576      6.701
REMARK INTER + INTRA:         -12.241
REMARK INTER:                  -6.568
REMARK INTRA:                  -5.673
REMARK UNBOUND:                -5.267
REMARK SMILES CCCCCCCCCCCCCCCCCCCCCCCCCCCC(=O)[O-]
REMARK SMILES IDX 15 1 16 2 17 3 18 4 19 5 20 6 21 7 22 8 23 9 24 10 25 11
REMARK SMILES IDX 26 12 27 13 28 14 29 15 30 16 14 17 13 18 12 19 11 20 10 21
REMARK SMILES IDX 9 22 8 23 7 24 6 25 5 26 4 27 3 28 2 29 1 30
REMARK H PARENT
REMARK Flexibility Score: inf
ROOT
ATOM      1  C   UNL     1     145.894 163.313 155.585  1.00  0.00     0.000 C 
ENDROOT
BRANCH   1   2
ATOM      2  C   UNL     1     146.519 164.632 156.077  1.00  0.00     0.000 C 
BRANCH   2   3
ATOM      3  C   UNL     1     146.504 165.783 155.051  1.00  0.00     0.000 C 
BRANCH   3   4
ATOM      4  C   UNL     1     145.957 165.410 153.659  1.00  0.00     0.000 C 
BRANCH   4   5
ATOM      5  C   UNL     1     146.790 165.933 152.471  1.00  0.00     0.000 C 
BRANCH   5   6
ATOM      6  C   UNL     1     146.997 164.923 151.330  1.00  0.00     0.000 C 
BRANCH   6   7
ATOM      7  C   UNL     1     146.037 165.147 150.152  1.00  0.00     0.000 C 
BRANCH   7   8
ATOM      8  C   UNL     1     146.183 166.566 149.583  1.00  0.00     0.000 C 
BRANCH   8   9
ATOM      9  C   UNL     1     147.495 166.772 148.804  1.00  0.00     0.000 C 
BRANCH   9  10
ATOM     10  C   UNL     1     148.223 168.101 149.084  1.00  0.00     0.000 C 
BRANCH  10  11
ATOM     11  C   UNL     1     148.492 168.334 150.581  1.00  0.00     0.000 C 
BRANCH  11  12
ATOM     12  C   UNL     1     149.813 167.700 151.054  1.00  0.00     0.006 C 
BRANCH  12  13
ATOM     13  C   UNL     1     150.939 167.725 150.008  1.00  0.00     0.053 C 
BRANCH  13  14
ATOM     14  C   UNL     1     151.459 166.352 149.709  1.00  0.00     0.041 C 
ATOM     15  O   UNL     1     150.852 165.610 148.893  1.00  0.00    -0.550 OA
ATOM     16  O   UNL     1     152.624 165.902 150.316  1.00  0.00    -0.550 OA
ENDBRANCH  13  14
ENDBRANCH  12  13
ENDBRANCH  11  12
ENDBRANCH  10  11
ENDBRANCH   9  10
ENDBRANCH   8   9
ENDBRANCH   7   8
ENDBRANCH   6   7
ENDBRANCH   5   6
ENDBRANCH   4   5
ENDBRANCH   3   4
ENDBRANCH   2   3
ENDBRANCH   1   2
BRANCH   1  17
ATOM     17  C   UNL     1     146.919 162.170 155.488  1.00  0.00     0.000 C 
BRANCH  17  18
ATOM     18  C   UNL     1     147.633 162.133 154.128  1.00  0.00     0.000 C 
BRANCH  18  19
ATOM     19  C   UNL     1     146.678 161.782 152.972  1.00  0.00     0.000 C 
BRANCH  19  20
ATOM     20  C   UNL     1     147.416 161.233 151.742  1.00  0.00     0.000 C 
BRANCH  20  21
ATOM     21  C   UNL     1     148.923 161.044 151.987  1.00  0.00     0.000 C 
BRANCH  21  22
ATOM     22  C   UNL     1     149.782 161.744 150.911  1.00  0.00    -0.000 C 
BRANCH  22  23
ATOM     23  C   UNL     1     150.751 162.801 151.475  1.00  0.00    -0.000 C 
BRANCH  23  24
ATOM     24  C   UNL     1     150.076 164.047 152.074  1.00  0.00    -0.000 C 
BRANCH  24  25
ATOM     25  C   UNL     1     150.888 164.671 153.220  1.00  0.00    -0.000 C 
BRANCH  25  26
ATOM     26  C   UNL     1     150.016 164.860 154.470  1.00  0.00    -0.000 C 
BRANCH  26  27
ATOM     27  C   UNL     1     150.375 163.881 155.599  1.00  0.00    -0.000 C 
BRANCH  27  28
ATOM     28  C   UNL     1     151.516 162.924 155.218  1.00  0.00    -0.000 C 
BRANCH  28  29
ATOM     29  C   UNL     1     151.019 161.475 155.160  1.00  0.00    -0.003 C 
ATOM     30  C   UNL     1     152.108 160.538 154.647  1.00  0.00     0.004 C 
ENDBRANCH  28  29
ENDBRANCH  27  28
ENDBRANCH  26  27
ENDBRANCH  25  26
ENDBRANCH  24  25
ENDBRANCH  23  24
ENDBRANCH  22  23
ENDBRANCH  21  22
ENDBRANCH  20  21
ENDBRANCH  19  20
ENDBRANCH  18  19
ENDBRANCH  17  18
ENDBRANCH   1  17
TORSDOF 26
ENDMDL
MODEL 6
REMARK VINA RESULT:    -2.766      2.091      4.149
REMARK INTER + INTRA:         -12.238
REMARK INTER:                  -6.603
REMARK INTRA:                  -5.635
REMARK UNBOUND:                -5.267
REMARK SMILES CCCCCCCCCCCCCCCCCCCCCCCCCCCC(=O)[O-]
REMARK SMILES IDX 15 1 16 2 17 3 18 4 19 5 20 6 21 7 22 8 23 9 24 10 25 11
REMARK SMILES IDX 26 12 27 13 28 14 29 15 30 16 14 17 13 18 12 19 11 20 10 21
REMARK SMILES IDX 9 22 8 23 7 24 6 25 5 26 4 27 3 28 2 29 1 30
REMARK H PARENT
REMARK Flexibility Score: inf
ROOT
ATOM      1  C   UNL     1     148.360 165.511 154.589  1.00  0.00     0.000 C 
ENDROOT
BRANCH   1   2
ATOM      2  C   UNL     1     146.961 165.642 155.219  1.00  0.00     0.000 C 
BRANCH   2   3
ATOM      3  C   UNL     1     146.316 164.313 155.658  1.00  0.00     0.000 C 
BRANCH   3   4
ATOM      4  C   UNL     1     147.308 163.166 155.939  1.00  0.00     0.000 C 
BRANCH   4   5
ATOM      5  C   UNL     1     147.390 162.093 154.836  1.00  0.00     0.000 C 
BRANCH   5   6
ATOM      6  C   UNL     1     146.476 162.339 153.622  1.00  0.00     0.000 C 
BRANCH   6   7
ATOM      7  C   UNL     1     147.120 161.914 152.295  1.00  0.00     0.000 C 
BRANCH   7   8
ATOM      8  C   UNL     1     148.651 161.887 152.406  1.00  0.00     0.000 C 
BRANCH   8   9
ATOM      9  C   UNL     1     149.312 160.923 151.403  1.00  0.00     0.000 C 
BRANCH   9  10
ATOM     10  C   UNL     1     150.581 160.213 151.915  1.00  0.00     0.000 C 
BRANCH  10  11
ATOM     11  C   UNL     1     150.354 159.457 153.235  1.00  0.00     0.000 C 
BRANCH  11  12
ATOM     12  C   UNL     1     151.653 158.867 153.813  1.00  0.00     0.006 C 
BRANCH  12  13
ATOM     13  C   UNL     1     151.443 157.666 154.751  1.00  0.00     0.053 C 
BRANCH  13  14
ATOM     14  C   UNL     1     151.296 158.088 156.180  1.00  0.00     0.041 C 
ATOM     15  O   UNL     1     151.686 159.227 156.547  1.00  0.00    -0.550 OA
ATOM     16  O   UNL     1     150.707 157.231 157.101  1.00  0.00    -0.550 OA
ENDBRANCH  13  14
ENDBRANCH  12  13
ENDBRANCH  11  12
ENDBRANCH  10  11
ENDBRANCH   9  10
ENDBRANCH   8   9
ENDBRANCH   7   8
ENDBRANCH   6   7
ENDBRANCH   5   6
ENDBRANCH   4   5
ENDBRANCH   3   4
ENDBRANCH   2   3
ENDBRANCH   1   2
BRANCH   1  17
ATOM     17  C   UNL     1     148.359 165.786 153.076  1.00  0.00     0.000 C 
BRANCH  17  18
ATOM     18  C   UNL     1     146.996 166.284 152.568  1.00  0.00     0.000 C 
BRANCH  18  19
ATOM     19  C   UNL     1     146.468 165.448 151.388  1.00  0.00     0.000 C 
BRANCH  19  20
ATOM     20  C   UNL     1     146.609 166.173 150.041  1.00  0.00     0.000 C 
BRANCH  20  21
ATOM     21  C   UNL     1     147.377 165.344 148.996  1.00  0.00     0.000 C 
BRANCH  21  22
ATOM     22  C   UNL     1     148.134 164.158 149.633  1.00  0.00    -0.000 C 
BRANCH  22  23
ATOM     23  C   UNL     1     149.666 164.245 149.490  1.00  0.00    -0.000 C 
BRANCH  23  24
ATOM     24  C   UNL     1     150.271 165.622 149.812  1.00  0.00    -0.000 C 
BRANCH  24  25
ATOM     25  C   UNL     1     151.287 165.572 150.964  1.00  0.00    -0.000 C 
BRANCH  25  26
ATOM     26  C   UNL     1     151.289 164.190 151.633  1.00  0.00    -0.000 C 
BRANCH  26  27
ATOM     27  C   UNL     1     151.727 164.243 153.105  1.00  0.00    -0.000 C 
BRANCH  27  28
ATOM     28  C   UNL     1     152.238 162.890 153.625  1.00  0.00    -0.000 C 
BRANCH  28  29
ATOM     29  C   UNL     1     151.458 162.452 154.870  1.00  0.00    -0.003 C 
ATOM     30  C   UNL     1     151.079 163.652 155.733  1.00  0.00     0.004 C 
ENDBRANCH  28  29
ENDBRANCH  27  28
ENDBRANCH  26  27
ENDBRANCH  25  26
ENDBRANCH  24  25
ENDBRANCH  23  24
ENDBRANCH  22  23
ENDBRANCH  21  22
ENDBRANCH  20  21
ENDBRANCH  19  20
ENDBRANCH  18  19
ENDBRANCH  17  18
ENDBRANCH   1  17
TORSDOF 26
ENDMDL
MODEL 7
REMARK VINA RESULT:    -2.757      6.161     10.922
REMARK INTER + INTRA:         -12.214
REMARK INTER:                  -6.446
REMARK INTRA:                  -5.768
REMARK UNBOUND:                -5.267
REMARK SMILES CCCCCCCCCCCCCCCCCCCCCCCCCCCC(=O)[O-]
REMARK SMILES IDX 15 1 16 2 17 3 18 4 19 5 20 6 21 7 22 8 23 9 24 10 25 11
REMARK SMILES IDX 26 12 27 13 28 14 29 15 30 16 14 17 13 18 12 19 11 20 10 21
REMARK SMILES IDX 9 22 8 23 7 24 6 25 5 26 4 27 3 28 2 29 1 30
REMARK H PARENT
REMARK Flexibility Score: inf
ROOT
ATOM      1  C   UNL     1     150.296 155.377 160.881  1.00  0.00     0.000 C 
ENDROOT
BRANCH   1   2
ATOM      2  C   UNL     1     149.481 156.271 159.928  1.00  0.00     0.000 C 
BRANCH   2   3
ATOM      3  C   UNL     1     148.516 155.517 158.992  1.00  0.00     0.000 C 
BRANCH   3   4
ATOM      4  C   UNL     1     147.695 154.397 159.663  1.00  0.00     0.000 C 
BRANCH   4   5
ATOM      5  C   UNL     1     146.569 154.887 160.595  1.00  0.00     0.000 C 
BRANCH   5   6
ATOM      6  C   UNL     1     145.876 156.185 160.148  1.00  0.00     0.000 C 
BRANCH   6   7
ATOM      7  C   UNL     1     145.998 157.314 161.183  1.00  0.00     0.000 C 
BRANCH   7   8
ATOM      8  C   UNL     1     146.718 158.533 160.589  1.00  0.00     0.000 C 
BRANCH   8   9
ATOM      9  C   UNL     1     146.350 158.795 159.117  1.00  0.00     0.000 C 
BRANCH   9  10
ATOM     10  C   UNL     1     147.318 159.719 158.352  1.00  0.00     0.000 C 
BRANCH  10  11
ATOM     11  C   UNL     1     148.363 158.945 157.530  1.00  0.00     0.000 C 
BRANCH  11  12
ATOM     12  C   UNL     1     149.485 159.851 156.992  1.00  0.00     0.006 C 
BRANCH  12  13
ATOM     13  C   UNL     1     149.333 160.239 155.512  1.00  0.00     0.053 C 
BRANCH  13  14
ATOM     14  C   UNL     1     150.284 159.487 154.633  1.00  0.00     0.041 C 
ATOM     15  O   UNL     1     150.735 158.370 154.999  1.00  0.00    -0.550 OA
ATOM     16  O   UNL     1     150.656 160.011 153.401  1.00  0.00    -0.550 OA
ENDBRANCH  13  14
ENDBRANCH  12  13
ENDBRANCH  11  12
ENDBRANCH  10  11
ENDBRANCH   9  10
ENDBRANCH   8   9
ENDBRANCH   7   8
ENDBRANCH   6   7
ENDBRANCH   5   6
ENDBRANCH   4   5
ENDBRANCH   3   4
ENDBRANCH   2   3
ENDBRANCH   1   2
BRANCH   1  17
ATOM     17  C   UNL     1     150.416 155.969 162.295  1.00  0.00     0.000 C 
BRANCH  17  18
ATOM     18  C   UNL     1     149.053 156.363 162.886  1.00  0.00     0.000 C 
BRANCH  18  19
ATOM     19  C   UNL     1     149.060 157.782 163.484  1.00  0.00     0.000 C 
BRANCH  19  20
ATOM     20  C   UNL     1     150.443 158.447 163.412  1.00  0.00     0.000 C 
BRANCH  20  21
ATOM     21  C   UNL     1     150.361 159.964 163.168  1.00  0.00     0.000 C 
BRANCH  21  22
ATOM     22  C   UNL     1     149.726 160.303 161.802  1.00  0.00    -0.000 C 
BRANCH  22  23
ATOM     23  C   UNL     1     150.515 159.764 160.594  1.00  0.00    -0.000 C 
BRANCH  23  24
ATOM     24  C   UNL     1     151.846 160.483 160.315  1.00  0.00    -0.000 C 
BRANCH  24  25
ATOM     25  C   UNL     1     153.014 159.510 160.092  1.00  0.00    -0.000 C 
BRANCH  25  26
ATOM     26  C   UNL     1     152.506 158.147 159.601  1.00  0.00    -0.000 C 
BRANCH  26  27
ATOM     27  C   UNL     1     152.527 158.021 158.070  1.00  0.00    -0.000 C 
BRANCH  27  28
ATOM     28  C   UNL     1     152.481 156.561 157.591  1.00  0.00    -0.000 C 
BRANCH  28  29
ATOM     29  C   UNL     1     153.117 155.626 158.627  1.00  0.00    -0.003 C 
ATOM     30  C   UNL     1     154.394 154.991 158.085  1.00  0.00     0.004 C 
ENDBRANCH  28  29
ENDBRANCH  27  28
ENDBRANCH  26  27
ENDBRANCH  25  26
ENDBRANCH  24  25
ENDBRANCH  23  24
ENDBRANCH  22  23
ENDBRANCH  21  22
ENDBRANCH  20  21
ENDBRANCH  19  20
ENDBRANCH  18  19
ENDBRANCH  17  18
ENDBRANCH   1  17
TORSDOF 26
ENDMDL
MODEL 8
REMARK VINA RESULT:    -2.751      2.354      4.272
REMARK INTER + INTRA:         -12.201
REMARK INTER:                  -6.423
REMARK INTRA:                  -5.778
REMARK UNBOUND:                -5.267
REMARK SMILES CCCCCCCCCCCCCCCCCCCCCCCCCCCC(=O)[O-]
REMARK SMILES IDX 15 1 16 2 17 3 18 4 19 5 20 6 21 7 22 8 23 9 24 10 25 11
REMARK SMILES IDX 26 12 27 13 28 14 29 15 30 16 14 17 13 18 12 19 11 20 10 21
REMARK SMILES IDX 9 22 8 23 7 24 6 25 5 26 4 27 3 28 2 29 1 30
REMARK H PARENT
REMARK Flexibility Score: inf
ROOT
ATOM      1  C   UNL     1     147.378 161.642 154.333  1.00  0.00     0.000 C 
ENDROOT
BRANCH   1   2
ATOM      2  C   UNL     1     146.840 162.418 155.550  1.00  0.00     0.000 C 
BRANCH   2   3
ATOM      3  C   UNL     1     145.884 163.580 155.212  1.00  0.00     0.000 C 
BRANCH   3   4
ATOM      4  C   UNL     1     146.170 164.899 155.957  1.00  0.00     0.000 C 
BRANCH   4   5
ATOM      5  C   UNL     1     147.057 165.900 155.190  1.00  0.00     0.000 C 
BRANCH   5   6
ATOM      6  C   UNL     1     147.117 165.680 153.668  1.00  0.00     0.000 C 
BRANCH   6   7
ATOM      7  C   UNL     1     148.471 165.129 153.198  1.00  0.00     0.000 C 
BRANCH   7   8
ATOM      8  C   UNL     1     149.506 165.165 154.331  1.00  0.00     0.000 C 
BRANCH   8   9
ATOM      9  C   UNL     1     150.412 163.920 154.362  1.00  0.00     0.000 C 
BRANCH   9  10
ATOM     10  C   UNL     1     150.498 163.205 155.724  1.00  0.00     0.000 C 
BRANCH  10  11
ATOM     11  C   UNL     1     151.510 162.046 155.731  1.00  0.00     0.000 C 
BRANCH  11  12
ATOM     12  C   UNL     1     151.416 161.168 154.470  1.00  0.00     0.006 C 
BRANCH  12  13
ATOM     13  C   UNL     1     150.616 159.868 154.660  1.00  0.00     0.053 C 
BRANCH  13  14
ATOM     14  C   UNL     1     151.407 158.659 154.268  1.00  0.00     0.041 C 
ATOM     15  O   UNL     1     151.180 158.082 153.173  1.00  0.00    -0.550 OA
ATOM     16  O   UNL     1     152.410 158.182 155.104  1.00  0.00    -0.550 OA
ENDBRANCH  13  14
ENDBRANCH  12  13
ENDBRANCH  11  12
ENDBRANCH  10  11
ENDBRANCH   9  10
ENDBRANCH   8   9
ENDBRANCH   7   8
ENDBRANCH   6   7
ENDBRANCH   5   6
ENDBRANCH   4   5
ENDBRANCH   3   4
ENDBRANCH   2   3
ENDBRANCH   1   2
BRANCH   1  17
ATOM     17  C   UNL     1     146.547 161.881 153.061  1.00  0.00     0.000 C 
BRANCH  17  18
ATOM     18  C   UNL     1     147.363 161.666 151.776  1.00  0.00     0.000 C 
BRANCH  18  19
ATOM     19  C   UNL     1     148.872 161.538 152.053  1.00  0.00     0.000 C 
BRANCH  19  20
ATOM     20  C   UNL     1     149.628 160.854 150.904  1.00  0.00     0.000 C 
BRANCH  20  21
ATOM     21  C   UNL     1     150.657 161.780 150.233  1.00  0.00     0.000 C 
BRANCH  21  22
ATOM     22  C   UNL     1     150.596 163.221 150.789  1.00  0.00    -0.000 C 
BRANCH  22  23
ATOM     23  C   UNL     1     151.978 163.850 151.047  1.00  0.00    -0.000 C 
BRANCH  23  24
ATOM     24  C   UNL     1     152.399 164.930 150.036  1.00  0.00    -0.000 C 
BRANCH  24  25
ATOM     25  C   UNL     1     151.243 165.379 149.127  1.00  0.00    -0.000 C 
BRANCH  25  26
ATOM     26  C   UNL     1     150.637 166.699 149.623  1.00  0.00    -0.000 C 
BRANCH  26  27
ATOM     27  C   UNL     1     149.130 166.593 149.905  1.00  0.00    -0.000 C 
BRANCH  27  28
ATOM     28  C   UNL     1     148.391 165.722 148.877  1.00  0.00    -0.000 C 
BRANCH  28  29
ATOM     29  C   UNL     1     147.589 164.616 149.574  1.00  0.00    -0.003 C 
ATOM     30  C   UNL     1     146.238 165.135 150.056  1.00  0.00     0.004 C 
ENDBRANCH  28  29
ENDBRANCH  27  28
ENDBRANCH  26  27
ENDBRANCH  25  26
ENDBRANCH  24  25
ENDBRANCH  23  24
ENDBRANCH  22  23
ENDBRANCH  21  22
ENDBRANCH  20  21
ENDBRANCH  19  20
ENDBRANCH  18  19
ENDBRANCH  17  18
ENDBRANCH   1  17
TORSDOF 26
ENDMDL
MODEL 9
REMARK VINA RESULT:    -2.750      2.351      3.876
REMARK INTER + INTRA:         -12.196
REMARK INTER:                  -6.148
REMARK INTRA:                  -6.048
REMARK UNBOUND:                -5.267
REMARK SMILES CCCCCCCCCCCCCCCCCCCCCCCCCCCC(=O)[O-]
REMARK SMILES IDX 15 1 16 2 17 3 18 4 19 5 20 6 21 7 22 8 23 9 24 10 25 11
REMARK SMILES IDX 26 12 27 13 28 14 29 15 30 16 14 17 13 18 12 19 11 20 10 21
REMARK SMILES IDX 9 22 8 23 7 24 6 25 5 26 4 27 3 28 2 29 1 30
REMARK H PARENT
REMARK Flexibility Score: inf
ROOT
ATOM      1  C   UNL     1     147.789 163.056 151.499  1.00  0.00     0.000 C 
ENDROOT
BRANCH   1   2
ATOM      2  C   UNL     1     147.547 161.756 152.287  1.00  0.00     0.000 C 
BRANCH   2   3
ATOM      3  C   UNL     1     146.666 161.909 153.543  1.00  0.00     0.000 C 
BRANCH   3   4
ATOM      4  C   UNL     1     147.395 161.684 154.884  1.00  0.00     0.000 C 
BRANCH   4   5
ATOM      5  C   UNL     1     147.251 162.833 155.902  1.00  0.00     0.000 C 
BRANCH   5   6
ATOM      6  C   UNL     1     146.285 163.954 155.482  1.00  0.00     0.000 C 
BRANCH   6   7
ATOM      7  C   UNL     1     146.996 165.293 155.238  1.00  0.00     0.000 C 
BRANCH   7   8
ATOM      8  C   UNL     1     148.521 165.122 155.263  1.00  0.00     0.000 C 
BRANCH   8   9
ATOM      9  C   UNL     1     149.192 165.475 153.923  1.00  0.00     0.000 C 
BRANCH   9  10
ATOM     10  C   UNL     1     150.415 164.613 153.553  1.00  0.00     0.000 C 
BRANCH  10  11
ATOM     11  C   UNL     1     150.633 163.435 154.518  1.00  0.00     0.000 C 
BRANCH  11  12
ATOM     12  C   UNL     1     151.483 162.310 153.901  1.00  0.00     0.006 C 
BRANCH  12  13
ATOM     13  C   UNL     1     150.928 160.895 154.135  1.00  0.00     0.053 C 
BRANCH  13  14
ATOM     14  C   UNL     1     150.873 160.097 152.869  1.00  0.00     0.041 C 
ATOM     15  O   UNL     1     150.796 158.841 152.915  1.00  0.00    -0.550 OA
ATOM     16  O   UNL     1     150.885 160.742 151.638  1.00  0.00    -0.550 OA
ENDBRANCH  13  14
ENDBRANCH  12  13
ENDBRANCH  11  12
ENDBRANCH  10  11
ENDBRANCH   9  10
ENDBRANCH   8   9
ENDBRANCH   7   8
ENDBRANCH   6   7
ENDBRANCH   5   6
ENDBRANCH   4   5
ENDBRANCH   3   4
ENDBRANCH   2   3
ENDBRANCH   1   2
BRANCH   1  17
ATOM     17  C   UNL     1     146.483 163.714 151.021  1.00  0.00     0.000 C 
BRANCH  17  18
ATOM     18  C   UNL     1     146.230 165.075 151.688  1.00  0.00     0.000 C 
BRANCH  18  19
ATOM     19  C   UNL     1     147.012 166.215 151.010  1.00  0.00     0.000 C 
BRANCH  19  20
ATOM     20  C   UNL     1     146.634 166.394 149.532  1.00  0.00     0.000 C 
BRANCH  20  21
ATOM     21  C   UNL     1     147.830 166.810 148.658  1.00  0.00     0.000 C 
BRANCH  21  22
ATOM     22  C   UNL     1     148.160 165.756 147.579  1.00  0.00    -0.000 C 
BRANCH  22  23
ATOM     23  C   UNL     1     148.676 164.420 148.147  1.00  0.00    -0.000 C 
BRANCH  23  24
ATOM     24  C   UNL     1     150.180 164.389 148.471  1.00  0.00    -0.000 C 
BRANCH  24  25
ATOM     25  C   UNL     1     150.475 164.656 149.956  1.00  0.00    -0.000 C 
BRANCH  25  26
ATOM     26  C   UNL     1     151.955 165.005 150.166  1.00  0.00    -0.000 C 
BRANCH  26  27
ATOM     27  C   UNL     1     152.161 166.445 150.664  1.00  0.00    -0.000 C 
BRANCH  27  28
ATOM     28  C   UNL     1     150.877 167.287 150.600  1.00  0.00    -0.000 C 
BRANCH  28  29
ATOM     29  C   UNL     1     150.720 168.141 151.864  1.00  0.00    -0.003 C 
ATOM     30  C   UNL     1     151.910 167.964 152.801  1.00  0.00     0.004 C 
ENDBRANCH  28  29
ENDBRANCH  27  28
ENDBRANCH  26  27
ENDBRANCH  25  26
ENDBRANCH  24  25
ENDBRANCH  23  24
ENDBRANCH  22  23
ENDBRANCH  21  22
ENDBRANCH  20  21
ENDBRANCH  19  20
ENDBRANCH  18  19
ENDBRANCH  17  18
ENDBRANCH   1  17
TORSDOF 26
ENDMDL
