MODEL 1
REMARK VINA RESULT:    -5.112      0.000      0.000
REMARK INTER + INTRA:         -17.985
REMARK INTER:                 -12.881
REMARK INTRA:                  -5.103
REMARK UNBOUND:                -5.103
REMARK SMILES CCCCCCCCCCCCCCCCCCCCCCCCCCCC(=O)[O-]
REMARK SMILES IDX 15 1 16 2 17 3 18 4 19 5 20 6 21 7 22 8 23 9 24 10 25 11
REMARK SMILES IDX 26 12 27 13 28 14 29 15 30 16 14 17 13 18 12 19 11 20 10 21
REMARK SMILES IDX 9 22 8 23 7 24 6 25 5 26 4 27 3 28 2 29 1 30
REMARK H PARENT
REMARK Flexibility Score: inf
ROOT
ATOM      1  C   UNL     1      62.611  13.146  95.439  1.00  0.00     0.000 C 
ENDROOT
BRANCH   1   2
ATOM      2  C   UNL     1      62.415  14.362  96.360  1.00  0.00     0.000 C 
BRANCH   2   3
ATOM      3  C   UNL     1      61.098  14.292  97.149  1.00  0.00     0.000 C 
BRANCH   3   4
ATOM      4  C   UNL     1      60.269  15.586  97.031  1.00  0.00     0.000 C 
BRANCH   4   5
ATOM      5  C   UNL     1      58.983  15.390  96.206  1.00  0.00     0.000 C 
BRANCH   5   6
ATOM      6  C   UNL     1      58.371  13.984  96.340  1.00  0.00     0.000 C 
BRANCH   6   7
ATOM      7  C   UNL     1      56.920  13.918  95.815  1.00  0.00     0.000 C 
BRANCH   7   8
ATOM      8  C   UNL     1      56.619  14.978  94.736  1.00  0.00     0.000 C 
BRANCH   8   9
ATOM      9  C   UNL     1      56.587  14.444  93.289  1.00  0.00     0.000 C 
BRANCH   9  10
ATOM     10  C   UNL     1      56.746  12.921  93.122  1.00  0.00     0.000 C 
BRANCH  10  11
ATOM     11  C   UNL     1      55.425  12.150  92.899  1.00  0.00     0.000 C 
BRANCH  11  12
ATOM     12  C   UNL     1      55.366  10.791  93.623  1.00  0.00     0.006 C 
BRANCH  12  13
ATOM     13  C   UNL     1      54.900  10.875  95.083  1.00  0.00     0.053 C 
BRANCH  13  14
ATOM     14  C   UNL     1      55.736  10.023  95.987  1.00  0.00     0.041 C 
ATOM     15  O   UNL     1      55.568   8.776  96.022  1.00  0.00    -0.550 OA
ATOM     16  O   UNL     1      56.717  10.606  96.778  1.00  0.00    -0.550 OA
ENDBRANCH  13  14
ENDBRANCH  12  13
ENDBRANCH  11  12
ENDBRANCH  10  11
ENDBRANCH   9  10
ENDBRANCH   8   9
ENDBRANCH   7   8
ENDBRANCH   6   7
ENDBRANCH   5   6
ENDBRANCH   4   5
ENDBRANCH   3   4
ENDBRANCH   2   3
ENDBRANCH   1   2
BRANCH   1  17
ATOM     17  C   UNL     1      62.334  13.474  93.966  1.00  0.00     0.000 C 
BRANCH  17  18
ATOM     18  C   UNL     1      60.839  13.376  93.607  1.00  0.00     0.000 C 
BRANCH  18  19
ATOM     19  C   UNL     1      60.331  14.627  92.874  1.00  0.00     0.000 C 
BRANCH  19  20
ATOM     20  C   UNL     1      61.154  15.881  93.214  1.00  0.00     0.000 C 
BRANCH  20  21
ATOM     21  C   UNL     1      60.402  17.188  92.903  1.00  0.00     0.000 C 
BRANCH  21  22
ATOM     22  C   UNL     1      59.079  17.012  92.128  1.00  0.00    -0.000 C 
BRANCH  22  23
ATOM     23  C   UNL     1      59.169  17.299  90.618  1.00  0.00    -0.000 C 
BRANCH  23  24
ATOM     24  C   UNL     1      59.034  16.028  89.763  1.00  0.00    -0.000 C 
BRANCH  24  25
ATOM     25  C   UNL     1      57.811  15.177  90.161  1.00  0.00    -0.000 C 
BRANCH  25  26
ATOM     26  C   UNL     1      57.707  13.835  89.409  1.00  0.00    -0.000 C 
BRANCH  26  27
ATOM     27  C   UNL     1      58.669  12.746  89.926  1.00  0.00    -0.000 C 
BRANCH  27  28
ATOM     28  C   UNL     1      58.499  11.411  89.186  1.00  0.00    -0.000 C 
BRANCH  28  29
ATOM     29  C   UNL     1      58.520  10.233  90.166  1.00  0.00    -0.003 C 
ATOM     30  C   UNL     1      57.106   9.778  90.510  1.00  0.00     0.004 C 
ENDBRANCH  28  29
ENDBRANCH  27  28
ENDBRANCH  26  27
ENDBRANCH  25  26
ENDBRANCH  24  25
ENDBRANCH  23  24
ENDBRANCH  22  23
ENDBRANCH  21  22
ENDBRANCH  20  21
ENDBRANCH  19  20
ENDBRANCH  18  19
ENDBRANCH  17  18
ENDBRANCH   1  17
TORSDOF 26
ENDMDL
MODEL 2
REMARK VINA RESULT:    -5.108      2.877      6.336
REMARK INTER + INTRA:         -17.974
REMARK INTER:                 -12.594
REMARK INTRA:                  -5.381
REMARK UNBOUND:                -5.103
REMARK SMILES CCCCCCCCCCCCCCCCCCCCCCCCCCCC(=O)[O-]
REMARK SMILES IDX 15 1 16 2 17 3 18 4 19 5 20 6 21 7 22 8 23 9 24 10 25 11
REMARK SMILES IDX 26 12 27 13 28 14 29 15 30 16 14 17 13 18 12 19 11 20 10 21
REMARK SMILES IDX 9 22 8 23 7 24 6 25 5 26 4 27 3 28 2 29 1 30
REMARK H PARENT
REMARK Flexibility Score: inf
ROOT
ATOM      1  C   UNL     1      55.126  10.162  92.677  1.00  0.00     0.000 C 
ENDROOT
BRANCH   1   2
ATOM      2  C   UNL     1      54.151   9.000  92.930  1.00  0.00     0.000 C 
BRANCH   2   3
ATOM      3  C   UNL     1      54.531   8.177  94.171  1.00  0.00     0.000 C 
BRANCH   3   4
ATOM      4  C   UNL     1      53.690   8.550  95.407  1.00  0.00     0.000 C 
BRANCH   4   5
ATOM      5  C   UNL     1      54.544   9.138  96.546  1.00  0.00     0.000 C 
BRANCH   5   6
ATOM      6  C   UNL     1      55.896   9.705  96.076  1.00  0.00     0.000 C 
BRANCH   6   7
ATOM      7  C   UNL     1      56.400  10.855  96.975  1.00  0.00     0.000 C 
BRANCH   7   8
ATOM      8  C   UNL     1      57.227  11.905  96.205  1.00  0.00     0.000 C 
BRANCH   8   9
ATOM      9  C   UNL     1      56.776  13.366  96.407  1.00  0.00     0.000 C 
BRANCH   9  10
ATOM     10  C   UNL     1      57.888  14.431  96.388  1.00  0.00     0.000 C 
BRANCH  10  11
ATOM     11  C   UNL     1      59.249  13.939  95.844  1.00  0.00     0.000 C 
BRANCH  11  12
ATOM     12  C   UNL     1      60.247  15.073  95.542  1.00  0.00     0.006 C 
BRANCH  12  13
ATOM     13  C   UNL     1      60.858  15.017  94.135  1.00  0.00     0.053 C 
BRANCH  13  14
ATOM     14  C   UNL     1      60.554  16.251  93.343  1.00  0.00     0.041 C 
ATOM     15  O   UNL     1      60.448  17.367  93.918  1.00  0.00    -0.550 OA
ATOM     16  O   UNL     1      60.410  16.173  91.964  1.00  0.00    -0.550 OA
ENDBRANCH  13  14
ENDBRANCH  12  13
ENDBRANCH  11  12
ENDBRANCH  10  11
ENDBRANCH   9  10
ENDBRANCH   8   9
ENDBRANCH   7   8
ENDBRANCH   6   7
ENDBRANCH   5   6
ENDBRANCH   4   5
ENDBRANCH   3   4
ENDBRANCH   2   3
ENDBRANCH   1   2
BRANCH   1  17
ATOM     17  C   UNL     1      54.403  11.479  92.362  1.00  0.00     0.000 C 
BRANCH  17  18
ATOM     18  C   UNL     1      54.505  12.502  93.509  1.00  0.00     0.000 C 
BRANCH  18  19
ATOM     19  C   UNL     1      54.020  13.898  93.092  1.00  0.00     0.000 C 
BRANCH  19  20
ATOM     20  C   UNL     1      55.088  14.684  92.314  1.00  0.00     0.000 C 
BRANCH  20  21
ATOM     21  C   UNL     1      56.433  14.756  93.059  1.00  0.00     0.000 C 
BRANCH  21  22
ATOM     22  C   UNL     1      57.640  14.186  92.286  1.00  0.00    -0.000 C 
BRANCH  22  23
ATOM     23  C   UNL     1      57.959  12.708  92.578  1.00  0.00    -0.000 C 
BRANCH  23  24
ATOM     24  C   UNL     1      59.342  12.285  92.057  1.00  0.00    -0.000 C 
BRANCH  24  25
ATOM     25  C   UNL     1      59.268  11.589  90.683  1.00  0.00    -0.000 C 
BRANCH  25  26
ATOM     26  C   UNL     1      58.304  10.386  90.639  1.00  0.00    -0.000 C 
BRANCH  26  27
ATOM     27  C   UNL     1      57.175  10.519  89.597  1.00  0.00    -0.000 C 
BRANCH  27  28
ATOM     28  C   UNL     1      57.219  11.861  88.850  1.00  0.00    -0.000 C 
BRANCH  28  29
ATOM     29  C   UNL     1      55.993  12.717  89.186  1.00  0.00    -0.003 C 
ATOM     30  C   UNL     1      56.247  14.187  88.875  1.00  0.00     0.004 C 
ENDBRANCH  28  29
ENDBRANCH  27  28
ENDBRANCH  26  27
ENDBRANCH  25  26
ENDBRANCH  24  25
ENDBRANCH  23  24
ENDBRANCH  22  23
ENDBRANCH  21  22
ENDBRANCH  20  21
ENDBRANCH  19  20
ENDBRANCH  18  19
ENDBRANCH  17  18
ENDBRANCH   1  17
TORSDOF 26
ENDMDL
MODEL 3
REMARK VINA RESULT:    -5.105      2.365      5.590
REMARK INTER + INTRA:         -17.968
REMARK INTER:                 -12.659
REMARK INTRA:                  -5.309
REMARK UNBOUND:                -5.103
REMARK SMILES CCCCCCCCCCCCCCCCCCCCCCCCCCCC(=O)[O-]
REMARK SMILES IDX 15 1 16 2 17 3 18 4 19 5 20 6 21 7 22 8 23 9 24 10 25 11
REMARK SMILES IDX 26 12 27 13 28 14 29 15 30 16 14 17 13 18 12 19 11 20 10 21
REMARK SMILES IDX 9 22 8 23 7 24 6 25 5 26 4 27 3 28 2 29 1 30
REMARK H PARENT
REMARK Flexibility Score: inf
ROOT
ATOM      1  C   UNL     1      55.057   9.783  92.669  1.00  0.00     0.000 C 
ENDROOT
BRANCH   1   2
ATOM      2  C   UNL     1      54.509   9.047  93.903  1.00  0.00     0.000 C 
BRANCH   2   3
ATOM      3  C   UNL     1      54.457   9.949  95.147  1.00  0.00     0.000 C 
BRANCH   3   4
ATOM      4  C   UNL     1      55.445   9.502  96.242  1.00  0.00     0.000 C 
BRANCH   4   5
ATOM      5  C   UNL     1      56.526  10.562  96.529  1.00  0.00     0.000 C 
BRANCH   5   6
ATOM      6  C   UNL     1      56.241  11.928  95.879  1.00  0.00     0.000 C 
BRANCH   6   7
ATOM      7  C   UNL     1      56.854  13.101  96.674  1.00  0.00     0.000 C 
BRANCH   7   8
ATOM      8  C   UNL     1      57.399  14.225  95.769  1.00  0.00     0.000 C 
BRANCH   8   9
ATOM      9  C   UNL     1      58.933  14.253  95.616  1.00  0.00     0.000 C 
BRANCH   9  10
ATOM     10  C   UNL     1      59.579  15.645  95.481  1.00  0.00     0.000 C 
BRANCH  10  11
ATOM     11  C   UNL     1      59.919  16.065  94.032  1.00  0.00     0.000 C 
BRANCH  11  12
ATOM     12  C   UNL     1      60.873  15.095  93.310  1.00  0.00     0.006 C 
BRANCH  12  13
ATOM     13  C   UNL     1      62.180  14.818  94.065  1.00  0.00     0.053 C 
BRANCH  13  14
ATOM     14  C   UNL     1      62.461  13.352  94.179  1.00  0.00     0.041 C 
ATOM     15  O   UNL     1      62.082  12.559  93.277  1.00  0.00    -0.550 OA
ATOM     16  O   UNL     1      63.163  12.863  95.273  1.00  0.00    -0.550 OA
ENDBRANCH  13  14
ENDBRANCH  12  13
ENDBRANCH  11  12
ENDBRANCH  10  11
ENDBRANCH   9  10
ENDBRANCH   8   9
ENDBRANCH   7   8
ENDBRANCH   6   7
ENDBRANCH   5   6
ENDBRANCH   4   5
ENDBRANCH   3   4
ENDBRANCH   2   3
ENDBRANCH   1   2
BRANCH   1  17
ATOM     17  C   UNL     1      54.442  11.179  92.496  1.00  0.00     0.000 C 
BRANCH  17  18
ATOM     18  C   UNL     1      55.506  12.278  92.316  1.00  0.00     0.000 C 
BRANCH  18  19
ATOM     19  C   UNL     1      56.926  11.767  92.596  1.00  0.00     0.000 C 
BRANCH  19  20
ATOM     20  C   UNL     1      57.996  12.850  92.373  1.00  0.00     0.000 C 
BRANCH  20  21
ATOM     21  C   UNL     1      57.390  14.218  92.010  1.00  0.00     0.000 C 
BRANCH  21  22
ATOM     22  C   UNL     1      58.070  14.939  90.827  1.00  0.00    -0.000 C 
BRANCH  22  23
ATOM     23  C   UNL     1      57.885  14.258  89.459  1.00  0.00    -0.000 C 
BRANCH  23  24
ATOM     24  C   UNL     1      56.408  13.995  89.122  1.00  0.00    -0.000 C 
BRANCH  24  25
ATOM     25  C   UNL     1      56.147  12.531  88.714  1.00  0.00    -0.000 C 
BRANCH  25  26
ATOM     26  C   UNL     1      57.382  11.615  88.835  1.00  0.00    -0.000 C 
BRANCH  26  27
ATOM     27  C   UNL     1      57.103  10.269  89.532  1.00  0.00    -0.000 C 
BRANCH  27  28
ATOM     28  C   UNL     1      58.364   9.662  90.166  1.00  0.00    -0.000 C 
BRANCH  28  29
ATOM     29  C   UNL     1      59.607  10.484  89.811  1.00  0.00    -0.003 C 
ATOM     30  C   UNL     1      60.609  10.490  90.960  1.00  0.00     0.004 C 
ENDBRANCH  28  29
ENDBRANCH  27  28
ENDBRANCH  26  27
ENDBRANCH  25  26
ENDBRANCH  24  25
ENDBRANCH  23  24
ENDBRANCH  22  23
ENDBRANCH  21  22
ENDBRANCH  20  21
ENDBRANCH  19  20
ENDBRANCH  18  19
ENDBRANCH  17  18
ENDBRANCH   1  17
TORSDOF 26
ENDMDL
MODEL 4
REMARK VINA RESULT:    -4.967      1.725      5.103
REMARK INTER + INTRA:         -17.621
REMARK INTER:                 -12.578
REMARK INTRA:                  -5.043
REMARK UNBOUND:                -5.103
REMARK SMILES CCCCCCCCCCCCCCCCCCCCCCCCCCCC(=O)[O-]
REMARK SMILES IDX 15 1 16 2 17 3 18 4 19 5 20 6 21 7 22 8 23 9 24 10 25 11
REMARK SMILES IDX 26 12 27 13 28 14 29 15 30 16 14 17 13 18 12 19 11 20 10 21
REMARK SMILES IDX 9 22 8 23 7 24 6 25 5 26 4 27 3 28 2 29 1 30
REMARK H PARENT
REMARK Flexibility Score: inf
ROOT
ATOM      1  C   UNL     1      58.677  10.522  90.209  1.00  0.00     0.000 C 
ENDROOT
BRANCH   1   2
ATOM      2  C   UNL     1      58.646  11.307  91.531  1.00  0.00     0.000 C 
BRANCH   2   3
ATOM      3  C   UNL     1      59.980  12.013  91.823  1.00  0.00     0.000 C 
BRANCH   3   4
ATOM      4  C   UNL     1      59.837  13.136  92.868  1.00  0.00     0.000 C 
BRANCH   4   5
ATOM      5  C   UNL     1      58.386  13.303  93.360  1.00  0.00     0.000 C 
BRANCH   5   6
ATOM      6  C   UNL     1      58.220  14.390  94.438  1.00  0.00     0.000 C 
BRANCH   6   7
ATOM      7  C   UNL     1      57.046  15.347  94.137  1.00  0.00     0.000 C 
BRANCH   7   8
ATOM      8  C   UNL     1      55.665  14.686  94.324  1.00  0.00     0.000 C 
BRANCH   8   9
ATOM      9  C   UNL     1      54.929  14.334  93.016  1.00  0.00     0.000 C 
BRANCH   9  10
ATOM     10  C   UNL     1      54.047  13.071  93.049  1.00  0.00     0.000 C 
BRANCH  10  11
ATOM     11  C   UNL     1      54.540  11.911  92.153  1.00  0.00     0.000 C 
BRANCH  11  12
ATOM     12  C   UNL     1      55.218  10.768  92.931  1.00  0.00     0.006 C 
BRANCH  12  13
ATOM     13  C   UNL     1      54.799   9.362  92.477  1.00  0.00     0.053 C 
BRANCH  13  14
ATOM     14  C   UNL     1      54.113   8.603  93.570  1.00  0.00     0.041 C 
ATOM     15  O   UNL     1      54.220   8.974  94.769  1.00  0.00    -0.550 OA
ATOM     16  O   UNL     1      53.335   7.494  93.262  1.00  0.00    -0.550 OA
ENDBRANCH  13  14
ENDBRANCH  12  13
ENDBRANCH  11  12
ENDBRANCH  10  11
ENDBRANCH   9  10
ENDBRANCH   8   9
ENDBRANCH   7   8
ENDBRANCH   6   7
ENDBRANCH   5   6
ENDBRANCH   4   5
ENDBRANCH   3   4
ENDBRANCH   2   3
ENDBRANCH   1   2
BRANCH   1  17
ATOM     17  C   UNL     1      57.306  10.477  89.520  1.00  0.00     0.000 C 
BRANCH  17  18
ATOM     18  C   UNL     1      57.152  11.558  88.433  1.00  0.00     0.000 C 
BRANCH  18  19
ATOM     19  C   UNL     1      56.003  12.530  88.736  1.00  0.00     0.000 C 
BRANCH  19  20
ATOM     20  C   UNL     1      56.425  13.661  89.689  1.00  0.00     0.000 C 
BRANCH  20  21
ATOM     21  C   UNL     1      57.876  14.120  89.460  1.00  0.00     0.000 C 
BRANCH  21  22
ATOM     22  C   UNL     1      58.303  15.364  90.268  1.00  0.00    -0.000 C 
BRANCH  22  23
ATOM     23  C   UNL     1      59.517  16.122  89.700  1.00  0.00    -0.000 C 
BRANCH  23  24
ATOM     24  C   UNL     1      59.978  17.272  90.611  1.00  0.00    -0.000 C 
BRANCH  24  25
ATOM     25  C   UNL     1      59.465  17.121  92.057  1.00  0.00    -0.000 C 
BRANCH  25  26
ATOM     26  C   UNL     1      60.505  17.486  93.135  1.00  0.00    -0.000 C 
BRANCH  26  27
ATOM     27  C   UNL     1      61.592  16.415  93.352  1.00  0.00    -0.000 C 
BRANCH  27  28
ATOM     28  C   UNL     1      61.617  15.885  94.794  1.00  0.00    -0.000 C 
BRANCH  28  29
ATOM     29  C   UNL     1      60.704  16.718  95.700  1.00  0.00    -0.003 C 
ATOM     30  C   UNL     1      60.813  16.268  97.153  1.00  0.00     0.004 C 
ENDBRANCH  28  29
ENDBRANCH  27  28
ENDBRANCH  26  27
ENDBRANCH  25  26
ENDBRANCH  24  25
ENDBRANCH  23  24
ENDBRANCH  22  23
ENDBRANCH  21  22
ENDBRANCH  20  21
ENDBRANCH  19  20
ENDBRANCH  18  19
ENDBRANCH  17  18
ENDBRANCH   1  17
TORSDOF 26
ENDMDL
MODEL 5
REMARK VINA RESULT:    -4.930      2.365      6.960
REMARK INTER + INTRA:         -17.527
REMARK INTER:                 -13.210
REMARK INTRA:                  -4.316
REMARK UNBOUND:                -5.103
REMARK SMILES CCCCCCCCCCCCCCCCCCCCCCCCCCCC(=O)[O-]
REMARK SMILES IDX 15 1 16 2 17 3 18 4 19 5 20 6 21 7 22 8 23 9 24 10 25 11
REMARK SMILES IDX 26 12 27 13 28 14 29 15 30 16 14 17 13 18 12 19 11 20 10 21
REMARK SMILES IDX 9 22 8 23 7 24 6 25 5 26 4 27 3 28 2 29 1 30
REMARK H PARENT
REMARK Flexibility Score: inf
ROOT
ATOM      1  C   UNL     1      56.430  10.876  91.936  1.00  0.00     0.000 C 
ENDROOT
BRANCH   1   2
ATOM      2  C   UNL     1      56.881   9.971  90.778  1.00  0.00     0.000 C 
BRANCH   2   3
ATOM      3  C   UNL     1      58.365  10.164  90.429  1.00  0.00     0.000 C 
BRANCH   3   4
ATOM      4  C   UNL     1      58.569  11.052  89.187  1.00  0.00     0.000 C 
BRANCH   4   5
ATOM      5  C   UNL     1      58.733  12.541  89.547  1.00  0.00     0.000 C 
BRANCH   5   6
ATOM      6  C   UNL     1      57.428  13.351  89.437  1.00  0.00     0.000 C 
BRANCH   6   7
ATOM      7  C   UNL     1      57.680  14.873  89.364  1.00  0.00     0.000 C 
BRANCH   7   8
ATOM      8  C   UNL     1      58.861  15.332  90.244  1.00  0.00     0.000 C 
BRANCH   8   9
ATOM      9  C   UNL     1      58.867  16.833  90.596  1.00  0.00     0.000 C 
BRANCH   9  10
ATOM     10  C   UNL     1      59.120  17.185  92.074  1.00  0.00     0.000 C 
BRANCH  10  11
ATOM     11  C   UNL     1      60.431  16.613  92.663  1.00  0.00     0.000 C 
BRANCH  11  12
ATOM     12  C   UNL     1      60.624  16.911  94.162  1.00  0.00     0.006 C 
BRANCH  12  13
ATOM     13  C   UNL     1      60.343  15.716  95.083  1.00  0.00     0.053 C 
BRANCH  13  14
ATOM     14  C   UNL     1      60.431  16.091  96.530  1.00  0.00     0.041 C 
ATOM     15  O   UNL     1      59.471  15.853  97.309  1.00  0.00    -0.550 OA
ATOM     16  O   UNL     1      61.585  16.686  97.023  1.00  0.00    -0.550 OA
ENDBRANCH  13  14
ENDBRANCH  12  13
ENDBRANCH  11  12
ENDBRANCH  10  11
ENDBRANCH   9  10
ENDBRANCH   8   9
ENDBRANCH   7   8
ENDBRANCH   6   7
ENDBRANCH   5   6
ENDBRANCH   4   5
ENDBRANCH   3   4
ENDBRANCH   2   3
ENDBRANCH   1   2
BRANCH   1  17
ATOM     17  C   UNL     1      54.913  11.113  91.940  1.00  0.00     0.000 C 
BRANCH  17  18
ATOM     18  C   UNL     1      54.543  12.589  91.695  1.00  0.00     0.000 C 
BRANCH  18  19
ATOM     19  C   UNL     1      53.957  13.259  92.946  1.00  0.00     0.000 C 
BRANCH  19  20
ATOM     20  C   UNL     1      54.593  14.630  93.231  1.00  0.00     0.000 C 
BRANCH  20  21
ATOM     21  C   UNL     1      56.036  14.736  92.707  1.00  0.00     0.000 C 
BRANCH  21  22
ATOM     22  C   UNL     1      57.134  14.511  93.767  1.00  0.00    -0.000 C 
BRANCH  22  23
ATOM     23  C   UNL     1      56.653  14.591  95.227  1.00  0.00    -0.000 C 
BRANCH  23  24
ATOM     24  C   UNL     1      57.177  13.431  96.090  1.00  0.00    -0.000 C 
BRANCH  24  25
ATOM     25  C   UNL     1      56.678  12.057  95.598  1.00  0.00    -0.000 C 
BRANCH  25  26
ATOM     26  C   UNL     1      56.752  10.943  96.661  1.00  0.00    -0.000 C 
BRANCH  26  27
ATOM     27  C   UNL     1      55.854   9.726  96.363  1.00  0.00    -0.000 C 
BRANCH  27  28
ATOM     28  C   UNL     1      54.894   9.976  95.190  1.00  0.00    -0.000 C 
BRANCH  28  29
ATOM     29  C   UNL     1      53.943   8.790  94.997  1.00  0.00    -0.003 C 
ATOM     30  C   UNL     1      54.236   8.055  93.694  1.00  0.00     0.004 C 
ENDBRANCH  28  29
ENDBRANCH  27  28
ENDBRANCH  26  27
ENDBRANCH  25  26
ENDBRANCH  24  25
ENDBRANCH  23  24
ENDBRANCH  22  23
ENDBRANCH  21  22
ENDBRANCH  20  21
ENDBRANCH  19  20
ENDBRANCH  18  19
ENDBRANCH  17  18
ENDBRANCH   1  17
TORSDOF 26
ENDMDL
MODEL 6
REMARK VINA RESULT:    -4.892      2.411      6.226
REMARK INTER + INTRA:         -17.430
REMARK INTER:                 -13.067
REMARK INTRA:                  -4.363
REMARK UNBOUND:                -5.103
REMARK SMILES CCCCCCCCCCCCCCCCCCCCCCCCCCCC(=O)[O-]
REMARK SMILES IDX 15 1 16 2 17 3 18 4 19 5 20 6 21 7 22 8 23 9 24 10 25 11
REMARK SMILES IDX 26 12 27 13 28 14 29 15 30 16 14 17 13 18 12 19 11 20 10 21
REMARK SMILES IDX 9 22 8 23 7 24 6 25 5 26 4 27 3 28 2 29 1 30
REMARK H PARENT
REMARK Flexibility Score: inf
ROOT
ATOM      1  C   UNL     1      55.270   9.259  96.492  1.00  0.00     0.000 C 
ENDROOT
BRANCH   1   2
ATOM      2  C   UNL     1      55.609  10.506  95.658  1.00  0.00     0.000 C 
BRANCH   2   3
ATOM      3  C   UNL     1      56.718  11.355  96.300  1.00  0.00     0.000 C 
BRANCH   3   4
ATOM      4  C   UNL     1      57.194  12.497  95.381  1.00  0.00     0.000 C 
BRANCH   4   5
ATOM      5  C   UNL     1      57.957  13.593  96.150  1.00  0.00     0.000 C 
BRANCH   5   6
ATOM      6  C   UNL     1      57.746  15.008  95.582  1.00  0.00     0.000 C 
BRANCH   6   7
ATOM      7  C   UNL     1      56.538  15.086  94.623  1.00  0.00     0.000 C 
BRANCH   7   8
ATOM      8  C   UNL     1      56.945  15.355  93.159  1.00  0.00     0.000 C 
BRANCH   8   9
ATOM      9  C   UNL     1      58.380  15.885  92.968  1.00  0.00     0.000 C 
BRANCH   9  10
ATOM     10  C   UNL     1      59.329  14.997  92.141  1.00  0.00     0.000 C 
BRANCH  10  11
ATOM     11  C   UNL     1      59.587  13.592  92.734  1.00  0.00     0.000 C 
BRANCH  11  12
ATOM     12  C   UNL     1      60.944  13.458  93.451  1.00  0.00     0.006 C 
BRANCH  12  13
ATOM     13  C   UNL     1      61.601  14.797  93.811  1.00  0.00     0.053 C 
BRANCH  13  14
ATOM     14  C   UNL     1      61.792  14.948  95.289  1.00  0.00     0.041 C 
ATOM     15  O   UNL     1      61.435  14.031  96.074  1.00  0.00    -0.550 OA
ATOM     16  O   UNL     1      62.385  16.096  95.798  1.00  0.00    -0.550 OA
ENDBRANCH  13  14
ENDBRANCH  12  13
ENDBRANCH  11  12
ENDBRANCH  10  11
ENDBRANCH   9  10
ENDBRANCH   8   9
ENDBRANCH   7   8
ENDBRANCH   6   7
ENDBRANCH   5   6
ENDBRANCH   4   5
ENDBRANCH   3   4
ENDBRANCH   2   3
ENDBRANCH   1   2
BRANCH   1  17
ATOM     17  C   UNL     1      53.765   8.953  96.506  1.00  0.00     0.000 C 
BRANCH  17  18
ATOM     18  C   UNL     1      53.411   7.682  95.712  1.00  0.00     0.000 C 
BRANCH  18  19
ATOM     19  C   UNL     1      54.301   7.501  94.473  1.00  0.00     0.000 C 
BRANCH  19  20
ATOM     20  C   UNL     1      53.778   8.282  93.255  1.00  0.00     0.000 C 
BRANCH  20  21
ATOM     21  C   UNL     1      54.885   9.077  92.539  1.00  0.00     0.000 C 
BRANCH  21  22
ATOM     22  C   UNL     1      54.488  10.505  92.108  1.00  0.00    -0.000 C 
BRANCH  22  23
ATOM     23  C   UNL     1      55.640  11.526  92.109  1.00  0.00    -0.000 C 
BRANCH  23  24
ATOM     24  C   UNL     1      55.310  12.793  91.303  1.00  0.00    -0.000 C 
BRANCH  24  25
ATOM     25  C   UNL     1      56.435  13.178  90.321  1.00  0.00    -0.000 C 
BRANCH  25  26
ATOM     26  C   UNL     1      56.297  12.539  88.924  1.00  0.00    -0.000 C 
BRANCH  26  27
ATOM     27  C   UNL     1      57.268  11.370  88.666  1.00  0.00    -0.000 C 
BRANCH  27  28
ATOM     28  C   UNL     1      58.667  11.628  89.246  1.00  0.00    -0.000 C 
BRANCH  28  29
ATOM     29  C   UNL     1      59.011  10.602  90.331  1.00  0.00    -0.003 C 
ATOM     30  C   UNL     1      58.040   9.427  90.303  1.00  0.00     0.004 C 
ENDBRANCH  28  29
ENDBRANCH  27  28
ENDBRANCH  26  27
ENDBRANCH  25  26
ENDBRANCH  24  25
ENDBRANCH  23  24
ENDBRANCH  22  23
ENDBRANCH  21  22
ENDBRANCH  20  21
ENDBRANCH  19  20
ENDBRANCH  18  19
ENDBRANCH  17  18
ENDBRANCH   1  17
TORSDOF 26
ENDMDL
MODEL 7
REMARK VINA RESULT:    -4.877      1.635      5.819
REMARK INTER + INTRA:         -17.394
REMARK INTER:                 -12.573
REMARK INTRA:                  -4.821
REMARK UNBOUND:                -5.103
REMARK SMILES CCCCCCCCCCCCCCCCCCCCCCCCCCCC(=O)[O-]
REMARK SMILES IDX 15 1 16 2 17 3 18 4 19 5 20 6 21 7 22 8 23 9 24 10 25 11
REMARK SMILES IDX 26 12 27 13 28 14 29 15 30 16 14 17 13 18 12 19 11 20 10 21
REMARK SMILES IDX 9 22 8 23 7 24 6 25 5 26 4 27 3 28 2 29 1 30
REMARK H PARENT
REMARK Flexibility Score: inf
ROOT
ATOM      1  C   UNL     1      55.930  13.132  89.348  1.00  0.00     0.000 C 
ENDROOT
BRANCH   1   2
ATOM      2  C   UNL     1      56.457  12.097  88.340  1.00  0.00     0.000 C 
BRANCH   2   3
ATOM      3  C   UNL     1      57.130  10.900  89.029  1.00  0.00     0.000 C 
BRANCH   3   4
ATOM      4  C   UNL     1      58.666  11.019  89.053  1.00  0.00     0.000 C 
BRANCH   4   5
ATOM      5  C   UNL     1      59.305  10.184  90.180  1.00  0.00     0.000 C 
BRANCH   5   6
ATOM      6  C   UNL     1      60.622  10.774  90.717  1.00  0.00     0.000 C 
BRANCH   6   7
ATOM      7  C   UNL     1      60.424  11.568  92.026  1.00  0.00     0.000 C 
BRANCH   7   8
ATOM      8  C   UNL     1      59.480  12.777  91.863  1.00  0.00     0.000 C 
BRANCH   8   9
ATOM      9  C   UNL     1      58.292  12.814  92.846  1.00  0.00     0.000 C 
BRANCH   9  10
ATOM     10  C   UNL     1      57.151  11.818  92.572  1.00  0.00     0.000 C 
BRANCH  10  11
ATOM     11  C   UNL     1      55.743  12.316  92.972  1.00  0.00     0.000 C 
BRANCH  11  12
ATOM     12  C   UNL     1      54.597  11.419  92.468  1.00  0.00     0.006 C 
BRANCH  12  13
ATOM     13  C   UNL     1      54.964   9.933  92.352  1.00  0.00     0.053 C 
BRANCH  13  14
ATOM     14  C   UNL     1      54.467   9.141  93.522  1.00  0.00     0.041 C 
ATOM     15  O   UNL     1      53.946   8.008  93.348  1.00  0.00    -0.550 OA
ATOM     16  O   UNL     1      54.598   9.646  94.809  1.00  0.00    -0.550 OA
ENDBRANCH  13  14
ENDBRANCH  12  13
ENDBRANCH  11  12
ENDBRANCH  10  11
ENDBRANCH   9  10
ENDBRANCH   8   9
ENDBRANCH   7   8
ENDBRANCH   6   7
ENDBRANCH   5   6
ENDBRANCH   4   5
ENDBRANCH   3   4
ENDBRANCH   2   3
ENDBRANCH   1   2
BRANCH   1  17
ATOM     17  C   UNL     1      56.888  14.319  89.527  1.00  0.00     0.000 C 
BRANCH  17  18
ATOM     18  C   UNL     1      56.490  15.230  90.704  1.00  0.00     0.000 C 
BRANCH  18  19
ATOM     19  C   UNL     1      57.642  16.142  91.150  1.00  0.00     0.000 C 
BRANCH  19  20
ATOM     20  C   UNL     1      58.843  16.084  90.192  1.00  0.00     0.000 C 
BRANCH  20  21
ATOM     21  C   UNL     1      59.665  17.385  90.190  1.00  0.00     0.000 C 
BRANCH  21  22
ATOM     22  C   UNL     1      59.690  18.145  91.532  1.00  0.00    -0.000 C 
BRANCH  22  23
ATOM     23  C   UNL     1      60.831  17.744  92.484  1.00  0.00    -0.000 C 
BRANCH  23  24
ATOM     24  C   UNL     1      60.364  16.805  93.609  1.00  0.00    -0.000 C 
BRANCH  24  25
ATOM     25  C   UNL     1      61.175  15.495  93.658  1.00  0.00    -0.000 C 
BRANCH  25  26
ATOM     26  C   UNL     1      60.940  14.657  94.931  1.00  0.00    -0.000 C 
BRANCH  26  27
ATOM     27  C   UNL     1      60.581  15.489  96.178  1.00  0.00    -0.000 C 
BRANCH  27  28
ATOM     28  C   UNL     1      59.454  14.854  97.005  1.00  0.00    -0.000 C 
BRANCH  28  29
ATOM     29  C   UNL     1      58.120  14.915  96.253  1.00  0.00    -0.003 C 
ATOM     30  C   UNL     1      57.386  13.581  96.327  1.00  0.00     0.004 C 
ENDBRANCH  28  29
ENDBRANCH  27  28
ENDBRANCH  26  27
ENDBRANCH  25  26
ENDBRANCH  24  25
ENDBRANCH  23  24
ENDBRANCH  22  23
ENDBRANCH  21  22
ENDBRANCH  20  21
ENDBRANCH  19  20
ENDBRANCH  18  19
ENDBRANCH  17  18
ENDBRANCH   1  17
TORSDOF 26
ENDMDL
MODEL 8
REMARK VINA RESULT:    -4.876      3.217      7.319
REMARK INTER + INTRA:         -17.391
REMARK INTER:                 -12.577
REMARK INTRA:                  -4.815
REMARK UNBOUND:                -5.103
REMARK SMILES CCCCCCCCCCCCCCCCCCCCCCCCCCCC(=O)[O-]
REMARK SMILES IDX 15 1 16 2 17 3 18 4 19 5 20 6 21 7 22 8 23 9 24 10 25 11
REMARK SMILES IDX 26 12 27 13 28 14 29 15 30 16 14 17 13 18 12 19 11 20 10 21
REMARK SMILES IDX 9 22 8 23 7 24 6 25 5 26 4 27 3 28 2 29 1 30
REMARK H PARENT
REMARK Flexibility Score: inf
ROOT
ATOM      1  C   UNL     1      56.373  14.221  88.953  1.00  0.00     0.000 C 
ENDROOT
BRANCH   1   2
ATOM      2  C   UNL     1      55.968  12.784  89.320  1.00  0.00     0.000 C 
BRANCH   2   3
ATOM      3  C   UNL     1      56.502  11.751  88.315  1.00  0.00     0.000 C 
BRANCH   3   4
ATOM      4  C   UNL     1      57.462  10.736  88.965  1.00  0.00     0.000 C 
BRANCH   4   5
ATOM      5  C   UNL     1      58.859  11.329  89.228  1.00  0.00     0.000 C 
BRANCH   5   6
ATOM      6  C   UNL     1      59.718  10.487  90.189  1.00  0.00     0.000 C 
BRANCH   6   7
ATOM      7  C   UNL     1      60.025  11.225  91.510  1.00  0.00     0.000 C 
BRANCH   7   8
ATOM      8  C   UNL     1      59.188  12.508  91.694  1.00  0.00     0.000 C 
BRANCH   8   9
ATOM      9  C   UNL     1      59.190  13.089  93.122  1.00  0.00     0.000 C 
BRANCH   9  10
ATOM     10  C   UNL     1      60.404  13.958  93.501  1.00  0.00     0.000 C 
BRANCH  10  11
ATOM     11  C   UNL     1      60.053  15.367  94.034  1.00  0.00     0.000 C 
BRANCH  11  12
ATOM     12  C   UNL     1      60.512  16.514  93.113  1.00  0.00     0.006 C 
BRANCH  12  13
ATOM     13  C   UNL     1      60.038  16.381  91.660  1.00  0.00     0.053 C 
BRANCH  13  14
ATOM     14  C   UNL     1      59.563  17.688  91.104  1.00  0.00     0.041 C 
ATOM     15  O   UNL     1      58.450  18.162  91.453  1.00  0.00    -0.550 OA
ATOM     16  O   UNL     1      60.363  18.396  90.215  1.00  0.00    -0.550 OA
ENDBRANCH  13  14
ENDBRANCH  12  13
ENDBRANCH  11  12
ENDBRANCH  10  11
ENDBRANCH   9  10
ENDBRANCH   8   9
ENDBRANCH   7   8
ENDBRANCH   6   7
ENDBRANCH   5   6
ENDBRANCH   4   5
ENDBRANCH   3   4
ENDBRANCH   2   3
ENDBRANCH   1   2
BRANCH   1  17
ATOM     17  C   UNL     1      56.927  15.001  90.154  1.00  0.00     0.000 C 
BRANCH  17  18
ATOM     18  C   UNL     1      55.948  15.034  91.343  1.00  0.00     0.000 C 
BRANCH  18  19
ATOM     19  C   UNL     1      56.643  15.409  92.660  1.00  0.00     0.000 C 
BRANCH  19  20
ATOM     20  C   UNL     1      55.817  15.012  93.895  1.00  0.00     0.000 C 
BRANCH  20  21
ATOM     21  C   UNL     1      54.412  14.499  93.530  1.00  0.00     0.000 C 
BRANCH  21  22
ATOM     22  C   UNL     1      54.118  13.044  93.951  1.00  0.00    -0.000 C 
BRANCH  22  23
ATOM     23  C   UNL     1      55.174  12.410  94.876  1.00  0.00    -0.000 C 
BRANCH  23  24
ATOM     24  C   UNL     1      56.122  11.458  94.130  1.00  0.00    -0.000 C 
BRANCH  24  25
ATOM     25  C   UNL     1      55.766  11.321  92.636  1.00  0.00    -0.000 C 
BRANCH  25  26
ATOM     26  C   UNL     1      55.472   9.874  92.188  1.00  0.00    -0.000 C 
BRANCH  26  27
ATOM     27  C   UNL     1      54.042   9.393  92.505  1.00  0.00    -0.000 C 
BRANCH  27  28
ATOM     28  C   UNL     1      54.026   8.154  93.413  1.00  0.00    -0.000 C 
BRANCH  28  29
ATOM     29  C   UNL     1      54.426   8.519  94.847  1.00  0.00    -0.003 C 
ATOM     30  C   UNL     1      54.444   7.286  95.743  1.00  0.00     0.004 C 
ENDBRANCH  28  29
ENDBRANCH  27  28
ENDBRANCH  26  27
ENDBRANCH  25  26
ENDBRANCH  24  25
ENDBRANCH  23  24
ENDBRANCH  22  23
ENDBRANCH  21  22
ENDBRANCH  20  21
ENDBRANCH  19  20
ENDBRANCH  18  19
ENDBRANCH  17  18
ENDBRANCH   1  17
TORSDOF 26
ENDMDL
MODEL 9
REMARK VINA RESULT:    -4.846      2.158      6.151
REMARK INTER + INTRA:         -17.316
REMARK INTER:                 -12.215
REMARK INTRA:                  -5.100
REMARK UNBOUND:                -5.103
REMARK SMILES CCCCCCCCCCCCCCCCCCCCCCCCCCCC(=O)[O-]
REMARK SMILES IDX 15 1 16 2 17 3 18 4 19 5 20 6 21 7 22 8 23 9 24 10 25 11
REMARK SMILES IDX 26 12 27 13 28 14 29 15 30 16 14 17 13 18 12 19 11 20 10 21
REMARK SMILES IDX 9 22 8 23 7 24 6 25 5 26 4 27 3 28 2 29 1 30
REMARK H PARENT
REMARK Flexibility Score: inf
ROOT
ATOM      1  C   UNL     1      58.318  11.267  88.760  1.00  0.00     0.000 C 
ENDROOT
BRANCH   1   2
ATOM      2  C   UNL     1      57.010  11.787  89.381  1.00  0.00     0.000 C 
BRANCH   2   3
ATOM      3  C   UNL     1      56.637  13.188  88.870  1.00  0.00     0.000 C 
BRANCH   3   4
ATOM      4  C   UNL     1      56.122  14.107  89.994  1.00  0.00     0.000 C 
BRANCH   4   5
ATOM      5  C   UNL     1      57.128  15.218  90.355  1.00  0.00     0.000 C 
BRANCH   5   6
ATOM      6  C   UNL     1      58.409  15.193  89.502  1.00  0.00     0.000 C 
BRANCH   6   7
ATOM      7  C   UNL     1      59.514  16.112  90.067  1.00  0.00     0.000 C 
BRANCH   7   8
ATOM      8  C   UNL     1      59.131  16.760  91.412  1.00  0.00     0.000 C 
BRANCH   8   9
ATOM      9  C   UNL     1      60.285  17.472  92.146  1.00  0.00     0.000 C 
BRANCH   9  10
ATOM     10  C   UNL     1      60.973  16.674  93.270  1.00  0.00     0.000 C 
BRANCH  10  11
ATOM     11  C   UNL     1      60.145  16.536  94.568  1.00  0.00     0.000 C 
BRANCH  11  12
ATOM     12  C   UNL     1      60.992  16.220  95.816  1.00  0.00     0.006 C 
BRANCH  12  13
ATOM     13  C   UNL     1      60.571  14.943  96.556  1.00  0.00     0.053 C 
BRANCH  13  14
ATOM     14  C   UNL     1      61.551  13.829  96.353  1.00  0.00     0.041 C 
ATOM     15  O   UNL     1      62.235  13.768  95.297  1.00  0.00    -0.550 OA
ATOM     16  O   UNL     1      61.726  12.870  97.341  1.00  0.00    -0.550 OA
ENDBRANCH  13  14
ENDBRANCH  12  13
ENDBRANCH  11  12
ENDBRANCH  10  11
ENDBRANCH   9  10
ENDBRANCH   8   9
ENDBRANCH   7   8
ENDBRANCH   6   7
ENDBRANCH   5   6
ENDBRANCH   4   5
ENDBRANCH   3   4
ENDBRANCH   2   3
ENDBRANCH   1   2
BRANCH   1  17
ATOM     17  C   UNL     1      59.414  11.032  89.810  1.00  0.00     0.000 C 
BRANCH  17  18
ATOM     18  C   UNL     1      58.982  11.460  91.225  1.00  0.00     0.000 C 
BRANCH  18  19
ATOM     19  C   UNL     1      60.149  12.032  92.043  1.00  0.00     0.000 C 
BRANCH  19  20
ATOM     20  C   UNL     1      59.772  13.328  92.781  1.00  0.00     0.000 C 
BRANCH  20  21
ATOM     21  C   UNL     1      58.265  13.424  93.081  1.00  0.00     0.000 C 
BRANCH  21  22
ATOM     22  C   UNL     1      57.893  13.372  94.577  1.00  0.00    -0.000 C 
BRANCH  22  23
ATOM     23  C   UNL     1      57.031  14.548  95.072  1.00  0.00    -0.000 C 
BRANCH  23  24
ATOM     24  C   UNL     1      55.760  14.748  94.231  1.00  0.00    -0.000 C 
BRANCH  24  25
ATOM     25  C   UNL     1      54.896  13.474  94.156  1.00  0.00    -0.000 C 
BRANCH  25  26
ATOM     26  C   UNL     1      54.256  13.227  92.775  1.00  0.00    -0.000 C 
BRANCH  26  27
ATOM     27  C   UNL     1      54.322  11.762  92.301  1.00  0.00    -0.000 C 
BRANCH  27  28
ATOM     28  C   UNL     1      55.440  10.969  92.994  1.00  0.00    -0.000 C 
BRANCH  28  29
ATOM     29  C   UNL     1      54.859   9.920  93.949  1.00  0.00    -0.003 C 
ATOM     30  C   UNL     1      54.402   8.680  93.190  1.00  0.00     0.004 C 
ENDBRANCH  28  29
ENDBRANCH  27  28
ENDBRANCH  26  27
ENDBRANCH  25  26
ENDBRANCH  24  25
ENDBRANCH  23  24
ENDBRANCH  22  23
ENDBRANCH  21  22
ENDBRANCH  20  21
ENDBRANCH  19  20
ENDBRANCH  18  19
ENDBRANCH  17  18
ENDBRANCH   1  17
TORSDOF 26
ENDMDL
