MODEL 1
REMARK VINA RESULT:    -4.414      0.000      0.000
REMARK INTER + INTRA:         -14.787
REMARK INTER:                 -11.123
REMARK INTRA:                  -3.664
REMARK UNBOUND:                -3.664
REMARK SMILES CCCCCCCCCCCCCCCCCCCCCCCCCCCC(=O)[O-]
REMARK SMILES IDX 15 1 16 2 17 3 18 4 19 5 20 6 21 7 22 8 23 9 24 10 25 11
REMARK SMILES IDX 26 12 27 13 28 14 29 15 30 16 14 17 13 18 12 19 11 20 10 21
REMARK SMILES IDX 9 22 8 23 7 24 6 25 5 26 4 27 3 28 2 29 1 30
REMARK H PARENT
REMARK Flexibility Score: inf
ROOT
ATOM      1  C   UNL     1      61.814  28.591  25.778  1.00  0.00     0.000 C 
ENDROOT
BRANCH   1   2
ATOM      2  C   UNL     1      62.831  28.680  24.627  1.00  0.00     0.000 C 
BRANCH   2   3
ATOM      3  C   UNL     1      63.564  30.030  24.587  1.00  0.00     0.000 C 
BRANCH   3   4
ATOM      4  C   UNL     1      64.686  30.058  23.533  1.00  0.00     0.000 C 
BRANCH   4   5
ATOM      5  C   UNL     1      65.641  31.248  23.720  1.00  0.00     0.000 C 
BRANCH   5   6
ATOM      6  C   UNL     1      67.083  30.927  23.284  1.00  0.00     0.000 C 
BRANCH   6   7
ATOM      7  C   UNL     1      67.810  32.148  22.696  1.00  0.00     0.000 C 
BRANCH   7   8
ATOM      8  C   UNL     1      66.850  33.129  22.002  1.00  0.00     0.000 C 
BRANCH   8   9
ATOM      9  C   UNL     1      67.591  34.202  21.186  1.00  0.00     0.000 C 
BRANCH   9  10
ATOM     10  C   UNL     1      66.632  35.156  20.452  1.00  0.00     0.000 C 
BRANCH  10  11
ATOM     11  C   UNL     1      67.165  35.586  19.077  1.00  0.00     0.000 C 
BRANCH  11  12
ATOM     12  C   UNL     1      66.381  34.956  17.912  1.00  0.00     0.006 C 
BRANCH  12  13
ATOM     13  C   UNL     1      65.110  35.747  17.575  1.00  0.00     0.053 C 
BRANCH  13  14
ATOM     14  C   UNL     1      63.890  34.878  17.603  1.00  0.00     0.041 C 
ATOM     15  O   UNL     1      63.746  33.959  16.755  1.00  0.00    -0.550 OA
ATOM     16  O   UNL     1      62.926  35.065  18.586  1.00  0.00    -0.550 OA
ENDBRANCH  13  14
ENDBRANCH  12  13
ENDBRANCH  11  12
ENDBRANCH  10  11
ENDBRANCH   9  10
ENDBRANCH   8   9
ENDBRANCH   7   8
ENDBRANCH   6   7
ENDBRANCH   5   6
ENDBRANCH   4   5
ENDBRANCH   3   4
ENDBRANCH   2   3
ENDBRANCH   1   2
BRANCH   1  17
ATOM     17  C   UNL     1      62.167  27.500  26.807  1.00  0.00     0.000 C 
BRANCH  17  18
ATOM     18  C   UNL     1      62.651  28.024  28.172  1.00  0.00     0.000 C 
BRANCH  18  19
ATOM     19  C   UNL     1      62.127  29.432  28.496  1.00  0.00     0.000 C 
BRANCH  19  20
ATOM     20  C   UNL     1      63.248  30.476  28.385  1.00  0.00     0.000 C 
BRANCH  20  21
ATOM     21  C   UNL     1      64.647  29.840  28.353  1.00  0.00     0.000 C 
BRANCH  21  22
ATOM     22  C   UNL     1      65.630  30.615  27.457  1.00  0.00    -0.000 C 
BRANCH  22  23
ATOM     23  C   UNL     1      66.709  29.711  26.838  1.00  0.00    -0.000 C 
BRANCH  23  24
ATOM     24  C   UNL     1      66.247  28.280  26.501  1.00  0.00    -0.000 C 
BRANCH  24  25
ATOM     25  C   UNL     1      66.627  27.823  25.076  1.00  0.00    -0.000 C 
BRANCH  25  26
ATOM     26  C   UNL     1      65.826  26.588  24.625  1.00  0.00    -0.000 C 
BRANCH  26  27
ATOM     27  C   UNL     1      66.356  25.989  23.312  1.00  0.00    -0.000 C 
BRANCH  27  28
ATOM     28  C   UNL     1      66.610  27.058  22.234  1.00  0.00    -0.000 C 
BRANCH  28  29
ATOM     29  C   UNL     1      67.384  26.503  21.028  1.00  0.00    -0.003 C 
ATOM     30  C   UNL     1      66.666  26.751  19.702  1.00  0.00     0.004 C 
ENDBRANCH  28  29
ENDBRANCH  27  28
ENDBRANCH  26  27
ENDBRANCH  25  26
ENDBRANCH  24  25
ENDBRANCH  23  24
ENDBRANCH  22  23
ENDBRANCH  21  22
ENDBRANCH  20  21
ENDBRANCH  19  20
ENDBRANCH  18  19
ENDBRANCH  17  18
ENDBRANCH   1  17
TORSDOF 26
ENDMDL
MODEL 2
REMARK VINA RESULT:    -4.375      5.385      9.625
REMARK INTER + INTRA:         -14.689
REMARK INTER:                 -12.024
REMARK INTRA:                  -2.664
REMARK UNBOUND:                -3.664
REMARK SMILES CCCCCCCCCCCCCCCCCCCCCCCCCCCC(=O)[O-]
REMARK SMILES IDX 15 1 16 2 17 3 18 4 19 5 20 6 21 7 22 8 23 9 24 10 25 11
REMARK SMILES IDX 26 12 27 13 28 14 29 15 30 16 14 17 13 18 12 19 11 20 10 21
REMARK SMILES IDX 9 22 8 23 7 24 6 25 5 26 4 27 3 28 2 29 1 30
REMARK H PARENT
REMARK Flexibility Score: inf
ROOT
ATOM      1  C   UNL     1      62.868  33.111  16.278  1.00  0.00     0.000 C 
ENDROOT
BRANCH   1   2
ATOM      2  C   UNL     1      61.595  33.344  15.447  1.00  0.00     0.000 C 
BRANCH   2   3
ATOM      3  C   UNL     1      61.893  33.557  13.954  1.00  0.00     0.000 C 
BRANCH   3   4
ATOM      4  C   UNL     1      63.324  33.137  13.575  1.00  0.00     0.000 C 
BRANCH   4   5
ATOM      5  C   UNL     1      63.358  31.861  12.719  1.00  0.00     0.000 C 
BRANCH   5   6
ATOM      6  C   UNL     1      64.201  30.741  13.355  1.00  0.00     0.000 C 
BRANCH   6   7
ATOM      7  C   UNL     1      63.364  29.503  13.718  1.00  0.00     0.000 C 
BRANCH   7   8
ATOM      8  C   UNL     1      61.868  29.826  13.876  1.00  0.00     0.000 C 
BRANCH   8   9
ATOM      9  C   UNL     1      60.963  28.671  13.417  1.00  0.00     0.000 C 
BRANCH   9  10
ATOM     10  C   UNL     1      60.731  28.668  11.895  1.00  0.00     0.000 C 
BRANCH  10  11
ATOM     11  C   UNL     1      60.621  30.086  11.313  1.00  0.00     0.000 C 
BRANCH  11  12
ATOM     12  C   UNL     1      61.404  30.251   9.999  1.00  0.00     0.006 C 
BRANCH  12  13
ATOM     13  C   UNL     1      62.451  29.146   9.807  1.00  0.00     0.053 C 
BRANCH  13  14
ATOM     14  C   UNL     1      63.776  29.701   9.380  1.00  0.00     0.041 C 
ATOM     15  O   UNL     1      64.775  28.943   9.267  1.00  0.00    -0.550 OA
ATOM     16  O   UNL     1      63.898  31.051   9.077  1.00  0.00    -0.550 OA
ENDBRANCH  13  14
ENDBRANCH  12  13
ENDBRANCH  11  12
ENDBRANCH  10  11
ENDBRANCH   9  10
ENDBRANCH   8   9
ENDBRANCH   7   8
ENDBRANCH   6   7
ENDBRANCH   5   6
ENDBRANCH   4   5
ENDBRANCH   3   4
ENDBRANCH   2   3
ENDBRANCH   1   2
BRANCH   1  17
ATOM     17  C   UNL     1      63.331  34.373  17.030  1.00  0.00     0.000 C 
BRANCH  17  18
ATOM     18  C   UNL     1      64.793  34.784  16.774  1.00  0.00     0.000 C 
BRANCH  18  19
ATOM     19  C   UNL     1      65.357  35.712  17.861  1.00  0.00     0.000 C 
BRANCH  19  20
ATOM     20  C   UNL     1      66.398  34.981  18.723  1.00  0.00     0.000 C 
BRANCH  20  21
ATOM     21  C   UNL     1      66.257  35.301  20.220  1.00  0.00     0.000 C 
BRANCH  21  22
ATOM     22  C   UNL     1      67.481  34.856  21.039  1.00  0.00    -0.000 C 
BRANCH  22  23
ATOM     23  C   UNL     1      67.687  33.332  21.019  1.00  0.00    -0.000 C 
BRANCH  23  24
ATOM     24  C   UNL     1      67.599  32.644  22.396  1.00  0.00    -0.000 C 
BRANCH  24  25
ATOM     25  C   UNL     1      66.177  32.174  22.768  1.00  0.00    -0.000 C 
BRANCH  25  26
ATOM     26  C   UNL     1      66.181  30.825  23.509  1.00  0.00    -0.000 C 
BRANCH  26  27
ATOM     27  C   UNL     1      67.586  30.208  23.601  1.00  0.00    -0.000 C 
BRANCH  27  28
ATOM     28  C   UNL     1      67.625  28.955  24.495  1.00  0.00    -0.000 C 
BRANCH  28  29
ATOM     29  C   UNL     1      66.487  27.972  24.179  1.00  0.00    -0.003 C 
ATOM     30  C   UNL     1      66.859  26.970  23.088  1.00  0.00     0.004 C 
ENDBRANCH  28  29
ENDBRANCH  27  28
ENDBRANCH  26  27
ENDBRANCH  25  26
ENDBRANCH  24  25
ENDBRANCH  23  24
ENDBRANCH  22  23
ENDBRANCH  21  22
ENDBRANCH  20  21
ENDBRANCH  19  20
ENDBRANCH  18  19
ENDBRANCH  17  18
ENDBRANCH   1  17
TORSDOF 26
ENDMDL
MODEL 3
REMARK VINA RESULT:    -4.367      5.749     11.443
REMARK INTER + INTRA:         -14.670
REMARK INTER:                 -12.144
REMARK INTRA:                  -2.526
REMARK UNBOUND:                -3.664
REMARK SMILES CCCCCCCCCCCCCCCCCCCCCCCCCCCC(=O)[O-]
REMARK SMILES IDX 15 1 16 2 17 3 18 4 19 5 20 6 21 7 22 8 23 9 24 10 25 11
REMARK SMILES IDX 26 12 27 13 28 14 29 15 30 16 14 17 13 18 12 19 11 20 10 21
REMARK SMILES IDX 9 22 8 23 7 24 6 25 5 26 4 27 3 28 2 29 1 30
REMARK H PARENT
REMARK Flexibility Score: inf
ROOT
ATOM      1  C   UNL     1      62.515  33.220  16.132  1.00  0.00     0.000 C 
ENDROOT
BRANCH   1   2
ATOM      2  C   UNL     1      62.100  34.416  17.006  1.00  0.00     0.000 C 
BRANCH   2   3
ATOM      3  C   UNL     1      63.258  34.957  17.859  1.00  0.00     0.000 C 
BRANCH   3   4
ATOM      4  C   UNL     1      64.624  34.785  17.171  1.00  0.00     0.000 C 
BRANCH   4   5
ATOM      5  C   UNL     1      65.702  35.710  17.759  1.00  0.00     0.000 C 
BRANCH   5   6
ATOM      6  C   UNL     1      66.675  34.970  18.695  1.00  0.00     0.000 C 
BRANCH   6   7
ATOM      7  C   UNL     1      66.482  35.353  20.171  1.00  0.00     0.000 C 
BRANCH   7   8
ATOM      8  C   UNL     1      67.576  34.770  21.082  1.00  0.00     0.000 C 
BRANCH   8   9
ATOM      9  C   UNL     1      67.598  33.232  21.069  1.00  0.00     0.000 C 
BRANCH   9  10
ATOM     10  C   UNL     1      67.543  32.627  22.483  1.00  0.00     0.000 C 
BRANCH  10  11
ATOM     11  C   UNL     1      66.147  32.096  22.844  1.00  0.00     0.000 C 
BRANCH  11  12
ATOM     12  C   UNL     1      66.193  30.713  23.517  1.00  0.00     0.006 C 
BRANCH  12  13
ATOM     13  C   UNL     1      64.799  30.228  23.936  1.00  0.00     0.053 C 
BRANCH  13  14
ATOM     14  C   UNL     1      64.632  28.755  23.716  1.00  0.00     0.041 C 
ATOM     15  O   UNL     1      63.913  28.331  22.773  1.00  0.00    -0.550 OA
ATOM     16  O   UNL     1      65.297  27.850  24.535  1.00  0.00    -0.550 OA
ENDBRANCH  13  14
ENDBRANCH  12  13
ENDBRANCH  11  12
ENDBRANCH  10  11
ENDBRANCH   9  10
ENDBRANCH   8   9
ENDBRANCH   7   8
ENDBRANCH   6   7
ENDBRANCH   5   6
ENDBRANCH   4   5
ENDBRANCH   3   4
ENDBRANCH   2   3
ENDBRANCH   1   2
BRANCH   1  17
ATOM     17  C   UNL     1      61.734  33.146  14.806  1.00  0.00     0.000 C 
BRANCH  17  18
ATOM     18  C   UNL     1      62.607  33.083  13.539  1.00  0.00     0.000 C 
BRANCH  18  19
ATOM     19  C   UNL     1      64.093  33.360  13.817  1.00  0.00     0.000 C 
BRANCH  19  20
ATOM     20  C   UNL     1      64.962  32.954  12.617  1.00  0.00     0.000 C 
BRANCH  20  21
ATOM     21  C   UNL     1      64.393  31.747  11.855  1.00  0.00     0.000 C 
BRANCH  21  22
ATOM     22  C   UNL     1      65.118  31.492  10.523  1.00  0.00    -0.000 C 
BRANCH  22  23
ATOM     23  C   UNL     1      64.238  30.759   9.498  1.00  0.00    -0.000 C 
BRANCH  23  24
ATOM     24  C   UNL     1      63.907  29.295   9.849  1.00  0.00    -0.000 C 
BRANCH  24  25
ATOM     25  C   UNL     1      62.426  28.920   9.627  1.00  0.00    -0.000 C 
BRANCH  25  26
ATOM     26  C   UNL     1      61.479  30.109   9.871  1.00  0.00    -0.000 C 
BRANCH  26  27
ATOM     27  C   UNL     1      61.142  30.300  11.358  1.00  0.00    -0.000 C 
BRANCH  27  28
ATOM     28  C   UNL     1      60.345  29.118  11.941  1.00  0.00    -0.000 C 
BRANCH  28  29
ATOM     29  C   UNL     1      60.969  28.569  13.233  1.00  0.00    -0.003 C 
ATOM     30  C   UNL     1      62.272  29.275  13.605  1.00  0.00     0.004 C 
ENDBRANCH  28  29
ENDBRANCH  27  28
ENDBRANCH  26  27
ENDBRANCH  25  26
ENDBRANCH  24  25
ENDBRANCH  23  24
ENDBRANCH  22  23
ENDBRANCH  21  22
ENDBRANCH  20  21
ENDBRANCH  19  20
ENDBRANCH  18  19
ENDBRANCH  17  18
ENDBRANCH   1  17
TORSDOF 26
ENDMDL
MODEL 4
REMARK VINA RESULT:    -4.252      2.779      8.066
REMARK INTER + INTRA:         -14.379
REMARK INTER:                 -11.116
REMARK INTRA:                  -3.263
REMARK UNBOUND:                -3.664
REMARK SMILES CCCCCCCCCCCCCCCCCCCCCCCCCCCC(=O)[O-]
REMARK SMILES IDX 15 1 16 2 17 3 18 4 19 5 20 6 21 7 22 8 23 9 24 10 25 11
REMARK SMILES IDX 26 12 27 13 28 14 29 15 30 16 14 17 13 18 12 19 11 20 10 21
REMARK SMILES IDX 9 22 8 23 7 24 6 25 5 26 4 27 3 28 2 29 1 30
REMARK H PARENT
REMARK Flexibility Score: inf
ROOT
ATOM      1  C   UNL     1      62.643  28.569  24.877  1.00  0.00     0.000 C 
ENDROOT
BRANCH   1   2
ATOM      2  C   UNL     1      61.357  28.646  25.719  1.00  0.00     0.000 C 
BRANCH   2   3
ATOM      3  C   UNL     1      61.544  28.087  27.138  1.00  0.00     0.000 C 
BRANCH   3   4
ATOM      4  C   UNL     1      62.991  27.634  27.405  1.00  0.00     0.000 C 
BRANCH   4   5
ATOM      5  C   UNL     1      63.582  28.265  28.676  1.00  0.00     0.000 C 
BRANCH   5   6
ATOM      6  C   UNL     1      63.518  29.804  28.661  1.00  0.00     0.000 C 
BRANCH   6   7
ATOM      7  C   UNL     1      64.911  30.454  28.723  1.00  0.00     0.000 C 
BRANCH   7   8
ATOM      8  C   UNL     1      65.589  30.532  27.345  1.00  0.00     0.000 C 
BRANCH   8   9
ATOM      9  C   UNL     1      66.909  29.744  27.291  1.00  0.00     0.000 C 
BRANCH   9  10
ATOM     10  C   UNL     1      67.618  29.868  25.930  1.00  0.00     0.000 C 
BRANCH  10  11
ATOM     11  C   UNL     1      67.376  28.650  25.025  1.00  0.00     0.000 C 
BRANCH  11  12
ATOM     12  C   UNL     1      66.294  27.705  25.577  1.00  0.00     0.006 C 
BRANCH  12  13
ATOM     13  C   UNL     1      66.292  26.348  24.861  1.00  0.00     0.053 C 
BRANCH  13  14
ATOM     14  C   UNL     1      65.230  26.276  23.807  1.00  0.00     0.041 C 
ATOM     15  O   UNL     1      65.421  26.795  22.676  1.00  0.00    -0.550 OA
ATOM     16  O   UNL     1      64.040  25.605  24.064  1.00  0.00    -0.550 OA
ENDBRANCH  13  14
ENDBRANCH  12  13
ENDBRANCH  11  12
ENDBRANCH  10  11
ENDBRANCH   9  10
ENDBRANCH   8   9
ENDBRANCH   7   8
ENDBRANCH   6   7
ENDBRANCH   5   6
ENDBRANCH   4   5
ENDBRANCH   3   4
ENDBRANCH   2   3
ENDBRANCH   1   2
BRANCH   1  17
ATOM     17  C   UNL     1      63.355  29.929  24.745  1.00  0.00     0.000 C 
BRANCH  17  18
ATOM     18  C   UNL     1      64.440  29.992  23.654  1.00  0.00     0.000 C 
BRANCH  18  19
ATOM     19  C   UNL     1      65.159  31.349  23.599  1.00  0.00     0.000 C 
BRANCH  19  20
ATOM     20  C   UNL     1      66.391  31.282  22.684  1.00  0.00     0.000 C 
BRANCH  20  21
ATOM     21  C   UNL     1      67.215  32.579  22.704  1.00  0.00     0.000 C 
BRANCH  21  22
ATOM     22  C   UNL     1      67.522  33.108  21.292  1.00  0.00    -0.000 C 
BRANCH  22  23
ATOM     23  C   UNL     1      67.521  34.644  21.220  1.00  0.00    -0.000 C 
BRANCH  23  24
ATOM     24  C   UNL     1      66.307  35.263  20.499  1.00  0.00    -0.000 C 
BRANCH  24  25
ATOM     25  C   UNL     1      66.597  35.686  19.043  1.00  0.00    -0.000 C 
BRANCH  25  26
ATOM     26  C   UNL     1      66.007  34.700  18.019  1.00  0.00    -0.000 C 
BRANCH  26  27
ATOM     27  C   UNL     1      64.921  35.341  17.141  1.00  0.00    -0.000 C 
BRANCH  27  28
ATOM     28  C   UNL     1      64.050  34.297  16.419  1.00  0.00    -0.000 C 
BRANCH  28  29
ATOM     29  C   UNL     1      62.593  34.310  16.904  1.00  0.00    -0.003 C 
ATOM     30  C   UNL     1      62.467  34.681  18.381  1.00  0.00     0.004 C 
ENDBRANCH  28  29
ENDBRANCH  27  28
ENDBRANCH  26  27
ENDBRANCH  25  26
ENDBRANCH  24  25
ENDBRANCH  23  24
ENDBRANCH  22  23
ENDBRANCH  21  22
ENDBRANCH  20  21
ENDBRANCH  19  20
ENDBRANCH  18  19
ENDBRANCH  17  18
ENDBRANCH   1  17
TORSDOF 26
ENDMDL
MODEL 5
REMARK VINA RESULT:    -4.243      5.170      9.547
REMARK INTER + INTRA:         -14.355
REMARK INTER:                 -11.770
REMARK INTRA:                  -2.586
REMARK UNBOUND:                -3.664
REMARK SMILES CCCCCCCCCCCCCCCCCCCCCCCCCCCC(=O)[O-]
REMARK SMILES IDX 15 1 16 2 17 3 18 4 19 5 20 6 21 7 22 8 23 9 24 10 25 11
REMARK SMILES IDX 26 12 27 13 28 14 29 15 30 16 14 17 13 18 12 19 11 20 10 21
REMARK SMILES IDX 9 22 8 23 7 24 6 25 5 26 4 27 3 28 2 29 1 30
REMARK H PARENT
REMARK Flexibility Score: inf
ROOT
ATOM      1  C   UNL     1      63.715  34.246  15.919  1.00  0.00     0.000 C 
ENDROOT
BRANCH   1   2
ATOM      2  C   UNL     1      62.895  32.959  15.729  1.00  0.00     0.000 C 
BRANCH   2   3
ATOM      3  C   UNL     1      61.545  33.213  15.039  1.00  0.00     0.000 C 
BRANCH   3   4
ATOM      4  C   UNL     1      61.698  33.487  13.532  1.00  0.00     0.000 C 
BRANCH   4   5
ATOM      5  C   UNL     1      61.369  32.256  12.672  1.00  0.00     0.000 C 
BRANCH   5   6
ATOM      6  C   UNL     1      60.522  31.214  13.425  1.00  0.00     0.000 C 
BRANCH   6   7
ATOM      7  C   UNL     1      61.119  29.799  13.348  1.00  0.00     0.000 C 
BRANCH   7   8
ATOM      8  C   UNL     1      62.369  29.635  14.230  1.00  0.00     0.000 C 
BRANCH   8   9
ATOM      9  C   UNL     1      63.632  29.319  13.410  1.00  0.00     0.000 C 
BRANCH   9  10
ATOM     10  C   UNL     1      64.419  30.583  13.023  1.00  0.00     0.000 C 
BRANCH  10  11
ATOM     11  C   UNL     1      64.645  30.697  11.507  1.00  0.00     0.000 C 
BRANCH  11  12
ATOM     12  C   UNL     1      63.890  29.618  10.711  1.00  0.00     0.006 C 
BRANCH  12  13
ATOM     13  C   UNL     1      62.809  30.220   9.803  1.00  0.00     0.053 C 
BRANCH  13  14
ATOM     14  C   UNL     1      61.632  29.304   9.656  1.00  0.00     0.041 C 
ATOM     15  O   UNL     1      61.798  28.112   9.284  1.00  0.00    -0.550 OA
ATOM     16  O   UNL     1      60.355  29.759   9.961  1.00  0.00    -0.550 OA
ENDBRANCH  13  14
ENDBRANCH  12  13
ENDBRANCH  11  12
ENDBRANCH  10  11
ENDBRANCH   9  10
ENDBRANCH   8   9
ENDBRANCH   7   8
ENDBRANCH   6   7
ENDBRANCH   5   6
ENDBRANCH   4   5
ENDBRANCH   3   4
ENDBRANCH   2   3
ENDBRANCH   1   2
BRANCH   1  17
ATOM     17  C   UNL     1      63.857  34.654  17.397  1.00  0.00     0.000 C 
BRANCH  17  18
ATOM     18  C   UNL     1      65.206  35.296  17.769  1.00  0.00     0.000 C 
BRANCH  18  19
ATOM     19  C   UNL     1      66.394  34.334  17.613  1.00  0.00     0.000 C 
BRANCH  19  20
ATOM     20  C   UNL     1      67.448  34.579  18.703  1.00  0.00     0.000 C 
BRANCH  20  21
ATOM     21  C   UNL     1      66.825  35.001  20.044  1.00  0.00     0.000 C 
BRANCH  21  22
ATOM     22  C   UNL     1      67.638  34.508  21.255  1.00  0.00    -0.000 C 
BRANCH  22  23
ATOM     23  C   UNL     1      67.511  32.992  21.478  1.00  0.00    -0.000 C 
BRANCH  23  24
ATOM     24  C   UNL     1      66.458  32.571  22.521  1.00  0.00    -0.000 C 
BRANCH  24  25
ATOM     25  C   UNL     1      66.843  31.309  23.321  1.00  0.00    -0.000 C 
BRANCH  25  26
ATOM     26  C   UNL     1      65.809  30.179  23.163  1.00  0.00    -0.000 C 
BRANCH  26  27
ATOM     27  C   UNL     1      65.141  29.801  24.495  1.00  0.00    -0.000 C 
BRANCH  27  28
ATOM     28  C   UNL     1      63.766  29.137  24.300  1.00  0.00    -0.000 C 
BRANCH  28  29
ATOM     29  C   UNL     1      62.680  29.761  25.191  1.00  0.00    -0.003 C 
ATOM     30  C   UNL     1      62.000  28.736  26.097  1.00  0.00     0.004 C 
ENDBRANCH  28  29
ENDBRANCH  27  28
ENDBRANCH  26  27
ENDBRANCH  25  26
ENDBRANCH  24  25
ENDBRANCH  23  24
ENDBRANCH  22  23
ENDBRANCH  21  22
ENDBRANCH  20  21
ENDBRANCH  19  20
ENDBRANCH  18  19
ENDBRANCH  17  18
ENDBRANCH   1  17
TORSDOF 26
ENDMDL
MODEL 6
REMARK VINA RESULT:    -4.211      4.955      9.273
REMARK INTER + INTRA:         -14.276
REMARK INTER:                 -11.811
REMARK INTRA:                  -2.464
REMARK UNBOUND:                -3.664
REMARK SMILES CCCCCCCCCCCCCCCCCCCCCCCCCCCC(=O)[O-]
REMARK SMILES IDX 15 1 16 2 17 3 18 4 19 5 20 6 21 7 22 8 23 9 24 10 25 11
REMARK SMILES IDX 26 12 27 13 28 14 29 15 30 16 14 17 13 18 12 19 11 20 10 21
REMARK SMILES IDX 9 22 8 23 7 24 6 25 5 26 4 27 3 28 2 29 1 30
REMARK H PARENT
REMARK Flexibility Score: inf
ROOT
ATOM      1  C   UNL     1      62.510  33.512  16.796  1.00  0.00     0.000 C 
ENDROOT
BRANCH   1   2
ATOM      2  C   UNL     1      61.421  34.041  15.847  1.00  0.00     0.000 C 
BRANCH   2   3
ATOM      3  C   UNL     1      61.113  33.068  14.698  1.00  0.00     0.000 C 
BRANCH   3   4
ATOM      4  C   UNL     1      61.663  33.562  13.348  1.00  0.00     0.000 C 
BRANCH   4   5
ATOM      5  C   UNL     1      62.849  32.721  12.850  1.00  0.00     0.000 C 
BRANCH   5   6
ATOM      6  C   UNL     1      64.193  33.177  13.447  1.00  0.00     0.000 C 
BRANCH   6   7
ATOM      7  C   UNL     1      64.794  32.141  14.412  1.00  0.00     0.000 C 
BRANCH   7   8
ATOM      8  C   UNL     1      63.944  30.863  14.512  1.00  0.00     0.000 C 
BRANCH   8   9
ATOM      9  C   UNL     1      64.424  29.758  13.556  1.00  0.00     0.000 C 
BRANCH   9  10
ATOM     10  C   UNL     1      63.287  29.191  12.687  1.00  0.00     0.000 C 
BRANCH  10  11
ATOM     11  C   UNL     1      61.924  29.238  13.394  1.00  0.00     0.000 C 
BRANCH  11  12
ATOM     12  C   UNL     1      60.743  29.262  12.409  1.00  0.00     0.006 C 
BRANCH  12  13
ATOM     13  C   UNL     1      61.057  30.081  11.150  1.00  0.00     0.053 C 
BRANCH  13  14
ATOM     14  C   UNL     1      60.899  29.267   9.902  1.00  0.00     0.041 C 
ATOM     15  O   UNL     1      59.957  29.508   9.102  1.00  0.00    -0.550 OA
ATOM     16  O   UNL     1      61.813  28.263   9.607  1.00  0.00    -0.550 OA
ENDBRANCH  13  14
ENDBRANCH  12  13
ENDBRANCH  11  12
ENDBRANCH  10  11
ENDBRANCH   9  10
ENDBRANCH   8   9
ENDBRANCH   7   8
ENDBRANCH   6   7
ENDBRANCH   5   6
ENDBRANCH   4   5
ENDBRANCH   3   4
ENDBRANCH   2   3
ENDBRANCH   1   2
BRANCH   1  17
ATOM     17  C   UNL     1      63.276  34.638  17.516  1.00  0.00     0.000 C 
BRANCH  17  18
ATOM     18  C   UNL     1      64.717  34.864  17.022  1.00  0.00     0.000 C 
BRANCH  18  19
ATOM     19  C   UNL     1      65.485  35.898  17.859  1.00  0.00     0.000 C 
BRANCH  19  20
ATOM     20  C   UNL     1      66.588  35.224  18.690  1.00  0.00     0.000 C 
BRANCH  20  21
ATOM     21  C   UNL     1      66.357  35.365  20.204  1.00  0.00     0.000 C 
BRANCH  21  22
ATOM     22  C   UNL     1      67.568  34.902  21.033  1.00  0.00    -0.000 C 
BRANCH  22  23
ATOM     23  C   UNL     1      67.687  33.370  21.107  1.00  0.00    -0.000 C 
BRANCH  23  24
ATOM     24  C   UNL     1      67.156  32.737  22.408  1.00  0.00    -0.000 C 
BRANCH  24  25
ATOM     25  C   UNL     1      67.546  31.254  22.583  1.00  0.00    -0.000 C 
BRANCH  25  26
ATOM     26  C   UNL     1      67.381  30.773  24.036  1.00  0.00    -0.000 C 
BRANCH  26  27
ATOM     27  C   UNL     1      66.424  29.577  24.156  1.00  0.00    -0.000 C 
BRANCH  27  28
ATOM     28  C   UNL     1      67.160  28.256  24.447  1.00  0.00    -0.000 C 
BRANCH  28  29
ATOM     29  C   UNL     1      66.733  27.124  23.501  1.00  0.00    -0.003 C 
ATOM     30  C   UNL     1      65.602  26.272  24.074  1.00  0.00     0.004 C 
ENDBRANCH  28  29
ENDBRANCH  27  28
ENDBRANCH  26  27
ENDBRANCH  25  26
ENDBRANCH  24  25
ENDBRANCH  23  24
ENDBRANCH  22  23
ENDBRANCH  21  22
ENDBRANCH  20  21
ENDBRANCH  19  20
ENDBRANCH  18  19
ENDBRANCH  17  18
ENDBRANCH   1  17
TORSDOF 26
ENDMDL
MODEL 7
REMARK VINA RESULT:    -4.204      2.240      4.860
REMARK INTER + INTRA:         -14.257
REMARK INTER:                 -11.474
REMARK INTRA:                  -2.783
REMARK UNBOUND:                -3.664
REMARK SMILES CCCCCCCCCCCCCCCCCCCCCCCCCCCC(=O)[O-]
REMARK SMILES IDX 15 1 16 2 17 3 18 4 19 5 20 6 21 7 22 8 23 9 24 10 25 11
REMARK SMILES IDX 26 12 27 13 28 14 29 15 30 16 14 17 13 18 12 19 11 20 10 21
REMARK SMILES IDX 9 22 8 23 7 24 6 25 5 26 4 27 3 28 2 29 1 30
REMARK H PARENT
REMARK Flexibility Score: inf
ROOT
ATOM      1  C   UNL     1      66.071  31.736  22.966  1.00  0.00     0.000 C 
ENDROOT
BRANCH   1   2
ATOM      2  C   UNL     1      67.456  32.375  22.762  1.00  0.00     0.000 C 
BRANCH   2   3
ATOM      3  C   UNL     1      67.606  33.034  21.382  1.00  0.00     0.000 C 
BRANCH   3   4
ATOM      4  C   UNL     1      66.730  34.291  21.233  1.00  0.00     0.000 C 
BRANCH   4   5
ATOM      5  C   UNL     1      67.275  35.269  20.179  1.00  0.00     0.000 C 
BRANCH   5   6
ATOM      6  C   UNL     1      66.225  35.643  19.117  1.00  0.00     0.000 C 
BRANCH   6   7
ATOM      7  C   UNL     1      66.208  34.664  17.932  1.00  0.00     0.000 C 
BRANCH   7   8
ATOM      8  C   UNL     1      64.957  34.823  17.051  1.00  0.00     0.000 C 
BRANCH   8   9
ATOM      9  C   UNL     1      63.667  34.963  17.877  1.00  0.00     0.000 C 
BRANCH   9  10
ATOM     10  C   UNL     1      62.398  34.719  17.040  1.00  0.00     0.000 C 
BRANCH  10  11
ATOM     11  C   UNL     1      62.574  33.586  16.017  1.00  0.00     0.000 C 
BRANCH  11  12
ATOM     12  C   UNL     1      61.369  33.446  15.071  1.00  0.00     0.006 C 
BRANCH  12  13
ATOM     13  C   UNL     1      61.799  33.301  13.605  1.00  0.00     0.053 C 
BRANCH  13  14
ATOM     14  C   UNL     1      62.156  31.885  13.267  1.00  0.00     0.041 C 
ATOM     15  O   UNL     1      62.981  31.641  12.348  1.00  0.00    -0.550 OA
ATOM     16  O   UNL     1      61.600  30.837  13.990  1.00  0.00    -0.550 OA
ENDBRANCH  13  14
ENDBRANCH  12  13
ENDBRANCH  11  12
ENDBRANCH  10  11
ENDBRANCH   9  10
ENDBRANCH   8   9
ENDBRANCH   7   8
ENDBRANCH   6   7
ENDBRANCH   5   6
ENDBRANCH   4   5
ENDBRANCH   3   4
ENDBRANCH   2   3
ENDBRANCH   1   2
BRANCH   1  17
ATOM     17  C   UNL     1      66.139  30.379  23.693  1.00  0.00     0.000 C 
BRANCH  17  18
ATOM     18  C   UNL     1      66.897  30.396  25.033  1.00  0.00     0.000 C 
BRANCH  18  19
ATOM     19  C   UNL     1      66.404  29.324  26.017  1.00  0.00     0.000 C 
BRANCH  19  20
ATOM     20  C   UNL     1      65.814  29.967  27.282  1.00  0.00     0.000 C 
BRANCH  20  21
ATOM     21  C   UNL     1      64.565  30.813  26.987  1.00  0.00     0.000 C 
BRANCH  21  22
ATOM     22  C   UNL     1      63.311  29.954  26.746  1.00  0.00    -0.000 C 
BRANCH  22  23
ATOM     23  C   UNL     1      62.829  30.003  25.287  1.00  0.00    -0.000 C 
BRANCH  23  24
ATOM     24  C   UNL     1      62.892  28.660  24.532  1.00  0.00    -0.000 C 
BRANCH  24  25
ATOM     25  C   UNL     1      62.735  27.425  25.445  1.00  0.00    -0.000 C 
BRANCH  25  26
ATOM     26  C   UNL     1      64.075  26.710  25.696  1.00  0.00    -0.000 C 
BRANCH  26  27
ATOM     27  C   UNL     1      64.685  26.132  24.409  1.00  0.00    -0.000 C 
BRANCH  27  28
ATOM     28  C   UNL     1      66.217  26.281  24.361  1.00  0.00    -0.000 C 
BRANCH  28  29
ATOM     29  C   UNL     1      66.754  26.366  22.924  1.00  0.00    -0.003 C 
ATOM     30  C   UNL     1      65.822  27.138  21.991  1.00  0.00     0.004 C 
ENDBRANCH  28  29
ENDBRANCH  27  28
ENDBRANCH  26  27
ENDBRANCH  25  26
ENDBRANCH  24  25
ENDBRANCH  23  24
ENDBRANCH  22  23
ENDBRANCH  21  22
ENDBRANCH  20  21
ENDBRANCH  19  20
ENDBRANCH  18  19
ENDBRANCH  17  18
ENDBRANCH   1  17
TORSDOF 26
ENDMDL
MODEL 8
REMARK VINA RESULT:    -4.154      3.109      6.377
REMARK INTER + INTRA:         -14.132
REMARK INTER:                 -11.973
REMARK INTRA:                  -2.159
REMARK UNBOUND:                -3.664
REMARK SMILES CCCCCCCCCCCCCCCCCCCCCCCCCCCC(=O)[O-]
REMARK SMILES IDX 15 1 16 2 17 3 18 4 19 5 20 6 21 7 22 8 23 9 24 10 25 11
REMARK SMILES IDX 26 12 27 13 28 14 29 15 30 16 14 17 13 18 12 19 11 20 10 21
REMARK SMILES IDX 9 22 8 23 7 24 6 25 5 26 4 27 3 28 2 29 1 30
REMARK H PARENT
REMARK Flexibility Score: inf
ROOT
ATOM      1  C   UNL     1      67.793  33.530  21.054  1.00  0.00     0.000 C 
ENDROOT
BRANCH   1   2
ATOM      2  C   UNL     1      66.803  34.705  21.134  1.00  0.00     0.000 C 
BRANCH   2   3
ATOM      3  C   UNL     1      66.408  35.242  19.749  1.00  0.00     0.000 C 
BRANCH   3   4
ATOM      4  C   UNL     1      67.277  34.654  18.622  1.00  0.00     0.000 C 
BRANCH   4   5
ATOM      5  C   UNL     1      66.482  34.413  17.329  1.00  0.00     0.000 C 
BRANCH   5   6
ATOM      6  C   UNL     1      64.988  34.756  17.477  1.00  0.00     0.000 C 
BRANCH   6   7
ATOM      7  C   UNL     1      64.148  34.269  16.284  1.00  0.00     0.000 C 
BRANCH   7   8
ATOM      8  C   UNL     1      62.724  33.856  16.693  1.00  0.00     0.000 C 
BRANCH   8   9
ATOM      9  C   UNL     1      61.648  34.458  15.774  1.00  0.00     0.000 C 
BRANCH   9  10
ATOM     10  C   UNL     1      61.639  33.818  14.374  1.00  0.00     0.000 C 
BRANCH  10  11
ATOM     11  C   UNL     1      61.068  32.392  14.381  1.00  0.00     0.000 C 
BRANCH  11  12
ATOM     12  C   UNL     1      61.058  31.748  12.984  1.00  0.00     0.006 C 
BRANCH  12  13
ATOM     13  C   UNL     1      62.469  31.376  12.509  1.00  0.00     0.053 C 
BRANCH  13  14
ATOM     14  C   UNL     1      62.689  29.893  12.526  1.00  0.00     0.041 C 
ATOM     15  O   UNL     1      63.196  29.315  11.529  1.00  0.00    -0.550 OA
ATOM     16  O   UNL     1      62.364  29.156  13.658  1.00  0.00    -0.550 OA
ENDBRANCH  13  14
ENDBRANCH  12  13
ENDBRANCH  11  12
ENDBRANCH  10  11
ENDBRANCH   9  10
ENDBRANCH   8   9
ENDBRANCH   7   8
ENDBRANCH   6   7
ENDBRANCH   5   6
ENDBRANCH   4   5
ENDBRANCH   3   4
ENDBRANCH   2   3
ENDBRANCH   1   2
BRANCH   1  17
ATOM     17  C   UNL     1      67.716  32.597  22.277  1.00  0.00     0.000 C 
BRANCH  17  18
ATOM     18  C   UNL     1      66.304  32.086  22.618  1.00  0.00     0.000 C 
BRANCH  18  19
ATOM     19  C   UNL     1      66.306  30.974  23.677  1.00  0.00     0.000 C 
BRANCH  19  20
ATOM     20  C   UNL     1      64.902  30.374  23.848  1.00  0.00     0.000 C 
BRANCH  20  21
ATOM     21  C   UNL     1      64.189  30.886  25.109  1.00  0.00     0.000 C 
BRANCH  21  22
ATOM     22  C   UNL     1      62.942  30.057  25.463  1.00  0.00    -0.000 C 
BRANCH  22  23
ATOM     23  C   UNL     1      62.841  28.758  24.646  1.00  0.00    -0.000 C 
BRANCH  23  24
ATOM     24  C   UNL     1      62.907  27.459  25.473  1.00  0.00    -0.000 C 
BRANCH  24  25
ATOM     25  C   UNL     1      64.043  26.506  25.046  1.00  0.00    -0.000 C 
BRANCH  25  26
ATOM     26  C   UNL     1      65.389  26.872  25.697  1.00  0.00    -0.000 C 
BRANCH  26  27
ATOM     27  C   UNL     1      66.501  27.105  24.662  1.00  0.00    -0.000 C 
BRANCH  27  28
ATOM     28  C   UNL     1      66.025  26.861  23.218  1.00  0.00    -0.000 C 
BRANCH  28  29
ATOM     29  C   UNL     1      66.958  25.917  22.443  1.00  0.00    -0.003 C 
ATOM     30  C   UNL     1      67.355  26.473  21.076  1.00  0.00     0.004 C 
ENDBRANCH  28  29
ENDBRANCH  27  28
ENDBRANCH  26  27
ENDBRANCH  25  26
ENDBRANCH  24  25
ENDBRANCH  23  24
ENDBRANCH  22  23
ENDBRANCH  21  22
ENDBRANCH  20  21
ENDBRANCH  19  20
ENDBRANCH  18  19
ENDBRANCH  17  18
ENDBRANCH   1  17
TORSDOF 26
ENDMDL
MODEL 9
REMARK VINA RESULT:    -4.105      5.529     10.253
REMARK INTER + INTRA:         -14.007
REMARK INTER:                 -11.535
REMARK INTRA:                  -2.472
REMARK UNBOUND:                -3.664
REMARK SMILES CCCCCCCCCCCCCCCCCCCCCCCCCCCC(=O)[O-]
REMARK SMILES IDX 15 1 16 2 17 3 18 4 19 5 20 6 21 7 22 8 23 9 24 10 25 11
REMARK SMILES IDX 26 12 27 13 28 14 29 15 30 16 14 17 13 18 12 19 11 20 10 21
REMARK SMILES IDX 9 22 8 23 7 24 6 25 5 26 4 27 3 28 2 29 1 30
REMARK H PARENT
REMARK Flexibility Score: inf
ROOT
ATOM      1  C   UNL     1      62.387  33.452  14.533  1.00  0.00     0.000 C 
ENDROOT
BRANCH   1   2
ATOM      2  C   UNL     1      63.266  32.269  14.974  1.00  0.00     0.000 C 
BRANCH   2   3
ATOM      3  C   UNL     1      64.718  32.395  14.485  1.00  0.00     0.000 C 
BRANCH   3   4
ATOM      4  C   UNL     1      64.834  33.241  13.204  1.00  0.00     0.000 C 
BRANCH   4   5
ATOM      5  C   UNL     1      64.785  32.388  11.926  1.00  0.00     0.000 C 
BRANCH   5   6
ATOM      6  C   UNL     1      65.792  32.857  10.860  1.00  0.00     0.000 C 
BRANCH   6   7
ATOM      7  C   UNL     1      65.597  32.148   9.509  1.00  0.00     0.000 C 
BRANCH   7   8
ATOM      8  C   UNL     1      66.027  30.672   9.549  1.00  0.00     0.000 C 
BRANCH   8   9
ATOM      9  C   UNL     1      64.899  29.716   9.125  1.00  0.00     0.000 C 
BRANCH   9  10
ATOM     10  C   UNL     1      63.910  29.424  10.267  1.00  0.00     0.000 C 
BRANCH  10  11
ATOM     11  C   UNL     1      62.513  29.039   9.755  1.00  0.00     0.000 C 
BRANCH  11  12
ATOM     12  C   UNL     1      61.398  29.912  10.355  1.00  0.00     0.006 C 
BRANCH  12  13
ATOM     13  C   UNL     1      61.751  30.415  11.761  1.00  0.00     0.053 C 
BRANCH  13  14
ATOM     14  C   UNL     1      61.425  29.400  12.814  1.00  0.00     0.041 C 
ATOM     15  O   UNL     1      62.294  29.064  13.661  1.00  0.00    -0.550 OA
ATOM     16  O   UNL     1      60.152  28.849  12.878  1.00  0.00    -0.550 OA
ENDBRANCH  13  14
ENDBRANCH  12  13
ENDBRANCH  11  12
ENDBRANCH  10  11
ENDBRANCH   9  10
ENDBRANCH   8   9
ENDBRANCH   7   8
ENDBRANCH   6   7
ENDBRANCH   5   6
ENDBRANCH   4   5
ENDBRANCH   3   4
ENDBRANCH   2   3
ENDBRANCH   1   2
BRANCH   1  17
ATOM     17  C   UNL     1      61.840  34.267  15.720  1.00  0.00     0.000 C 
BRANCH  17  18
ATOM     18  C   UNL     1      62.383  33.853  17.100  1.00  0.00     0.000 C 
BRANCH  18  19
ATOM     19  C   UNL     1      63.217  34.954  17.773  1.00  0.00     0.000 C 
BRANCH  19  20
ATOM     20  C   UNL     1      64.669  34.930  17.271  1.00  0.00     0.000 C 
BRANCH  20  21
ATOM     21  C   UNL     1      65.519  36.064  17.865  1.00  0.00     0.000 C 
BRANCH  21  22
ATOM     22  C   UNL     1      66.669  35.545  18.746  1.00  0.00    -0.000 C 
BRANCH  22  23
ATOM     23  C   UNL     1      66.212  35.193  20.171  1.00  0.00    -0.000 C 
BRANCH  23  24
ATOM     24  C   UNL     1      67.290  34.542  21.060  1.00  0.00    -0.000 C 
BRANCH  24  25
ATOM     25  C   UNL     1      67.941  33.290  20.435  1.00  0.00    -0.000 C 
BRANCH  25  26
ATOM     26  C   UNL     1      67.807  32.049  21.336  1.00  0.00    -0.000 C 
BRANCH  26  27
ATOM     27  C   UNL     1      67.047  32.347  22.639  1.00  0.00    -0.000 C 
BRANCH  27  28
ATOM     28  C   UNL     1      66.754  31.075  23.457  1.00  0.00    -0.000 C 
BRANCH  28  29
ATOM     29  C   UNL     1      67.880  30.036  23.350  1.00  0.00    -0.003 C 
ATOM     30  C   UNL     1      67.389  28.609  23.588  1.00  0.00     0.004 C 
ENDBRANCH  28  29
ENDBRANCH  27  28
ENDBRANCH  26  27
ENDBRANCH  25  26
ENDBRANCH  24  25
ENDBRANCH  23  24
ENDBRANCH  22  23
ENDBRANCH  21  22
ENDBRANCH  20  21
ENDBRANCH  19  20
ENDBRANCH  18  19
ENDBRANCH  17  18
ENDBRANCH   1  17
TORSDOF 26
ENDMDL
