MODEL 1
REMARK VINA RESULT:    -3.538      0.000      0.000
REMARK INTER + INTRA:         -14.300
REMARK INTER:                  -8.915
REMARK INTRA:                  -5.385
REMARK UNBOUND:                -5.385
REMARK SMILES CCCCCCCCCCCCCCCCCCCCCCCCCCCC(=O)[O-]
REMARK SMILES IDX 15 1 16 2 17 3 18 4 19 5 20 6 21 7 22 8 23 9 24 10 25 11
REMARK SMILES IDX 26 12 27 13 28 14 29 15 30 16 14 17 13 18 12 19 11 20 10 21
REMARK SMILES IDX 9 22 8 23 7 24 6 25 5 26 4 27 3 28 2 29 1 30
REMARK H PARENT
REMARK Flexibility Score: inf
ROOT
ATOM      1  C   UNL     1     131.790 145.716 123.518  1.00  0.00     0.000 C 
ENDROOT
BRANCH   1   2
ATOM      2  C   UNL     1     132.498 146.463 122.374  1.00  0.00     0.000 C 
BRANCH   2   3
ATOM      3  C   UNL     1     131.578 146.905 121.216  1.00  0.00     0.000 C 
BRANCH   3   4
ATOM      4  C   UNL     1     132.197 146.795 119.810  1.00  0.00     0.000 C 
BRANCH   4   5
ATOM      5  C   UNL     1     133.460 145.917 119.720  1.00  0.00     0.000 C 
BRANCH   5   6
ATOM      6  C   UNL     1     134.535 146.456 118.746  1.00  0.00     0.000 C 
BRANCH   6   7
ATOM      7  C   UNL     1     135.874 146.813 119.418  1.00  0.00     0.000 C 
BRANCH   7   8
ATOM      8  C   UNL     1     135.820 146.693 120.948  1.00  0.00     0.000 C 
BRANCH   8   9
ATOM      9  C   UNL     1     136.914 145.744 121.461  1.00  0.00     0.000 C 
BRANCH   9  10
ATOM     10  C   UNL     1     136.480 144.267 121.456  1.00  0.00     0.000 C 
BRANCH  10  11
ATOM     11  C   UNL     1     135.232 143.955 122.299  1.00  0.00     0.000 C 
BRANCH  11  12
ATOM     12  C   UNL     1     134.251 143.007 121.586  1.00  0.00     0.006 C 
BRANCH  12  13
ATOM     13  C   UNL     1     134.801 142.503 120.245  1.00  0.00     0.053 C 
BRANCH  13  14
ATOM     14  C   UNL     1     133.710 141.992 119.353  1.00  0.00     0.041 C 
ATOM     15  O   UNL     1     133.152 140.892 119.604  1.00  0.00    -0.550 OA
ATOM     16  O   UNL     1     133.286 142.748 118.268  1.00  0.00    -0.550 OA
ENDBRANCH  13  14
ENDBRANCH  12  13
ENDBRANCH  11  12
ENDBRANCH  10  11
ENDBRANCH   9  10
ENDBRANCH   8   9
ENDBRANCH   7   8
ENDBRANCH   6   7
ENDBRANCH   5   6
ENDBRANCH   4   5
ENDBRANCH   3   4
ENDBRANCH   2   3
ENDBRANCH   1   2
BRANCH   1  17
ATOM     17  C   UNL     1     131.157 146.672 124.544  1.00  0.00     0.000 C 
BRANCH  17  18
ATOM     18  C   UNL     1     129.648 146.441 124.724  1.00  0.00     0.000 C 
BRANCH  18  19
ATOM     19  C   UNL     1     128.927 145.846 123.498  1.00  0.00     0.000 C 
BRANCH  19  20
ATOM     20  C   UNL     1     127.704 146.665 123.033  1.00  0.00     0.000 C 
BRANCH  20  21
ATOM     21  C   UNL     1     127.021 146.050 121.798  1.00  0.00     0.000 C 
BRANCH  21  22
ATOM     22  C   UNL     1     127.871 146.195 120.517  1.00  0.00    -0.000 C 
BRANCH  22  23
ATOM     23  C   UNL     1     127.183 145.664 119.242  1.00  0.00    -0.000 C 
BRANCH  23  24
ATOM     24  C   UNL     1     127.957 144.566 118.497  1.00  0.00    -0.000 C 
BRANCH  24  25
ATOM     25  C   UNL     1     128.455 143.448 119.431  1.00  0.00    -0.000 C 
BRANCH  25  26
ATOM     26  C   UNL     1     129.991 143.348 119.471  1.00  0.00    -0.000 C 
BRANCH  26  27
ATOM     27  C   UNL     1     130.601 143.473 120.881  1.00  0.00    -0.000 C 
BRANCH  27  28
ATOM     28  C   UNL     1     130.600 142.139 121.649  1.00  0.00    -0.000 C 
BRANCH  28  29
ATOM     29  C   UNL     1     129.903 142.258 123.015  1.00  0.00    -0.003 C 
ATOM     30  C   UNL     1     128.378 142.298 122.894  1.00  0.00     0.004 C 
ENDBRANCH  28  29
ENDBRANCH  27  28
ENDBRANCH  26  27
ENDBRANCH  25  26
ENDBRANCH  24  25
ENDBRANCH  23  24
ENDBRANCH  22  23
ENDBRANCH  21  22
ENDBRANCH  20  21
ENDBRANCH  19  20
ENDBRANCH  18  19
ENDBRANCH  17  18
ENDBRANCH   1  17
TORSDOF 26
ENDMDL
MODEL 2
REMARK VINA RESULT:    -3.524      1.953      4.028
REMARK INTER + INTRA:         -14.266
REMARK INTER:                  -8.205
REMARK INTRA:                  -6.061
REMARK UNBOUND:                -5.385
REMARK SMILES CCCCCCCCCCCCCCCCCCCCCCCCCCCC(=O)[O-]
REMARK SMILES IDX 15 1 16 2 17 3 18 4 19 5 20 6 21 7 22 8 23 9 24 10 25 11
REMARK SMILES IDX 26 12 27 13 28 14 29 15 30 16 14 17 13 18 12 19 11 20 10 21
REMARK SMILES IDX 9 22 8 23 7 24 6 25 5 26 4 27 3 28 2 29 1 30
REMARK H PARENT
REMARK Flexibility Score: inf
ROOT
ATOM      1  C   UNL     1     130.967 144.621 120.299  1.00  0.00     0.000 C 
ENDROOT
BRANCH   1   2
ATOM      2  C   UNL     1     130.707 146.027 119.731  1.00  0.00     0.000 C 
BRANCH   2   3
ATOM      3  C   UNL     1     131.926 146.974 119.755  1.00  0.00     0.000 C 
BRANCH   3   4
ATOM      4  C   UNL     1     133.286 146.286 119.975  1.00  0.00     0.000 C 
BRANCH   4   5
ATOM      5  C   UNL     1     134.275 146.403 118.799  1.00  0.00     0.000 C 
BRANCH   5   6
ATOM      6  C   UNL     1     135.021 145.088 118.470  1.00  0.00     0.000 C 
BRANCH   6   7
ATOM      7  C   UNL     1     134.136 143.829 118.519  1.00  0.00     0.000 C 
BRANCH   7   8
ATOM      8  C   UNL     1     134.767 142.692 119.336  1.00  0.00     0.000 C 
BRANCH   8   9
ATOM      9  C   UNL     1     133.785 142.171 120.397  1.00  0.00     0.000 C 
BRANCH   9  10
ATOM     10  C   UNL     1     133.821 142.985 121.702  1.00  0.00     0.000 C 
BRANCH  10  11
ATOM     11  C   UNL     1     134.942 142.592 122.680  1.00  0.00     0.000 C 
BRANCH  11  12
ATOM     12  C   UNL     1     136.077 143.630 122.737  1.00  0.00     0.006 C 
BRANCH  12  13
ATOM     13  C   UNL     1     135.565 145.063 122.535  1.00  0.00     0.053 C 
BRANCH  13  14
ATOM     14  C   UNL     1     136.506 145.878 121.701  1.00  0.00     0.041 C 
ATOM     15  O   UNL     1     136.330 147.120 121.580  1.00  0.00    -0.550 OA
ATOM     16  O   UNL     1     137.597 145.275 121.090  1.00  0.00    -0.550 OA
ENDBRANCH  13  14
ENDBRANCH  12  13
ENDBRANCH  11  12
ENDBRANCH  10  11
ENDBRANCH   9  10
ENDBRANCH   8   9
ENDBRANCH   7   8
ENDBRANCH   6   7
ENDBRANCH   5   6
ENDBRANCH   4   5
ENDBRANCH   3   4
ENDBRANCH   2   3
ENDBRANCH   1   2
BRANCH   1  17
ATOM     17  C   UNL     1     130.331 143.512 119.442  1.00  0.00     0.000 C 
BRANCH  17  18
ATOM     18  C   UNL     1     129.679 142.404 120.287  1.00  0.00     0.000 C 
BRANCH  18  19
ATOM     19  C   UNL     1     128.239 142.700 120.754  1.00  0.00     0.000 C 
BRANCH  19  20
ATOM     20  C   UNL     1     127.480 143.692 119.849  1.00  0.00     0.000 C 
BRANCH  20  21
ATOM     21  C   UNL     1     127.153 145.013 120.570  1.00  0.00     0.000 C 
BRANCH  21  22
ATOM     22  C   UNL     1     127.687 145.044 122.019  1.00  0.00    -0.000 C 
BRANCH  22  23
ATOM     23  C   UNL     1     128.386 146.365 122.403  1.00  0.00    -0.000 C 
BRANCH  23  24
ATOM     24  C   UNL     1     128.374 146.693 123.904  1.00  0.00    -0.000 C 
BRANCH  24  25
ATOM     25  C   UNL     1     129.755 146.526 124.563  1.00  0.00    -0.000 C 
BRANCH  25  26
ATOM     26  C   UNL     1     130.896 146.432 123.533  1.00  0.00    -0.000 C 
BRANCH  26  27
ATOM     27  C   UNL     1     131.887 145.279 123.784  1.00  0.00    -0.000 C 
BRANCH  27  28
ATOM     28  C   UNL     1     131.268 144.128 124.598  1.00  0.00    -0.000 C 
BRANCH  28  29
ATOM     29  C   UNL     1     130.571 143.094 123.699  1.00  0.00    -0.003 C 
ATOM     30  C   UNL     1     129.551 142.246 124.463  1.00  0.00     0.004 C 
ENDBRANCH  28  29
ENDBRANCH  27  28
ENDBRANCH  26  27
ENDBRANCH  25  26
ENDBRANCH  24  25
ENDBRANCH  23  24
ENDBRANCH  22  23
ENDBRANCH  21  22
ENDBRANCH  20  21
ENDBRANCH  19  20
ENDBRANCH  18  19
ENDBRANCH  17  18
ENDBRANCH   1  17
TORSDOF 26
ENDMDL
MODEL 3
REMARK VINA RESULT:    -3.477      2.609      6.275
REMARK INTER + INTRA:         -14.146
REMARK INTER:                  -8.008
REMARK INTRA:                  -6.138
REMARK UNBOUND:                -5.385
REMARK SMILES CCCCCCCCCCCCCCCCCCCCCCCCCCCC(=O)[O-]
REMARK SMILES IDX 15 1 16 2 17 3 18 4 19 5 20 6 21 7 22 8 23 9 24 10 25 11
REMARK SMILES IDX 26 12 27 13 28 14 29 15 30 16 14 17 13 18 12 19 11 20 10 21
REMARK SMILES IDX 9 22 8 23 7 24 6 25 5 26 4 27 3 28 2 29 1 30
REMARK H PARENT
REMARK Flexibility Score: inf
ROOT
ATOM      1  C   UNL     1     130.459 140.178 122.227  1.00  0.00     0.000 C 
ENDROOT
BRANCH   1   2
ATOM      2  C   UNL     1     129.235 139.270 122.013  1.00  0.00     0.000 C 
BRANCH   2   3
ATOM      3  C   UNL     1     128.944 138.904 120.542  1.00  0.00     0.000 C 
BRANCH   3   4
ATOM      4  C   UNL     1     127.710 139.592 119.928  1.00  0.00     0.000 C 
BRANCH   4   5
ATOM      5  C   UNL     1     126.888 140.452 120.907  1.00  0.00     0.000 C 
BRANCH   5   6
ATOM      6  C   UNL     1     126.900 141.964 120.580  1.00  0.00     0.000 C 
BRANCH   6   7
ATOM      7  C   UNL     1     128.246 142.485 120.043  1.00  0.00     0.000 C 
BRANCH   7   8
ATOM      8  C   UNL     1     128.092 143.742 119.175  1.00  0.00     0.000 C 
BRANCH   8   9
ATOM      9  C   UNL     1     127.502 144.902 119.993  1.00  0.00     0.000 C 
BRANCH   9  10
ATOM     10  C   UNL     1     128.465 146.096 120.124  1.00  0.00     0.000 C 
BRANCH  10  11
ATOM     11  C   UNL     1     129.875 145.857 119.557  1.00  0.00     0.000 C 
BRANCH  11  12
ATOM     12  C   UNL     1     130.944 145.711 120.654  1.00  0.00     0.006 C 
BRANCH  12  13
ATOM     13  C   UNL     1     131.412 144.259 120.820  1.00  0.00     0.053 C 
BRANCH  13  14
ATOM     14  C   UNL     1     132.125 143.761 119.599  1.00  0.00     0.041 C 
ATOM     15  O   UNL     1     131.575 142.911 118.849  1.00  0.00    -0.550 OA
ATOM     16  O   UNL     1     133.377 144.263 119.270  1.00  0.00    -0.550 OA
ENDBRANCH  13  14
ENDBRANCH  12  13
ENDBRANCH  11  12
ENDBRANCH  10  11
ENDBRANCH   9  10
ENDBRANCH   8   9
ENDBRANCH   7   8
ENDBRANCH   6   7
ENDBRANCH   5   6
ENDBRANCH   4   5
ENDBRANCH   3   4
ENDBRANCH   2   3
ENDBRANCH   1   2
BRANCH   1  17
ATOM     17  C   UNL     1     130.111 141.469 122.988  1.00  0.00     0.000 C 
BRANCH  17  18
ATOM     18  C   UNL     1     128.855 141.325 123.865  1.00  0.00     0.000 C 
BRANCH  18  19
ATOM     19  C   UNL     1     128.086 142.636 124.125  1.00  0.00     0.000 C 
BRANCH  19  20
ATOM     20  C   UNL     1     128.705 143.871 123.437  1.00  0.00     0.000 C 
BRANCH  20  21
ATOM     21  C   UNL     1     127.894 145.154 123.695  1.00  0.00     0.000 C 
BRANCH  21  22
ATOM     22  C   UNL     1     128.771 146.425 123.662  1.00  0.00    -0.000 C 
BRANCH  22  23
ATOM     23  C   UNL     1     129.836 146.483 124.777  1.00  0.00    -0.000 C 
BRANCH  23  24
ATOM     24  C   UNL     1     131.291 146.502 124.284  1.00  0.00    -0.000 C 
BRANCH  24  25
ATOM     25  C   UNL     1     132.216 145.602 125.123  1.00  0.00    -0.000 C 
BRANCH  25  26
ATOM     26  C   UNL     1     132.010 144.104 124.832  1.00  0.00    -0.000 C 
BRANCH  26  27
ATOM     27  C   UNL     1     131.943 143.215 126.089  1.00  0.00    -0.000 C 
BRANCH  27  28
ATOM     28  C   UNL     1     130.515 143.082 126.649  1.00  0.00    -0.000 C 
BRANCH  28  29
ATOM     29  C   UNL     1     130.397 143.646 128.074  1.00  0.00    -0.003 C 
ATOM     30  C   UNL     1     129.836 145.070 128.097  1.00  0.00     0.004 C 
ENDBRANCH  28  29
ENDBRANCH  27  28
ENDBRANCH  26  27
ENDBRANCH  25  26
ENDBRANCH  24  25
ENDBRANCH  23  24
ENDBRANCH  22  23
ENDBRANCH  21  22
ENDBRANCH  20  21
ENDBRANCH  19  20
ENDBRANCH  18  19
ENDBRANCH  17  18
ENDBRANCH   1  17
TORSDOF 26
ENDMDL
MODEL 4
REMARK VINA RESULT:    -3.396      3.456      6.681
REMARK INTER + INTRA:         -13.942
REMARK INTER:                  -8.830
REMARK INTRA:                  -5.113
REMARK UNBOUND:                -5.385
REMARK SMILES CCCCCCCCCCCCCCCCCCCCCCCCCCCC(=O)[O-]
REMARK SMILES IDX 15 1 16 2 17 3 18 4 19 5 20 6 21 7 22 8 23 9 24 10 25 11
REMARK SMILES IDX 26 12 27 13 28 14 29 15 30 16 14 17 13 18 12 19 11 20 10 21
REMARK SMILES IDX 9 22 8 23 7 24 6 25 5 26 4 27 3 28 2 29 1 30
REMARK H PARENT
REMARK Flexibility Score: inf
ROOT
ATOM      1  C   UNL     1     132.089 145.816 121.933  1.00  0.00     0.000 C 
ENDROOT
BRANCH   1   2
ATOM      2  C   UNL     1     131.900 146.469 123.313  1.00  0.00     0.000 C 
BRANCH   2   3
ATOM      3  C   UNL     1     130.747 145.886 124.157  1.00  0.00     0.000 C 
BRANCH   3   4
ATOM      4  C   UNL     1     129.402 146.627 124.028  1.00  0.00     0.000 C 
BRANCH   4   5
ATOM      5  C   UNL     1     128.153 145.727 124.083  1.00  0.00     0.000 C 
BRANCH   5   6
ATOM      6  C   UNL     1     128.410 144.327 124.688  1.00  0.00     0.000 C 
BRANCH   6   7
ATOM      7  C   UNL     1     127.608 144.035 125.970  1.00  0.00     0.000 C 
BRANCH   7   8
ATOM      8  C   UNL     1     127.305 145.304 126.781  1.00  0.00     0.000 C 
BRANCH   8   9
ATOM      9  C   UNL     1     127.506 145.053 128.284  1.00  0.00     0.000 C 
BRANCH   9  10
ATOM     10  C   UNL     1     128.733 145.784 128.857  1.00  0.00     0.000 C 
BRANCH  10  11
ATOM     11  C   UNL     1     129.747 146.271 127.807  1.00  0.00     0.000 C 
BRANCH  11  12
ATOM     12  C   UNL     1     131.044 145.443 127.799  1.00  0.00     0.006 C 
BRANCH  12  13
ATOM     13  C   UNL     1     132.277 146.299 127.477  1.00  0.00     0.053 C 
BRANCH  13  14
ATOM     14  C   UNL     1     133.467 145.891 128.294  1.00  0.00     0.041 C 
ATOM     15  O   UNL     1     134.324 145.105 127.811  1.00  0.00    -0.550 OA
ATOM     16  O   UNL     1     133.646 146.407 129.570  1.00  0.00    -0.550 OA
ENDBRANCH  13  14
ENDBRANCH  12  13
ENDBRANCH  11  12
ENDBRANCH  10  11
ENDBRANCH   9  10
ENDBRANCH   8   9
ENDBRANCH   7   8
ENDBRANCH   6   7
ENDBRANCH   5   6
ENDBRANCH   4   5
ENDBRANCH   3   4
ENDBRANCH   2   3
ENDBRANCH   1   2
BRANCH   1  17
ATOM     17  C   UNL     1     132.124 146.848 120.792  1.00  0.00     0.000 C 
BRANCH  17  18
ATOM     18  C   UNL     1     130.916 146.734 119.847  1.00  0.00     0.000 C 
BRANCH  18  19
ATOM     19  C   UNL     1     129.823 145.747 120.299  1.00  0.00     0.000 C 
BRANCH  19  20
ATOM     20  C   UNL     1     128.392 146.318 120.217  1.00  0.00     0.000 C 
BRANCH  20  21
ATOM     21  C   UNL     1     127.314 145.231 120.388  1.00  0.00     0.000 C 
BRANCH  21  22
ATOM     22  C   UNL     1     127.618 143.962 119.560  1.00  0.00    -0.000 C 
BRANCH  22  23
ATOM     23  C   UNL     1     127.313 142.642 120.298  1.00  0.00    -0.000 C 
BRANCH  23  24
ATOM     24  C   UNL     1     127.718 142.619 121.780  1.00  0.00    -0.000 C 
BRANCH  24  25
ATOM     25  C   UNL     1     128.950 141.736 122.048  1.00  0.00    -0.000 C 
BRANCH  25  26
ATOM     26  C   UNL     1     130.264 142.540 122.061  1.00  0.00    -0.000 C 
BRANCH  26  27
ATOM     27  C   UNL     1     131.317 142.055 121.047  1.00  0.00    -0.000 C 
BRANCH  27  28
ATOM     28  C   UNL     1     131.100 142.637 119.638  1.00  0.00    -0.000 C 
BRANCH  28  29
ATOM     29  C   UNL     1     132.424 143.021 118.959  1.00  0.00    -0.003 C 
ATOM     30  C   UNL     1     133.550 143.270 119.966  1.00  0.00     0.004 C 
ENDBRANCH  28  29
ENDBRANCH  27  28
ENDBRANCH  26  27
ENDBRANCH  25  26
ENDBRANCH  24  25
ENDBRANCH  23  24
ENDBRANCH  22  23
ENDBRANCH  21  22
ENDBRANCH  20  21
ENDBRANCH  19  20
ENDBRANCH  18  19
ENDBRANCH  17  18
ENDBRANCH   1  17
TORSDOF 26
ENDMDL
MODEL 5
REMARK VINA RESULT:    -3.396      2.791      6.913
REMARK INTER + INTRA:         -13.941
REMARK INTER:                  -8.420
REMARK INTRA:                  -5.522
REMARK UNBOUND:                -5.385
REMARK SMILES CCCCCCCCCCCCCCCCCCCCCCCCCCCC(=O)[O-]
REMARK SMILES IDX 15 1 16 2 17 3 18 4 19 5 20 6 21 7 22 8 23 9 24 10 25 11
REMARK SMILES IDX 26 12 27 13 28 14 29 15 30 16 14 17 13 18 12 19 11 20 10 21
REMARK SMILES IDX 9 22 8 23 7 24 6 25 5 26 4 27 3 28 2 29 1 30
REMARK H PARENT
REMARK Flexibility Score: inf
ROOT
ATOM      1  C   UNL     1     129.889 145.770 121.988  1.00  0.00     0.000 C 
ENDROOT
BRANCH   1   2
ATOM      2  C   UNL     1     128.526 146.396 122.333  1.00  0.00     0.000 C 
BRANCH   2   3
ATOM      3  C   UNL     1     127.317 145.764 121.612  1.00  0.00     0.000 C 
BRANCH   3   4
ATOM      4  C   UNL     1     127.074 146.268 120.177  1.00  0.00     0.000 C 
BRANCH   4   5
ATOM      5  C   UNL     1     127.595 145.341 119.062  1.00  0.00     0.000 C 
BRANCH   5   6
ATOM      6  C   UNL     1     127.448 143.833 119.376  1.00  0.00     0.000 C 
BRANCH   6   7
ATOM      7  C   UNL     1     128.782 143.110 119.642  1.00  0.00     0.000 C 
BRANCH   7   8
ATOM      8  C   UNL     1     128.705 142.145 120.834  1.00  0.00     0.000 C 
BRANCH   8   9
ATOM      9  C   UNL     1     130.026 142.138 121.618  1.00  0.00     0.000 C 
BRANCH   9  10
ATOM     10  C   UNL     1     129.829 142.332 123.132  1.00  0.00     0.000 C 
BRANCH  10  11
ATOM     11  C   UNL     1     128.413 142.763 123.551  1.00  0.00     0.000 C 
BRANCH  11  12
ATOM     12  C   UNL     1     128.285 143.003 125.066  1.00  0.00     0.006 C 
BRANCH  12  13
ATOM     13  C   UNL     1     127.914 144.455 125.395  1.00  0.00     0.053 C 
BRANCH  13  14
ATOM     14  C   UNL     1     128.993 145.141 126.177  1.00  0.00     0.041 C 
ATOM     15  O   UNL     1     129.783 145.935 125.601  1.00  0.00    -0.550 OA
ATOM     16  O   UNL     1     129.102 144.933 127.545  1.00  0.00    -0.550 OA
ENDBRANCH  13  14
ENDBRANCH  12  13
ENDBRANCH  11  12
ENDBRANCH  10  11
ENDBRANCH   9  10
ENDBRANCH   8   9
ENDBRANCH   7   8
ENDBRANCH   6   7
ENDBRANCH   5   6
ENDBRANCH   4   5
ENDBRANCH   3   4
ENDBRANCH   2   3
ENDBRANCH   1   2
BRANCH   1  17
ATOM     17  C   UNL     1     130.751 146.685 121.101  1.00  0.00     0.000 C 
BRANCH  17  18
ATOM     18  C   UNL     1     131.178 146.013 119.785  1.00  0.00     0.000 C 
BRANCH  18  19
ATOM     19  C   UNL     1     132.023 144.734 119.949  1.00  0.00     0.000 C 
BRANCH  19  20
ATOM     20  C   UNL     1     133.449 144.849 119.371  1.00  0.00     0.000 C 
BRANCH  20  21
ATOM     21  C   UNL     1     133.948 146.305 119.323  1.00  0.00     0.000 C 
BRANCH  21  22
ATOM     22  C   UNL     1     135.489 146.402 119.292  1.00  0.00    -0.000 C 
BRANCH  22  23
ATOM     23  C   UNL     1     136.208 145.194 119.927  1.00  0.00    -0.000 C 
BRANCH  23  24
ATOM     24  C   UNL     1     137.096 145.527 121.135  1.00  0.00    -0.000 C 
BRANCH  24  25
ATOM     25  C   UNL     1     136.283 145.859 122.399  1.00  0.00    -0.000 C 
BRANCH  25  26
ATOM     26  C   UNL     1     135.125 144.871 122.637  1.00  0.00    -0.000 C 
BRANCH  26  27
ATOM     27  C   UNL     1     133.802 145.532 123.068  1.00  0.00    -0.000 C 
BRANCH  27  28
ATOM     28  C   UNL     1     132.822 144.537 123.714  1.00  0.00    -0.000 C 
BRANCH  28  29
ATOM     29  C   UNL     1     133.141 144.291 125.198  1.00  0.00    -0.003 C 
ATOM     30  C   UNL     1     132.183 143.287 125.846  1.00  0.00     0.004 C 
ENDBRANCH  28  29
ENDBRANCH  27  28
ENDBRANCH  26  27
ENDBRANCH  25  26
ENDBRANCH  24  25
ENDBRANCH  23  24
ENDBRANCH  22  23
ENDBRANCH  21  22
ENDBRANCH  20  21
ENDBRANCH  19  20
ENDBRANCH  18  19
ENDBRANCH  17  18
ENDBRANCH   1  17
TORSDOF 26
ENDMDL
MODEL 6
REMARK VINA RESULT:    -3.388      3.293      6.750
REMARK INTER + INTRA:         -13.923
REMARK INTER:                  -8.152
REMARK INTRA:                  -5.771
REMARK UNBOUND:                -5.385
REMARK SMILES CCCCCCCCCCCCCCCCCCCCCCCCCCCC(=O)[O-]
REMARK SMILES IDX 15 1 16 2 17 3 18 4 19 5 20 6 21 7 22 8 23 9 24 10 25 11
REMARK SMILES IDX 26 12 27 13 28 14 29 15 30 16 14 17 13 18 12 19 11 20 10 21
REMARK SMILES IDX 9 22 8 23 7 24 6 25 5 26 4 27 3 28 2 29 1 30
REMARK H PARENT
REMARK Flexibility Score: inf
ROOT
ATOM      1  C   UNL     1     130.496 142.218 121.714  1.00  0.00     0.000 C 
ENDROOT
BRANCH   1   2
ATOM      2  C   UNL     1     130.149 143.192 122.853  1.00  0.00     0.000 C 
BRANCH   2   3
ATOM      3  C   UNL     1     130.711 142.802 124.237  1.00  0.00     0.000 C 
BRANCH   3   4
ATOM      4  C   UNL     1     129.662 142.684 125.359  1.00  0.00     0.000 C 
BRANCH   4   5
ATOM      5  C   UNL     1     128.243 143.148 124.978  1.00  0.00     0.000 C 
BRANCH   5   6
ATOM      6  C   UNL     1     127.604 144.123 125.995  1.00  0.00     0.000 C 
BRANCH   6   7
ATOM      7  C   UNL     1     127.479 145.572 125.488  1.00  0.00     0.000 C 
BRANCH   7   8
ATOM      8  C   UNL     1     127.538 145.672 123.957  1.00  0.00     0.000 C 
BRANCH   8   9
ATOM      9  C   UNL     1     128.703 146.568 123.512  1.00  0.00     0.000 C 
BRANCH   9  10
ATOM     10  C   UNL     1     129.676 146.903 124.657  1.00  0.00     0.000 C 
BRANCH  10  11
ATOM     11  C   UNL     1     131.135 146.482 124.412  1.00  0.00     0.000 C 
BRANCH  11  12
ATOM     12  C   UNL     1     131.973 146.452 125.703  1.00  0.00     0.006 C 
BRANCH  12  13
ATOM     13  C   UNL     1     131.321 145.597 126.798  1.00  0.00     0.053 C 
BRANCH  13  14
ATOM     14  C   UNL     1     130.999 146.406 128.018  1.00  0.00     0.041 C 
ATOM     15  O   UNL     1     131.913 147.024 128.626  1.00  0.00    -0.550 OA
ATOM     16  O   UNL     1     129.687 146.508 128.460  1.00  0.00    -0.550 OA
ENDBRANCH  13  14
ENDBRANCH  12  13
ENDBRANCH  11  12
ENDBRANCH  10  11
ENDBRANCH   9  10
ENDBRANCH   8   9
ENDBRANCH   7   8
ENDBRANCH   6   7
ENDBRANCH   5   6
ENDBRANCH   4   5
ENDBRANCH   3   4
ENDBRANCH   2   3
ENDBRANCH   1   2
BRANCH   1  17
ATOM     17  C   UNL     1     129.270 141.432 121.216  1.00  0.00     0.000 C 
BRANCH  17  18
ATOM     18  C   UNL     1     127.938 142.116 121.568  1.00  0.00     0.000 C 
BRANCH  18  19
ATOM     19  C   UNL     1     127.251 142.850 120.400  1.00  0.00     0.000 C 
BRANCH  19  20
ATOM     20  C   UNL     1     127.498 144.373 120.387  1.00  0.00     0.000 C 
BRANCH  20  21
ATOM     21  C   UNL     1     128.198 144.845 119.099  1.00  0.00     0.000 C 
BRANCH  21  22
ATOM     22  C   UNL     1     129.213 145.979 119.358  1.00  0.00    -0.000 C 
BRANCH  22  23
ATOM     23  C   UNL     1     130.136 145.732 120.569  1.00  0.00    -0.000 C 
BRANCH  23  24
ATOM     24  C   UNL     1     131.258 146.767 120.753  1.00  0.00    -0.000 C 
BRANCH  24  25
ATOM     25  C   UNL     1     132.204 146.841 119.541  1.00  0.00    -0.000 C 
BRANCH  25  26
ATOM     26  C   UNL     1     133.508 146.049 119.757  1.00  0.00    -0.000 C 
BRANCH  26  27
ATOM     27  C   UNL     1     133.338 144.519 119.714  1.00  0.00    -0.000 C 
BRANCH  27  28
ATOM     28  C   UNL     1     133.816 143.830 121.005  1.00  0.00    -0.000 C 
BRANCH  28  29
ATOM     29  C   UNL     1     134.003 144.828 122.159  1.00  0.00    -0.003 C 
ATOM     30  C   UNL     1     134.031 144.144 123.528  1.00  0.00     0.004 C 
ENDBRANCH  28  29
ENDBRANCH  27  28
ENDBRANCH  26  27
ENDBRANCH  25  26
ENDBRANCH  24  25
ENDBRANCH  23  24
ENDBRANCH  22  23
ENDBRANCH  21  22
ENDBRANCH  20  21
ENDBRANCH  19  20
ENDBRANCH  18  19
ENDBRANCH  17  18
ENDBRANCH   1  17
TORSDOF 26
ENDMDL
MODEL 7
REMARK VINA RESULT:    -3.358      2.197      5.512
REMARK INTER + INTRA:         -13.847
REMARK INTER:                  -8.289
REMARK INTRA:                  -5.558
REMARK UNBOUND:                -5.385
REMARK SMILES CCCCCCCCCCCCCCCCCCCCCCCCCCCC(=O)[O-]
REMARK SMILES IDX 15 1 16 2 17 3 18 4 19 5 20 6 21 7 22 8 23 9 24 10 25 11
REMARK SMILES IDX 26 12 27 13 28 14 29 15 30 16 14 17 13 18 12 19 11 20 10 21
REMARK SMILES IDX 9 22 8 23 7 24 6 25 5 26 4 27 3 28 2 29 1 30
REMARK H PARENT
REMARK Flexibility Score: inf
ROOT
ATOM      1  C   UNL     1     128.635 146.376 122.296  1.00  0.00     0.000 C 
ENDROOT
BRANCH   1   2
ATOM      2  C   UNL     1     128.580 146.721 123.794  1.00  0.00     0.000 C 
BRANCH   2   3
ATOM      3  C   UNL     1     127.700 145.782 124.647  1.00  0.00     0.000 C 
BRANCH   3   4
ATOM      4  C   UNL     1     128.472 144.847 125.598  1.00  0.00     0.000 C 
BRANCH   4   5
ATOM      5  C   UNL     1     128.224 143.342 125.377  1.00  0.00     0.000 C 
BRANCH   5   6
ATOM      6  C   UNL     1     128.051 142.943 123.893  1.00  0.00     0.000 C 
BRANCH   6   7
ATOM      7  C   UNL     1     129.374 142.828 123.111  1.00  0.00     0.000 C 
BRANCH   7   8
ATOM      8  C   UNL     1     130.484 142.143 123.922  1.00  0.00     0.000 C 
BRANCH   8   9
ATOM      9  C   UNL     1     131.677 143.090 124.124  1.00  0.00     0.000 C 
BRANCH   9  10
ATOM     10  C   UNL     1     131.491 144.449 123.425  1.00  0.00     0.000 C 
BRANCH  10  11
ATOM     11  C   UNL     1     132.012 145.661 124.216  1.00  0.00     0.000 C 
BRANCH  11  12
ATOM     12  C   UNL     1     132.519 146.795 123.307  1.00  0.00     0.006 C 
BRANCH  12  13
ATOM     13  C   UNL     1     132.285 146.496 121.820  1.00  0.00     0.053 C 
BRANCH  13  14
ATOM     14  C   UNL     1     133.565 146.516 121.040  1.00  0.00     0.041 C 
ATOM     15  O   UNL     1     134.621 146.952 121.570  1.00  0.00    -0.550 OA
ATOM     16  O   UNL     1     133.599 146.020 119.744  1.00  0.00    -0.550 OA
ENDBRANCH  13  14
ENDBRANCH  12  13
ENDBRANCH  11  12
ENDBRANCH  10  11
ENDBRANCH   9  10
ENDBRANCH   8   9
ENDBRANCH   7   8
ENDBRANCH   6   7
ENDBRANCH   5   6
ENDBRANCH   4   5
ENDBRANCH   3   4
ENDBRANCH   2   3
ENDBRANCH   1   2
BRANCH   1  17
ATOM     17  C   UNL     1     127.242 146.096 121.703  1.00  0.00     0.000 C 
BRANCH  17  18
ATOM     18  C   UNL     1     127.227 144.880 120.761  1.00  0.00     0.000 C 
BRANCH  18  19
ATOM     19  C   UNL     1     127.987 145.072 119.434  1.00  0.00     0.000 C 
BRANCH  19  20
ATOM     20  C   UNL     1     128.975 143.932 119.109  1.00  0.00     0.000 C 
BRANCH  20  21
ATOM     21  C   UNL     1     130.366 144.165 119.728  1.00  0.00     0.000 C 
BRANCH  21  22
ATOM     22  C   UNL     1     131.367 143.045 119.372  1.00  0.00    -0.000 C 
BRANCH  22  23
ATOM     23  C   UNL     1     131.651 142.064 120.529  1.00  0.00    -0.000 C 
BRANCH  23  24
ATOM     24  C   UNL     1     132.901 141.189 120.347  1.00  0.00    -0.000 C 
BRANCH  24  25
ATOM     25  C   UNL     1     132.562 139.703 120.133  1.00  0.00    -0.000 C 
BRANCH  25  26
ATOM     26  C   UNL     1     131.378 139.233 121.000  1.00  0.00    -0.000 C 
BRANCH  26  27
ATOM     27  C   UNL     1     130.030 139.173 120.257  1.00  0.00    -0.000 C 
BRANCH  27  28
ATOM     28  C   UNL     1     128.863 139.725 121.096  1.00  0.00    -0.000 C 
BRANCH  28  29
ATOM     29  C   UNL     1     127.588 139.917 120.258  1.00  0.00    -0.003 C 
ATOM     30  C   UNL     1     126.876 141.236 120.568  1.00  0.00     0.004 C 
ENDBRANCH  28  29
ENDBRANCH  27  28
ENDBRANCH  26  27
ENDBRANCH  25  26
ENDBRANCH  24  25
ENDBRANCH  23  24
ENDBRANCH  22  23
ENDBRANCH  21  22
ENDBRANCH  20  21
ENDBRANCH  19  20
ENDBRANCH  18  19
ENDBRANCH  17  18
ENDBRANCH   1  17
TORSDOF 26
ENDMDL
MODEL 8
REMARK VINA RESULT:    -3.352      3.104      6.951
REMARK INTER + INTRA:         -13.833
REMARK INTER:                  -8.572
REMARK INTRA:                  -5.260
REMARK UNBOUND:                -5.385
REMARK SMILES CCCCCCCCCCCCCCCCCCCCCCCCCCCC(=O)[O-]
REMARK SMILES IDX 15 1 16 2 17 3 18 4 19 5 20 6 21 7 22 8 23 9 24 10 25 11
REMARK SMILES IDX 26 12 27 13 28 14 29 15 30 16 14 17 13 18 12 19 11 20 10 21
REMARK SMILES IDX 9 22 8 23 7 24 6 25 5 26 4 27 3 28 2 29 1 30
REMARK H PARENT
REMARK Flexibility Score: inf
ROOT
ATOM      1  C   UNL     1     133.689 146.383 121.116  1.00  0.00     0.000 C 
ENDROOT
BRANCH   1   2
ATOM      2  C   UNL     1     132.587 146.745 120.105  1.00  0.00     0.000 C 
BRANCH   2   3
ATOM      3  C   UNL     1     131.144 146.554 120.618  1.00  0.00     0.000 C 
BRANCH   3   4
ATOM      4  C   UNL     1     130.084 146.334 119.522  1.00  0.00     0.000 C 
BRANCH   4   5
ATOM      5  C   UNL     1     129.395 144.956 119.546  1.00  0.00     0.000 C 
BRANCH   5   6
ATOM      6  C   UNL     1     127.852 145.020 119.457  1.00  0.00     0.000 C 
BRANCH   6   7
ATOM      7  C   UNL     1     127.227 146.232 120.172  1.00  0.00     0.000 C 
BRANCH   7   8
ATOM      8  C   UNL     1     126.875 145.938 121.638  1.00  0.00     0.000 C 
BRANCH   8   9
ATOM      9  C   UNL     1     127.815 146.695 122.589  1.00  0.00     0.000 C 
BRANCH   9  10
ATOM     10  C   UNL     1     128.763 145.764 123.365  1.00  0.00     0.000 C 
BRANCH  10  11
ATOM     11  C   UNL     1     128.398 144.271 123.305  1.00  0.00     0.000 C 
BRANCH  11  12
ATOM     12  C   UNL     1     128.216 143.643 124.698  1.00  0.00     0.006 C 
BRANCH  12  13
ATOM     13  C   UNL     1     129.000 144.396 125.782  1.00  0.00     0.053 C 
BRANCH  13  14
ATOM     14  C   UNL     1     128.119 144.805 126.924  1.00  0.00     0.041 C 
ATOM     15  O   UNL     1     126.878 144.928 126.752  1.00  0.00    -0.550 OA
ATOM     16  O   UNL     1     128.664 145.012 128.184  1.00  0.00    -0.550 OA
ENDBRANCH  13  14
ENDBRANCH  12  13
ENDBRANCH  11  12
ENDBRANCH  10  11
ENDBRANCH   9  10
ENDBRANCH   8   9
ENDBRANCH   7   8
ENDBRANCH   6   7
ENDBRANCH   5   6
ENDBRANCH   4   5
ENDBRANCH   3   4
ENDBRANCH   2   3
ENDBRANCH   1   2
BRANCH   1  17
ATOM     17  C   UNL     1     135.024 146.035 120.434  1.00  0.00     0.000 C 
BRANCH  17  18
ATOM     18  C   UNL     1     135.031 146.363 118.931  1.00  0.00     0.000 C 
BRANCH  18  19
ATOM     19  C   UNL     1     135.100 145.141 117.995  1.00  0.00     0.000 C 
BRANCH  19  20
ATOM     20  C   UNL     1     134.913 143.789 118.717  1.00  0.00     0.000 C 
BRANCH  20  21
ATOM     21  C   UNL     1     133.441 143.338 118.748  1.00  0.00     0.000 C 
BRANCH  21  22
ATOM     22  C   UNL     1     133.166 142.291 119.850  1.00  0.00    -0.000 C 
BRANCH  22  23
ATOM     23  C   UNL     1     131.674 142.132 120.207  1.00  0.00    -0.000 C 
BRANCH  23  24
ATOM     24  C   UNL     1     131.278 142.662 121.594  1.00  0.00    -0.000 C 
BRANCH  24  25
ATOM     25  C   UNL     1     132.377 143.527 122.238  1.00  0.00    -0.000 C 
BRANCH  25  26
ATOM     26  C   UNL     1     131.983 144.045 123.634  1.00  0.00    -0.000 C 
BRANCH  26  27
ATOM     27  C   UNL     1     133.162 144.186 124.616  1.00  0.00    -0.000 C 
BRANCH  27  28
ATOM     28  C   UNL     1     133.452 145.651 124.990  1.00  0.00    -0.000 C 
BRANCH  28  29
ATOM     29  C   UNL     1     132.331 146.598 124.534  1.00  0.00    -0.003 C 
ATOM     30  C   UNL     1     131.468 147.089 125.699  1.00  0.00     0.004 C 
ENDBRANCH  28  29
ENDBRANCH  27  28
ENDBRANCH  26  27
ENDBRANCH  25  26
ENDBRANCH  24  25
ENDBRANCH  23  24
ENDBRANCH  22  23
ENDBRANCH  21  22
ENDBRANCH  20  21
ENDBRANCH  19  20
ENDBRANCH  18  19
ENDBRANCH  17  18
ENDBRANCH   1  17
TORSDOF 26
ENDMDL
