MODEL 1
REMARK VINA RESULT:    -5.130      0.000      0.000
REMARK INTER + INTRA:         -11.067
REMARK INTER:                  -9.329
REMARK INTRA:                  -1.738
REMARK UNBOUND:                -1.738
REMARK SMILES CCCCCCCCCCCCCCCC(=O)[O-]
REMARK SMILES IDX 9 1 10 2 11 3 12 4 13 5 14 6 15 7 16 8 17 9 18 10 8 11 7 12
REMARK SMILES IDX 6 13 5 14 4 15 3 16 2 17 1 18
REMARK H PARENT
REMARK Flexibility Score: inf
ROOT
ATOM      1  C   UNL     1       0.357  45.136   9.577  1.00  0.00     0.000 C 
ENDROOT
BRANCH   1   2
ATOM      2  C   UNL     1       1.340  44.141  10.227  1.00  0.00     0.000 C 
BRANCH   2   3
ATOM      3  C   UNL     1       2.314  43.453   9.250  1.00  0.00     0.000 C 
BRANCH   3   4
ATOM      4  C   UNL     1       3.687  43.101   9.853  1.00  0.00     0.000 C 
BRANCH   4   5
ATOM      5  C   UNL     1       3.724  43.282  11.381  1.00  0.00     0.000 C 
BRANCH   5   6
ATOM      6  C   UNL     1       4.120  41.994  12.120  1.00  0.00     0.006 C 
BRANCH   6   7
ATOM      7  C   UNL     1       2.979  40.969  12.182  1.00  0.00     0.053 C 
BRANCH   7   8
ATOM      8  C   UNL     1       3.462  39.687  12.784  1.00  0.00     0.041 C 
ATOM      9  O   UNL     1       4.565  39.649  13.391  1.00  0.00    -0.550 OA
ATOM     10  O   UNL     1       2.674  38.545  12.713  1.00  0.00    -0.550 OA
ENDBRANCH   7   8
ENDBRANCH   6   7
ENDBRANCH   5   6
ENDBRANCH   4   5
ENDBRANCH   3   4
ENDBRANCH   2   3
ENDBRANCH   1   2
BRANCH   1  11
ATOM     11  C   UNL     1       0.296  45.032   8.039  1.00  0.00     0.000 C 
BRANCH  11  12
ATOM     12  C   UNL     1       0.395  46.410   7.358  1.00  0.00    -0.000 C 
BRANCH  12  13
ATOM     13  C   UNL     1       1.001  47.480   8.280  1.00  0.00    -0.000 C 
BRANCH  13  14
ATOM     14  C   UNL     1       2.067  48.330   7.570  1.00  0.00    -0.000 C 
BRANCH  14  15
ATOM     15  C   UNL     1       3.480  47.851   7.928  1.00  0.00    -0.000 C 
BRANCH  15  16
ATOM     16  C   UNL     1       3.493  47.157   9.298  1.00  0.00    -0.000 C 
BRANCH  16  17
ATOM     17  C   UNL     1       4.851  46.519   9.626  1.00  0.00    -0.003 C 
ATOM     18  C   UNL     1       6.026  47.461   9.365  1.00  0.00     0.004 C 
ENDBRANCH  16  17
ENDBRANCH  15  16
ENDBRANCH  14  15
ENDBRANCH  13  14
ENDBRANCH  12  13
ENDBRANCH  11  12
ENDBRANCH   1  11
TORSDOF 14
ENDMDL
MODEL 2
REMARK VINA RESULT:    -5.053      3.878      7.115
REMARK INTER + INTRA:         -10.926
REMARK INTER:                  -9.352
REMARK INTRA:                  -1.575
REMARK UNBOUND:                -1.738
REMARK SMILES CCCCCCCCCCCCCCCC(=O)[O-]
REMARK SMILES IDX 9 1 10 2 11 3 12 4 13 5 14 6 15 7 16 8 17 9 18 10 8 11 7 12
REMARK SMILES IDX 6 13 5 14 4 15 3 16 2 17 1 18
REMARK H PARENT
REMARK Flexibility Score: inf
ROOT
ATOM      1  C   UNL     1       3.829  43.747   9.228  1.00  0.00     0.000 C 
ENDROOT
BRANCH   1   2
ATOM      2  C   UNL     1       2.445  43.226   8.790  1.00  0.00     0.000 C 
BRANCH   2   3
ATOM      3  C   UNL     1       1.267  44.176   9.084  1.00  0.00     0.000 C 
BRANCH   3   4
ATOM      4  C   UNL     1       0.422  44.552   7.852  1.00  0.00     0.000 C 
BRANCH   4   5
ATOM      5  C   UNL     1      -0.278  45.913   8.011  1.00  0.00     0.000 C 
BRANCH   5   6
ATOM      6  C   UNL     1       0.503  47.063   7.355  1.00  0.00     0.006 C 
BRANCH   6   7
ATOM      7  C   UNL     1       1.334  47.870   8.362  1.00  0.00     0.053 C 
BRANCH   7   8
ATOM      8  C   UNL     1       2.495  48.520   7.678  1.00  0.00     0.041 C 
ATOM      9  O   UNL     1       3.559  47.874   7.486  1.00  0.00    -0.550 OA
ATOM     10  O   UNL     1       2.386  49.825   7.213  1.00  0.00    -0.550 OA
ENDBRANCH   7   8
ENDBRANCH   6   7
ENDBRANCH   5   6
ENDBRANCH   4   5
ENDBRANCH   3   4
ENDBRANCH   2   3
ENDBRANCH   1   2
BRANCH   1  11
ATOM     11  C   UNL     1       3.794  45.163   9.839  1.00  0.00     0.000 C 
BRANCH  11  12
ATOM     12  C   UNL     1       4.308  45.184  11.291  1.00  0.00    -0.000 C 
BRANCH  12  13
ATOM     13  C   UNL     1       3.957  43.900  12.059  1.00  0.00    -0.000 C 
BRANCH  13  14
ATOM     14  C   UNL     1       2.464  43.820  12.417  1.00  0.00    -0.000 C 
BRANCH  14  15
ATOM     15  C   UNL     1       1.960  42.373  12.356  1.00  0.00    -0.000 C 
BRANCH  15  16
ATOM     16  C   UNL     1       3.072  41.425  11.880  1.00  0.00    -0.000 C 
BRANCH  16  17
ATOM     17  C   UNL     1       3.138  40.130  12.702  1.00  0.00    -0.003 C 
ATOM     18  C   UNL     1       4.534  39.852  13.258  1.00  0.00     0.004 C 
ENDBRANCH  16  17
ENDBRANCH  15  16
ENDBRANCH  14  15
ENDBRANCH  13  14
ENDBRANCH  12  13
ENDBRANCH  11  12
ENDBRANCH   1  11
TORSDOF 14
ENDMDL
MODEL 3
REMARK VINA RESULT:    -5.048      1.310      2.613
REMARK INTER + INTRA:         -10.918
REMARK INTER:                  -8.988
REMARK INTRA:                  -1.930
REMARK UNBOUND:                -1.738
REMARK SMILES CCCCCCCCCCCCCCCC(=O)[O-]
REMARK SMILES IDX 9 1 10 2 11 3 12 4 13 5 14 6 15 7 16 8 17 9 18 10 8 11 7 12
REMARK SMILES IDX 6 13 5 14 4 15 3 16 2 17 1 18
REMARK H PARENT
REMARK Flexibility Score: inf
ROOT
ATOM      1  C   UNL     1       3.752  43.647   9.150  1.00  0.00     0.000 C 
ENDROOT
BRANCH   1   2
ATOM      2  C   UNL     1       4.122  45.079   9.584  1.00  0.00     0.000 C 
BRANCH   2   3
ATOM      3  C   UNL     1       4.050  45.342  11.101  1.00  0.00     0.000 C 
BRANCH   3   4
ATOM      4  C   UNL     1       4.131  44.078  11.977  1.00  0.00     0.000 C 
BRANCH   4   5
ATOM      5  C   UNL     1       2.756  43.644  12.514  1.00  0.00     0.000 C 
BRANCH   5   6
ATOM      6  C   UNL     1       2.466  42.155  12.266  1.00  0.00     0.006 C 
BRANCH   6   7
ATOM      7  C   UNL     1       3.743  41.318  12.104  1.00  0.00     0.053 C 
BRANCH   7   8
ATOM      8  C   UNL     1       3.618  40.027  12.850  1.00  0.00     0.041 C 
ATOM      9  O   UNL     1       4.590  39.586  13.520  1.00  0.00    -0.550 OA
ATOM     10  O   UNL     1       2.415  39.333  12.843  1.00  0.00    -0.550 OA
ENDBRANCH   7   8
ENDBRANCH   6   7
ENDBRANCH   5   6
ENDBRANCH   4   5
ENDBRANCH   3   4
ENDBRANCH   2   3
ENDBRANCH   1   2
BRANCH   1  11
ATOM     11  C   UNL     1       2.238  43.432   8.945  1.00  0.00     0.000 C 
BRANCH  11  12
ATOM     12  C   UNL     1       1.478  44.760   8.780  1.00  0.00    -0.000 C 
BRANCH  12  13
ATOM     13  C   UNL     1       0.517  45.039   9.948  1.00  0.00    -0.000 C 
BRANCH  13  14
ATOM     14  C   UNL     1       0.171  46.530  10.080  1.00  0.00    -0.000 C 
BRANCH  14  15
ATOM     15  C   UNL     1       1.425  47.402   9.929  1.00  0.00    -0.000 C 
BRANCH  15  16
ATOM     16  C   UNL     1       1.183  48.538   8.924  1.00  0.00    -0.000 C 
BRANCH  16  17
ATOM     17  C   UNL     1       1.858  48.284   7.568  1.00  0.00    -0.003 C 
ATOM     18  C   UNL     1       3.371  48.097   7.686  1.00  0.00     0.004 C 
ENDBRANCH  16  17
ENDBRANCH  15  16
ENDBRANCH  14  15
ENDBRANCH  13  14
ENDBRANCH  12  13
ENDBRANCH  11  12
ENDBRANCH   1  11
TORSDOF 14
ENDMDL
MODEL 4
REMARK VINA RESULT:    -5.022      1.192      3.461
REMARK INTER + INTRA:         -10.871
REMARK INTER:                  -8.908
REMARK INTRA:                  -1.962
REMARK UNBOUND:                -1.738
REMARK SMILES CCCCCCCCCCCCCCCC(=O)[O-]
REMARK SMILES IDX 9 1 10 2 11 3 12 4 13 5 14 6 15 7 16 8 17 9 18 10 8 11 7 12
REMARK SMILES IDX 6 13 5 14 4 15 3 16 2 17 1 18
REMARK H PARENT
REMARK Flexibility Score: inf
ROOT
ATOM      1  C   UNL     1       4.488  47.780   8.378  1.00  0.00     0.000 C 
ENDROOT
BRANCH   1   2
ATOM      2  C   UNL     1       5.151  46.967   9.508  1.00  0.00     0.000 C 
BRANCH   2   3
ATOM      3  C   UNL     1       4.176  46.363  10.538  1.00  0.00     0.000 C 
BRANCH   3   4
ATOM      4  C   UNL     1       4.291  44.837  10.713  1.00  0.00     0.000 C 
BRANCH   4   5
ATOM      5  C   UNL     1       4.006  44.386  12.156  1.00  0.00     0.000 C 
BRANCH   5   6
ATOM      6  C   UNL     1       2.865  43.361  12.243  1.00  0.00     0.006 C 
BRANCH   6   7
ATOM      7  C   UNL     1       3.138  42.094  11.420  1.00  0.00     0.053 C 
BRANCH   7   8
ATOM      8  C   UNL     1       3.484  40.951  12.322  1.00  0.00     0.041 C 
ATOM      9  O   UNL     1       2.592  40.141  12.688  1.00  0.00    -0.550 OA
ATOM     10  O   UNL     1       4.800  40.755  12.722  1.00  0.00    -0.550 OA
ENDBRANCH   7   8
ENDBRANCH   6   7
ENDBRANCH   5   6
ENDBRANCH   4   5
ENDBRANCH   3   4
ENDBRANCH   2   3
ENDBRANCH   1   2
BRANCH   1  11
ATOM     11  C   UNL     1       3.050  47.327   8.050  1.00  0.00     0.000 C 
BRANCH  11  12
ATOM     12  C   UNL     1       2.078  48.515   7.929  1.00  0.00    -0.000 C 
BRANCH  12  13
ATOM     13  C   UNL     1       0.606  48.087   8.056  1.00  0.00    -0.000 C 
BRANCH  13  14
ATOM     14  C   UNL     1       0.241  47.657   9.485  1.00  0.00    -0.000 C 
BRANCH  14  15
ATOM     15  C   UNL     1      -0.403  46.265   9.494  1.00  0.00    -0.000 C 
BRANCH  15  16
ATOM     16  C   UNL     1       0.572  45.214  10.043  1.00  0.00    -0.000 C 
BRANCH  16  17
ATOM     17  C   UNL     1       1.100  44.269   8.953  1.00  0.00    -0.003 C 
ATOM     18  C   UNL     1       0.300  44.359   7.654  1.00  0.00     0.004 C 
ENDBRANCH  16  17
ENDBRANCH  15  16
ENDBRANCH  14  15
ENDBRANCH  13  14
ENDBRANCH  12  13
ENDBRANCH  11  12
ENDBRANCH   1  11
TORSDOF 14
ENDMDL
MODEL 5
REMARK VINA RESULT:    -5.014      1.074      3.204
REMARK INTER + INTRA:         -10.855
REMARK INTER:                  -9.192
REMARK INTRA:                  -1.663
REMARK UNBOUND:                -1.738
REMARK SMILES CCCCCCCCCCCCCCCC(=O)[O-]
REMARK SMILES IDX 9 1 10 2 11 3 12 4 13 5 14 6 15 7 16 8 17 9 18 10 8 11 7 12
REMARK SMILES IDX 6 13 5 14 4 15 3 16 2 17 1 18
REMARK H PARENT
REMARK Flexibility Score: inf
ROOT
ATOM      1  C   UNL     1       5.427  46.918   9.885  1.00  0.00     0.000 C 
ENDROOT
BRANCH   1   2
ATOM      2  C   UNL     1       4.231  46.320  10.655  1.00  0.00     0.000 C 
BRANCH   2   3
ATOM      3  C   UNL     1       4.179  44.780  10.686  1.00  0.00     0.000 C 
BRANCH   3   4
ATOM      4  C   UNL     1       3.873  44.175  12.069  1.00  0.00     0.000 C 
BRANCH   4   5
ATOM      5  C   UNL     1       2.500  43.483  12.119  1.00  0.00     0.000 C 
BRANCH   5   6
ATOM      6  C   UNL     1       2.604  41.952  12.028  1.00  0.00     0.006 C 
BRANCH   6   7
ATOM      7  C   UNL     1       4.022  41.434  12.305  1.00  0.00     0.053 C 
BRANCH   7   8
ATOM      8  C   UNL     1       3.971  40.040  12.846  1.00  0.00     0.041 C 
ATOM      9  O   UNL     1       4.935  39.586  13.518  1.00  0.00    -0.550 OA
ATOM     10  O   UNL     1       2.842  39.257  12.645  1.00  0.00    -0.550 OA
ENDBRANCH   7   8
ENDBRANCH   6   7
ENDBRANCH   5   6
ENDBRANCH   4   5
ENDBRANCH   3   4
ENDBRANCH   2   3
ENDBRANCH   1   2
BRANCH   1  11
ATOM     11  C   UNL     1       5.016  47.897   8.764  1.00  0.00     0.000 C 
BRANCH  11  12
ATOM     12  C   UNL     1       3.755  47.428   8.015  1.00  0.00    -0.000 C 
BRANCH  12  13
ATOM     13  C   UNL     1       2.894  48.601   7.520  1.00  0.00    -0.000 C 
BRANCH  13  14
ATOM     14  C   UNL     1       1.540  48.680   8.241  1.00  0.00    -0.000 C 
BRANCH  14  15
ATOM     15  C   UNL     1       0.873  47.300   8.314  1.00  0.00    -0.000 C 
BRANCH  15  16
ATOM     16  C   UNL     1       0.667  46.868   9.773  1.00  0.00    -0.000 C 
BRANCH  16  17
ATOM     17  C   UNL     1       0.296  45.383   9.905  1.00  0.00    -0.003 C 
ATOM     18  C   UNL     1       0.959  44.511   8.839  1.00  0.00     0.004 C 
ENDBRANCH  16  17
ENDBRANCH  15  16
ENDBRANCH  14  15
ENDBRANCH  13  14
ENDBRANCH  12  13
ENDBRANCH  11  12
ENDBRANCH   1  11
TORSDOF 14
ENDMDL
MODEL 6
REMARK VINA RESULT:    -4.853      1.413      2.328
REMARK INTER + INTRA:         -10.563
REMARK INTER:                  -8.765
REMARK INTRA:                  -1.797
REMARK UNBOUND:                -1.738
REMARK SMILES CCCCCCCCCCCCCCCC(=O)[O-]
REMARK SMILES IDX 9 1 10 2 11 3 12 4 13 5 14 6 15 7 16 8 17 9 18 10 8 11 7 12
REMARK SMILES IDX 6 13 5 14 4 15 3 16 2 17 1 18
REMARK H PARENT
REMARK Flexibility Score: inf
ROOT
ATOM      1  C   UNL     1       0.188  46.222   8.013  1.00  0.00     0.000 C 
ENDROOT
BRANCH   1   2
ATOM      2  C   UNL     1       0.043  46.029   9.536  1.00  0.00     0.000 C 
BRANCH   2   3
ATOM      3  C   UNL     1       0.887  44.885  10.133  1.00  0.00     0.000 C 
BRANCH   3   4
ATOM      4  C   UNL     1       1.578  43.985   9.092  1.00  0.00     0.000 C 
BRANCH   4   5
ATOM      5  C   UNL     1       2.967  43.510   9.553  1.00  0.00     0.000 C 
BRANCH   5   6
ATOM      6  C   UNL     1       3.404  44.152  10.879  1.00  0.00     0.006 C 
BRANCH   6   7
ATOM      7  C   UNL     1       3.817  43.117  11.935  1.00  0.00     0.053 C 
BRANCH   7   8
ATOM      8  C   UNL     1       2.732  42.104  12.124  1.00  0.00     0.041 C 
ATOM      9  O   UNL     1       2.975  40.879  11.956  1.00  0.00    -0.550 OA
ATOM     10  O   UNL     1       1.466  42.507  12.528  1.00  0.00    -0.550 OA
ENDBRANCH   7   8
ENDBRANCH   6   7
ENDBRANCH   5   6
ENDBRANCH   4   5
ENDBRANCH   3   4
ENDBRANCH   2   3
ENDBRANCH   1   2
BRANCH   1  11
ATOM     11  C   UNL     1       0.305  47.700   7.583  1.00  0.00     0.000 C 
BRANCH  11  12
ATOM     12  C   UNL     1       1.360  48.464   8.404  1.00  0.00    -0.000 C 
BRANCH  12  13
ATOM     13  C   UNL     1       2.507  49.002   7.533  1.00  0.00    -0.000 C 
BRANCH  13  14
ATOM     14  C   UNL     1       3.746  48.094   7.568  1.00  0.00    -0.000 C 
BRANCH  14  15
ATOM     15  C   UNL     1       3.679  47.116   8.748  1.00  0.00    -0.000 C 
BRANCH  15  16
ATOM     16  C   UNL     1       4.966  47.176   9.584  1.00  0.00    -0.000 C 
BRANCH  16  17
ATOM     17  C   UNL     1       6.103  47.920   8.868  1.00  0.00    -0.003 C 
ATOM     18  C   UNL     1       7.472  47.650   9.491  1.00  0.00     0.004 C 
ENDBRANCH  16  17
ENDBRANCH  15  16
ENDBRANCH  14  15
ENDBRANCH  13  14
ENDBRANCH  12  13
ENDBRANCH  11  12
ENDBRANCH   1  11
TORSDOF 14
ENDMDL
MODEL 7
REMARK VINA RESULT:    -4.825      2.973      6.434
REMARK INTER + INTRA:         -10.512
REMARK INTER:                  -9.177
REMARK INTRA:                  -1.336
REMARK UNBOUND:                -1.738
REMARK SMILES CCCCCCCCCCCCCCCC(=O)[O-]
REMARK SMILES IDX 9 1 10 2 11 3 12 4 13 5 14 6 15 7 16 8 17 9 18 10 8 11 7 12
REMARK SMILES IDX 6 13 5 14 4 15 3 16 2 17 1 18
REMARK H PARENT
REMARK Flexibility Score: inf
ROOT
ATOM      1  C   UNL     1       0.735  44.364   8.161  1.00  0.00     0.000 C 
ENDROOT
BRANCH   1   2
ATOM      2  C   UNL     1      -0.081  45.647   8.419  1.00  0.00     0.000 C 
BRANCH   2   3
ATOM      3  C   UNL     1       0.344  46.871   7.584  1.00  0.00     0.000 C 
BRANCH   3   4
ATOM      4  C   UNL     1       0.975  48.017   8.397  1.00  0.00     0.000 C 
BRANCH   4   5
ATOM      5  C   UNL     1       2.081  48.752   7.619  1.00  0.00     0.000 C 
BRANCH   5   6
ATOM      6  C   UNL     1       3.416  47.991   7.626  1.00  0.00     0.006 C 
BRANCH   6   7
ATOM      7  C   UNL     1       3.577  47.081   8.852  1.00  0.00     0.053 C 
BRANCH   7   8
ATOM      8  C   UNL     1       4.997  47.089   9.324  1.00  0.00     0.041 C 
ATOM      9  O   UNL     1       5.370  46.289  10.223  1.00  0.00    -0.550 OA
ATOM     10  O   UNL     1       5.920  47.947   8.740  1.00  0.00    -0.550 OA
ENDBRANCH   7   8
ENDBRANCH   6   7
ENDBRANCH   5   6
ENDBRANCH   4   5
ENDBRANCH   3   4
ENDBRANCH   2   3
ENDBRANCH   1   2
BRANCH   1  11
ATOM     11  C   UNL     1       1.735  44.028   9.287  1.00  0.00     0.000 C 
BRANCH  11  12
ATOM     12  C   UNL     1       1.325  44.647  10.635  1.00  0.00    -0.000 C 
BRANCH  12  13
ATOM     13  C   UNL     1       1.602  43.711  11.823  1.00  0.00    -0.000 C 
BRANCH  13  14
ATOM     14  C   UNL     1       3.044  43.829  12.339  1.00  0.00    -0.000 C 
BRANCH  14  15
ATOM     15  C   UNL     1       3.885  42.622  11.906  1.00  0.00    -0.000 C 
BRANCH  15  16
ATOM     16  C   UNL     1       3.013  41.363  11.780  1.00  0.00    -0.000 C 
BRANCH  16  17
ATOM     17  C   UNL     1       3.396  40.274  12.792  1.00  0.00    -0.003 C 
ATOM     18  C   UNL     1       4.893  40.252  13.100  1.00  0.00     0.004 C 
ENDBRANCH  16  17
ENDBRANCH  15  16
ENDBRANCH  14  15
ENDBRANCH  13  14
ENDBRANCH  12  13
ENDBRANCH  11  12
ENDBRANCH   1  11
TORSDOF 14
ENDMDL
MODEL 8
REMARK VINA RESULT:    -4.814      3.569      5.647
REMARK INTER + INTRA:         -10.492
REMARK INTER:                  -8.561
REMARK INTRA:                  -1.931
REMARK UNBOUND:                -1.738
REMARK SMILES CCCCCCCCCCCCCCCC(=O)[O-]
REMARK SMILES IDX 9 1 10 2 11 3 12 4 13 5 14 6 15 7 16 8 17 9 18 10 8 11 7 12
REMARK SMILES IDX 6 13 5 14 4 15 3 16 2 17 1 18
REMARK H PARENT
REMARK Flexibility Score: inf
ROOT
ATOM      1  C   UNL     1       2.337  42.626  11.531  1.00  0.00     0.000 C 
ENDROOT
BRANCH   1   2
ATOM      2  C   UNL     1       3.748  42.830  10.944  1.00  0.00     0.000 C 
BRANCH   2   3
ATOM      3  C   UNL     1       3.786  43.236   9.457  1.00  0.00     0.000 C 
BRANCH   3   4
ATOM      4  C   UNL     1       4.015  44.739   9.208  1.00  0.00     0.000 C 
BRANCH   4   5
ATOM      5  C   UNL     1       4.533  45.472  10.458  1.00  0.00     0.000 C 
BRANCH   5   6
ATOM      6  C   UNL     1       4.568  46.997  10.279  1.00  0.00     0.006 C 
BRANCH   6   7
ATOM      7  C   UNL     1       5.119  47.424   8.911  1.00  0.00     0.053 C 
BRANCH   7   8
ATOM      8  C   UNL     1       6.465  48.058   9.065  1.00  0.00     0.041 C 
ATOM      9  O   UNL     1       7.416  47.408   9.576  1.00  0.00    -0.550 OA
ATOM     10  O   UNL     1       6.683  49.350   8.604  1.00  0.00    -0.550 OA
ENDBRANCH   7   8
ENDBRANCH   6   7
ENDBRANCH   5   6
ENDBRANCH   4   5
ENDBRANCH   3   4
ENDBRANCH   2   3
ENDBRANCH   1   2
BRANCH   1  11
ATOM     11  C   UNL     1       1.760  43.887  12.210  1.00  0.00     0.000 C 
BRANCH  11  12
ATOM     12  C   UNL     1       0.460  44.366  11.540  1.00  0.00    -0.000 C 
BRANCH  12  13
ATOM     13  C   UNL     1       0.703  44.974  10.150  1.00  0.00    -0.000 C 
BRANCH  13  14
ATOM     14  C   UNL     1      -0.179  46.204   9.884  1.00  0.00    -0.000 C 
BRANCH  14  15
ATOM     15  C   UNL     1       0.673  47.421   9.500  1.00  0.00    -0.000 C 
BRANCH  15  16
ATOM     16  C   UNL     1       1.349  47.207   8.137  1.00  0.00    -0.000 C 
BRANCH  16  17
ATOM     17  C   UNL     1       1.866  48.516   7.522  1.00  0.00    -0.003 C 
ATOM     18  C   UNL     1       1.382  49.756   8.274  1.00  0.00     0.004 C 
ENDBRANCH  16  17
ENDBRANCH  15  16
ENDBRANCH  14  15
ENDBRANCH  13  14
ENDBRANCH  12  13
ENDBRANCH  11  12
ENDBRANCH   1  11
TORSDOF 14
ENDMDL
MODEL 9
REMARK VINA RESULT:    -4.793      3.536      5.854
REMARK INTER + INTRA:         -10.453
REMARK INTER:                  -8.457
REMARK INTRA:                  -1.996
REMARK UNBOUND:                -1.738
REMARK SMILES CCCCCCCCCCCCCCCC(=O)[O-]
REMARK SMILES IDX 9 1 10 2 11 3 12 4 13 5 14 6 15 7 16 8 17 9 18 10 8 11 7 12
REMARK SMILES IDX 6 13 5 14 4 15 3 16 2 17 1 18
REMARK H PARENT
REMARK Flexibility Score: inf
ROOT
ATOM      1  C   UNL     1      -0.539  46.860   7.684  1.00  0.00     0.000 C 
ENDROOT
BRANCH   1   2
ATOM      2  C   UNL     1       0.584  47.914   7.610  1.00  0.00     0.000 C 
BRANCH   2   3
ATOM      3  C   UNL     1       1.060  48.459   8.972  1.00  0.00     0.000 C 
BRANCH   3   4
ATOM      4  C   UNL     1       2.346  47.806   9.511  1.00  0.00     0.000 C 
BRANCH   4   5
ATOM      5  C   UNL     1       3.226  47.224   8.391  1.00  0.00     0.000 C 
BRANCH   5   6
ATOM      6  C   UNL     1       4.446  46.462   8.931  1.00  0.00     0.006 C 
BRANCH   6   7
ATOM      7  C   UNL     1       5.247  47.272   9.960  1.00  0.00     0.053 C 
BRANCH   7   8
ATOM      8  C   UNL     1       6.478  47.844   9.331  1.00  0.00     0.041 C 
ATOM      9  O   UNL     1       7.609  47.354   9.592  1.00  0.00    -0.550 OA
ATOM     10  O   UNL     1       6.373  48.889   8.421  1.00  0.00    -0.550 OA
ENDBRANCH   7   8
ENDBRANCH   6   7
ENDBRANCH   5   6
ENDBRANCH   4   5
ENDBRANCH   3   4
ENDBRANCH   2   3
ENDBRANCH   1   2
BRANCH   1  11
ATOM     11  C   UNL     1      -0.176  45.518   7.013  1.00  0.00     0.000 C 
BRANCH  11  12
ATOM     12  C   UNL     1       0.334  44.479   8.028  1.00  0.00    -0.000 C 
BRANCH  12  13
ATOM     13  C   UNL     1       0.228  44.971   9.480  1.00  0.00    -0.000 C 
BRANCH  13  14
ATOM     14  C   UNL     1       1.270  44.315  10.400  1.00  0.00    -0.000 C 
BRANCH  14  15
ATOM     15  C   UNL     1       2.302  43.524   9.587  1.00  0.00    -0.000 C 
BRANCH  15  16
ATOM     16  C   UNL     1       3.293  42.803  10.513  1.00  0.00    -0.000 C 
BRANCH  16  17
ATOM     17  C   UNL     1       3.186  43.271  11.972  1.00  0.00    -0.003 C 
ATOM     18  C   UNL     1       4.187  44.374  12.315  1.00  0.00     0.004 C 
ENDBRANCH  16  17
ENDBRANCH  15  16
ENDBRANCH  14  15
ENDBRANCH  13  14
ENDBRANCH  12  13
ENDBRANCH  11  12
ENDBRANCH   1  11
TORSDOF 14
ENDMDL
