MODEL 1
REMARK VINA RESULT:    -2.927      0.000      0.000
REMARK INTER + INTRA:         -13.433
REMARK INTER:                  -7.719
REMARK INTRA:                  -5.713
REMARK UNBOUND:                -5.713
REMARK SMILES CCCCCCCCCCCCCCCCCCCCCCCCCCCCCC(=O)[O-]
REMARK SMILES IDX 16 1 17 2 18 3 19 4 20 5 21 6 22 7 23 8 24 9 25 10 26 11
REMARK SMILES IDX 27 12 28 13 29 14 30 15 31 16 32 17 15 18 14 19 13 20 12 21
REMARK SMILES IDX 11 22 10 23 9 24 8 25 7 26 6 27 5 28 4 29 3 30 2 31 1 32
REMARK H PARENT
REMARK Flexibility Score: inf
ROOT
ATOM      1  C   UNL     1       4.796  -2.947  -6.837  1.00  0.00     0.000 C 
ENDROOT
BRANCH   1   2
ATOM      2  C   UNL     1       5.089  -4.457  -6.776  1.00  0.00     0.000 C 
BRANCH   2   3
ATOM      3  C   UNL     1       6.321  -4.854  -7.606  1.00  0.00     0.000 C 
BRANCH   3   4
ATOM      4  C   UNL     1       7.145  -5.971  -6.939  1.00  0.00     0.000 C 
BRANCH   4   5
ATOM      5  C   UNL     1       6.390  -6.647  -5.783  1.00  0.00     0.000 C 
BRANCH   5   6
ATOM      6  C   UNL     1       7.182  -6.614  -4.463  1.00  0.00     0.000 C 
BRANCH   6   7
ATOM      7  C   UNL     1       6.383  -7.187  -3.280  1.00  0.00     0.000 C 
BRANCH   7   8
ATOM      8  C   UNL     1       4.862  -7.035  -3.463  1.00  0.00     0.000 C 
BRANCH   8   9
ATOM      9  C   UNL     1       4.308  -5.777  -2.775  1.00  0.00     0.000 C 
BRANCH   9  10
ATOM     10  C   UNL     1       2.891  -5.419  -3.255  1.00  0.00     0.000 C 
BRANCH  10  11
ATOM     11  C   UNL     1       2.591  -5.941  -4.670  1.00  0.00     0.000 C 
BRANCH  11  12
ATOM     12  C   UNL     1       1.600  -5.083  -5.484  1.00  0.00     0.000 C 
BRANCH  12  13
ATOM     13  C   UNL     1       0.134  -5.552  -5.432  1.00  0.00     0.006 C 
BRANCH  13  14
ATOM     14  C   UNL     1      -0.828  -4.456  -4.955  1.00  0.00     0.053 C 
BRANCH  14  15
ATOM     15  C   UNL     1      -1.376  -3.685  -6.117  1.00  0.00     0.041 C 
ATOM     16  O   UNL     1      -1.009  -2.496  -6.317  1.00  0.00    -0.550 OA
ATOM     17  O   UNL     1      -2.258  -4.291  -7.003  1.00  0.00    -0.550 OA
ENDBRANCH  14  15
ENDBRANCH  13  14
ENDBRANCH  12  13
ENDBRANCH  11  12
ENDBRANCH  10  11
ENDBRANCH   9  10
ENDBRANCH   8   9
ENDBRANCH   7   8
ENDBRANCH   6   7
ENDBRANCH   5   6
ENDBRANCH   4   5
ENDBRANCH   3   4
ENDBRANCH   2   3
ENDBRANCH   1   2
BRANCH   1  18
ATOM     18  C   UNL     1       4.795  -2.287  -5.448  1.00  0.00     0.000 C 
BRANCH  18  19
ATOM     19  C   UNL     1       5.694  -3.030  -4.443  1.00  0.00     0.000 C 
BRANCH  19  20
ATOM     20  C   UNL     1       7.066  -2.359  -4.268  1.00  0.00     0.000 C 
BRANCH  20  21
ATOM     21  C   UNL     1       8.234  -3.318  -4.556  1.00  0.00     0.000 C 
BRANCH  21  22
ATOM     22  C   UNL     1       8.996  -2.953  -5.841  1.00  0.00     0.000 C 
BRANCH  22  23
ATOM     23  C   UNL     1       8.747  -1.505  -6.288  1.00  0.00     0.000 C 
BRANCH  23  24
ATOM     24  C   UNL     1       8.036  -1.466  -7.650  1.00  0.00    -0.000 C 
BRANCH  24  25
ATOM     25  C   UNL     1       7.312  -0.133  -7.903  1.00  0.00    -0.000 C 
BRANCH  25  26
ATOM     26  C   UNL     1       7.051   0.651  -6.605  1.00  0.00    -0.000 C 
BRANCH  26  27
ATOM     27  C   UNL     1       5.820   1.570  -6.702  1.00  0.00    -0.000 C 
BRANCH  27  28
ATOM     28  C   UNL     1       4.532   0.881  -7.192  1.00  0.00    -0.000 C 
BRANCH  28  29
ATOM     29  C   UNL     1       3.265   1.322  -6.429  1.00  0.00    -0.000 C 
BRANCH  29  30
ATOM     30  C   UNL     1       3.396   1.103  -4.912  1.00  0.00    -0.000 C 
BRANCH  30  31
ATOM     31  C   UNL     1       2.915   2.317  -4.102  1.00  0.00    -0.003 C 
ATOM     32  C   UNL     1       2.843   3.591  -4.944  1.00  0.00     0.004 C 
ENDBRANCH  30  31
ENDBRANCH  29  30
ENDBRANCH  28  29
ENDBRANCH  27  28
ENDBRANCH  26  27
ENDBRANCH  25  26
ENDBRANCH  24  25
ENDBRANCH  23  24
ENDBRANCH  22  23
ENDBRANCH  21  22
ENDBRANCH  20  21
ENDBRANCH  19  20
ENDBRANCH  18  19
ENDBRANCH   1  18
TORSDOF 28
ENDMDL
MODEL 2
REMARK VINA RESULT:    -2.868      1.309      1.980
REMARK INTER + INTRA:         -13.275
REMARK INTER:                  -7.909
REMARK INTRA:                  -5.366
REMARK UNBOUND:                -5.713
REMARK SMILES CCCCCCCCCCCCCCCCCCCCCCCCCCCCCC(=O)[O-]
REMARK SMILES IDX 16 1 17 2 18 3 19 4 20 5 21 6 22 7 23 8 24 9 25 10 26 11
REMARK SMILES IDX 27 12 28 13 29 14 30 15 31 16 32 17 15 18 14 19 13 20 12 21
REMARK SMILES IDX 11 22 10 23 9 24 8 25 7 26 6 27 5 28 4 29 3 30 2 31 1 32
REMARK H PARENT
REMARK Flexibility Score: inf
ROOT
ATOM      1  C   UNL     1       4.934  -2.589  -6.347  1.00  0.00     0.000 C 
ENDROOT
BRANCH   1   2
ATOM      2  C   UNL     1       3.539  -3.082  -6.775  1.00  0.00     0.000 C 
BRANCH   2   3
ATOM      3  C   UNL     1       3.553  -4.535  -7.276  1.00  0.00     0.000 C 
BRANCH   3   4
ATOM      4  C   UNL     1       4.917  -5.218  -7.063  1.00  0.00     0.000 C 
BRANCH   4   5
ATOM      5  C   UNL     1       4.778  -6.700  -6.679  1.00  0.00     0.000 C 
BRANCH   5   6
ATOM      6  C   UNL     1       5.649  -7.078  -5.467  1.00  0.00     0.000 C 
BRANCH   6   7
ATOM      7  C   UNL     1       5.564  -6.043  -4.333  1.00  0.00     0.000 C 
BRANCH   7   8
ATOM      8  C   UNL     1       4.797  -6.570  -3.106  1.00  0.00     0.000 C 
BRANCH   8   9
ATOM      9  C   UNL     1       3.668  -5.624  -2.665  1.00  0.00     0.000 C 
BRANCH   9  10
ATOM     10  C   UNL     1       2.777  -5.184  -3.839  1.00  0.00     0.000 C 
BRANCH  10  11
ATOM     11  C   UNL     1       1.896  -6.323  -4.379  1.00  0.00     0.000 C 
BRANCH  11  12
ATOM     12  C   UNL     1       0.748  -5.874  -5.308  1.00  0.00     0.000 C 
BRANCH  12  13
ATOM     13  C   UNL     1       0.159  -4.487  -4.994  1.00  0.00     0.006 C 
BRANCH  13  14
ATOM     14  C   UNL     1      -0.937  -4.065  -5.982  1.00  0.00     0.053 C 
BRANCH  14  15
ATOM     15  C   UNL     1      -0.485  -2.906  -6.817  1.00  0.00     0.041 C 
ATOM     16  O   UNL     1       0.114  -3.106  -7.907  1.00  0.00    -0.550 OA
ATOM     17  O   UNL     1      -0.763  -1.605  -6.414  1.00  0.00    -0.550 OA
ENDBRANCH  14  15
ENDBRANCH  13  14
ENDBRANCH  12  13
ENDBRANCH  11  12
ENDBRANCH  10  11
ENDBRANCH   9  10
ENDBRANCH   8   9
ENDBRANCH   7   8
ENDBRANCH   6   7
ENDBRANCH   5   6
ENDBRANCH   4   5
ENDBRANCH   3   4
ENDBRANCH   2   3
ENDBRANCH   1   2
BRANCH   1  18
ATOM     18  C   UNL     1       5.035  -2.336  -4.834  1.00  0.00     0.000 C 
BRANCH  18  19
ATOM     19  C   UNL     1       6.418  -2.701  -4.267  1.00  0.00     0.000 C 
BRANCH  19  20
ATOM     20  C   UNL     1       7.448  -3.005  -5.368  1.00  0.00     0.000 C 
BRANCH  20  21
ATOM     21  C   UNL     1       8.728  -3.656  -4.816  1.00  0.00     0.000 C 
BRANCH  21  22
ATOM     22  C   UNL     1       9.970  -2.770  -5.004  1.00  0.00     0.000 C 
BRANCH  22  23
ATOM     23  C   UNL     1       9.893  -1.461  -4.203  1.00  0.00     0.000 C 
BRANCH  23  24
ATOM     24  C   UNL     1      10.583  -0.314  -4.959  1.00  0.00    -0.000 C 
BRANCH  24  25
ATOM     25  C   UNL     1       9.589   0.744  -5.466  1.00  0.00    -0.000 C 
BRANCH  25  26
ATOM     26  C   UNL     1       9.390   0.681  -6.991  1.00  0.00    -0.000 C 
BRANCH  26  27
ATOM     27  C   UNL     1       8.029   0.082  -7.389  1.00  0.00    -0.000 C 
BRANCH  27  28
ATOM     28  C   UNL     1       6.848   0.499  -6.492  1.00  0.00    -0.000 C 
BRANCH  28  29
ATOM     29  C   UNL     1       5.706   1.200  -7.258  1.00  0.00    -0.000 C 
BRANCH  29  30
ATOM     30  C   UNL     1       4.784   1.999  -6.322  1.00  0.00    -0.000 C 
BRANCH  30  31
ATOM     31  C   UNL     1       3.951   1.089  -5.406  1.00  0.00    -0.003 C 
ATOM     32  C   UNL     1       3.007   1.877  -4.499  1.00  0.00     0.004 C 
ENDBRANCH  30  31
ENDBRANCH  29  30
ENDBRANCH  28  29
ENDBRANCH  27  28
ENDBRANCH  26  27
ENDBRANCH  25  26
ENDBRANCH  24  25
ENDBRANCH  23  24
ENDBRANCH  22  23
ENDBRANCH  21  22
ENDBRANCH  20  21
ENDBRANCH  19  20
ENDBRANCH  18  19
ENDBRANCH   1  18
TORSDOF 28
ENDMDL
MODEL 3
REMARK VINA RESULT:    -2.851     11.053     14.533
REMARK INTER + INTRA:         -13.232
REMARK INTER:                  -7.993
REMARK INTRA:                  -5.239
REMARK UNBOUND:                -5.713
REMARK SMILES CCCCCCCCCCCCCCCCCCCCCCCCCCCCCC(=O)[O-]
REMARK SMILES IDX 16 1 17 2 18 3 19 4 20 5 21 6 22 7 23 8 24 9 25 10 26 11
REMARK SMILES IDX 27 12 28 13 29 14 30 15 31 16 32 17 15 18 14 19 13 20 12 21
REMARK SMILES IDX 11 22 10 23 9 24 8 25 7 26 6 27 5 28 4 29 3 30 2 31 1 32
REMARK H PARENT
REMARK Flexibility Score: inf
ROOT
ATOM      1  C   UNL     1       2.750   3.027   4.527  1.00  0.00     0.000 C 
ENDROOT
BRANCH   1   2
ATOM      2  C   UNL     1       3.306   3.358   3.129  1.00  0.00     0.000 C 
BRANCH   2   3
ATOM      3  C   UNL     1       4.286   4.543   3.148  1.00  0.00     0.000 C 
BRANCH   3   4
ATOM      4  C   UNL     1       4.239   5.366   1.848  1.00  0.00     0.000 C 
BRANCH   4   5
ATOM      5  C   UNL     1       5.526   5.228   1.019  1.00  0.00     0.000 C 
BRANCH   5   6
ATOM      6  C   UNL     1       5.692   6.366  -0.004  1.00  0.00     0.000 C 
BRANCH   6   7
ATOM      7  C   UNL     1       4.897   7.625   0.379  1.00  0.00     0.000 C 
BRANCH   7   8
ATOM      8  C   UNL     1       5.797   8.762   0.896  1.00  0.00     0.000 C 
BRANCH   8   9
ATOM      9  C   UNL     1       5.201   9.477   2.120  1.00  0.00     0.000 C 
BRANCH   9  10
ATOM     10  C   UNL     1       5.018   8.534   3.321  1.00  0.00     0.000 C 
BRANCH  10  11
ATOM     11  C   UNL     1       6.314   8.330   4.123  1.00  0.00     0.000 C 
BRANCH  11  12
ATOM     12  C   UNL     1       6.896   6.902   4.067  1.00  0.00     0.000 C 
BRANCH  12  13
ATOM     13  C   UNL     1       8.395   6.821   3.724  1.00  0.00     0.006 C 
BRANCH  13  14
ATOM     14  C   UNL     1       8.655   6.610   2.227  1.00  0.00     0.053 C 
BRANCH  14  15
ATOM     15  C   UNL     1       9.345   5.302   1.984  1.00  0.00     0.041 C 
ATOM     16  O   UNL     1      10.193   4.870   2.809  1.00  0.00    -0.550 OA
ATOM     17  O   UNL     1       9.021   4.539   0.868  1.00  0.00    -0.550 OA
ENDBRANCH  14  15
ENDBRANCH  13  14
ENDBRANCH  12  13
ENDBRANCH  11  12
ENDBRANCH  10  11
ENDBRANCH   9  10
ENDBRANCH   8   9
ENDBRANCH   7   8
ENDBRANCH   6   7
ENDBRANCH   5   6
ENDBRANCH   4   5
ENDBRANCH   3   4
ENDBRANCH   2   3
ENDBRANCH   1   2
BRANCH   1  18
ATOM     18  C   UNL     1       3.830   3.073   5.620  1.00  0.00     0.000 C 
BRANCH  18  19
ATOM     19  C   UNL     1       3.552   4.158   6.676  1.00  0.00     0.000 C 
BRANCH  19  20
ATOM     20  C   UNL     1       4.457   5.390   6.512  1.00  0.00     0.000 C 
BRANCH  20  21
ATOM     21  C   UNL     1       3.662   6.668   6.190  1.00  0.00     0.000 C 
BRANCH  21  22
ATOM     22  C   UNL     1       2.205   6.375   5.796  1.00  0.00     0.000 C 
BRANCH  22  23
ATOM     23  C   UNL     1       1.745   7.185   4.574  1.00  0.00     0.000 C 
BRANCH  23  24
ATOM     24  C   UNL     1       0.890   6.321   3.633  1.00  0.00    -0.000 C 
BRANCH  24  25
ATOM     25  C   UNL     1       0.019   5.305   4.390  1.00  0.00    -0.000 C 
BRANCH  25  26
ATOM     26  C   UNL     1      -1.329   5.900   4.833  1.00  0.00    -0.000 C 
BRANCH  26  27
ATOM     27  C   UNL     1      -2.521   5.318   4.051  1.00  0.00    -0.000 C 
BRANCH  27  28
ATOM     28  C   UNL     1      -3.436   6.366   3.388  1.00  0.00    -0.000 C 
BRANCH  28  29
ATOM     29  C   UNL     1      -3.022   6.725   1.945  1.00  0.00    -0.000 C 
BRANCH  29  30
ATOM     30  C   UNL     1      -2.283   5.570   1.249  1.00  0.00    -0.000 C 
BRANCH  30  31
ATOM     31  C   UNL     1      -2.694   5.416  -0.224  1.00  0.00    -0.003 C 
ATOM     32  C   UNL     1      -2.797   3.953  -0.652  1.00  0.00     0.004 C 
ENDBRANCH  30  31
ENDBRANCH  29  30
ENDBRANCH  28  29
ENDBRANCH  27  28
ENDBRANCH  26  27
ENDBRANCH  25  26
ENDBRANCH  24  25
ENDBRANCH  23  24
ENDBRANCH  22  23
ENDBRANCH  21  22
ENDBRANCH  20  21
ENDBRANCH  19  20
ENDBRANCH  18  19
ENDBRANCH   1  18
TORSDOF 28
ENDMDL
MODEL 4
REMARK VINA RESULT:    -2.831      2.196      7.595
REMARK INTER + INTRA:         -13.179
REMARK INTER:                  -7.995
REMARK INTRA:                  -5.184
REMARK UNBOUND:                -5.713
REMARK SMILES CCCCCCCCCCCCCCCCCCCCCCCCCCCCCC(=O)[O-]
REMARK SMILES IDX 16 1 17 2 18 3 19 4 20 5 21 6 22 7 23 8 24 9 25 10 26 11
REMARK SMILES IDX 27 12 28 13 29 14 30 15 31 16 32 17 15 18 14 19 13 20 12 21
REMARK SMILES IDX 11 22 10 23 9 24 8 25 7 26 6 27 5 28 4 29 3 30 2 31 1 32
REMARK H PARENT
REMARK Flexibility Score: inf
ROOT
ATOM      1  C   UNL     1       4.778  -2.504  -5.050  1.00  0.00     0.000 C 
ENDROOT
BRANCH   1   2
ATOM      2  C   UNL     1       6.178  -2.655  -4.426  1.00  0.00     0.000 C 
BRANCH   2   3
ATOM      3  C   UNL     1       7.155  -3.413  -5.341  1.00  0.00     0.000 C 
BRANCH   3   4
ATOM      4  C   UNL     1       8.587  -2.854  -5.264  1.00  0.00     0.000 C 
BRANCH   4   5
ATOM      5  C   UNL     1       8.802  -1.958  -4.033  1.00  0.00     0.000 C 
BRANCH   5   6
ATOM      6  C   UNL     1      10.169  -1.250  -4.052  1.00  0.00     0.000 C 
BRANCH   6   7
ATOM      7  C   UNL     1      10.453  -0.551  -5.393  1.00  0.00     0.000 C 
BRANCH   7   8
ATOM      8  C   UNL     1      10.124   0.953  -5.359  1.00  0.00     0.000 C 
BRANCH   8   9
ATOM      9  C   UNL     1       8.927   1.315  -6.254  1.00  0.00     0.000 C 
BRANCH   9  10
ATOM     10  C   UNL     1       8.645   0.245  -7.322  1.00  0.00     0.000 C 
BRANCH  10  11
ATOM     11  C   UNL     1       7.155  -0.123  -7.420  1.00  0.00     0.000 C 
BRANCH  11  12
ATOM     12  C   UNL     1       6.265   0.469  -6.307  1.00  0.00     0.000 C 
BRANCH  12  13
ATOM     13  C   UNL     1       4.812   0.765  -6.721  1.00  0.00     0.006 C 
BRANCH  13  14
ATOM     14  C   UNL     1       4.214   1.971  -5.983  1.00  0.00     0.053 C 
BRANCH  14  15
ATOM     15  C   UNL     1       2.850   1.650  -5.454  1.00  0.00     0.041 C 
ATOM     16  O   UNL     1       2.002   1.082  -6.193  1.00  0.00    -0.550 OA
ATOM     17  O   UNL     1       2.528   1.939  -4.134  1.00  0.00    -0.550 OA
ENDBRANCH  14  15
ENDBRANCH  13  14
ENDBRANCH  12  13
ENDBRANCH  11  12
ENDBRANCH  10  11
ENDBRANCH   9  10
ENDBRANCH   8   9
ENDBRANCH   7   8
ENDBRANCH   6   7
ENDBRANCH   5   6
ENDBRANCH   4   5
ENDBRANCH   3   4
ENDBRANCH   2   3
ENDBRANCH   1   2
BRANCH   1  18
ATOM     18  C   UNL     1       4.715  -3.026  -6.495  1.00  0.00     0.000 C 
BRANCH  18  19
ATOM     19  C   UNL     1       3.467  -3.890  -6.754  1.00  0.00     0.000 C 
BRANCH  19  20
ATOM     20  C   UNL     1       3.252  -4.958  -5.669  1.00  0.00     0.000 C 
BRANCH  20  21
ATOM     21  C   UNL     1       4.347  -6.039  -5.678  1.00  0.00     0.000 C 
BRANCH  21  22
ATOM     22  C   UNL     1       4.714  -6.521  -4.265  1.00  0.00     0.000 C 
BRANCH  22  23
ATOM     23  C   UNL     1       4.182  -5.593  -3.163  1.00  0.00     0.000 C 
BRANCH  23  24
ATOM     24  C   UNL     1       3.408  -6.389  -2.100  1.00  0.00    -0.000 C 
BRANCH  24  25
ATOM     25  C   UNL     1       3.291  -7.883  -2.448  1.00  0.00    -0.000 C 
BRANCH  25  26
ATOM     26  C   UNL     1       1.947  -8.487  -2.006  1.00  0.00    -0.000 C 
BRANCH  26  27
ATOM     27  C   UNL     1       0.992  -8.740  -3.186  1.00  0.00    -0.000 C 
BRANCH  27  28
ATOM     28  C   UNL     1       1.675  -8.842  -4.564  1.00  0.00    -0.000 C 
BRANCH  28  29
ATOM     29  C   UNL     1       1.066  -7.904  -5.628  1.00  0.00    -0.000 C 
BRANCH  29  30
ATOM     30  C   UNL     1      -0.110  -7.083  -5.072  1.00  0.00    -0.000 C 
BRANCH  30  31
ATOM     31  C   UNL     1      -0.298  -5.753  -5.818  1.00  0.00    -0.003 C 
ATOM     32  C   UNL     1      -0.346  -4.553  -4.872  1.00  0.00     0.004 C 
ENDBRANCH  30  31
ENDBRANCH  29  30
ENDBRANCH  28  29
ENDBRANCH  27  28
ENDBRANCH  26  27
ENDBRANCH  25  26
ENDBRANCH  24  25
ENDBRANCH  23  24
ENDBRANCH  22  23
ENDBRANCH  21  22
ENDBRANCH  20  21
ENDBRANCH  19  20
ENDBRANCH  18  19
ENDBRANCH   1  18
TORSDOF 28
ENDMDL
MODEL 5
REMARK VINA RESULT:    -2.822      2.391      7.264
REMARK INTER + INTRA:         -13.154
REMARK INTER:                  -8.287
REMARK INTRA:                  -4.866
REMARK UNBOUND:                -5.713
REMARK SMILES CCCCCCCCCCCCCCCCCCCCCCCCCCCCCC(=O)[O-]
REMARK SMILES IDX 16 1 17 2 18 3 19 4 20 5 21 6 22 7 23 8 24 9 25 10 26 11
REMARK SMILES IDX 27 12 28 13 29 14 30 15 31 16 32 17 15 18 14 19 13 20 12 21
REMARK SMILES IDX 11 22 10 23 9 24 8 25 7 26 6 27 5 28 4 29 3 30 2 31 1 32
REMARK H PARENT
REMARK Flexibility Score: inf
ROOT
ATOM      1  C   UNL     1       6.301  -2.636  -4.497  1.00  0.00     0.000 C 
ENDROOT
BRANCH   1   2
ATOM      2  C   UNL     1       7.358  -3.438  -5.278  1.00  0.00     0.000 C 
BRANCH   2   3
ATOM      3  C   UNL     1       8.796  -3.073  -4.873  1.00  0.00     0.000 C 
BRANCH   3   4
ATOM      4  C   UNL     1       8.843  -1.950  -3.821  1.00  0.00     0.000 C 
BRANCH   4   5
ATOM      5  C   UNL     1      10.205  -1.238  -3.781  1.00  0.00     0.000 C 
BRANCH   5   6
ATOM      6  C   UNL     1      10.593  -0.634  -5.143  1.00  0.00     0.000 C 
BRANCH   6   7
ATOM      7  C   UNL     1      10.162   0.836  -5.281  1.00  0.00     0.000 C 
BRANCH   7   8
ATOM      8  C   UNL     1       9.264   1.079  -6.507  1.00  0.00     0.000 C 
BRANCH   8   9
ATOM      9  C   UNL     1       8.724  -0.228  -7.111  1.00  0.00     0.000 C 
BRANCH   9  10
ATOM     10  C   UNL     1       7.253  -0.112  -7.546  1.00  0.00     0.000 C 
BRANCH  10  11
ATOM     11  C   UNL     1       6.335   0.386  -6.417  1.00  0.00     0.000 C 
BRANCH  11  12
ATOM     12  C   UNL     1       5.522   1.654  -6.753  1.00  0.00     0.000 C 
BRANCH  12  13
ATOM     13  C   UNL     1       4.169   1.773  -6.027  1.00  0.00     0.006 C 
BRANCH  13  14
ATOM     14  C   UNL     1       3.828   3.216  -5.631  1.00  0.00     0.053 C 
BRANCH  14  15
ATOM     15  C   UNL     1       2.628   3.254  -4.735  1.00  0.00     0.041 C 
ATOM     16  O   UNL     1       1.862   4.254  -4.744  1.00  0.00    -0.550 OA
ATOM     17  O   UNL     1       2.330   2.167  -3.921  1.00  0.00    -0.550 OA
ENDBRANCH  14  15
ENDBRANCH  13  14
ENDBRANCH  12  13
ENDBRANCH  11  12
ENDBRANCH  10  11
ENDBRANCH   9  10
ENDBRANCH   8   9
ENDBRANCH   7   8
ENDBRANCH   6   7
ENDBRANCH   5   6
ENDBRANCH   4   5
ENDBRANCH   3   4
ENDBRANCH   2   3
ENDBRANCH   1   2
BRANCH   1  18
ATOM     18  C   UNL     1       4.862  -3.022  -4.880  1.00  0.00     0.000 C 
BRANCH  18  19
ATOM     19  C   UNL     1       4.597  -2.879  -6.390  1.00  0.00     0.000 C 
BRANCH  19  20
ATOM     20  C   UNL     1       3.587  -1.766  -6.711  1.00  0.00     0.000 C 
BRANCH  20  21
ATOM     21  C   UNL     1       3.391  -1.564  -8.224  1.00  0.00     0.000 C 
BRANCH  21  22
ATOM     22  C   UNL     1       2.455  -0.388  -8.547  1.00  0.00     0.000 C 
BRANCH  22  23
ATOM     23  C   UNL     1       1.257  -0.300  -7.590  1.00  0.00     0.000 C 
BRANCH  23  24
ATOM     24  C   UNL     1       0.192  -1.349  -7.947  1.00  0.00    -0.000 C 
BRANCH  24  25
ATOM     25  C   UNL     1      -0.353  -2.084  -6.711  1.00  0.00    -0.000 C 
BRANCH  25  26
ATOM     26  C   UNL     1      -0.420  -3.608  -6.914  1.00  0.00    -0.000 C 
BRANCH  26  27
ATOM     27  C   UNL     1       0.966  -4.239  -7.143  1.00  0.00    -0.000 C 
BRANCH  27  28
ATOM     28  C   UNL     1       1.306  -5.416  -6.209  1.00  0.00    -0.000 C 
BRANCH  28  29
ATOM     29  C   UNL     1       1.768  -4.978  -4.803  1.00  0.00    -0.000 C 
BRANCH  29  30
ATOM     30  C   UNL     1       2.400  -6.137  -4.013  1.00  0.00    -0.000 C 
BRANCH  30  31
ATOM     31  C   UNL     1       3.244  -5.645  -2.827  1.00  0.00    -0.003 C 
ATOM     32  C   UNL     1       4.699  -6.102  -2.915  1.00  0.00     0.004 C 
ENDBRANCH  30  31
ENDBRANCH  29  30
ENDBRANCH  28  29
ENDBRANCH  27  28
ENDBRANCH  26  27
ENDBRANCH  25  26
ENDBRANCH  24  25
ENDBRANCH  23  24
ENDBRANCH  22  23
ENDBRANCH  21  22
ENDBRANCH  20  21
ENDBRANCH  19  20
ENDBRANCH  18  19
ENDBRANCH   1  18
TORSDOF 28
ENDMDL
MODEL 6
REMARK VINA RESULT:    -2.816     11.175     14.042
REMARK INTER + INTRA:         -13.138
REMARK INTER:                  -8.202
REMARK INTRA:                  -4.935
REMARK UNBOUND:                -5.713
REMARK SMILES CCCCCCCCCCCCCCCCCCCCCCCCCCCCCC(=O)[O-]
REMARK SMILES IDX 16 1 17 2 18 3 19 4 20 5 21 6 22 7 23 8 24 9 25 10 26 11
REMARK SMILES IDX 27 12 28 13 29 14 30 15 31 16 32 17 15 18 14 19 13 20 12 21
REMARK SMILES IDX 11 22 10 23 9 24 8 25 7 26 6 27 5 28 4 29 3 30 2 31 1 32
REMARK H PARENT
REMARK Flexibility Score: inf
ROOT
ATOM      1  C   UNL     1       3.947   3.797   2.967  1.00  0.00     0.000 C 
ENDROOT
BRANCH   1   2
ATOM      2  C   UNL     1       4.114   5.323   3.086  1.00  0.00     0.000 C 
BRANCH   2   3
ATOM      3  C   UNL     1       4.083   6.030   1.721  1.00  0.00     0.000 C 
BRANCH   3   4
ATOM      4  C   UNL     1       3.041   7.161   1.667  1.00  0.00     0.000 C 
BRANCH   4   5
ATOM      5  C   UNL     1       2.968   7.955   2.982  1.00  0.00     0.000 C 
BRANCH   5   6
ATOM      6  C   UNL     1       1.540   8.436   3.300  1.00  0.00     0.000 C 
BRANCH   6   7
ATOM      7  C   UNL     1       0.461   7.492   2.744  1.00  0.00     0.000 C 
BRANCH   7   8
ATOM      8  C   UNL     1      -0.675   7.230   3.750  1.00  0.00     0.000 C 
BRANCH   8   9
ATOM      9  C   UNL     1      -1.508   5.990   3.389  1.00  0.00     0.000 C 
BRANCH   9  10
ATOM     10  C   UNL     1      -2.853   6.352   2.737  1.00  0.00     0.000 C 
BRANCH  10  11
ATOM     11  C   UNL     1      -2.858   6.133   1.215  1.00  0.00     0.000 C 
BRANCH  11  12
ATOM     12  C   UNL     1      -2.477   4.708   0.762  1.00  0.00     0.000 C 
BRANCH  12  13
ATOM     13  C   UNL     1      -2.709   4.414  -0.731  1.00  0.00     0.006 C 
BRANCH  13  14
ATOM     14  C   UNL     1      -3.300   5.608  -1.491  1.00  0.00     0.053 C 
BRANCH  14  15
ATOM     15  C   UNL     1      -2.267   6.248  -2.367  1.00  0.00     0.041 C 
ATOM     16  O   UNL     1      -2.606   7.104  -3.226  1.00  0.00    -0.550 OA
ATOM     17  O   UNL     1      -0.923   5.930  -2.207  1.00  0.00    -0.550 OA
ENDBRANCH  14  15
ENDBRANCH  13  14
ENDBRANCH  12  13
ENDBRANCH  11  12
ENDBRANCH  10  11
ENDBRANCH   9  10
ENDBRANCH   8   9
ENDBRANCH   7   8
ENDBRANCH   6   7
ENDBRANCH   5   6
ENDBRANCH   4   5
ENDBRANCH   3   4
ENDBRANCH   2   3
ENDBRANCH   1   2
BRANCH   1  18
ATOM     18  C   UNL     1       2.720   3.275   3.733  1.00  0.00     0.000 C 
BRANCH  18  19
ATOM     19  C   UNL     1       1.760   4.405   4.148  1.00  0.00     0.000 C 
BRANCH  19  20
ATOM     20  C   UNL     1       0.991   4.084   5.440  1.00  0.00     0.000 C 
BRANCH  20  21
ATOM     21  C   UNL     1       1.372   5.020   6.601  1.00  0.00     0.000 C 
BRANCH  21  22
ATOM     22  C   UNL     1       2.266   6.187   6.152  1.00  0.00     0.000 C 
BRANCH  22  23
ATOM     23  C   UNL     1       3.539   6.323   7.002  1.00  0.00     0.000 C 
BRANCH  23  24
ATOM     24  C   UNL     1       4.578   5.261   6.609  1.00  0.00    -0.000 C 
BRANCH  24  25
ATOM     25  C   UNL     1       5.137   4.501   7.823  1.00  0.00    -0.000 C 
BRANCH  25  26
ATOM     26  C   UNL     1       4.446   3.143   8.037  1.00  0.00    -0.000 C 
BRANCH  26  27
ATOM     27  C   UNL     1       4.464   2.261   6.775  1.00  0.00    -0.000 C 
BRANCH  27  28
ATOM     28  C   UNL     1       4.595   0.749   7.040  1.00  0.00    -0.000 C 
BRANCH  28  29
ATOM     29  C   UNL     1       3.278  -0.031   6.842  1.00  0.00    -0.000 C 
BRANCH  29  30
ATOM     30  C   UNL     1       2.150   0.863   6.299  1.00  0.00    -0.000 C 
BRANCH  30  31
ATOM     31  C   UNL     1       0.883   0.064   5.958  1.00  0.00    -0.003 C 
ATOM     32  C   UNL     1      -0.375   0.666   6.584  1.00  0.00     0.004 C 
ENDBRANCH  30  31
ENDBRANCH  29  30
ENDBRANCH  28  29
ENDBRANCH  27  28
ENDBRANCH  26  27
ENDBRANCH  25  26
ENDBRANCH  24  25
ENDBRANCH  23  24
ENDBRANCH  22  23
ENDBRANCH  21  22
ENDBRANCH  20  21
ENDBRANCH  19  20
ENDBRANCH  18  19
ENDBRANCH   1  18
TORSDOF 28
ENDMDL
MODEL 7
REMARK VINA RESULT:    -2.792     11.926     14.615
REMARK INTER + INTRA:         -13.076
REMARK INTER:                  -8.017
REMARK INTRA:                  -5.059
REMARK UNBOUND:                -5.713
REMARK SMILES CCCCCCCCCCCCCCCCCCCCCCCCCCCCCC(=O)[O-]
REMARK SMILES IDX 16 1 17 2 18 3 19 4 20 5 21 6 22 7 23 8 24 9 25 10 26 11
REMARK SMILES IDX 27 12 28 13 29 14 30 15 31 16 32 17 15 18 14 19 13 20 12 21
REMARK SMILES IDX 11 22 10 23 9 24 8 25 7 26 6 27 5 28 4 29 3 30 2 31 1 32
REMARK H PARENT
REMARK Flexibility Score: inf
ROOT
ATOM      1  C   UNL     1       3.723   5.004   2.948  1.00  0.00     0.000 C 
ENDROOT
BRANCH   1   2
ATOM      2  C   UNL     1       3.579   3.538   3.398  1.00  0.00     0.000 C 
BRANCH   2   3
ATOM      3  C   UNL     1       3.929   3.338   4.882  1.00  0.00     0.000 C 
BRANCH   3   4
ATOM      4  C   UNL     1       2.766   2.729   5.684  1.00  0.00     0.000 C 
BRANCH   4   5
ATOM      5  C   UNL     1       1.810   1.909   4.802  1.00  0.00     0.000 C 
BRANCH   5   6
ATOM      6  C   UNL     1       1.246   0.676   5.533  1.00  0.00     0.000 C 
BRANCH   6   7
ATOM      7  C   UNL     1       0.919   0.962   7.008  1.00  0.00     0.000 C 
BRANCH   7   8
ATOM      8  C   UNL     1       1.663   0.022   7.974  1.00  0.00     0.000 C 
BRANCH   8   9
ATOM      9  C   UNL     1       2.658  -0.900   7.251  1.00  0.00     0.000 C 
BRANCH   9  10
ATOM     10  C   UNL     1       4.087  -0.774   7.804  1.00  0.00     0.000 C 
BRANCH  10  11
ATOM     11  C   UNL     1       5.001   0.078   6.908  1.00  0.00     0.000 C 
BRANCH  11  12
ATOM     12  C   UNL     1       5.619   1.313   7.596  1.00  0.00     0.000 C 
BRANCH  12  13
ATOM     13  C   UNL     1       4.763   1.933   8.715  1.00  0.00     0.006 C 
BRANCH  13  14
ATOM     14  C   UNL     1       5.512   3.006   9.517  1.00  0.00     0.053 C 
BRANCH  14  15
ATOM     15  C   UNL     1       6.199   3.974   8.602  1.00  0.00     0.041 C 
ATOM     16  O   UNL     1       7.457   4.015   8.552  1.00  0.00    -0.550 OA
ATOM     17  O   UNL     1       5.450   4.801   7.773  1.00  0.00    -0.550 OA
ENDBRANCH  14  15
ENDBRANCH  13  14
ENDBRANCH  12  13
ENDBRANCH  11  12
ENDBRANCH  10  11
ENDBRANCH   9  10
ENDBRANCH   8   9
ENDBRANCH   7   8
ENDBRANCH   6   7
ENDBRANCH   5   6
ENDBRANCH   4   5
ENDBRANCH   3   4
ENDBRANCH   2   3
ENDBRANCH   1   2
BRANCH   1  18
ATOM     18  C   UNL     1       2.940   5.978   3.844  1.00  0.00     0.000 C 
BRANCH  18  19
ATOM     19  C   UNL     1       1.480   6.153   3.389  1.00  0.00     0.000 C 
BRANCH  19  20
ATOM     20  C   UNL     1       0.486   5.392   4.282  1.00  0.00     0.000 C 
BRANCH  20  21
ATOM     21  C   UNL     1       0.609   5.780   5.766  1.00  0.00     0.000 C 
BRANCH  21  22
ATOM     22  C   UNL     1      -0.211   4.861   6.687  1.00  0.00     0.000 C 
BRANCH  22  23
ATOM     23  C   UNL     1      -1.034   3.822   5.911  1.00  0.00     0.000 C 
BRANCH  23  24
ATOM     24  C   UNL     1      -2.507   3.850   6.349  1.00  0.00    -0.000 C 
BRANCH  24  25
ATOM     25  C   UNL     1      -3.466   4.139   5.182  1.00  0.00    -0.000 C 
BRANCH  25  26
ATOM     26  C   UNL     1      -3.813   5.633   5.062  1.00  0.00    -0.000 C 
BRANCH  26  27
ATOM     27  C   UNL     1      -3.349   6.246   3.728  1.00  0.00    -0.000 C 
BRANCH  27  28
ATOM     28  C   UNL     1      -2.852   5.228   2.684  1.00  0.00    -0.000 C 
BRANCH  28  29
ATOM     29  C   UNL     1      -2.113   5.874   1.492  1.00  0.00    -0.000 C 
BRANCH  29  30
ATOM     30  C   UNL     1      -3.085   6.491   0.473  1.00  0.00    -0.000 C 
BRANCH  30  31
ATOM     31  C   UNL     1      -3.158   5.681  -0.831  1.00  0.00    -0.003 C 
ATOM     32  C   UNL     1      -2.633   4.255  -0.663  1.00  0.00     0.004 C 
ENDBRANCH  30  31
ENDBRANCH  29  30
ENDBRANCH  28  29
ENDBRANCH  27  28
ENDBRANCH  26  27
ENDBRANCH  25  26
ENDBRANCH  24  25
ENDBRANCH  23  24
ENDBRANCH  22  23
ENDBRANCH  21  22
ENDBRANCH  20  21
ENDBRANCH  19  20
ENDBRANCH  18  19
ENDBRANCH   1  18
TORSDOF 28
ENDMDL
MODEL 8
REMARK VINA RESULT:    -2.787     10.958     14.236
REMARK INTER + INTRA:         -13.062
REMARK INTER:                  -8.181
REMARK INTRA:                  -4.881
REMARK UNBOUND:                -5.713
REMARK SMILES CCCCCCCCCCCCCCCCCCCCCCCCCCCCCC(=O)[O-]
REMARK SMILES IDX 16 1 17 2 18 3 19 4 20 5 21 6 22 7 23 8 24 9 25 10 26 11
REMARK SMILES IDX 27 12 28 13 29 14 30 15 31 16 32 17 15 18 14 19 13 20 12 21
REMARK SMILES IDX 11 22 10 23 9 24 8 25 7 26 6 27 5 28 4 29 3 30 2 31 1 32
REMARK H PARENT
REMARK Flexibility Score: inf
ROOT
ATOM      1  C   UNL     1       0.477   8.095  -0.062  1.00  0.00     0.000 C 
ENDROOT
BRANCH   1   2
ATOM      2  C   UNL     1       1.726   7.914   0.819  1.00  0.00     0.000 C 
BRANCH   2   3
ATOM      3  C   UNL     1       1.380   7.486   2.255  1.00  0.00     0.000 C 
BRANCH   3   4
ATOM      4  C   UNL     1       2.416   7.978   3.281  1.00  0.00     0.000 C 
BRANCH   4   5
ATOM      5  C   UNL     1       2.016   7.642   4.727  1.00  0.00     0.000 C 
BRANCH   5   6
ATOM      6  C   UNL     1       0.902   6.581   4.799  1.00  0.00     0.000 C 
BRANCH   6   7
ATOM      7  C   UNL     1       1.101   5.593   5.961  1.00  0.00     0.000 C 
BRANCH   7   8
ATOM      8  C   UNL     1       1.427   4.168   5.479  1.00  0.00     0.000 C 
BRANCH   8   9
ATOM      9  C   UNL     1       1.568   4.080   3.951  1.00  0.00     0.000 C 
BRANCH   9  10
ATOM     10  C   UNL     1       2.924   3.496   3.517  1.00  0.00     0.000 C 
BRANCH  10  11
ATOM     11  C   UNL     1       4.116   4.183   4.204  1.00  0.00     0.000 C 
BRANCH  11  12
ATOM     12  C   UNL     1       4.854   5.226   3.338  1.00  0.00     0.000 C 
BRANCH  12  13
ATOM     13  C   UNL     1       4.605   5.109   1.823  1.00  0.00     0.006 C 
BRANCH  13  14
ATOM     14  C   UNL     1       5.056   6.352   1.045  1.00  0.00     0.053 C 
BRANCH  14  15
ATOM     15  C   UNL     1       6.078   5.993   0.010  1.00  0.00     0.041 C 
ATOM     16  O   UNL     1       6.437   6.843  -0.847  1.00  0.00    -0.550 OA
ATOM     17  O   UNL     1       6.666   4.734   0.018  1.00  0.00    -0.550 OA
ENDBRANCH  14  15
ENDBRANCH  13  14
ENDBRANCH  12  13
ENDBRANCH  11  12
ENDBRANCH  10  11
ENDBRANCH   9  10
ENDBRANCH   8   9
ENDBRANCH   7   8
ENDBRANCH   6   7
ENDBRANCH   5   6
ENDBRANCH   4   5
ENDBRANCH   3   4
ENDBRANCH   2   3
ENDBRANCH   1   2
BRANCH   1  18
ATOM     18  C   UNL     1       0.711   7.662  -1.519  1.00  0.00     0.000 C 
BRANCH  18  19
ATOM     19  C   UNL     1      -0.599   7.309  -2.246  1.00  0.00     0.000 C 
BRANCH  19  20
ATOM     20  C   UNL     1      -1.808   8.085  -1.698  1.00  0.00     0.000 C 
BRANCH  20  21
ATOM     21  C   UNL     1      -3.150   7.463  -2.121  1.00  0.00     0.000 C 
BRANCH  21  22
ATOM     22  C   UNL     1      -2.997   6.028  -2.651  1.00  0.00     0.000 C 
BRANCH  22  23
ATOM     23  C   UNL     1      -3.487   4.970  -1.651  1.00  0.00     0.000 C 
BRANCH  23  24
ATOM     24  C   UNL     1      -2.333   4.481  -0.760  1.00  0.00    -0.000 C 
BRANCH  24  25
ATOM     25  C   UNL     1      -2.641   4.625   0.740  1.00  0.00    -0.000 C 
BRANCH  25  26
ATOM     26  C   UNL     1      -2.096   5.938   1.330  1.00  0.00    -0.000 C 
BRANCH  26  27
ATOM     27  C   UNL     1      -2.183   5.980   2.866  1.00  0.00    -0.000 C 
BRANCH  27  28
ATOM     28  C   UNL     1      -3.114   4.925   3.493  1.00  0.00    -0.000 C 
BRANCH  28  29
ATOM     29  C   UNL     1      -3.392   5.158   4.994  1.00  0.00    -0.000 C 
BRANCH  29  30
ATOM     30  C   UNL     1      -2.317   4.520   5.889  1.00  0.00    -0.000 C 
BRANCH  30  31
ATOM     31  C   UNL     1      -2.645   3.063   6.250  1.00  0.00    -0.003 C 
ATOM     32  C   UNL     1      -1.563   2.416   7.113  1.00  0.00     0.004 C 
ENDBRANCH  30  31
ENDBRANCH  29  30
ENDBRANCH  28  29
ENDBRANCH  27  28
ENDBRANCH  26  27
ENDBRANCH  25  26
ENDBRANCH  24  25
ENDBRANCH  23  24
ENDBRANCH  22  23
ENDBRANCH  21  22
ENDBRANCH  20  21
ENDBRANCH  19  20
ENDBRANCH  18  19
ENDBRANCH   1  18
TORSDOF 28
ENDMDL
MODEL 9
REMARK VINA RESULT:    -2.739      1.234      2.335
REMARK INTER + INTRA:         -12.935
REMARK INTER:                  -6.480
REMARK INTRA:                  -6.455
REMARK UNBOUND:                -5.713
REMARK SMILES CCCCCCCCCCCCCCCCCCCCCCCCCCCCCC(=O)[O-]
REMARK SMILES IDX 16 1 17 2 18 3 19 4 20 5 21 6 22 7 23 8 24 9 25 10 26 11
REMARK SMILES IDX 27 12 28 13 29 14 30 15 31 16 32 17 15 18 14 19 13 20 12 21
REMARK SMILES IDX 11 22 10 23 9 24 8 25 7 26 6 27 5 28 4 29 3 30 2 31 1 32
REMARK H PARENT
REMARK Flexibility Score: inf
ROOT
ATOM      1  C   UNL     1       4.306  -3.130  -5.511  1.00  0.00     0.000 C 
ENDROOT
BRANCH   1   2
ATOM      2  C   UNL     1       4.811  -3.583  -6.893  1.00  0.00     0.000 C 
BRANCH   2   3
ATOM      3  C   UNL     1       4.213  -4.930  -7.329  1.00  0.00     0.000 C 
BRANCH   3   4
ATOM      4  C   UNL     1       5.244  -6.072  -7.293  1.00  0.00     0.000 C 
BRANCH   4   5
ATOM      5  C   UNL     1       5.303  -6.768  -5.924  1.00  0.00     0.000 C 
BRANCH   5   6
ATOM      6  C   UNL     1       6.678  -6.624  -5.247  1.00  0.00     0.000 C 
BRANCH   6   7
ATOM      7  C   UNL     1       6.574  -6.486  -3.719  1.00  0.00     0.000 C 
BRANCH   7   8
ATOM      8  C   UNL     1       5.519  -7.427  -3.109  1.00  0.00     0.000 C 
BRANCH   8   9
ATOM      9  C   UNL     1       4.818  -6.814  -1.886  1.00  0.00     0.000 C 
BRANCH   9  10
ATOM     10  C   UNL     1       3.312  -6.602  -2.115  1.00  0.00     0.000 C 
BRANCH  10  11
ATOM     11  C   UNL     1       3.014  -5.484  -3.128  1.00  0.00     0.000 C 
BRANCH  11  12
ATOM     12  C   UNL     1       2.130  -5.904  -4.321  1.00  0.00     0.000 C 
BRANCH  12  13
ATOM     13  C   UNL     1       1.150  -4.827  -4.819  1.00  0.00     0.006 C 
BRANCH  13  14
ATOM     14  C   UNL     1       0.485  -5.194  -6.152  1.00  0.00     0.053 C 
BRANCH  14  15
ATOM     15  C   UNL     1      -0.881  -4.586  -6.252  1.00  0.00     0.041 C 
ATOM     16  O   UNL     1      -1.055  -3.370  -5.977  1.00  0.00    -0.550 OA
ATOM     17  O   UNL     1      -1.955  -5.353  -6.689  1.00  0.00    -0.550 OA
ENDBRANCH  14  15
ENDBRANCH  13  14
ENDBRANCH  12  13
ENDBRANCH  11  12
ENDBRANCH  10  11
ENDBRANCH   9  10
ENDBRANCH   8   9
ENDBRANCH   7   8
ENDBRANCH   6   7
ENDBRANCH   5   6
ENDBRANCH   4   5
ENDBRANCH   3   4
ENDBRANCH   2   3
ENDBRANCH   1   2
BRANCH   1  18
ATOM     18  C   UNL     1       5.445  -2.949  -4.494  1.00  0.00     0.000 C 
BRANCH  18  19
ATOM     19  C   UNL     1       6.832  -2.934  -5.160  1.00  0.00     0.000 C 
BRANCH  19  20
ATOM     20  C   UNL     1       7.942  -2.461  -4.207  1.00  0.00     0.000 C 
BRANCH  20  21
ATOM     21  C   UNL     1       9.351  -2.773  -4.740  1.00  0.00     0.000 C 
BRANCH  21  22
ATOM     22  C   UNL     1       9.485  -4.218  -5.248  1.00  0.00     0.000 C 
BRANCH  22  23
ATOM     23  C   UNL     1       9.929  -4.294  -6.717  1.00  0.00     0.000 C 
BRANCH  23  24
ATOM     24  C   UNL     1       8.813  -4.878  -7.598  1.00  0.00    -0.000 C 
BRANCH  24  25
ATOM     25  C   UNL     1       8.123  -3.811  -8.464  1.00  0.00    -0.000 C 
BRANCH  25  26
ATOM     26  C   UNL     1       8.900  -2.484  -8.495  1.00  0.00    -0.000 C 
BRANCH  26  27
ATOM     27  C   UNL     1       7.986  -1.255  -8.347  1.00  0.00    -0.000 C 
BRANCH  27  28
ATOM     28  C   UNL     1       8.463  -0.211  -7.320  1.00  0.00    -0.000 C 
BRANCH  28  29
ATOM     29  C   UNL     1       7.314   0.454  -6.532  1.00  0.00    -0.000 C 
BRANCH  29  30
ATOM     30  C   UNL     1       5.936   0.130  -7.132  1.00  0.00    -0.000 C 
BRANCH  30  31
ATOM     31  C   UNL     1       4.796   0.328  -6.121  1.00  0.00    -0.003 C 
ATOM     32  C   UNL     1       4.304   1.774  -6.070  1.00  0.00     0.004 C 
ENDBRANCH  30  31
ENDBRANCH  29  30
ENDBRANCH  28  29
ENDBRANCH  27  28
ENDBRANCH  26  27
ENDBRANCH  25  26
ENDBRANCH  24  25
ENDBRANCH  23  24
ENDBRANCH  22  23
ENDBRANCH  21  22
ENDBRANCH  20  21
ENDBRANCH  19  20
ENDBRANCH  18  19
ENDBRANCH   1  18
TORSDOF 28
ENDMDL
