MODEL 1
REMARK VINA RESULT:    -3.323      0.000      0.000
REMARK INTER + INTRA:          -9.983
REMARK INTER:                  -7.208
REMARK INTRA:                  -2.776
REMARK UNBOUND:                -2.776
REMARK SMILES CCCCCCCCCCCCCCCCCCCCCC(=O)[O-]
REMARK SMILES IDX 12 1 11 2 10 3 9 4 8 5 7 6 6 7 5 8 4 9 3 10 2 11 1 12 13 13
REMARK SMILES IDX 14 14 15 15 16 16 17 17 18 18 19 19 20 20 21 21 22 22 23 23
REMARK SMILES IDX 24 24
REMARK H PARENT
REMARK Flexibility Score: inf
ROOT
ATOM      1  C   UNL     1      22.426  70.137  18.355  1.00  0.00     0.000 C 
ENDROOT
BRANCH   1   2
ATOM      2  C   UNL     1      22.151  68.665  18.699  1.00  0.00     0.000 C 
BRANCH   2   3
ATOM      3  C   UNL     1      23.095  67.698  17.966  1.00  0.00     0.000 C 
BRANCH   3   4
ATOM      4  C   UNL     1      22.815  66.227  18.306  1.00  0.00    -0.000 C 
BRANCH   4   5
ATOM      5  C   UNL     1      22.288  65.476  17.074  1.00  0.00    -0.000 C 
BRANCH   5   6
ATOM      6  C   UNL     1      22.544  66.229  15.756  1.00  0.00    -0.000 C 
BRANCH   6   7
ATOM      7  C   UNL     1      21.294  66.455  14.884  1.00  0.00    -0.000 C 
BRANCH   7   8
ATOM      8  C   UNL     1      20.367  67.593  15.349  1.00  0.00    -0.000 C 
BRANCH   8   9
ATOM      9  C   UNL     1      19.183  67.117  16.220  1.00  0.00    -0.000 C 
BRANCH   9  10
ATOM     10  C   UNL     1      19.036  67.938  17.513  1.00  0.00    -0.000 C 
BRANCH  10  11
ATOM     11  C   UNL     1      18.615  67.078  18.714  1.00  0.00    -0.003 C 
ATOM     12  C   UNL     1      18.959  65.601  18.531  1.00  0.00     0.004 C 
ENDBRANCH  10  11
ENDBRANCH   9  10
ENDBRANCH   8   9
ENDBRANCH   7   8
ENDBRANCH   6   7
ENDBRANCH   5   6
ENDBRANCH   4   5
ENDBRANCH   3   4
ENDBRANCH   2   3
ENDBRANCH   1   2
BRANCH   1  13
ATOM     13  C   UNL     1      21.481  70.620  17.245  1.00  0.00     0.000 C 
BRANCH  13  14
ATOM     14  C   UNL     1      22.180  70.766  15.881  1.00  0.00     0.000 C 
BRANCH  14  15
ATOM     15  C   UNL     1      22.330  72.216  15.374  1.00  0.00     0.000 C 
BRANCH  15  16
ATOM     16  C   UNL     1      23.680  72.538  14.710  1.00  0.00     0.000 C 
BRANCH  16  17
ATOM     17  C   UNL     1      23.523  73.252  13.357  1.00  0.00     0.000 C 
BRANCH  17  18
ATOM     18  C   UNL     1      23.070  72.303  12.236  1.00  0.00     0.000 C 
BRANCH  18  19
ATOM     19  C   UNL     1      24.209  71.397  11.736  1.00  0.00     0.000 C 
BRANCH  19  20
ATOM     20  C   UNL     1      25.518  72.169  11.482  1.00  0.00     0.006 C 
BRANCH  20  21
ATOM     21  C   UNL     1      26.789  71.310  11.570  1.00  0.00     0.053 C 
BRANCH  21  22
ATOM     22  C   UNL     1      27.675  71.728  12.704  1.00  0.00     0.041 C 
ATOM     23  O   UNL     1      28.923  71.789  12.545  1.00  0.00    -0.550 OA
ATOM     24  O   UNL     1      27.125  72.017  13.946  1.00  0.00    -0.550 OA
ENDBRANCH  21  22
ENDBRANCH  20  21
ENDBRANCH  19  20
ENDBRANCH  18  19
ENDBRANCH  17  18
ENDBRANCH  16  17
ENDBRANCH  15  16
ENDBRANCH  14  15
ENDBRANCH  13  14
ENDBRANCH   1  13
TORSDOF 20
ENDMDL
MODEL 2
REMARK VINA RESULT:    -3.287      1.391      2.896
REMARK INTER + INTRA:          -9.905
REMARK INTER:                  -6.684
REMARK INTRA:                  -3.222
REMARK UNBOUND:                -2.776
REMARK SMILES CCCCCCCCCCCCCCCCCCCCCC(=O)[O-]
REMARK SMILES IDX 12 1 11 2 10 3 9 4 8 5 7 6 6 7 5 8 4 9 3 10 2 11 1 12 13 13
REMARK SMILES IDX 14 14 15 15 16 16 17 17 18 18 19 19 20 20 21 21 22 22 23 23
REMARK SMILES IDX 24 24
REMARK H PARENT
REMARK Flexibility Score: inf
ROOT
ATOM      1  C   UNL     1      22.036  70.456  16.989  1.00  0.00     0.000 C 
ENDROOT
BRANCH   1   2
ATOM      2  C   UNL     1      22.392  69.856  18.359  1.00  0.00     0.000 C 
BRANCH   2   3
ATOM      3  C   UNL     1      22.425  68.319  18.343  1.00  0.00     0.000 C 
BRANCH   3   4
ATOM      4  C   UNL     1      21.339  67.695  19.230  1.00  0.00    -0.000 C 
BRANCH   4   5
ATOM      5  C   UNL     1      21.345  66.164  19.101  1.00  0.00    -0.000 C 
BRANCH   5   6
ATOM      6  C   UNL     1      20.124  65.623  18.334  1.00  0.00    -0.000 C 
BRANCH   6   7
ATOM      7  C   UNL     1      19.259  66.697  17.648  1.00  0.00    -0.000 C 
BRANCH   7   8
ATOM      8  C   UNL     1      19.370  66.746  16.113  1.00  0.00    -0.000 C 
BRANCH   8   9
ATOM      9  C   UNL     1      20.155  65.564  15.505  1.00  0.00    -0.000 C 
BRANCH   9  10
ATOM     10  C   UNL     1      20.986  65.977  14.277  1.00  0.00    -0.000 C 
BRANCH  10  11
ATOM     11  C   UNL     1      22.453  65.535  14.381  1.00  0.00    -0.003 C 
ATOM     12  C   UNL     1      23.045  65.775  15.769  1.00  0.00     0.004 C 
ENDBRANCH  10  11
ENDBRANCH   9  10
ENDBRANCH   8   9
ENDBRANCH   7   8
ENDBRANCH   6   7
ENDBRANCH   5   6
ENDBRANCH   4   5
ENDBRANCH   3   4
ENDBRANCH   2   3
ENDBRANCH   1   2
BRANCH   1  13
ATOM     13  C   UNL     1      21.856  69.348  15.942  1.00  0.00     0.000 C 
BRANCH  13  14
ATOM     14  C   UNL     1      21.060  69.810  14.708  1.00  0.00     0.000 C 
BRANCH  14  15
ATOM     15  C   UNL     1      20.116  71.008  14.949  1.00  0.00     0.000 C 
BRANCH  15  16
ATOM     16  C   UNL     1      20.336  72.209  14.013  1.00  0.00     0.000 C 
BRANCH  16  17
ATOM     17  C   UNL     1      20.901  73.438  14.744  1.00  0.00     0.000 C 
BRANCH  17  18
ATOM     18  C   UNL     1      22.411  73.328  15.008  1.00  0.00     0.000 C 
BRANCH  18  19
ATOM     19  C   UNL     1      23.233  73.282  13.708  1.00  0.00     0.000 C 
BRANCH  19  20
ATOM     20  C   UNL     1      24.167  72.059  13.636  1.00  0.00     0.006 C 
BRANCH  20  21
ATOM     21  C   UNL     1      24.890  71.891  12.289  1.00  0.00     0.053 C 
BRANCH  21  22
ATOM     22  C   UNL     1      26.341  71.561  12.466  1.00  0.00     0.041 C 
ATOM     23  O   UNL     1      26.959  71.950  13.492  1.00  0.00    -0.550 OA
ATOM     24  O   UNL     1      27.018  70.855  11.481  1.00  0.00    -0.550 OA
ENDBRANCH  21  22
ENDBRANCH  20  21
ENDBRANCH  19  20
ENDBRANCH  18  19
ENDBRANCH  17  18
ENDBRANCH  16  17
ENDBRANCH  15  16
ENDBRANCH  14  15
ENDBRANCH  13  14
ENDBRANCH   1  13
TORSDOF 20
ENDMDL
MODEL 3
REMARK VINA RESULT:    -3.267      3.333      8.467
REMARK INTER + INTRA:          -9.861
REMARK INTER:                  -7.305
REMARK INTRA:                  -2.556
REMARK UNBOUND:                -2.776
REMARK SMILES CCCCCCCCCCCCCCCCCCCCCC(=O)[O-]
REMARK SMILES IDX 12 1 11 2 10 3 9 4 8 5 7 6 6 7 5 8 4 9 3 10 2 11 1 12 13 13
REMARK SMILES IDX 14 14 15 15 16 16 17 17 18 18 19 19 20 20 21 21 22 22 23 23
REMARK SMILES IDX 24 24
REMARK H PARENT
REMARK Flexibility Score: inf
ROOT
ATOM      1  C   UNL     1      21.652  70.058  15.755  1.00  0.00     0.000 C 
ENDROOT
BRANCH   1   2
ATOM      2  C   UNL     1      20.829  70.947  14.811  1.00  0.00     0.000 C 
BRANCH   2   3
ATOM      3  C   UNL     1      20.223  72.168  15.523  1.00  0.00     0.000 C 
BRANCH   3   4
ATOM      4  C   UNL     1      20.869  73.489  15.083  1.00  0.00    -0.000 C 
BRANCH   4   5
ATOM      5  C   UNL     1      21.809  73.264  13.890  1.00  0.00    -0.000 C 
BRANCH   5   6
ATOM      6  C   UNL     1      23.259  73.693  14.178  1.00  0.00    -0.000 C 
BRANCH   6   7
ATOM      7  C   UNL     1      24.297  72.556  14.119  1.00  0.00    -0.000 C 
BRANCH   7   8
ATOM      8  C   UNL     1      24.487  71.913  12.732  1.00  0.00    -0.000 C 
BRANCH   8   9
ATOM      9  C   UNL     1      25.965  71.752  12.316  1.00  0.00    -0.000 C 
BRANCH   9  10
ATOM     10  C   UNL     1      26.933  71.936  13.498  1.00  0.00    -0.000 C 
BRANCH  10  11
ATOM     11  C   UNL     1      28.331  72.389  13.051  1.00  0.00    -0.003 C 
ATOM     12  C   UNL     1      28.685  71.909  11.645  1.00  0.00     0.004 C 
ENDBRANCH  10  11
ENDBRANCH   9  10
ENDBRANCH   8   9
ENDBRANCH   7   8
ENDBRANCH   6   7
ENDBRANCH   5   6
ENDBRANCH   4   5
ENDBRANCH   3   4
ENDBRANCH   2   3
ENDBRANCH   1   2
BRANCH   1  13
ATOM     13  C   UNL     1      22.153  70.866  16.962  1.00  0.00     0.000 C 
BRANCH  13  14
ATOM     14  C   UNL     1      22.389  69.997  18.211  1.00  0.00     0.000 C 
BRANCH  14  15
ATOM     15  C   UNL     1      22.439  68.476  17.951  1.00  0.00     0.000 C 
BRANCH  15  16
ATOM     16  C   UNL     1      21.990  67.599  19.132  1.00  0.00     0.000 C 
BRANCH  16  17
ATOM     17  C   UNL     1      21.649  66.160  18.709  1.00  0.00     0.000 C 
BRANCH  17  18
ATOM     18  C   UNL     1      21.924  65.900  17.219  1.00  0.00     0.000 C 
BRANCH  18  19
ATOM     19  C   UNL     1      20.730  65.240  16.507  1.00  0.00     0.000 C 
BRANCH  19  20
ATOM     20  C   UNL     1      19.395  65.952  16.796  1.00  0.00     0.006 C 
BRANCH  20  21
ATOM     21  C   UNL     1      19.312  67.389  16.257  1.00  0.00     0.053 C 
BRANCH  21  22
ATOM     22  C   UNL     1      18.654  68.319  17.230  1.00  0.00     0.041 C 
ATOM     23  O   UNL     1      18.229  69.441  16.847  1.00  0.00    -0.550 OA
ATOM     24  O   UNL     1      18.544  67.961  18.568  1.00  0.00    -0.550 OA
ENDBRANCH  21  22
ENDBRANCH  20  21
ENDBRANCH  19  20
ENDBRANCH  18  19
ENDBRANCH  17  18
ENDBRANCH  16  17
ENDBRANCH  15  16
ENDBRANCH  14  15
ENDBRANCH  13  14
ENDBRANCH   1  13
TORSDOF 20
ENDMDL
MODEL 4
REMARK VINA RESULT:    -3.256      1.229      2.485
REMARK INTER + INTRA:          -9.839
REMARK INTER:                  -6.986
REMARK INTRA:                  -2.853
REMARK UNBOUND:                -2.776
REMARK SMILES CCCCCCCCCCCCCCCCCCCCCC(=O)[O-]
REMARK SMILES IDX 12 1 11 2 10 3 9 4 8 5 7 6 6 7 5 8 4 9 3 10 2 11 1 12 13 13
REMARK SMILES IDX 14 14 15 15 16 16 17 17 18 18 19 19 20 20 21 21 22 22 23 23
REMARK SMILES IDX 24 24
REMARK H PARENT
REMARK Flexibility Score: inf
ROOT
ATOM      1  C   UNL     1      20.408  69.008  15.202  1.00  0.00     0.000 C 
ENDROOT
BRANCH   1   2
ATOM      2  C   UNL     1      19.320  67.924  15.158  1.00  0.00     0.000 C 
BRANCH   2   3
ATOM      3  C   UNL     1      19.900  66.500  15.192  1.00  0.00     0.000 C 
BRANCH   3   4
ATOM      4  C   UNL     1      21.428  66.481  15.052  1.00  0.00    -0.000 C 
BRANCH   4   5
ATOM      5  C   UNL     1      22.052  65.478  16.033  1.00  0.00    -0.000 C 
BRANCH   5   6
ATOM      6  C   UNL     1      23.180  66.091  16.883  1.00  0.00    -0.000 C 
BRANCH   6   7
ATOM      7  C   UNL     1      22.947  67.551  17.315  1.00  0.00    -0.000 C 
BRANCH   7   8
ATOM      8  C   UNL     1      22.439  67.736  18.757  1.00  0.00    -0.000 C 
BRANCH   8   9
ATOM      9  C   UNL     1      21.254  66.816  19.125  1.00  0.00    -0.000 C 
BRANCH   9  10
ATOM     10  C   UNL     1      19.896  67.529  19.003  1.00  0.00    -0.000 C 
BRANCH  10  11
ATOM     11  C   UNL     1      18.739  66.554  18.737  1.00  0.00    -0.003 C 
ATOM     12  C   UNL     1      19.216  65.119  18.519  1.00  0.00     0.004 C 
ENDBRANCH  10  11
ENDBRANCH   9  10
ENDBRANCH   8   9
ENDBRANCH   7   8
ENDBRANCH   6   7
ENDBRANCH   5   6
ENDBRANCH   4   5
ENDBRANCH   3   4
ENDBRANCH   2   3
ENDBRANCH   1   2
BRANCH   1  13
ATOM     13  C   UNL     1      20.217  69.920  16.423  1.00  0.00     0.000 C 
BRANCH  13  14
ATOM     14  C   UNL     1      21.387  70.899  16.631  1.00  0.00     0.000 C 
BRANCH  14  15
ATOM     15  C   UNL     1      22.183  71.249  15.355  1.00  0.00     0.000 C 
BRANCH  15  16
ATOM     16  C   UNL     1      22.772  72.670  15.323  1.00  0.00     0.000 C 
BRANCH  16  17
ATOM     17  C   UNL     1      24.064  72.760  14.494  1.00  0.00     0.000 C 
BRANCH  17  18
ATOM     18  C   UNL     1      23.963  72.009  13.157  1.00  0.00     0.000 C 
BRANCH  18  19
ATOM     19  C   UNL     1      25.342  71.724  12.537  1.00  0.00     0.000 C 
BRANCH  19  20
ATOM     20  C   UNL     1      25.519  72.374  11.151  1.00  0.00     0.006 C 
BRANCH  20  21
ATOM     21  C   UNL     1      26.915  72.969  10.903  1.00  0.00     0.053 C 
BRANCH  21  22
ATOM     22  C   UNL     1      28.001  71.951  11.074  1.00  0.00     0.041 C 
ATOM     23  O   UNL     1      28.823  72.054  12.022  1.00  0.00    -0.550 OA
ATOM     24  O   UNL     1      28.124  70.908  10.166  1.00  0.00    -0.550 OA
ENDBRANCH  21  22
ENDBRANCH  20  21
ENDBRANCH  19  20
ENDBRANCH  18  19
ENDBRANCH  17  18
ENDBRANCH  16  17
ENDBRANCH  15  16
ENDBRANCH  14  15
ENDBRANCH  13  14
ENDBRANCH   1  13
TORSDOF 20
ENDMDL
MODEL 5
REMARK VINA RESULT:    -3.223      1.314      3.355
REMARK INTER + INTRA:          -9.768
REMARK INTER:                  -6.929
REMARK INTRA:                  -2.839
REMARK UNBOUND:                -2.776
REMARK SMILES CCCCCCCCCCCCCCCCCCCCCC(=O)[O-]
REMARK SMILES IDX 12 1 11 2 10 3 9 4 8 5 7 6 6 7 5 8 4 9 3 10 2 11 1 12 13 13
REMARK SMILES IDX 14 14 15 15 16 16 17 17 18 18 19 19 20 20 21 21 22 22 23 23
REMARK SMILES IDX 24 24
REMARK H PARENT
REMARK Flexibility Score: inf
ROOT
ATOM      1  C   UNL     1      22.940  67.633  17.851  1.00  0.00     0.000 C 
ENDROOT
BRANCH   1   2
ATOM      2  C   UNL     1      22.630  66.197  18.299  1.00  0.00     0.000 C 
BRANCH   2   3
ATOM      3  C   UNL     1      21.341  66.101  19.133  1.00  0.00     0.000 C 
BRANCH   3   4
ATOM      4  C   UNL     1      20.458  64.915  18.721  1.00  0.00    -0.000 C 
BRANCH   4   5
ATOM      5  C   UNL     1      19.286  65.387  17.847  1.00  0.00    -0.000 C 
BRANCH   5   6
ATOM      6  C   UNL     1      18.828  66.819  18.180  1.00  0.00    -0.000 C 
BRANCH   6   7
ATOM      7  C   UNL     1      19.065  67.853  17.063  1.00  0.00    -0.000 C 
BRANCH   7   8
ATOM      8  C   UNL     1      19.244  67.264  15.652  1.00  0.00    -0.000 C 
BRANCH   8   9
ATOM      9  C   UNL     1      20.562  67.681  14.963  1.00  0.00    -0.000 C 
BRANCH   9  10
ATOM     10  C   UNL     1      20.422  67.779  13.434  1.00  0.00    -0.000 C 
BRANCH  10  11
ATOM     11  C   UNL     1      20.104  69.206  12.961  1.00  0.00    -0.003 C 
ATOM     12  C   UNL     1      21.199  69.789  12.069  1.00  0.00     0.004 C 
ENDBRANCH  10  11
ENDBRANCH   9  10
ENDBRANCH   8   9
ENDBRANCH   7   8
ENDBRANCH   6   7
ENDBRANCH   5   6
ENDBRANCH   4   5
ENDBRANCH   3   4
ENDBRANCH   2   3
ENDBRANCH   1   2
BRANCH   1  13
ATOM     13  C   UNL     1      22.145  68.647  18.686  1.00  0.00     0.000 C 
BRANCH  13  14
ATOM     14  C   UNL     1      22.429  70.107  18.290  1.00  0.00     0.000 C 
BRANCH  14  15
ATOM     15  C   UNL     1      21.424  70.722  17.293  1.00  0.00     0.000 C 
BRANCH  15  16
ATOM     16  C   UNL     1      21.900  70.763  15.830  1.00  0.00     0.000 C 
BRANCH  16  17
ATOM     17  C   UNL     1      21.432  72.026  15.087  1.00  0.00     0.000 C 
BRANCH  17  18
ATOM     18  C   UNL     1      22.463  73.165  15.148  1.00  0.00     0.000 C 
BRANCH  18  19
ATOM     19  C   UNL     1      23.304  73.265  13.863  1.00  0.00     0.000 C 
BRANCH  19  20
ATOM     20  C   UNL     1      24.183  72.022  13.626  1.00  0.00     0.006 C 
BRANCH  20  21
ATOM     21  C   UNL     1      24.909  72.006  12.272  1.00  0.00     0.053 C 
BRANCH  21  22
ATOM     22  C   UNL     1      26.349  71.617  12.409  1.00  0.00     0.041 C 
ATOM     23  O   UNL     1      26.905  70.919  11.519  1.00  0.00    -0.550 OA
ATOM     24  O   UNL     1      27.067  71.995  13.535  1.00  0.00    -0.550 OA
ENDBRANCH  21  22
ENDBRANCH  20  21
ENDBRANCH  19  20
ENDBRANCH  18  19
ENDBRANCH  17  18
ENDBRANCH  16  17
ENDBRANCH  15  16
ENDBRANCH  14  15
ENDBRANCH  13  14
ENDBRANCH   1  13
TORSDOF 20
ENDMDL
MODEL 6
REMARK VINA RESULT:    -3.168      1.701      3.508
REMARK INTER + INTRA:          -9.648
REMARK INTER:                  -6.384
REMARK INTRA:                  -3.264
REMARK UNBOUND:                -2.776
REMARK SMILES CCCCCCCCCCCCCCCCCCCCCC(=O)[O-]
REMARK SMILES IDX 12 1 11 2 10 3 9 4 8 5 7 6 6 7 5 8 4 9 3 10 2 11 1 12 13 13
REMARK SMILES IDX 14 14 15 15 16 16 17 17 18 18 19 19 20 20 21 21 22 22 23 23
REMARK SMILES IDX 24 24
REMARK H PARENT
REMARK Flexibility Score: inf
ROOT
ATOM      1  C   UNL     1      20.455  66.355  14.838  1.00  0.00     0.000 C 
ENDROOT
BRANCH   1   2
ATOM      2  C   UNL     1      21.905  66.805  15.075  1.00  0.00     0.000 C 
BRANCH   2   3
ATOM      3  C   UNL     1      22.812  65.657  15.550  1.00  0.00     0.000 C 
BRANCH   3   4
ATOM      4  C   UNL     1      23.879  66.123  16.551  1.00  0.00    -0.000 C 
BRANCH   4   5
ATOM      5  C   UNL     1      23.399  65.910  17.995  1.00  0.00    -0.000 C 
BRANCH   5   6
ATOM      6  C   UNL     1      22.265  64.875  18.104  1.00  0.00    -0.000 C 
BRANCH   6   7
ATOM      7  C   UNL     1      20.981  65.388  18.783  1.00  0.00    -0.000 C 
BRANCH   7   8
ATOM      8  C   UNL     1      20.981  66.887  19.138  1.00  0.00    -0.000 C 
BRANCH   8   9
ATOM      9  C   UNL     1      20.079  67.745  18.224  1.00  0.00    -0.000 C 
BRANCH   9  10
ATOM     10  C   UNL     1      20.730  69.088  17.847  1.00  0.00    -0.000 C 
BRANCH  10  11
ATOM     11  C   UNL     1      22.236  69.118  18.146  1.00  0.00    -0.003 C 
ATOM     12  C   UNL     1      22.829  70.522  18.045  1.00  0.00     0.004 C 
ENDBRANCH  10  11
ENDBRANCH   9  10
ENDBRANCH   8   9
ENDBRANCH   7   8
ENDBRANCH   6   7
ENDBRANCH   5   6
ENDBRANCH   4   5
ENDBRANCH   3   4
ENDBRANCH   2   3
ENDBRANCH   1   2
BRANCH   1  13
ATOM     13  C   UNL     1      19.636  67.481  14.192  1.00  0.00     0.000 C 
BRANCH  13  14
ATOM     14  C   UNL     1      20.450  68.770  13.976  1.00  0.00     0.000 C 
BRANCH  14  15
ATOM     15  C   UNL     1      19.668  70.083  14.194  1.00  0.00     0.000 C 
BRANCH  15  16
ATOM     16  C   UNL     1      20.442  71.186  14.936  1.00  0.00     0.000 C 
BRANCH  16  17
ATOM     17  C   UNL     1      21.904  71.303  14.474  1.00  0.00     0.000 C 
BRANCH  17  18
ATOM     18  C   UNL     1      22.570  72.608  14.938  1.00  0.00     0.000 C 
BRANCH  18  19
ATOM     19  C   UNL     1      24.024  72.732  14.450  1.00  0.00     0.000 C 
BRANCH  19  20
ATOM     20  C   UNL     1      24.286  71.948  13.150  1.00  0.00     0.006 C 
BRANCH  20  21
ATOM     21  C   UNL     1      25.759  71.919  12.712  1.00  0.00     0.053 C 
BRANCH  21  22
ATOM     22  C   UNL     1      25.919  72.228  11.254  1.00  0.00     0.041 C 
ATOM     23  O   UNL     1      25.583  73.355  10.804  1.00  0.00    -0.550 OA
ATOM     24  O   UNL     1      26.407  71.259  10.388  1.00  0.00    -0.550 OA
ENDBRANCH  21  22
ENDBRANCH  20  21
ENDBRANCH  19  20
ENDBRANCH  18  19
ENDBRANCH  17  18
ENDBRANCH  16  17
ENDBRANCH  15  16
ENDBRANCH  14  15
ENDBRANCH  13  14
ENDBRANCH   1  13
TORSDOF 20
ENDMDL
MODEL 7
REMARK VINA RESULT:    -3.155      3.464      7.305
REMARK INTER + INTRA:          -9.620
REMARK INTER:                  -6.427
REMARK INTRA:                  -3.193
REMARK UNBOUND:                -2.776
REMARK SMILES CCCCCCCCCCCCCCCCCCCCCC(=O)[O-]
REMARK SMILES IDX 12 1 11 2 10 3 9 4 8 5 7 6 6 7 5 8 4 9 3 10 2 11 1 12 13 13
REMARK SMILES IDX 14 14 15 15 16 16 17 17 18 18 19 19 20 20 21 21 22 22 23 23
REMARK SMILES IDX 24 24
REMARK H PARENT
REMARK Flexibility Score: inf
ROOT
ATOM      1  C   UNL     1      22.739  68.506  17.489  1.00  0.00     0.000 C 
ENDROOT
BRANCH   1   2
ATOM      2  C   UNL     1      22.384  69.733  18.344  1.00  0.00     0.000 C 
BRANCH   2   3
ATOM      3  C   UNL     1      21.416  70.692  17.632  1.00  0.00     0.000 C 
BRANCH   3   4
ATOM      4  C   UNL     1      21.491  70.579  16.103  1.00  0.00    -0.000 C 
BRANCH   4   5
ATOM      5  C   UNL     1      22.378  71.690  15.519  1.00  0.00    -0.000 C 
BRANCH   5   6
ATOM      6  C   UNL     1      21.574  72.920  15.058  1.00  0.00    -0.000 C 
BRANCH   6   7
ATOM      7  C   UNL     1      20.065  72.676  14.873  1.00  0.00    -0.000 C 
BRANCH   7   8
ATOM      8  C   UNL     1      19.147  73.563  15.736  1.00  0.00    -0.000 C 
BRANCH   8   9
ATOM      9  C   UNL     1      18.355  72.784  16.808  1.00  0.00    -0.000 C 
BRANCH   9  10
ATOM     10  C   UNL     1      18.283  73.535  18.150  1.00  0.00    -0.000 C 
BRANCH  10  11
ATOM     11  C   UNL     1      18.342  75.060  17.976  1.00  0.00    -0.003 C 
ATOM     12  C   UNL     1      18.729  75.785  19.264  1.00  0.00     0.004 C 
ENDBRANCH  10  11
ENDBRANCH   9  10
ENDBRANCH   8   9
ENDBRANCH   7   8
ENDBRANCH   6   7
ENDBRANCH   5   6
ENDBRANCH   4   5
ENDBRANCH   3   4
ENDBRANCH   2   3
ENDBRANCH   1   2
BRANCH   1  13
ATOM     13  C   UNL     1      22.980  67.277  18.377  1.00  0.00     0.000 C 
BRANCH  13  14
ATOM     14  C   UNL     1      22.931  65.952  17.595  1.00  0.00     0.000 C 
BRANCH  14  15
ATOM     15  C   UNL     1      21.974  64.887  18.172  1.00  0.00     0.000 C 
BRANCH  15  16
ATOM     16  C   UNL     1      20.917  65.423  19.152  1.00  0.00     0.000 C 
BRANCH  16  17
ATOM     17  C   UNL     1      19.552  65.663  18.484  1.00  0.00     0.000 C 
BRANCH  17  18
ATOM     18  C   UNL     1      19.137  67.143  18.500  1.00  0.00     0.000 C 
BRANCH  18  19
ATOM     19  C   UNL     1      19.207  67.788  17.105  1.00  0.00     0.000 C 
BRANCH  19  20
ATOM     20  C   UNL     1      19.337  66.750  15.974  1.00  0.00     0.006 C 
BRANCH  20  21
ATOM     21  C   UNL     1      20.468  67.040  14.974  1.00  0.00     0.053 C 
BRANCH  21  22
ATOM     22  C   UNL     1      19.949  67.583  13.677  1.00  0.00     0.041 C 
ATOM     23  O   UNL     1      19.259  66.854  12.916  1.00  0.00    -0.550 OA
ATOM     24  O   UNL     1      20.256  68.882  13.295  1.00  0.00    -0.550 OA
ENDBRANCH  21  22
ENDBRANCH  20  21
ENDBRANCH  19  20
ENDBRANCH  18  19
ENDBRANCH  17  18
ENDBRANCH  16  17
ENDBRANCH  15  16
ENDBRANCH  14  15
ENDBRANCH  13  14
ENDBRANCH   1  13
TORSDOF 20
ENDMDL
MODEL 8
REMARK VINA RESULT:    -3.125      2.189      3.661
REMARK INTER + INTRA:          -9.554
REMARK INTER:                  -5.785
REMARK INTRA:                  -3.769
REMARK UNBOUND:                -2.776
REMARK SMILES CCCCCCCCCCCCCCCCCCCCCC(=O)[O-]
REMARK SMILES IDX 12 1 11 2 10 3 9 4 8 5 7 6 6 7 5 8 4 9 3 10 2 11 1 12 13 13
REMARK SMILES IDX 14 14 15 15 16 16 17 17 18 18 19 19 20 20 21 21 22 22 23 23
REMARK SMILES IDX 24 24
REMARK H PARENT
REMARK Flexibility Score: inf
ROOT
ATOM      1  C   UNL     1      21.963  70.254  16.683  1.00  0.00     0.000 C 
ENDROOT
BRANCH   1   2
ATOM      2  C   UNL     1      22.720  70.079  18.009  1.00  0.00     0.000 C 
BRANCH   2   3
ATOM      3  C   UNL     1      22.288  68.819  18.777  1.00  0.00     0.000 C 
BRANCH   3   4
ATOM      4  C   UNL     1      22.747  67.523  18.093  1.00  0.00    -0.000 C 
BRANCH   4   5
ATOM      5  C   UNL     1      21.819  66.356  18.460  1.00  0.00    -0.000 C 
BRANCH   5   6
ATOM      6  C   UNL     1      20.467  66.821  19.032  1.00  0.00    -0.000 C 
BRANCH   6   7
ATOM      7  C   UNL     1      19.272  66.678  18.072  1.00  0.00    -0.000 C 
BRANCH   7   8
ATOM      8  C   UNL     1      19.190  65.335  17.322  1.00  0.00    -0.000 C 
BRANCH   8   9
ATOM      9  C   UNL     1      19.433  65.452  15.802  1.00  0.00    -0.000 C 
BRANCH   9  10
ATOM     10  C   UNL     1      19.534  66.915  15.333  1.00  0.00    -0.000 C 
BRANCH  10  11
ATOM     11  C   UNL     1      20.921  67.260  14.770  1.00  0.00    -0.003 C 
ATOM     12  C   UNL     1      21.856  66.052  14.724  1.00  0.00     0.004 C 
ENDBRANCH  10  11
ENDBRANCH   9  10
ENDBRANCH   8   9
ENDBRANCH   7   8
ENDBRANCH   6   7
ENDBRANCH   5   6
ENDBRANCH   4   5
ENDBRANCH   3   4
ENDBRANCH   2   3
ENDBRANCH   1   2
BRANCH   1  13
ATOM     13  C   UNL     1      20.701  71.104  16.887  1.00  0.00     0.000 C 
BRANCH  13  14
ATOM     14  C   UNL     1      19.408  70.364  16.497  1.00  0.00     0.000 C 
BRANCH  14  15
ATOM     15  C   UNL     1      18.626  70.988  15.321  1.00  0.00     0.000 C 
BRANCH  15  16
ATOM     16  C   UNL     1      18.344  70.034  14.148  1.00  0.00     0.000 C 
BRANCH  16  17
ATOM     17  C   UNL     1      19.097  70.428  12.866  1.00  0.00     0.000 C 
BRANCH  17  18
ATOM     18  C   UNL     1      20.147  71.524  13.110  1.00  0.00     0.000 C 
BRANCH  18  19
ATOM     19  C   UNL     1      21.580  70.966  13.152  1.00  0.00     0.000 C 
BRANCH  19  20
ATOM     20  C   UNL     1      22.640  72.012  12.758  1.00  0.00     0.006 C 
BRANCH  20  21
ATOM     21  C   UNL     1      23.828  72.110  13.728  1.00  0.00     0.053 C 
BRANCH  21  22
ATOM     22  C   UNL     1      23.512  72.959  14.922  1.00  0.00     0.041 C 
ATOM     23  O   UNL     1      24.180  72.835  15.982  1.00  0.00    -0.550 OA
ATOM     24  O   UNL     1      22.458  73.861  14.874  1.00  0.00    -0.550 OA
ENDBRANCH  21  22
ENDBRANCH  20  21
ENDBRANCH  19  20
ENDBRANCH  18  19
ENDBRANCH  17  18
ENDBRANCH  16  17
ENDBRANCH  15  16
ENDBRANCH  14  15
ENDBRANCH  13  14
ENDBRANCH   1  13
TORSDOF 20
ENDMDL
MODEL 9
REMARK VINA RESULT:    -3.091      3.193      6.926
REMARK INTER + INTRA:          -9.481
REMARK INTER:                  -5.288
REMARK INTRA:                  -4.193
REMARK UNBOUND:                -2.776
REMARK SMILES CCCCCCCCCCCCCCCCCCCCCC(=O)[O-]
REMARK SMILES IDX 12 1 11 2 10 3 9 4 8 5 7 6 6 7 5 8 4 9 3 10 2 11 1 12 13 13
REMARK SMILES IDX 14 14 15 15 16 16 17 17 18 18 19 19 20 20 21 21 22 22 23 23
REMARK SMILES IDX 24 24
REMARK H PARENT
REMARK Flexibility Score: inf
ROOT
ATOM      1  C   UNL     1      21.937  70.872  16.777  1.00  0.00     0.000 C 
ENDROOT
BRANCH   1   2
ATOM      2  C   UNL     1      20.469  70.433  16.883  1.00  0.00     0.000 C 
BRANCH   2   3
ATOM      3  C   UNL     1      19.487  71.610  16.765  1.00  0.00     0.000 C 
BRANCH   3   4
ATOM      4  C   UNL     1      18.385  71.358  15.727  1.00  0.00    -0.000 C 
BRANCH   4   5
ATOM      5  C   UNL     1      18.688  70.095  14.908  1.00  0.00    -0.000 C 
BRANCH   5   6
ATOM      6  C   UNL     1      18.496  70.300  13.394  1.00  0.00    -0.000 C 
BRANCH   6   7
ATOM      7  C   UNL     1      19.754  70.054  12.540  1.00  0.00    -0.000 C 
BRANCH   7   8
ATOM      8  C   UNL     1      21.093  70.240  13.277  1.00  0.00    -0.000 C 
BRANCH   8   9
ATOM      9  C   UNL     1      21.809  71.568  12.947  1.00  0.00    -0.000 C 
BRANCH   9  10
ATOM     10  C   UNL     1      21.156  72.777  13.640  1.00  0.00    -0.000 C 
BRANCH  10  11
ATOM     11  C   UNL     1      22.179  73.663  14.368  1.00  0.00    -0.003 C 
ATOM     12  C   UNL     1      23.573  73.041  14.411  1.00  0.00     0.004 C 
ENDBRANCH  10  11
ENDBRANCH   9  10
ENDBRANCH   8   9
ENDBRANCH   7   8
ENDBRANCH   6   7
ENDBRANCH   5   6
ENDBRANCH   4   5
ENDBRANCH   3   4
ENDBRANCH   2   3
ENDBRANCH   1   2
BRANCH   1  13
ATOM     13  C   UNL     1      22.803  70.127  17.804  1.00  0.00     0.000 C 
BRANCH  13  14
ATOM     14  C   UNL     1      21.982  69.217  18.736  1.00  0.00     0.000 C 
BRANCH  14  15
ATOM     15  C   UNL     1      22.369  67.723  18.701  1.00  0.00     0.000 C 
BRANCH  15  16
ATOM     16  C   UNL     1      21.207  66.744  18.942  1.00  0.00     0.000 C 
BRANCH  16  17
ATOM     17  C   UNL     1      19.851  67.453  19.087  1.00  0.00     0.000 C 
BRANCH  17  18
ATOM     18  C   UNL     1      18.947  67.260  17.858  1.00  0.00     0.000 C 
BRANCH  18  19
ATOM     19  C   UNL     1      19.492  66.197  16.889  1.00  0.00     0.000 C 
BRANCH  19  20
ATOM     20  C   UNL     1      19.757  66.755  15.478  1.00  0.00     0.006 C 
BRANCH  20  21
ATOM     21  C   UNL     1      21.222  67.137  15.211  1.00  0.00     0.053 C 
BRANCH  21  22
ATOM     22  C   UNL     1      22.087  65.933  14.991  1.00  0.00     0.041 C 
ATOM     23  O   UNL     1      22.116  65.369  13.866  1.00  0.00    -0.550 OA
ATOM     24  O   UNL     1      22.835  65.414  16.040  1.00  0.00    -0.550 OA
ENDBRANCH  21  22
ENDBRANCH  20  21
ENDBRANCH  19  20
ENDBRANCH  18  19
ENDBRANCH  17  18
ENDBRANCH  16  17
ENDBRANCH  15  16
ENDBRANCH  14  15
ENDBRANCH  13  14
ENDBRANCH   1  13
TORSDOF 20
ENDMDL
