MODEL 1
REMARK VINA RESULT:     7.278      0.000      0.000
REMARK INTER + INTRA:          18.404
REMARK INTER:                  16.639
REMARK INTRA:                   1.764
REMARK UNBOUND:                 1.764
REMARK SMILES CCCCCCCCCCCCCCCCCCCCCCCC(=O)[O-]
REMARK SMILES IDX 13 1 14 2 15 3 16 4 17 5 18 6 19 7 20 8 21 9 22 10 23 11
REMARK SMILES IDX 24 12 25 13 26 14 12 15 11 16 10 17 9 18 8 19 7 20 6 21 5 22
REMARK SMILES IDX 4 23 3 24 2 25 1 26
REMARK H PARENT
REMARK Flexibility Score: inf
ROOT
ATOM      1  C   UNL     1       2.440  43.238  11.570  1.00  0.00     0.000 C 
ENDROOT
BRANCH   1   2
ATOM      2  C   UNL     1       2.825  44.712  11.362  1.00  0.00     0.000 C 
BRANCH   2   3
ATOM      3  C   UNL     1       4.228  44.875  10.740  1.00  0.00     0.000 C 
BRANCH   3   4
ATOM      4  C   UNL     1       4.671  43.678   9.876  1.00  0.00     0.000 C 
BRANCH   4   5
ATOM      5  C   UNL     1       5.670  42.717  10.550  1.00  0.00     0.000 C 
BRANCH   5   6
ATOM      6  C   UNL     1       7.061  42.645   9.891  1.00  0.00     0.000 C 
BRANCH   6   7
ATOM      7  C   UNL     1       7.797  43.995   9.894  1.00  0.00     0.000 C 
BRANCH   7   8
ATOM      8  C   UNL     1       8.820  44.106  11.037  1.00  0.00     0.000 C 
BRANCH   8   9
ATOM      9  C   UNL     1       8.170  44.494  12.377  1.00  0.00     0.000 C 
BRANCH   9  10
ATOM     10  C   UNL     1       6.720  43.997  12.497  1.00  0.00     0.006 C 
BRANCH  10  11
ATOM     11  C   UNL     1       6.441  43.289  13.829  1.00  0.00     0.053 C 
BRANCH  11  12
ATOM     12  C   UNL     1       7.167  41.981  13.892  1.00  0.00     0.041 C 
ATOM     13  O   UNL     1       7.978  41.663  12.982  1.00  0.00    -0.550 OA
ATOM     14  O   UNL     1       6.981  41.132  14.977  1.00  0.00    -0.550 OA
ENDBRANCH  11  12
ENDBRANCH  10  11
ENDBRANCH   9  10
ENDBRANCH   8   9
ENDBRANCH   7   8
ENDBRANCH   6   7
ENDBRANCH   5   6
ENDBRANCH   4   5
ENDBRANCH   3   4
ENDBRANCH   2   3
ENDBRANCH   1   2
BRANCH   1  15
ATOM     15  C   UNL     1       1.242  42.804  10.706  1.00  0.00     0.000 C 
BRANCH  15  16
ATOM     16  C   UNL     1      -0.106  42.845  11.458  1.00  0.00     0.000 C 
BRANCH  16  17
ATOM     17  C   UNL     1      -0.300  44.159  12.237  1.00  0.00     0.000 C 
BRANCH  17  18
ATOM     18  C   UNL     1       0.376  44.133  13.616  1.00  0.00    -0.000 C 
BRANCH  18  19
ATOM     19  C   UNL     1      -0.377  44.979  14.658  1.00  0.00    -0.000 C 
BRANCH  19  20
ATOM     20  C   UNL     1      -1.886  45.075  14.372  1.00  0.00    -0.000 C 
BRANCH  20  21
ATOM     21  C   UNL     1      -2.763  44.087  15.167  1.00  0.00    -0.000 C 
BRANCH  21  22
ATOM     22  C   UNL     1      -2.370  42.602  15.026  1.00  0.00    -0.000 C 
BRANCH  22  23
ATOM     23  C   UNL     1      -3.427  41.711  14.343  1.00  0.00    -0.000 C 
BRANCH  23  24
ATOM     24  C   UNL     1      -4.580  41.258  15.257  1.00  0.00    -0.000 C 
BRANCH  24  25
ATOM     25  C   UNL     1      -5.378  40.084  14.672  1.00  0.00    -0.003 C 
ATOM     26  C   UNL     1      -5.947  39.200  15.778  1.00  0.00     0.004 C 
ENDBRANCH  24  25
ENDBRANCH  23  24
ENDBRANCH  22  23
ENDBRANCH  21  22
ENDBRANCH  20  21
ENDBRANCH  19  20
ENDBRANCH  18  19
ENDBRANCH  17  18
ENDBRANCH  16  17
ENDBRANCH  15  16
ENDBRANCH   1  15
TORSDOF 22
ENDMDL
MODEL 2
REMARK VINA RESULT:     8.149      2.086      3.483
REMARK INTER + INTRA:          20.394
REMARK INTER:                  20.151
REMARK INTRA:                   0.243
REMARK UNBOUND:                 1.764
REMARK SMILES CCCCCCCCCCCCCCCCCCCCCCCC(=O)[O-]
REMARK SMILES IDX 13 1 14 2 15 3 16 4 17 5 18 6 19 7 20 8 21 9 22 10 23 11
REMARK SMILES IDX 24 12 25 13 26 14 12 15 11 16 10 17 9 18 8 19 7 20 6 21 5 22
REMARK SMILES IDX 4 23 3 24 2 25 1 26
REMARK H PARENT
REMARK Flexibility Score: inf
ROOT
ATOM      1  C   UNL     1       4.369  44.224  11.612  1.00  0.00     0.000 C 
ENDROOT
BRANCH   1   2
ATOM      2  C   UNL     1       5.052  44.184  10.235  1.00  0.00     0.000 C 
BRANCH   2   3
ATOM      3  C   UNL     1       6.398  44.937  10.220  1.00  0.00     0.000 C 
BRANCH   3   4
ATOM      4  C   UNL     1       7.627  44.026  10.409  1.00  0.00     0.000 C 
BRANCH   4   5
ATOM      5  C   UNL     1       7.310  42.532  10.611  1.00  0.00     0.000 C 
BRANCH   5   6
ATOM      6  C   UNL     1       7.679  41.962  11.994  1.00  0.00     0.000 C 
BRANCH   6   7
ATOM      7  C   UNL     1       6.945  42.666  13.148  1.00  0.00     0.000 C 
BRANCH   7   8
ATOM      8  C   UNL     1       6.941  41.830  14.439  1.00  0.00     0.000 C 
BRANCH   8   9
ATOM      9  C   UNL     1       5.650  42.010  15.257  1.00  0.00     0.000 C 
BRANCH   9  10
ATOM     10  C   UNL     1       5.469  40.920  16.326  1.00  0.00     0.006 C 
BRANCH  10  11
ATOM     11  C   UNL     1       6.702  40.755  17.224  1.00  0.00     0.053 C 
BRANCH  11  12
ATOM     12  C   UNL     1       6.361  39.962  18.446  1.00  0.00     0.041 C 
ATOM     13  O   UNL     1       6.967  38.885  18.691  1.00  0.00    -0.550 OA
ATOM     14  O   UNL     1       5.404  40.433  19.338  1.00  0.00    -0.550 OA
ENDBRANCH  11  12
ENDBRANCH  10  11
ENDBRANCH   9  10
ENDBRANCH   8   9
ENDBRANCH   7   8
ENDBRANCH   6   7
ENDBRANCH   5   6
ENDBRANCH   4   5
ENDBRANCH   3   4
ENDBRANCH   2   3
ENDBRANCH   1   2
BRANCH   1  15
ATOM     15  C   UNL     1       2.923  43.696  11.580  1.00  0.00     0.000 C 
BRANCH  15  16
ATOM     16  C   UNL     1       2.591  42.889  10.306  1.00  0.00     0.000 C 
BRANCH  16  17
ATOM     17  C   UNL     1       1.208  42.217  10.385  1.00  0.00     0.000 C 
BRANCH  17  18
ATOM     18  C   UNL     1       0.182  43.066  11.151  1.00  0.00    -0.000 C 
BRANCH  18  19
ATOM     19  C   UNL     1       0.692  43.497  12.537  1.00  0.00    -0.000 C 
BRANCH  19  20
ATOM     20  C   UNL     1       0.119  44.853  12.987  1.00  0.00    -0.000 C 
BRANCH  20  21
ATOM     21  C   UNL     1       0.007  45.038  14.515  1.00  0.00    -0.000 C 
BRANCH  21  22
ATOM     22  C   UNL     1      -1.432  45.020  15.072  1.00  0.00    -0.000 C 
BRANCH  22  23
ATOM     23  C   UNL     1      -2.327  43.891  14.524  1.00  0.00    -0.000 C 
BRANCH  23  24
ATOM     24  C   UNL     1      -1.718  42.481  14.614  1.00  0.00    -0.000 C 
BRANCH  24  25
ATOM     25  C   UNL     1      -2.719  41.430  15.118  1.00  0.00    -0.003 C 
ATOM     26  C   UNL     1      -4.047  41.534  14.376  1.00  0.00     0.004 C 
ENDBRANCH  24  25
ENDBRANCH  23  24
ENDBRANCH  22  23
ENDBRANCH  21  22
ENDBRANCH  20  21
ENDBRANCH  19  20
ENDBRANCH  18  19
ENDBRANCH  17  18
ENDBRANCH  16  17
ENDBRANCH  15  16
ENDBRANCH   1  15
TORSDOF 22
ENDMDL
MODEL 3
REMARK VINA RESULT:     8.159      4.171      7.923
REMARK INTER + INTRA:          20.417
REMARK INTER:                  20.743
REMARK INTRA:                  -0.326
REMARK UNBOUND:                 1.764
REMARK SMILES CCCCCCCCCCCCCCCCCCCCCCCC(=O)[O-]
REMARK SMILES IDX 13 1 14 2 15 3 16 4 17 5 18 6 19 7 20 8 21 9 22 10 23 11
REMARK SMILES IDX 24 12 25 13 26 14 12 15 11 16 10 17 9 18 8 19 7 20 6 21 5 22
REMARK SMILES IDX 4 23 3 24 2 25 1 26
REMARK H PARENT
REMARK Flexibility Score: inf
ROOT
ATOM      1  C   UNL     1       7.730  41.749  13.348  1.00  0.00     0.000 C 
ENDROOT
BRANCH   1   2
ATOM      2  C   UNL     1       6.704  42.895  13.349  1.00  0.00     0.000 C 
BRANCH   2   3
ATOM      3  C   UNL     1       5.664  42.757  14.481  1.00  0.00     0.000 C 
BRANCH   3   4
ATOM      4  C   UNL     1       5.666  41.378  15.168  1.00  0.00     0.000 C 
BRANCH   4   5
ATOM      5  C   UNL     1       5.320  41.391  16.669  1.00  0.00     0.000 C 
BRANCH   5   6
ATOM      6  C   UNL     1       6.266  40.576  17.570  1.00  0.00     0.000 C 
BRANCH   6   7
ATOM      7  C   UNL     1       5.573  40.032  18.832  1.00  0.00     0.000 C 
BRANCH   7   8
ATOM      8  C   UNL     1       4.344  40.865  19.234  1.00  0.00     0.000 C 
BRANCH   8   9
ATOM      9  C   UNL     1       4.032  40.771  20.738  1.00  0.00     0.000 C 
BRANCH   9  10
ATOM     10  C   UNL     1       2.532  40.923  21.040  1.00  0.00     0.006 C 
BRANCH  10  11
ATOM     11  C   UNL     1       2.081  42.389  21.094  1.00  0.00     0.053 C 
BRANCH  11  12
ATOM     12  C   UNL     1       3.223  43.303  20.778  1.00  0.00     0.041 C 
ATOM     13  O   UNL     1       4.135  43.493  21.625  1.00  0.00    -0.550 OA
ATOM     14  O   UNL     1       3.303  43.911  19.530  1.00  0.00    -0.550 OA
ENDBRANCH  11  12
ENDBRANCH  10  11
ENDBRANCH   9  10
ENDBRANCH   8   9
ENDBRANCH   7   8
ENDBRANCH   6   7
ENDBRANCH   5   6
ENDBRANCH   4   5
ENDBRANCH   3   4
ENDBRANCH   2   3
ENDBRANCH   1   2
BRANCH   1  15
ATOM     15  C   UNL     1       8.444  41.586  11.994  1.00  0.00     0.000 C 
BRANCH  15  16
ATOM     16  C   UNL     1       7.783  42.386  10.850  1.00  0.00     0.000 C 
BRANCH  16  17
ATOM     17  C   UNL     1       8.532  43.697  10.547  1.00  0.00     0.000 C 
BRANCH  17  18
ATOM     18  C   UNL     1       7.691  44.943  10.860  1.00  0.00    -0.000 C 
BRANCH  18  19
ATOM     19  C   UNL     1       6.499  45.107   9.901  1.00  0.00    -0.000 C 
BRANCH  19  20
ATOM     20  C   UNL     1       5.165  44.657  10.525  1.00  0.00    -0.000 C 
BRANCH  20  21
ATOM     21  C   UNL     1       4.751  43.207  10.201  1.00  0.00    -0.000 C 
BRANCH  21  22
ATOM     22  C   UNL     1       3.238  42.922  10.296  1.00  0.00    -0.000 C 
BRANCH  22  23
ATOM     23  C   UNL     1       2.527  43.578  11.496  1.00  0.00    -0.000 C 
BRANCH  23  24
ATOM     24  C   UNL     1       1.070  43.131  11.708  1.00  0.00    -0.000 C 
BRANCH  24  25
ATOM     25  C   UNL     1       0.395  42.659  10.412  1.00  0.00    -0.003 C 
ATOM     26  C   UNL     1      -0.305  41.319  10.611  1.00  0.00     0.004 C 
ENDBRANCH  24  25
ENDBRANCH  23  24
ENDBRANCH  22  23
ENDBRANCH  21  22
ENDBRANCH  20  21
ENDBRANCH  19  20
ENDBRANCH  18  19
ENDBRANCH  17  18
ENDBRANCH  16  17
ENDBRANCH  15  16
ENDBRANCH   1  15
TORSDOF 22
ENDMDL
MODEL 4
REMARK VINA RESULT:     8.438      3.875      9.852
REMARK INTER + INTRA:          21.055
REMARK INTER:                  20.418
REMARK INTRA:                   0.637
REMARK UNBOUND:                 1.764
REMARK SMILES CCCCCCCCCCCCCCCCCCCCCCCC(=O)[O-]
REMARK SMILES IDX 13 1 14 2 15 3 16 4 17 5 18 6 19 7 20 8 21 9 22 10 23 11
REMARK SMILES IDX 24 12 25 13 26 14 12 15 11 16 10 17 9 18 8 19 7 20 6 21 5 22
REMARK SMILES IDX 4 23 3 24 2 25 1 26
REMARK H PARENT
REMARK Flexibility Score: inf
ROOT
ATOM      1  C   UNL     1       2.584  42.902  11.734  1.00  0.00     0.000 C 
ENDROOT
BRANCH   1   2
ATOM      2  C   UNL     1       2.133  44.289  12.223  1.00  0.00     0.000 C 
BRANCH   2   3
ATOM      3  C   UNL     1       0.709  44.272  12.817  1.00  0.00     0.000 C 
BRANCH   3   4
ATOM      4  C   UNL     1       0.578  45.035  14.149  1.00  0.00     0.000 C 
BRANCH   4   5
ATOM      5  C   UNL     1      -0.382  44.404  15.175  1.00  0.00     0.000 C 
BRANCH   5   6
ATOM      6  C   UNL     1      -1.863  44.799  15.020  1.00  0.00     0.000 C 
BRANCH   6   7
ATOM      7  C   UNL     1      -2.606  43.944  13.979  1.00  0.00     0.000 C 
BRANCH   7   8
ATOM      8  C   UNL     1      -2.083  42.499  13.922  1.00  0.00     0.000 C 
BRANCH   8   9
ATOM      9  C   UNL     1      -2.666  41.615  15.040  1.00  0.00     0.000 C 
BRANCH   9  10
ATOM     10  C   UNL     1      -4.199  41.701  15.124  1.00  0.00     0.006 C 
BRANCH  10  11
ATOM     11  C   UNL     1      -4.902  40.536  14.415  1.00  0.00     0.053 C 
BRANCH  11  12
ATOM     12  C   UNL     1      -5.769  39.783  15.374  1.00  0.00     0.041 C 
ATOM     13  O   UNL     1      -6.884  40.254  15.722  1.00  0.00    -0.550 OA
ATOM     14  O   UNL     1      -5.367  38.541  15.849  1.00  0.00    -0.550 OA
ENDBRANCH  11  12
ENDBRANCH  10  11
ENDBRANCH   9  10
ENDBRANCH   8   9
ENDBRANCH   7   8
ENDBRANCH   6   7
ENDBRANCH   5   6
ENDBRANCH   4   5
ENDBRANCH   3   4
ENDBRANCH   2   3
ENDBRANCH   1   2
BRANCH   1  15
ATOM     15  C   UNL     1       2.890  42.869  10.225  1.00  0.00     0.000 C 
BRANCH  15  16
ATOM     16  C   UNL     1       4.332  43.300   9.881  1.00  0.00     0.000 C 
BRANCH  16  17
ATOM     17  C   UNL     1       4.741  44.599  10.600  1.00  0.00     0.000 C 
BRANCH  17  18
ATOM     18  C   UNL     1       6.261  44.719  10.782  1.00  0.00    -0.000 C 
BRANCH  18  19
ATOM     19  C   UNL     1       7.042  43.738   9.889  1.00  0.00    -0.000 C 
BRANCH  19  20
ATOM     20  C   UNL     1       6.590  42.278  10.070  1.00  0.00    -0.000 C 
BRANCH  20  21
ATOM     21  C   UNL     1       7.703  41.300  10.497  1.00  0.00    -0.000 C 
BRANCH  21  22
ATOM     22  C   UNL     1       7.919  41.177  12.019  1.00  0.00    -0.000 C 
BRANCH  22  23
ATOM     23  C   UNL     1       7.717  42.484  12.812  1.00  0.00    -0.000 C 
BRANCH  23  24
ATOM     24  C   UNL     1       7.368  42.292  14.299  1.00  0.00    -0.000 C 
BRANCH  24  25
ATOM     25  C   UNL     1       5.855  42.287  14.560  1.00  0.00    -0.003 C 
ATOM     26  C   UNL     1       5.129  43.233  13.608  1.00  0.00     0.004 C 
ENDBRANCH  24  25
ENDBRANCH  23  24
ENDBRANCH  22  23
ENDBRANCH  21  22
ENDBRANCH  20  21
ENDBRANCH  19  20
ENDBRANCH  18  19
ENDBRANCH  17  18
ENDBRANCH  16  17
ENDBRANCH  15  16
ENDBRANCH   1  15
TORSDOF 22
ENDMDL
MODEL 5
REMARK VINA RESULT:     8.793      4.718      7.094
REMARK INTER + INTRA:          21.865
REMARK INTER:                  22.849
REMARK INTRA:                  -0.984
REMARK UNBOUND:                 1.764
REMARK SMILES CCCCCCCCCCCCCCCCCCCCCCCC(=O)[O-]
REMARK SMILES IDX 13 1 14 2 15 3 16 4 17 5 18 6 19 7 20 8 21 9 22 10 23 11
REMARK SMILES IDX 24 12 25 13 26 14 12 15 11 16 10 17 9 18 8 19 7 20 6 21 5 22
REMARK SMILES IDX 4 23 3 24 2 25 1 26
REMARK H PARENT
REMARK Flexibility Score: inf
ROOT
ATOM      1  C   UNL     1       6.070  42.957  13.557  1.00  0.00     0.000 C 
ENDROOT
BRANCH   1   2
ATOM      2  C   UNL     1       7.304  42.082  13.278  1.00  0.00     0.000 C 
BRANCH   2   3
ATOM      3  C   UNL     1       7.784  42.185  11.815  1.00  0.00     0.000 C 
BRANCH   3   4
ATOM      4  C   UNL     1       8.806  43.312  11.570  1.00  0.00     0.000 C 
BRANCH   4   5
ATOM      5  C   UNL     1       8.808  43.897  10.144  1.00  0.00     0.000 C 
BRANCH   5   6
ATOM      6  C   UNL     1       7.755  44.989   9.879  1.00  0.00     0.000 C 
BRANCH   6   7
ATOM      7  C   UNL     1       6.728  45.123  11.017  1.00  0.00     0.000 C 
BRANCH   7   8
ATOM      8  C   UNL     1       5.293  44.819  10.554  1.00  0.00     0.000 C 
BRANCH   8   9
ATOM      9  C   UNL     1       5.167  43.438   9.887  1.00  0.00     0.000 C 
BRANCH   9  10
ATOM     10  C   UNL     1       3.759  42.837  10.035  1.00  0.00     0.006 C 
BRANCH  10  11
ATOM     11  C   UNL     1       2.680  43.899  10.284  1.00  0.00     0.053 C 
BRANCH  11  12
ATOM     12  C   UNL     1       1.596  43.353  11.159  1.00  0.00     0.041 C 
ATOM     13  O   UNL     1       1.456  43.782  12.334  1.00  0.00    -0.550 OA
ATOM     14  O   UNL     1       0.714  42.401  10.663  1.00  0.00    -0.550 OA
ENDBRANCH  11  12
ENDBRANCH  10  11
ENDBRANCH   9  10
ENDBRANCH   8   9
ENDBRANCH   7   8
ENDBRANCH   6   7
ENDBRANCH   5   6
ENDBRANCH   4   5
ENDBRANCH   3   4
ENDBRANCH   2   3
ENDBRANCH   1   2
BRANCH   1  15
ATOM     15  C   UNL     1       5.215  42.431  14.724  1.00  0.00     0.000 C 
BRANCH  15  16
ATOM     16  C   UNL     1       6.036  41.692  15.803  1.00  0.00     0.000 C 
BRANCH  16  17
ATOM     17  C   UNL     1       5.199  40.639  16.553  1.00  0.00     0.000 C 
BRANCH  17  18
ATOM     18  C   UNL     1       5.742  40.347  17.960  1.00  0.00    -0.000 C 
BRANCH  18  19
ATOM     19  C   UNL     1       4.720  39.614  18.847  1.00  0.00    -0.000 C 
BRANCH  19  20
ATOM     20  C   UNL     1       4.951  39.857  20.349  1.00  0.00    -0.000 C 
BRANCH  20  21
ATOM     21  C   UNL     1       4.183  41.057  20.939  1.00  0.00    -0.000 C 
BRANCH  21  22
ATOM     22  C   UNL     1       2.673  41.085  20.629  1.00  0.00    -0.000 C 
BRANCH  22  23
ATOM     23  C   UNL     1       1.914  42.302  21.197  1.00  0.00    -0.000 C 
BRANCH  23  24
ATOM     24  C   UNL     1       1.960  43.562  20.315  1.00  0.00    -0.000 C 
BRANCH  24  25
ATOM     25  C   UNL     1       3.314  44.283  20.374  1.00  0.00    -0.003 C 
ATOM     26  C   UNL     1       3.972  44.107  21.739  1.00  0.00     0.004 C 
ENDBRANCH  24  25
ENDBRANCH  23  24
ENDBRANCH  22  23
ENDBRANCH  21  22
ENDBRANCH  20  21
ENDBRANCH  19  20
ENDBRANCH  18  19
ENDBRANCH  17  18
ENDBRANCH  16  17
ENDBRANCH  15  16
ENDBRANCH   1  15
TORSDOF 22
ENDMDL
MODEL 6
REMARK VINA RESULT:     9.168      4.024      6.662
REMARK INTER + INTRA:          22.723
REMARK INTER:                  23.149
REMARK INTRA:                  -0.425
REMARK UNBOUND:                 1.764
REMARK SMILES CCCCCCCCCCCCCCCCCCCCCCCC(=O)[O-]
REMARK SMILES IDX 13 1 14 2 15 3 16 4 17 5 18 6 19 7 20 8 21 9 22 10 23 11
REMARK SMILES IDX 24 12 25 13 26 14 12 15 11 16 10 17 9 18 8 19 7 20 6 21 5 22
REMARK SMILES IDX 4 23 3 24 2 25 1 26
REMARK H PARENT
REMARK Flexibility Score: inf
ROOT
ATOM      1  C   UNL     1       7.725  42.431  12.453  1.00  0.00     0.000 C 
ENDROOT
BRANCH   1   2
ATOM      2  C   UNL     1       6.704  43.504  12.865  1.00  0.00     0.000 C 
BRANCH   2   3
ATOM      3  C   UNL     1       5.760  43.023  13.987  1.00  0.00     0.000 C 
BRANCH   3   4
ATOM      4  C   UNL     1       6.307  41.831  14.796  1.00  0.00     0.000 C 
BRANCH   4   5
ATOM      5  C   UNL     1       5.353  41.275  15.871  1.00  0.00     0.000 C 
BRANCH   5   6
ATOM      6  C   UNL     1       5.878  41.347  17.317  1.00  0.00     0.000 C 
BRANCH   6   7
ATOM      7  C   UNL     1       6.054  39.961  17.962  1.00  0.00     0.000 C 
BRANCH   7   8
ATOM      8  C   UNL     1       5.368  39.860  19.335  1.00  0.00     0.000 C 
BRANCH   8   9
ATOM      9  C   UNL     1       4.372  41.006  19.585  1.00  0.00     0.000 C 
BRANCH   9  10
ATOM     10  C   UNL     1       3.414  40.713  20.752  1.00  0.00     0.006 C 
BRANCH  10  11
ATOM     11  C   UNL     1       2.721  41.974  21.285  1.00  0.00     0.053 C 
BRANCH  11  12
ATOM     12  C   UNL     1       3.450  43.203  20.841  1.00  0.00     0.041 C 
ATOM     13  O   UNL     1       4.351  43.701  21.565  1.00  0.00    -0.550 OA
ATOM     14  O   UNL     1       3.164  43.774  19.606  1.00  0.00    -0.550 OA
ENDBRANCH  11  12
ENDBRANCH  10  11
ENDBRANCH   9  10
ENDBRANCH   8   9
ENDBRANCH   7   8
ENDBRANCH   6   7
ENDBRANCH   5   6
ENDBRANCH   4   5
ENDBRANCH   3   4
ENDBRANCH   2   3
ENDBRANCH   1   2
BRANCH   1  15
ATOM     15  C   UNL     1       7.724  42.154  10.938  1.00  0.00     0.000 C 
BRANCH  15  16
ATOM     16  C   UNL     1       6.314  42.178  10.310  1.00  0.00     0.000 C 
BRANCH  16  17
ATOM     17  C   UNL     1       5.850  43.607   9.971  1.00  0.00     0.000 C 
BRANCH  17  18
ATOM     18  C   UNL     1       4.321  43.749   9.984  1.00  0.00    -0.000 C 
BRANCH  18  19
ATOM     19  C   UNL     1       3.725  43.590  11.393  1.00  0.00    -0.000 C 
BRANCH  19  20
ATOM     20  C   UNL     1       2.241  43.994  11.463  1.00  0.00    -0.000 C 
BRANCH  20  21
ATOM     21  C   UNL     1       1.729  44.349  12.874  1.00  0.00    -0.000 C 
BRANCH  21  22
ATOM     22  C   UNL     1       0.211  44.598  12.975  1.00  0.00    -0.000 C 
BRANCH  22  23
ATOM     23  C   UNL     1      -0.386  44.415  14.385  1.00  0.00    -0.000 C 
BRANCH  23  24
ATOM     24  C   UNL     1      -1.354  43.228  14.530  1.00  0.00    -0.000 C 
BRANCH  24  25
ATOM     25  C   UNL     1      -2.689  43.621  15.179  1.00  0.00    -0.003 C 
ATOM     26  C   UNL     1      -2.926  45.125  15.082  1.00  0.00     0.004 C 
ENDBRANCH  24  25
ENDBRANCH  23  24
ENDBRANCH  22  23
ENDBRANCH  21  22
ENDBRANCH  20  21
ENDBRANCH  19  20
ENDBRANCH  18  19
ENDBRANCH  17  18
ENDBRANCH  16  17
ENDBRANCH  15  16
ENDBRANCH   1  15
TORSDOF 22
ENDMDL
MODEL 7
REMARK VINA RESULT:     9.941      5.096     11.631
REMARK INTER + INTRA:          24.491
REMARK INTER:                  25.439
REMARK INTRA:                  -0.947
REMARK UNBOUND:                 1.764
REMARK SMILES CCCCCCCCCCCCCCCCCCCCCCCC(=O)[O-]
REMARK SMILES IDX 13 1 14 2 15 3 16 4 17 5 18 6 19 7 20 8 21 9 22 10 23 11
REMARK SMILES IDX 24 12 25 13 26 14 12 15 11 16 10 17 9 18 8 19 7 20 6 21 5 22
REMARK SMILES IDX 4 23 3 24 2 25 1 26
REMARK H PARENT
REMARK Flexibility Score: inf
ROOT
ATOM      1  C   UNL     1      -0.555  44.534  12.937  1.00  0.00     0.000 C 
ENDROOT
BRANCH   1   2
ATOM      2  C   UNL     1      -0.225  44.907  14.392  1.00  0.00     0.000 C 
BRANCH   2   3
ATOM      3  C   UNL     1      -1.488  45.058  15.266  1.00  0.00     0.000 C 
BRANCH   3   4
ATOM      4  C   UNL     1      -2.602  44.047  14.934  1.00  0.00     0.000 C 
BRANCH   4   5
ATOM      5  C   UNL     1      -2.169  42.568  14.939  1.00  0.00     0.000 C 
BRANCH   5   6
ATOM      6  C   UNL     1      -3.242  41.566  14.470  1.00  0.00     0.000 C 
BRANCH   6   7
ATOM      7  C   UNL     1      -4.534  41.637  15.302  1.00  0.00     0.000 C 
BRANCH   7   8
ATOM      8  C   UNL     1      -5.135  40.248  15.574  1.00  0.00     0.000 C 
BRANCH   8   9
ATOM      9  C   UNL     1      -6.400  39.977  14.740  1.00  0.00     0.000 C 
BRANCH   9  10
ATOM     10  C   UNL     1      -7.603  39.569  15.607  1.00  0.00     0.006 C 
BRANCH  10  11
ATOM     11  C   UNL     1      -8.490  40.759  15.994  1.00  0.00     0.053 C 
BRANCH  11  12
ATOM     12  C   UNL     1      -9.916  40.328  16.140  1.00  0.00     0.041 C 
ATOM     13  O   UNL     1     -10.312  39.260  15.604  1.00  0.00    -0.550 OA
ATOM     14  O   UNL     1     -10.797  41.083  16.905  1.00  0.00    -0.550 OA
ENDBRANCH  11  12
ENDBRANCH  10  11
ENDBRANCH   9  10
ENDBRANCH   8   9
ENDBRANCH   7   8
ENDBRANCH   6   7
ENDBRANCH   5   6
ENDBRANCH   4   5
ENDBRANCH   3   4
ENDBRANCH   2   3
ENDBRANCH   1   2
BRANCH   1  15
ATOM     15  C   UNL     1       0.440  43.524  12.337  1.00  0.00     0.000 C 
BRANCH  15  16
ATOM     16  C   UNL     1       1.902  44.020  12.347  1.00  0.00     0.000 C 
BRANCH  16  17
ATOM     17  C   UNL     1       2.827  43.127  11.499  1.00  0.00     0.000 C 
BRANCH  17  18
ATOM     18  C   UNL     1       3.121  43.727  10.116  1.00  0.00    -0.000 C 
BRANCH  18  19
ATOM     19  C   UNL     1       4.369  44.627  10.116  1.00  0.00    -0.000 C 
BRANCH  19  20
ATOM     20  C   UNL     1       5.671  43.842   9.876  1.00  0.00    -0.000 C 
BRANCH  20  21
ATOM     21  C   UNL     1       6.967  44.646  10.104  1.00  0.00    -0.000 C 
BRANCH  21  22
ATOM     22  C   UNL     1       8.263  43.808  10.119  1.00  0.00    -0.000 C 
BRANCH  22  23
ATOM     23  C   UNL     1       8.479  42.967  11.393  1.00  0.00    -0.000 C 
BRANCH  23  24
ATOM     24  C   UNL     1       7.624  43.391  12.601  1.00  0.00    -0.000 C 
BRANCH  24  25
ATOM     25  C   UNL     1       7.215  42.205  13.487  1.00  0.00    -0.003 C 
ATOM     26  C   UNL     1       5.963  42.529  14.295  1.00  0.00     0.004 C 
ENDBRANCH  24  25
ENDBRANCH  23  24
ENDBRANCH  22  23
ENDBRANCH  21  22
ENDBRANCH  20  21
ENDBRANCH  19  20
ENDBRANCH  18  19
ENDBRANCH  17  18
ENDBRANCH  16  17
ENDBRANCH  15  16
ENDBRANCH   1  15
TORSDOF 22
ENDMDL
MODEL 8
REMARK VINA RESULT:     9.958      3.566      6.073
REMARK INTER + INTRA:          24.529
REMARK INTER:                  25.795
REMARK INTRA:                  -1.267
REMARK UNBOUND:                 1.764
REMARK SMILES CCCCCCCCCCCCCCCCCCCCCCCC(=O)[O-]
REMARK SMILES IDX 13 1 14 2 15 3 16 4 17 5 18 6 19 7 20 8 21 9 22 10 23 11
REMARK SMILES IDX 24 12 25 13 26 14 12 15 11 16 10 17 9 18 8 19 7 20 6 21 5 22
REMARK SMILES IDX 4 23 3 24 2 25 1 26
REMARK H PARENT
REMARK Flexibility Score: inf
ROOT
ATOM      1  C   UNL     1       7.445  43.237  10.269  1.00  0.00     0.000 C 
ENDROOT
BRANCH   1   2
ATOM      2  C   UNL     1       8.343  42.984  11.491  1.00  0.00     0.000 C 
BRANCH   2   3
ATOM      3  C   UNL     1       7.894  41.757  12.312  1.00  0.00     0.000 C 
BRANCH   3   4
ATOM      4  C   UNL     1       7.577  42.073  13.786  1.00  0.00     0.000 C 
BRANCH   4   5
ATOM      5  C   UNL     1       6.150  42.587  14.055  1.00  0.00     0.000 C 
BRANCH   5   6
ATOM      6  C   UNL     1       5.261  41.654  14.899  1.00  0.00     0.000 C 
BRANCH   6   7
ATOM      7  C   UNL     1       5.290  41.992  16.399  1.00  0.00     0.000 C 
BRANCH   7   8
ATOM      8  C   UNL     1       5.861  40.845  17.250  1.00  0.00     0.000 C 
BRANCH   8   9
ATOM      9  C   UNL     1       4.862  40.337  18.306  1.00  0.00     0.000 C 
BRANCH   9  10
ATOM     10  C   UNL     1       4.842  41.212  19.570  1.00  0.00     0.006 C 
BRANCH  10  11
ATOM     11  C   UNL     1       3.952  42.453  19.422  1.00  0.00     0.053 C 
BRANCH  11  12
ATOM     12  C   UNL     1       3.407  42.871  20.752  1.00  0.00     0.041 C 
ATOM     13  O   UNL     1       4.153  43.442  21.590  1.00  0.00    -0.550 OA
ATOM     14  O   UNL     1       2.064  42.669  21.049  1.00  0.00    -0.550 OA
ENDBRANCH  11  12
ENDBRANCH  10  11
ENDBRANCH   9  10
ENDBRANCH   8   9
ENDBRANCH   7   8
ENDBRANCH   6   7
ENDBRANCH   5   6
ENDBRANCH   4   5
ENDBRANCH   3   4
ENDBRANCH   2   3
ENDBRANCH   1   2
BRANCH   1  15
ATOM     15  C   UNL     1       7.152  44.731  10.040  1.00  0.00     0.000 C 
BRANCH  15  16
ATOM     16  C   UNL     1       5.647  45.075  10.079  1.00  0.00     0.000 C 
BRANCH  16  17
ATOM     17  C   UNL     1       4.879  44.219  11.104  1.00  0.00     0.000 C 
BRANCH  17  18
ATOM     18  C   UNL     1       3.815  43.327  10.447  1.00  0.00    -0.000 C 
BRANCH  18  19
ATOM     19  C   UNL     1       2.435  44.006  10.380  1.00  0.00    -0.000 C 
BRANCH  19  20
ATOM     20  C   UNL     1       1.405  43.356  11.321  1.00  0.00    -0.000 C 
BRANCH  20  21
ATOM     21  C   UNL     1       0.558  42.235  10.684  1.00  0.00    -0.000 C 
BRANCH  21  22
ATOM     22  C   UNL     1      -0.633  41.751  11.536  1.00  0.00    -0.000 C 
BRANCH  22  23
ATOM     23  C   UNL     1      -1.074  42.722  12.650  1.00  0.00    -0.000 C 
BRANCH  23  24
ATOM     24  C   UNL     1      -1.751  42.054  13.860  1.00  0.00    -0.000 C 
BRANCH  24  25
ATOM     25  C   UNL     1      -2.423  43.065  14.801  1.00  0.00    -0.003 C 
ATOM     26  C   UNL     1      -1.715  44.415  14.755  1.00  0.00     0.004 C 
ENDBRANCH  24  25
ENDBRANCH  23  24
ENDBRANCH  22  23
ENDBRANCH  21  22
ENDBRANCH  20  21
ENDBRANCH  19  20
ENDBRANCH  18  19
ENDBRANCH  17  18
ENDBRANCH  16  17
ENDBRANCH  15  16
ENDBRANCH   1  15
TORSDOF 22
ENDMDL
