MODEL 1
REMARK VINA RESULT:    -1.598      0.000      0.000
REMARK INTER + INTRA:          -3.876
REMARK INTER:                  -2.719
REMARK INTRA:                  -1.157
REMARK UNBOUND:                -1.157
REMARK SMILES CCCCCCCCCCCCCC(=O)[O-]
REMARK SMILES IDX 8 1 9 2 10 3 11 4 12 5 13 6 14 7 15 8 16 9 7 10 6 11 5 12
REMARK SMILES IDX 4 13 3 14 2 15 1 16
REMARK H PARENT
REMARK Flexibility Score: inf
ROOT
ATOM      1  C   UNL     1     -14.712 -38.747  26.058  1.00  0.00     0.000 C 
ENDROOT
BRANCH   1   2
ATOM      2  C   UNL     1     -13.441 -37.891  26.210  1.00  0.00     0.000 C 
BRANCH   2   3
ATOM      3  C   UNL     1     -12.178 -38.604  25.705  1.00  0.00     0.000 C 
BRANCH   3   4
ATOM      4  C   UNL     1     -11.025 -37.610  25.516  1.00  0.00     0.000 C 
BRANCH   4   5
ATOM      5  C   UNL     1     -11.501 -36.169  25.730  1.00  0.00     0.006 C 
BRANCH   5   6
ATOM      6  C   UNL     1     -11.069 -35.645  27.103  1.00  0.00     0.053 C 
BRANCH   6   7
ATOM      7  C   UNL     1     -12.119 -34.748  27.676  1.00  0.00     0.041 C 
ATOM      8  O   UNL     1     -12.116 -33.517  27.407  1.00  0.00    -0.550 OA
ATOM      9  O   UNL     1     -13.130 -35.276  28.467  1.00  0.00    -0.550 OA
ENDBRANCH   6   7
ENDBRANCH   5   6
ENDBRANCH   4   5
ENDBRANCH   3   4
ENDBRANCH   2   3
ENDBRANCH   1   2
BRANCH   1  10
ATOM     10  C   UNL     1     -15.917 -38.284  26.903  1.00  0.00     0.000 C 
BRANCH  10  11
ATOM     11  C   UNL     1     -15.925 -36.790  27.273  1.00  0.00    -0.000 C 
BRANCH  11  12
ATOM     12  C   UNL     1     -17.007 -35.995  26.520  1.00  0.00    -0.000 C 
BRANCH  12  13
ATOM     13  C   UNL     1     -16.764 -35.963  25.002  1.00  0.00    -0.000 C 
BRANCH  13  14
ATOM     14  C   UNL     1     -15.339 -35.507  24.642  1.00  0.00    -0.000 C 
BRANCH  14  15
ATOM     15  C   UNL     1     -14.774 -36.251  23.422  1.00  0.00    -0.003 C 
ATOM     16  C   UNL     1     -15.838 -37.049  22.669  1.00  0.00     0.004 C 
ENDBRANCH  14  15
ENDBRANCH  13  14
ENDBRANCH  12  13
ENDBRANCH  11  12
ENDBRANCH  10  11
ENDBRANCH   1  10
TORSDOF 12
ENDMDL
MODEL 2
REMARK VINA RESULT:    -1.156      2.359      5.062
REMARK INTER + INTRA:          -3.123
REMARK INTER:                  -2.079
REMARK INTRA:                  -1.045
REMARK UNBOUND:                -1.157
REMARK SMILES CCCCCCCCCCCCCC(=O)[O-]
REMARK SMILES IDX 8 1 9 2 10 3 11 4 12 5 13 6 14 7 15 8 16 9 7 10 6 11 5 12
REMARK SMILES IDX 4 13 3 14 2 15 1 16
REMARK H PARENT
REMARK Flexibility Score: inf
ROOT
ATOM      1  C   UNL     1     -15.500 -39.004  26.228  1.00  0.00     0.000 C 
ENDROOT
BRANCH   1   2
ATOM      2  C   UNL     1     -15.928 -38.086  27.389  1.00  0.00     0.000 C 
BRANCH   2   3
ATOM      3  C   UNL     1     -15.709 -36.597  27.084  1.00  0.00     0.000 C 
BRANCH   3   4
ATOM      4  C   UNL     1     -16.991 -35.954  26.540  1.00  0.00     0.000 C 
BRANCH   4   5
ATOM      5  C   UNL     1     -16.944 -35.844  25.011  1.00  0.00     0.006 C 
BRANCH   5   6
ATOM      6  C   UNL     1     -15.500 -35.748  24.511  1.00  0.00     0.053 C 
BRANCH   6   7
ATOM      7  C   UNL     1     -15.365 -36.401  23.173  1.00  0.00     0.041 C 
ATOM      8  O   UNL     1     -14.458 -36.036  22.378  1.00  0.00    -0.550 OA
ATOM      9  O   UNL     1     -16.207 -37.448  22.820  1.00  0.00    -0.550 OA
ENDBRANCH   6   7
ENDBRANCH   5   6
ENDBRANCH   4   5
ENDBRANCH   3   4
ENDBRANCH   2   3
ENDBRANCH   1   2
BRANCH   1  10
ATOM     10  C   UNL     1     -14.184 -38.606  25.530  1.00  0.00     0.000 C 
BRANCH  10  11
ATOM     11  C   UNL     1     -13.028 -38.226  26.475  1.00  0.00    -0.000 C 
BRANCH  11  12
ATOM     12  C   UNL     1     -11.679 -38.101  25.746  1.00  0.00    -0.000 C 
BRANCH  12  13
ATOM     13  C   UNL     1     -11.128 -36.666  25.768  1.00  0.00    -0.000 C 
BRANCH  13  14
ATOM     14  C   UNL     1     -12.198 -35.630  26.158  1.00  0.00    -0.000 C 
BRANCH  14  15
ATOM     15  C   UNL     1     -11.777 -34.777  27.366  1.00  0.00    -0.003 C 
ATOM     16  C   UNL     1     -12.652 -35.018  28.595  1.00  0.00     0.004 C 
ENDBRANCH  14  15
ENDBRANCH  13  14
ENDBRANCH  12  13
ENDBRANCH  11  12
ENDBRANCH  10  11
ENDBRANCH   1  10
TORSDOF 12
ENDMDL
MODEL 3
REMARK VINA RESULT:    -0.825      1.867      3.179
REMARK INTER + INTRA:          -2.561
REMARK INTER:                  -1.960
REMARK INTRA:                  -0.601
REMARK UNBOUND:                -1.157
REMARK SMILES CCCCCCCCCCCCCC(=O)[O-]
REMARK SMILES IDX 8 1 9 2 10 3 11 4 12 5 13 6 14 7 15 8 16 9 7 10 6 11 5 12
REMARK SMILES IDX 4 13 3 14 2 15 1 16
REMARK H PARENT
REMARK Flexibility Score: inf
ROOT
ATOM      1  C   UNL     1     -15.182 -37.564  27.581  1.00  0.00     0.000 C 
ENDROOT
BRANCH   1   2
ATOM      2  C   UNL     1     -14.194 -36.477  27.120  1.00  0.00     0.000 C 
BRANCH   2   3
ATOM      3  C   UNL     1     -13.933 -35.411  28.195  1.00  0.00     0.000 C 
BRANCH   3   4
ATOM      4  C   UNL     1     -12.470 -34.953  28.170  1.00  0.00     0.000 C 
BRANCH   4   5
ATOM      5  C   UNL     1     -11.886 -35.053  26.755  1.00  0.00     0.006 C 
BRANCH   5   6
ATOM      6  C   UNL     1     -10.788 -36.118  26.688  1.00  0.00     0.053 C 
BRANCH   6   7
ATOM      7  C   UNL     1     -11.072 -37.096  25.593  1.00  0.00     0.041 C 
ATOM      8  O   UNL     1     -11.421 -38.274  25.870  1.00  0.00    -0.550 OA
ATOM      9  O   UNL     1     -11.002 -36.694  24.266  1.00  0.00    -0.550 OA
ENDBRANCH   6   7
ENDBRANCH   5   6
ENDBRANCH   4   5
ENDBRANCH   3   4
ENDBRANCH   2   3
ENDBRANCH   1   2
BRANCH   1  10
ATOM     10  C   UNL     1     -15.553 -38.609  26.510  1.00  0.00     0.000 C 
BRANCH  10  11
ATOM     11  C   UNL     1     -14.766 -38.504  25.190  1.00  0.00    -0.000 C 
BRANCH  11  12
ATOM     12  C   UNL     1     -15.590 -37.870  24.055  1.00  0.00    -0.000 C 
BRANCH  12  13
ATOM     13  C   UNL     1     -15.194 -36.408  23.786  1.00  0.00    -0.000 C 
BRANCH  13  14
ATOM     14  C   UNL     1     -15.763 -35.440  24.838  1.00  0.00    -0.000 C 
BRANCH  14  15
ATOM     15  C   UNL     1     -17.262 -35.664  25.092  1.00  0.00    -0.003 C 
ATOM     16  C   UNL     1     -17.646 -35.501  26.563  1.00  0.00     0.004 C 
ENDBRANCH  14  15
ENDBRANCH  13  14
ENDBRANCH  12  13
ENDBRANCH  11  12
ENDBRANCH  10  11
ENDBRANCH   1  10
TORSDOF 12
ENDMDL
MODEL 4
REMARK VINA RESULT:    -0.556      0.860      2.029
REMARK INTER + INTRA:          -2.102
REMARK INTER:                  -1.375
REMARK INTRA:                  -0.727
REMARK UNBOUND:                -1.157
REMARK SMILES CCCCCCCCCCCCCC(=O)[O-]
REMARK SMILES IDX 8 1 9 2 10 3 11 4 12 5 13 6 14 7 15 8 16 9 7 10 6 11 5 12
REMARK SMILES IDX 4 13 3 14 2 15 1 16
REMARK H PARENT
REMARK Flexibility Score: inf
ROOT
ATOM      1  C   UNL     1     -14.753 -38.726  26.698  1.00  0.00     0.000 C 
ENDROOT
BRANCH   1   2
ATOM      2  C   UNL     1     -13.514 -37.835  26.491  1.00  0.00     0.000 C 
BRANCH   2   3
ATOM      3  C   UNL     1     -12.276 -38.627  26.045  1.00  0.00     0.000 C 
BRANCH   3   4
ATOM      4  C   UNL     1     -11.175 -37.686  25.543  1.00  0.00     0.000 C 
BRANCH   4   5
ATOM      5  C   UNL     1     -11.604 -36.219  25.669  1.00  0.00     0.006 C 
BRANCH   5   6
ATOM      6  C   UNL     1     -11.070 -35.600  26.964  1.00  0.00     0.053 C 
BRANCH   6   7
ATOM      7  C   UNL     1     -12.102 -34.715  27.586  1.00  0.00     0.041 C 
ATOM      8  O   UNL     1     -12.091 -33.475  27.363  1.00  0.00    -0.550 OA
ATOM      9  O   UNL     1     -13.107 -35.263  28.371  1.00  0.00    -0.550 OA
ENDBRANCH   6   7
ENDBRANCH   5   6
ENDBRANCH   4   5
ENDBRANCH   3   4
ENDBRANCH   2   3
ENDBRANCH   1   2
BRANCH   1  10
ATOM     10  C   UNL     1     -15.721 -38.789  25.499  1.00  0.00     0.000 C 
BRANCH  10  11
ATOM     11  C   UNL     1     -15.216 -38.113  24.210  1.00  0.00    -0.000 C 
BRANCH  11  12
ATOM     12  C   UNL     1     -15.896 -36.759  23.942  1.00  0.00    -0.000 C 
BRANCH  12  13
ATOM     13  C   UNL     1     -15.251 -35.609  24.733  1.00  0.00    -0.000 C 
BRANCH  13  14
ATOM     14  C   UNL     1     -15.850 -35.454  26.142  1.00  0.00    -0.000 C 
BRANCH  14  15
ATOM     15  C   UNL     1     -17.376 -35.270  26.114  1.00  0.00    -0.003 C 
ATOM     16  C   UNL     1     -18.124 -36.406  26.811  1.00  0.00     0.004 C 
ENDBRANCH  14  15
ENDBRANCH  13  14
ENDBRANCH  12  13
ENDBRANCH  11  12
ENDBRANCH  10  11
ENDBRANCH   1  10
TORSDOF 12
ENDMDL
MODEL 5
REMARK VINA RESULT:    -0.547      2.587      4.847
REMARK INTER + INTRA:          -2.088
REMARK INTER:                  -2.339
REMARK INTRA:                   0.251
REMARK UNBOUND:                -1.157
REMARK SMILES CCCCCCCCCCCCCC(=O)[O-]
REMARK SMILES IDX 8 1 9 2 10 3 11 4 12 5 13 6 14 7 15 8 16 9 7 10 6 11 5 12
REMARK SMILES IDX 4 13 3 14 2 15 1 16
REMARK H PARENT
REMARK Flexibility Score: inf
ROOT
ATOM      1  C   UNL     1     -16.016 -35.308  26.474  1.00  0.00     0.000 C 
ENDROOT
BRANCH   1   2
ATOM      2  C   UNL     1     -16.801 -36.633  26.481  1.00  0.00     0.000 C 
BRANCH   2   3
ATOM      3  C   UNL     1     -16.105 -37.734  27.295  1.00  0.00     0.000 C 
BRANCH   3   4
ATOM      4  C   UNL     1     -15.128 -38.529  26.419  1.00  0.00     0.000 C 
BRANCH   4   5
ATOM      5  C   UNL     1     -15.540 -38.469  24.943  1.00  0.00     0.006 C 
BRANCH   5   6
ATOM      6  C   UNL     1     -14.714 -37.427  24.184  1.00  0.00     0.053 C 
BRANCH   6   7
ATOM      7  C   UNL     1     -15.529 -36.803  23.097  1.00  0.00     0.041 C 
ATOM      8  O   UNL     1     -14.963 -36.200  22.147  1.00  0.00    -0.550 OA
ATOM      9  O   UNL     1     -16.912 -36.929  23.104  1.00  0.00    -0.550 OA
ENDBRANCH   6   7
ENDBRANCH   5   6
ENDBRANCH   4   5
ENDBRANCH   3   4
ENDBRANCH   2   3
ENDBRANCH   1   2
BRANCH   1  10
ATOM     10  C   UNL     1     -14.481 -35.456  26.529  1.00  0.00     0.000 C 
BRANCH  10  11
ATOM     11  C   UNL     1     -13.890 -35.657  27.936  1.00  0.00    -0.000 C 
BRANCH  11  12
ATOM     12  C   UNL     1     -12.558 -34.913  28.134  1.00  0.00    -0.000 C 
BRANCH  12  13
ATOM     13  C   UNL     1     -11.740 -34.816  26.836  1.00  0.00    -0.000 C 
BRANCH  13  14
ATOM     14  C   UNL     1     -10.868 -36.061  26.594  1.00  0.00    -0.000 C 
BRANCH  14  15
ATOM     15  C   UNL     1     -11.332 -36.874  25.374  1.00  0.00    -0.003 C 
ATOM     16  C   UNL     1     -11.505 -38.361  25.684  1.00  0.00     0.004 C 
ENDBRANCH  14  15
ENDBRANCH  13  14
ENDBRANCH  12  13
ENDBRANCH  11  12
ENDBRANCH  10  11
ENDBRANCH   1  10
TORSDOF 12
ENDMDL
MODEL 6
REMARK VINA RESULT:    -0.430      1.888      2.916
REMARK INTER + INTRA:          -1.889
REMARK INTER:                  -1.763
REMARK INTRA:                  -0.127
REMARK UNBOUND:                -1.157
REMARK SMILES CCCCCCCCCCCCCC(=O)[O-]
REMARK SMILES IDX 8 1 9 2 10 3 11 4 12 5 13 6 14 7 15 8 16 9 7 10 6 11 5 12
REMARK SMILES IDX 4 13 3 14 2 15 1 16
REMARK H PARENT
REMARK Flexibility Score: inf
ROOT
ATOM      1  C   UNL     1     -15.862 -35.521  26.502  1.00  0.00     0.000 C 
ENDROOT
BRANCH   1   2
ATOM      2  C   UNL     1     -14.327 -35.532  26.626  1.00  0.00     0.000 C 
BRANCH   2   3
ATOM      3  C   UNL     1     -13.847 -35.506  28.085  1.00  0.00     0.000 C 
BRANCH   3   4
ATOM      4  C   UNL     1     -12.438 -34.908  28.188  1.00  0.00     0.000 C 
BRANCH   4   5
ATOM      5  C   UNL     1     -11.735 -34.919  26.825  1.00  0.00     0.006 C 
BRANCH   5   6
ATOM      6  C   UNL     1     -10.763 -36.097  26.718  1.00  0.00     0.053 C 
BRANCH   6   7
ATOM      7  C   UNL     1     -11.228 -37.067  25.680  1.00  0.00     0.041 C 
ATOM      8  O   UNL     1     -11.076 -36.808  24.457  1.00  0.00    -0.550 OA
ATOM      9  O   UNL     1     -11.784 -38.281  26.061  1.00  0.00    -0.550 OA
ENDBRANCH   6   7
ENDBRANCH   5   6
ENDBRANCH   4   5
ENDBRANCH   3   4
ENDBRANCH   2   3
ENDBRANCH   1   2
BRANCH   1  10
ATOM     10  C   UNL     1     -16.561 -36.834  26.910  1.00  0.00     0.000 C 
BRANCH  10  11
ATOM     11  C   UNL     1     -15.620 -38.023  27.178  1.00  0.00    -0.000 C 
BRANCH  11  12
ATOM     12  C   UNL     1     -15.573 -39.020  26.007  1.00  0.00    -0.000 C 
BRANCH  12  13
ATOM     13  C   UNL     1     -14.871 -38.440  24.767  1.00  0.00    -0.000 C 
BRANCH  13  14
ATOM     14  C   UNL     1     -15.815 -37.589  23.900  1.00  0.00    -0.000 C 
BRANCH  14  15
ATOM     15  C   UNL     1     -15.118 -36.349  23.316  1.00  0.00    -0.003 C 
ATOM     16  C   UNL     1     -15.133 -36.325  21.788  1.00  0.00     0.004 C 
ENDBRANCH  14  15
ENDBRANCH  13  14
ENDBRANCH  12  13
ENDBRANCH  11  12
ENDBRANCH  10  11
ENDBRANCH   1  10
TORSDOF 12
ENDMDL
MODEL 7
REMARK VINA RESULT:    -0.297      2.017      4.505
REMARK INTER + INTRA:          -1.662
REMARK INTER:                  -1.621
REMARK INTRA:                  -0.041
REMARK UNBOUND:                -1.157
REMARK SMILES CCCCCCCCCCCCCC(=O)[O-]
REMARK SMILES IDX 8 1 9 2 10 3 11 4 12 5 13 6 14 7 15 8 16 9 7 10 6 11 5 12
REMARK SMILES IDX 4 13 3 14 2 15 1 16
REMARK H PARENT
REMARK Flexibility Score: inf
ROOT
ATOM      1  C   UNL     1     -15.455 -38.434  26.845  1.00  0.00     0.000 C 
ENDROOT
BRANCH   1   2
ATOM      2  C   UNL     1     -14.706 -38.638  25.515  1.00  0.00     0.000 C 
BRANCH   2   3
ATOM      3  C   UNL     1     -15.503 -38.143  24.299  1.00  0.00     0.000 C 
BRANCH   3   4
ATOM      4  C   UNL     1     -15.004 -36.767  23.840  1.00  0.00     0.000 C 
BRANCH   4   5
ATOM      5  C   UNL     1     -15.753 -35.641  24.562  1.00  0.00     0.006 C 
BRANCH   5   6
ATOM      6  C   UNL     1     -17.227 -36.005  24.768  1.00  0.00     0.053 C 
BRANCH   6   7
ATOM      7  C   UNL     1     -17.659 -35.672  26.160  1.00  0.00     0.041 C 
ATOM      8  O   UNL     1     -18.375 -36.478  26.812  1.00  0.00    -0.550 OA
ATOM      9  O   UNL     1     -17.231 -34.494  26.759  1.00  0.00    -0.550 OA
ENDBRANCH   6   7
ENDBRANCH   5   6
ENDBRANCH   4   5
ENDBRANCH   3   4
ENDBRANCH   2   3
ENDBRANCH   1   2
BRANCH   1  10
ATOM     10  C   UNL     1     -15.077 -37.156  27.621  1.00  0.00     0.000 C 
BRANCH  10  11
ATOM     11  C   UNL     1     -14.029 -36.259  26.936  1.00  0.00    -0.000 C 
BRANCH  11  12
ATOM     12  C   UNL     1     -13.340 -35.293  27.917  1.00  0.00    -0.000 C 
BRANCH  12  13
ATOM     13  C   UNL     1     -11.978 -34.800  27.399  1.00  0.00    -0.000 C 
BRANCH  13  14
ATOM     14  C   UNL     1     -11.067 -35.955  26.947  1.00  0.00    -0.000 C 
BRANCH  14  15
ATOM     15  C   UNL     1     -11.501 -36.552  25.599  1.00  0.00    -0.003 C 
ATOM     16  C   UNL     1     -11.148 -38.033  25.465  1.00  0.00     0.004 C 
ENDBRANCH  14  15
ENDBRANCH  13  14
ENDBRANCH  12  13
ENDBRANCH  11  12
ENDBRANCH  10  11
ENDBRANCH   1  10
TORSDOF 12
ENDMDL
MODEL 8
REMARK VINA RESULT:    -0.194      2.638      5.277
REMARK INTER + INTRA:          -1.487
REMARK INTER:                  -0.708
REMARK INTRA:                  -0.779
REMARK UNBOUND:                -1.157
REMARK SMILES CCCCCCCCCCCCCC(=O)[O-]
REMARK SMILES IDX 8 1 9 2 10 3 11 4 12 5 13 6 14 7 15 8 16 9 7 10 6 11 5 12
REMARK SMILES IDX 4 13 3 14 2 15 1 16
REMARK H PARENT
REMARK Flexibility Score: inf
ROOT
ATOM      1  C   UNL     1     -12.885 -35.081  28.209  1.00  0.00     0.000 C 
ENDROOT
BRANCH   1   2
ATOM      2  C   UNL     1     -14.298 -35.616  27.909  1.00  0.00     0.000 C 
BRANCH   2   3
ATOM      3  C   UNL     1     -14.774 -35.278  26.488  1.00  0.00     0.000 C 
BRANCH   3   4
ATOM      4  C   UNL     1     -16.268 -35.584  26.324  1.00  0.00     0.000 C 
BRANCH   4   5
ATOM      5  C   UNL     1     -16.541 -36.292  24.992  1.00  0.00     0.006 C 
BRANCH   5   6
ATOM      6  C   UNL     1     -15.239 -36.544  24.226  1.00  0.00     0.053 C 
BRANCH   6   7
ATOM      7  C   UNL     1     -15.511 -36.693  22.764  1.00  0.00     0.041 C 
ATOM      8  O   UNL     1     -16.444 -37.439  22.365  1.00  0.00    -0.550 OA
ATOM      9  O   UNL     1     -14.768 -35.969  21.840  1.00  0.00    -0.550 OA
ENDBRANCH   6   7
ENDBRANCH   5   6
ENDBRANCH   4   5
ENDBRANCH   3   4
ENDBRANCH   2   3
ENDBRANCH   1   2
BRANCH   1  10
ATOM     10  C   UNL     1     -11.994 -34.855  26.971  1.00  0.00     0.000 C 
BRANCH  10  11
ATOM     11  C   UNL     1     -11.035 -36.011  26.633  1.00  0.00    -0.000 C 
BRANCH  11  12
ATOM     12  C   UNL     1     -11.445 -36.772  25.359  1.00  0.00    -0.000 C 
BRANCH  12  13
ATOM     13  C   UNL     1     -11.825 -38.235  25.644  1.00  0.00    -0.000 C 
BRANCH  13  14
ATOM     14  C   UNL     1     -13.023 -38.357  26.603  1.00  0.00    -0.000 C 
BRANCH  14  15
ATOM     15  C   UNL     1     -14.316 -38.763  25.878  1.00  0.00    -0.003 C 
ATOM     16  C   UNL     1     -15.478 -39.019  26.836  1.00  0.00     0.004 C 
ENDBRANCH  14  15
ENDBRANCH  13  14
ENDBRANCH  12  13
ENDBRANCH  11  12
ENDBRANCH  10  11
ENDBRANCH   1  10
TORSDOF 12
ENDMDL
MODEL 9
REMARK VINA RESULT:    -0.012      2.039      3.519
REMARK INTER + INTRA:          -1.177
REMARK INTER:                  -0.269
REMARK INTRA:                  -0.908
REMARK UNBOUND:                -1.157
REMARK SMILES CCCCCCCCCCCCCC(=O)[O-]
REMARK SMILES IDX 8 1 9 2 10 3 11 4 12 5 13 6 14 7 15 8 16 9 7 10 6 11 5 12
REMARK SMILES IDX 4 13 3 14 2 15 1 16
REMARK H PARENT
REMARK Flexibility Score: inf
ROOT
ATOM      1  C   UNL     1     -12.136 -34.704  27.028  1.00  0.00     0.000 C 
ENDROOT
BRANCH   1   2
ATOM      2  C   UNL     1     -10.964 -35.565  26.520  1.00  0.00     0.000 C 
BRANCH   2   3
ATOM      3  C   UNL     1     -11.369 -36.512  25.381  1.00  0.00     0.000 C 
BRANCH   3   4
ATOM      4  C   UNL     1     -11.226 -37.978  25.809  1.00  0.00     0.000 C 
BRANCH   4   5
ATOM      5  C   UNL     1     -12.535 -38.506  26.407  1.00  0.00     0.006 C 
BRANCH   5   6
ATOM      6  C   UNL     1     -13.714 -38.244  25.465  1.00  0.00     0.053 C 
BRANCH   6   7
ATOM      7  C   UNL     1     -14.964 -38.861  26.006  1.00  0.00     0.041 C 
ATOM      8  O   UNL     1     -15.794 -39.399  25.226  1.00  0.00    -0.550 OA
ATOM      9  O   UNL     1     -15.191 -38.886  27.376  1.00  0.00    -0.550 OA
ENDBRANCH   6   7
ENDBRANCH   5   6
ENDBRANCH   4   5
ENDBRANCH   3   4
ENDBRANCH   2   3
ENDBRANCH   1   2
BRANCH   1  10
ATOM     10  C   UNL     1     -12.878 -35.270  28.256  1.00  0.00     0.000 C 
BRANCH  10  11
ATOM     11  C   UNL     1     -14.331 -35.710  27.999  1.00  0.00    -0.000 C 
BRANCH  11  12
ATOM     12  C   UNL     1     -14.817 -35.363  26.581  1.00  0.00    -0.000 C 
BRANCH  12  13
ATOM     13  C   UNL     1     -16.299 -35.711  26.364  1.00  0.00    -0.000 C 
BRANCH  13  14
ATOM     14  C   UNL     1     -16.607 -36.098  24.906  1.00  0.00    -0.000 C 
BRANCH  14  15
ATOM     15  C   UNL     1     -15.359 -36.048  24.010  1.00  0.00    -0.003 C 
ATOM     16  C   UNL     1     -15.558 -36.768  22.676  1.00  0.00     0.004 C 
ENDBRANCH  14  15
ENDBRANCH  13  14
ENDBRANCH  12  13
ENDBRANCH  11  12
ENDBRANCH  10  11
ENDBRANCH   1  10
TORSDOF 12
ENDMDL
