MODEL 1
REMARK VINA RESULT:    -7.824      0.000      0.000
REMARK INTER + INTRA:          -9.651
REMARK INTER:                  -9.654
REMARK INTRA:                   0.003
REMARK UNBOUND:                 0.003
REMARK SMILES Oc1cc(O)c2cc(O)c(-c3cc(O)c(O)c(O)c3)[o+]c2c1
REMARK SMILES IDX 10 1 20 2 21 3 22 4 2 5 3 6 4 7 6 8 7 9 8 10 11 11 12 12
REMARK SMILES IDX 13 13 19 14 15 15 17 16 14 17 16 19 18 21 9 23 1 25 5 27
REMARK H PARENT 14 18 16 20 18 22 9 24 1 26 5 28
REMARK Flexibility Score: inf
ROOT
ATOM      1  C   UNL     1      23.227  24.419  34.574  1.00  0.00     0.402 A 
ATOM      2  O   UNL     1      22.553  23.713  35.479  1.00  0.00    -0.202 OA
ATOM      3  C   UNL     1      22.877  22.472  35.826  1.00  0.00     0.368 A 
ATOM      4  C   UNL     1      22.106  21.810  36.785  1.00  0.00     0.162 A 
ATOM      5  C   UNL     1      22.420  20.505  37.166  1.00  0.00     0.128 A 
ATOM      6  C   UNL     1      23.514  19.854  36.584  1.00  0.00     0.093 A 
ATOM      7  C   UNL     1      24.303  20.496  35.620  1.00  0.00     0.136 A 
ATOM      8  C   UNL     1      23.988  21.823  35.232  1.00  0.00     0.125 A 
ATOM      9  C   UNL     1      24.729  22.548  34.286  1.00  0.00     0.078 A 
ATOM     10  C   UNL     1      24.360  23.856  33.957  1.00  0.00     0.223 A 
ENDROOT
BRANCH   1  11
ATOM     11  C   UNL     1      22.761  25.790  34.266  1.00  0.00     0.091 A 
ATOM     12  C   UNL     1      21.405  26.010  33.981  1.00  0.00     0.068 A 
ATOM     13  C   UNL     1      20.941  27.294  33.666  1.00  0.00     0.162 A 
ATOM     14  C   UNL     1      23.658  26.870  34.198  1.00  0.00     0.068 A 
ATOM     15  C   UNL     1      21.837  28.371  33.620  1.00  0.00     0.200 A 
ATOM     16  C   UNL     1      23.201  28.157  33.883  1.00  0.00     0.162 A 
BRANCH  13  17
ATOM     17  O   UNL     1      19.591  27.510  33.398  1.00  0.00    -0.504 OA
ATOM     18  H   UNL     1      19.289  28.035  32.584  1.00  0.00     0.293 HD
ENDBRANCH  13  17
BRANCH  15  19
ATOM     19  O   UNL     1      21.358  29.643  33.308  1.00  0.00    -0.502 OA
ATOM     20  H   UNL     1      20.462  29.978  33.640  1.00  0.00     0.293 HD
ENDBRANCH  15  19
BRANCH  16  21
ATOM     21  O   UNL     1      24.098  29.222  33.823  1.00  0.00    -0.504 OA
ATOM     22  H   UNL     1      24.114  29.862  33.038  1.00  0.00     0.293 HD
ENDBRANCH  16  21
ENDBRANCH   1  11
BRANCH  10  23
ATOM     23  O   UNL     1      25.125  24.594  33.053  1.00  0.00    -0.500 OA
ATOM     24  H   UNL     1      26.084  24.343  32.839  1.00  0.00     0.294 HD
ENDBRANCH  10  23
BRANCH   5  25
ATOM     25  O   UNL     1      21.640  19.863  38.124  1.00  0.00    -0.507 OA
ATOM     26  H   UNL     1      21.000  19.118  37.874  1.00  0.00     0.293 HD
ENDBRANCH   5  25
BRANCH   7  27
ATOM     27  O   UNL     1      25.375  19.777  35.085  1.00  0.00    -0.507 OA
ATOM     28  H   UNL     1      26.297  19.737  35.496  1.00  0.00     0.293 HD
ENDBRANCH   7  27
TORSDOF 7
ENDMDL
MODEL 2
REMARK VINA RESULT:    -7.414      0.978      6.928
REMARK INTER + INTRA:          -9.145
REMARK INTER:                  -9.322
REMARK INTRA:                   0.177
REMARK UNBOUND:                 0.003
REMARK SMILES Oc1cc(O)c2cc(O)c(-c3cc(O)c(O)c(O)c3)[o+]c2c1
REMARK SMILES IDX 10 1 20 2 21 3 22 4 2 5 3 6 4 7 6 8 7 9 8 10 11 11 12 12
REMARK SMILES IDX 13 13 19 14 15 15 17 16 14 17 16 19 18 21 9 23 1 25 5 27
REMARK H PARENT 14 18 16 20 18 22 9 24 1 26 5 28
REMARK Flexibility Score: inf
ROOT
ATOM      1  C   UNL     1      23.428  24.078  35.185  1.00  0.00     0.402 A 
ATOM      2  O   UNL     1      22.246  24.647  34.968  1.00  0.00    -0.202 OA
ATOM      3  C   UNL     1      22.104  25.909  34.575  1.00  0.00     0.368 A 
ATOM      4  C   UNL     1      20.818  26.419  34.377  1.00  0.00     0.162 A 
ATOM      5  C   UNL     1      20.639  27.741  33.968  1.00  0.00     0.128 A 
ATOM      6  C   UNL     1      21.753  28.561  33.756  1.00  0.00     0.093 A 
ATOM      7  C   UNL     1      23.052  28.074  33.948  1.00  0.00     0.136 A 
ATOM      8  C   UNL     1      23.238  26.730  34.361  1.00  0.00     0.125 A 
ATOM      9  C   UNL     1      24.502  26.152  34.566  1.00  0.00     0.078 A 
ATOM     10  C   UNL     1      24.607  24.817  34.969  1.00  0.00     0.223 A 
ENDROOT
BRANCH   1  11
ATOM     11  C   UNL     1      23.455  22.665  35.630  1.00  0.00     0.091 A 
ATOM     12  C   UNL     1      22.455  22.196  36.495  1.00  0.00     0.068 A 
ATOM     13  C   UNL     1      22.468  20.870  36.948  1.00  0.00     0.162 A 
ATOM     14  C   UNL     1      24.493  21.798  35.250  1.00  0.00     0.068 A 
ATOM     15  C   UNL     1      23.494  20.004  36.549  1.00  0.00     0.200 A 
ATOM     16  C   UNL     1      24.513  20.470  35.701  1.00  0.00     0.162 A 
BRANCH  13  17
ATOM     17  O   UNL     1      21.464  20.404  37.795  1.00  0.00    -0.504 OA
ATOM     18  H   UNL     1      20.998  21.019  38.452  1.00  0.00     0.293 HD
ENDBRANCH  13  17
BRANCH  15  19
ATOM     19  O   UNL     1      23.491  18.686  37.007  1.00  0.00    -0.502 OA
ATOM     20  H   UNL     1      24.324  18.110  36.998  1.00  0.00     0.293 HD
ENDBRANCH  15  19
BRANCH  16  21
ATOM     21  O   UNL     1      25.544  19.616  35.313  1.00  0.00    -0.504 OA
ATOM     22  H   UNL     1      25.405  18.617  35.231  1.00  0.00     0.293 HD
ENDBRANCH  16  21
ENDBRANCH   1  11
BRANCH  10  23
ATOM     23  O   UNL     1      25.862  24.229  35.124  1.00  0.00    -0.500 OA
ATOM     24  H   UNL     1      26.711  24.707  34.848  1.00  0.00     0.294 HD
ENDBRANCH  10  23
BRANCH   5  25
ATOM     25  O   UNL     1      19.350  28.231  33.775  1.00  0.00    -0.507 OA
ATOM     26  H   UNL     1      18.990  28.427  32.849  1.00  0.00     0.293 HD
ENDBRANCH   5  25
BRANCH   7  27
ATOM     27  O   UNL     1      24.110  28.957  33.719  1.00  0.00    -0.507 OA
ATOM     28  H   UNL     1      24.208  29.859  34.163  1.00  0.00     0.293 HD
ENDBRANCH   7  27
TORSDOF 7
ENDMDL
MODEL 3
REMARK VINA RESULT:    -7.406      1.030      7.092
REMARK INTER + INTRA:          -9.134
REMARK INTER:                  -9.226
REMARK INTRA:                   0.091
REMARK UNBOUND:                 0.003
REMARK SMILES Oc1cc(O)c2cc(O)c(-c3cc(O)c(O)c(O)c3)[o+]c2c1
REMARK SMILES IDX 10 1 20 2 21 3 22 4 2 5 3 6 4 7 6 8 7 9 8 10 11 11 12 12
REMARK SMILES IDX 13 13 19 14 15 15 17 16 14 17 16 19 18 21 9 23 1 25 5 27
REMARK H PARENT 14 18 16 20 18 22 9 24 1 26 5 28
REMARK Flexibility Score: inf
ROOT
ATOM      1  C   UNL     1      23.545  24.211  35.213  1.00  0.00     0.402 A 
ATOM      2  O   UNL     1      22.377  24.766  34.898  1.00  0.00    -0.202 OA
ATOM      3  C   UNL     1      22.254  26.024  34.488  1.00  0.00     0.368 A 
ATOM      4  C   UNL     1      20.983  26.519  34.183  1.00  0.00     0.162 A 
ATOM      5  C   UNL     1      20.823  27.837  33.754  1.00  0.00     0.128 A 
ATOM      6  C   UNL     1      21.941  28.668  33.626  1.00  0.00     0.093 A 
ATOM      7  C   UNL     1      23.226  28.197  33.926  1.00  0.00     0.136 A 
ATOM      8  C   UNL     1      23.393  26.857  34.360  1.00  0.00     0.125 A 
ATOM      9  C   UNL     1      24.642  26.295  34.669  1.00  0.00     0.078 A 
ATOM     10  C   UNL     1      24.728  24.963  35.088  1.00  0.00     0.223 A 
ENDROOT
BRANCH   1  11
ATOM     11  C   UNL     1      23.551  22.802  35.668  1.00  0.00     0.091 A 
ATOM     12  C   UNL     1      24.526  21.922  35.175  1.00  0.00     0.068 A 
ATOM     13  C   UNL     1      24.542  20.579  35.573  1.00  0.00     0.162 A 
ATOM     14  C   UNL     1      22.566  22.310  36.541  1.00  0.00     0.068 A 
ATOM     15  C   UNL     1      23.569  20.100  36.461  1.00  0.00     0.200 A 
ATOM     16  C   UNL     1      22.575  20.967  36.943  1.00  0.00     0.162 A 
BRANCH  13  17
ATOM     17  O   UNL     1      25.522  19.713  35.093  1.00  0.00    -0.504 OA
ATOM     18  H   UNL     1      25.645  19.550  34.099  1.00  0.00     0.293 HD
ENDBRANCH  13  17
BRANCH  15  19
ATOM     19  O   UNL     1      23.602  18.760  36.849  1.00  0.00    -0.502 OA
ATOM     20  H   UNL     1      23.933  18.028  36.233  1.00  0.00     0.293 HD
ENDBRANCH  15  19
BRANCH  16  21
ATOM     21  O   UNL     1      21.596  20.492  37.814  1.00  0.00    -0.504 OA
ATOM     22  H   UNL     1      20.609  20.575  37.601  1.00  0.00     0.293 HD
ENDBRANCH  16  21
ENDBRANCH   1  11
BRANCH  10  23
ATOM     23  O   UNL     1      25.973  24.390  35.347  1.00  0.00    -0.500 OA
ATOM     24  H   UNL     1      26.708  24.377  34.649  1.00  0.00     0.294 HD
ENDBRANCH  10  23
BRANCH   5  25
ATOM     25  O   UNL     1      19.548  28.311  33.455  1.00  0.00    -0.507 OA
ATOM     26  H   UNL     1      18.745  27.694  33.428  1.00  0.00     0.293 HD
ENDBRANCH   5  25
BRANCH   7  27
ATOM     27  O   UNL     1      24.290  29.090  33.776  1.00  0.00    -0.507 OA
ATOM     28  H   UNL     1      24.236  29.962  33.269  1.00  0.00     0.293 HD
ENDBRANCH   7  27
TORSDOF 7
ENDMDL
MODEL 4
REMARK VINA RESULT:    -7.337      1.192      3.214
REMARK INTER + INTRA:          -9.050
REMARK INTER:                  -8.958
REMARK INTRA:                  -0.092
REMARK UNBOUND:                 0.003
REMARK SMILES Oc1cc(O)c2cc(O)c(-c3cc(O)c(O)c(O)c3)[o+]c2c1
REMARK SMILES IDX 10 1 20 2 21 3 22 4 2 5 3 6 4 7 6 8 7 9 8 10 11 11 12 12
REMARK SMILES IDX 13 13 19 14 15 15 17 16 14 17 16 19 18 21 9 23 1 25 5 27
REMARK H PARENT 14 18 16 20 18 22 9 24 1 26 5 28
REMARK Flexibility Score: inf
ROOT
ATOM      1  C   UNL     1      22.903  24.319  34.929  1.00  0.00     0.402 A 
ATOM      2  O   UNL     1      23.807  23.685  34.187  1.00  0.00    -0.202 OA
ATOM      3  C   UNL     1      24.289  22.484  34.490  1.00  0.00     0.368 A 
ATOM      4  C   UNL     1      25.241  21.900  33.650  1.00  0.00     0.162 A 
ATOM      5  C   UNL     1      25.767  20.642  33.945  1.00  0.00     0.128 A 
ATOM      6  C   UNL     1      25.339  19.961  35.091  1.00  0.00     0.093 A 
ATOM      7  C   UNL     1      24.387  20.524  35.950  1.00  0.00     0.136 A 
ATOM      8  C   UNL     1      23.848  21.802  35.651  1.00  0.00     0.125 A 
ATOM      9  C   UNL     1      22.881  22.438  36.446  1.00  0.00     0.078 A 
ATOM     10  C   UNL     1      22.393  23.698  36.085  1.00  0.00     0.223 A 
ENDROOT
BRANCH   1  11
ATOM     11  C   UNL     1      22.451  25.659  34.490  1.00  0.00     0.091 A 
ATOM     12  C   UNL     1      23.397  26.678  34.301  1.00  0.00     0.068 A 
ATOM     13  C   UNL     1      22.994  27.961  33.906  1.00  0.00     0.162 A 
ATOM     14  C   UNL     1      21.088  25.950  34.312  1.00  0.00     0.068 A 
ATOM     15  C   UNL     1      21.635  28.239  33.710  1.00  0.00     0.200 A 
ATOM     16  C   UNL     1      20.678  27.232  33.918  1.00  0.00     0.162 A 
BRANCH  13  17
ATOM     17  O   UNL     1      23.939  28.965  33.705  1.00  0.00    -0.504 OA
ATOM     18  H   UNL     1      24.736  28.829  33.094  1.00  0.00     0.293 HD
ENDBRANCH  13  17
BRANCH  15  19
ATOM     19  O   UNL     1      21.252  29.521  33.314  1.00  0.00    -0.502 OA
ATOM     20  H   UNL     1      21.131  30.276  33.977  1.00  0.00     0.293 HD
ENDBRANCH  15  19
BRANCH  16  21
ATOM     21  O   UNL     1      19.324  27.508  33.739  1.00  0.00    -0.504 OA
ATOM     22  H   UNL     1      18.891  28.330  34.141  1.00  0.00     0.293 HD
ENDBRANCH  16  21
ENDBRANCH   1  11
BRANCH  10  23
ATOM     23  O   UNL     1      21.396  24.308  36.847  1.00  0.00    -0.500 OA
ATOM     24  H   UNL     1      20.726  23.765  37.379  1.00  0.00     0.294 HD
ENDBRANCH  10  23
BRANCH   5  25
ATOM     25  O   UNL     1      26.714  20.077  33.095  1.00  0.00    -0.507 OA
ATOM     26  H   UNL     1      26.449  19.652  32.215  1.00  0.00     0.293 HD
ENDBRANCH   5  25
BRANCH   7  27
ATOM     27  O   UNL     1      24.016  19.782  37.074  1.00  0.00    -0.507 OA
ATOM     28  H   UNL     1      24.642  19.534  37.827  1.00  0.00     0.293 HD
ENDBRANCH   7  27
TORSDOF 7
ENDMDL
MODEL 5
REMARK VINA RESULT:    -7.331      1.170      2.680
REMARK INTER + INTRA:          -9.042
REMARK INTER:                  -8.930
REMARK INTRA:                  -0.113
REMARK UNBOUND:                 0.003
REMARK SMILES Oc1cc(O)c2cc(O)c(-c3cc(O)c(O)c(O)c3)[o+]c2c1
REMARK SMILES IDX 10 1 20 2 21 3 22 4 2 5 3 6 4 7 6 8 7 9 8 10 11 11 12 12
REMARK SMILES IDX 13 13 19 14 15 15 17 16 14 17 16 19 18 21 9 23 1 25 5 27
REMARK H PARENT 14 18 16 20 18 22 9 24 1 26 5 28
REMARK Flexibility Score: inf
ROOT
ATOM      1  C   UNL     1      22.974  24.322  34.940  1.00  0.00     0.402 A 
ATOM      2  O   UNL     1      23.882  23.698  34.194  1.00  0.00    -0.202 OA
ATOM      3  C   UNL     1      24.334  22.477  34.463  1.00  0.00     0.368 A 
ATOM      4  C   UNL     1      25.292  21.905  33.622  1.00  0.00     0.162 A 
ATOM      5  C   UNL     1      25.787  20.627  33.881  1.00  0.00     0.128 A 
ATOM      6  C   UNL     1      25.322  19.913  34.992  1.00  0.00     0.093 A 
ATOM      7  C   UNL     1      24.363  20.464  35.851  1.00  0.00     0.136 A 
ATOM      8  C   UNL     1      23.855  21.763  35.588  1.00  0.00     0.125 A 
ATOM      9  C   UNL     1      22.884  22.388  36.386  1.00  0.00     0.078 A 
ATOM     10  C   UNL     1      22.428  23.670  36.061  1.00  0.00     0.223 A 
ENDROOT
BRANCH   1  11
ATOM     11  C   UNL     1      22.558  25.686  34.541  1.00  0.00     0.091 A 
ATOM     12  C   UNL     1      21.205  25.944  34.273  1.00  0.00     0.068 A 
ATOM     13  C   UNL     1      20.788  27.221  33.875  1.00  0.00     0.162 A 
ATOM     14  C   UNL     1      23.497  26.717  34.370  1.00  0.00     0.068 A 
ATOM     15  C   UNL     1      21.726  28.250  33.726  1.00  0.00     0.200 A 
ATOM     16  C   UNL     1      23.086  27.997  33.970  1.00  0.00     0.162 A 
BRANCH  13  17
ATOM     17  O   UNL     1      19.441  27.476  33.625  1.00  0.00    -0.504 OA
ATOM     18  H   UNL     1      19.139  28.327  33.163  1.00  0.00     0.293 HD
ENDBRANCH  13  17
BRANCH  15  19
ATOM     19  O   UNL     1      21.293  29.516  33.331  1.00  0.00    -0.502 OA
ATOM     20  H   UNL     1      21.892  30.158  32.825  1.00  0.00     0.293 HD
ENDBRANCH  15  19
BRANCH  16  21
ATOM     21  O   UNL     1      24.026  29.014  33.808  1.00  0.00    -0.504 OA
ATOM     22  H   UNL     1      24.710  29.224  34.525  1.00  0.00     0.293 HD
ENDBRANCH  16  21
ENDBRANCH   1  11
BRANCH  10  23
ATOM     23  O   UNL     1      21.427  24.272  36.824  1.00  0.00    -0.500 OA
ATOM     24  H   UNL     1      20.461  24.284  36.520  1.00  0.00     0.294 HD
ENDBRANCH  10  23
BRANCH   5  25
ATOM     25  O   UNL     1      26.741  20.074  33.031  1.00  0.00    -0.507 OA
ATOM     26  H   UNL     1      27.073  20.570  32.213  1.00  0.00     0.293 HD
ENDBRANCH   5  25
BRANCH   7  27
ATOM     27  O   UNL     1      23.953  19.689  36.939  1.00  0.00    -0.507 OA
ATOM     28  H   UNL     1      23.175  19.917  37.541  1.00  0.00     0.293 HD
ENDBRANCH   7  27
TORSDOF 7
ENDMDL
MODEL 6
REMARK VINA RESULT:    -7.183      1.528      6.936
REMARK INTER + INTRA:          -8.860
REMARK INTER:                  -8.487
REMARK INTRA:                  -0.373
REMARK UNBOUND:                 0.003
REMARK SMILES Oc1cc(O)c2cc(O)c(-c3cc(O)c(O)c(O)c3)[o+]c2c1
REMARK SMILES IDX 10 1 20 2 21 3 22 4 2 5 3 6 4 7 6 8 7 9 8 10 11 11 12 12
REMARK SMILES IDX 13 13 19 14 15 15 17 16 14 17 16 19 18 21 9 23 1 25 5 27
REMARK H PARENT 14 18 16 20 18 22 9 24 1 26 5 28
REMARK Flexibility Score: inf
ROOT
ATOM      1  C   UNL     1      23.645  24.749  34.752  1.00  0.00     0.402 A 
ATOM      2  O   UNL     1      22.336  24.919  34.591  1.00  0.00    -0.202 OA
ATOM      3  C   UNL     1      21.780  26.095  34.320  1.00  0.00     0.368 A 
ATOM      4  C   UNL     1      20.393  26.175  34.172  1.00  0.00     0.162 A 
ATOM      5  C   UNL     1      19.781  27.397  33.892  1.00  0.00     0.128 A 
ATOM      6  C   UNL     1      20.562  28.551  33.758  1.00  0.00     0.093 A 
ATOM      7  C   UNL     1      21.954  28.498  33.902  1.00  0.00     0.136 A 
ATOM      8  C   UNL     1      22.579  27.257  34.185  1.00  0.00     0.125 A 
ATOM      9  C   UNL     1      23.967  27.107  34.332  1.00  0.00     0.078 A 
ATOM     10  C   UNL     1      24.513  25.848  34.607  1.00  0.00     0.223 A 
ENDROOT
BRANCH   1  11
ATOM     11  C   UNL     1      24.143  23.388  35.061  1.00  0.00     0.091 A 
ATOM     12  C   UNL     1      24.541  22.545  34.012  1.00  0.00     0.068 A 
ATOM     13  C   UNL     1      24.996  21.246  34.276  1.00  0.00     0.162 A 
ATOM     14  C   UNL     1      24.172  22.902  36.379  1.00  0.00     0.068 A 
ATOM     15  C   UNL     1      25.043  20.774  35.594  1.00  0.00     0.200 A 
ATOM     16  C   UNL     1      24.625  21.603  36.649  1.00  0.00     0.162 A 
BRANCH  13  17
ATOM     17  O   UNL     1      25.405  20.418  33.233  1.00  0.00    -0.504 OA
ATOM     18  H   UNL     1      26.061  20.737  32.528  1.00  0.00     0.293 HD
ENDBRANCH  13  17
BRANCH  15  19
ATOM     19  O   UNL     1      25.501  19.479  35.838  1.00  0.00    -0.502 OA
ATOM     20  H   UNL     1      25.142  18.914  36.598  1.00  0.00     0.293 HD
ENDBRANCH  15  19
BRANCH  16  21
ATOM     21  O   UNL     1      24.655  21.132  37.960  1.00  0.00    -0.504 OA
ATOM     22  H   UNL     1      23.958  20.485  38.310  1.00  0.00     0.293 HD
ENDBRANCH  16  21
ENDBRANCH   1  11
BRANCH  10  23
ATOM     23  O   UNL     1      25.895  25.690  34.704  1.00  0.00    -0.500 OA
ATOM     24  H   UNL     1      26.503  26.462  34.950  1.00  0.00     0.294 HD
ENDBRANCH  10  23
BRANCH   5  25
ATOM     25  O   UNL     1      18.398  27.456  33.748  1.00  0.00    -0.507 OA
ATOM     26  H   UNL     1      17.925  28.322  33.520  1.00  0.00     0.293 HD
ENDBRANCH   5  25
BRANCH   7  27
ATOM     27  O   UNL     1      22.661  29.695  33.756  1.00  0.00    -0.507 OA
ATOM     28  H   UNL     1      22.286  30.609  33.967  1.00  0.00     0.293 HD
ENDBRANCH   7  27
TORSDOF 7
ENDMDL
MODEL 7
REMARK VINA RESULT:    -7.074      3.482      7.276
REMARK INTER + INTRA:          -8.725
REMARK INTER:                  -9.110
REMARK INTRA:                   0.385
REMARK UNBOUND:                 0.003
REMARK SMILES Oc1cc(O)c2cc(O)c(-c3cc(O)c(O)c(O)c3)[o+]c2c1
REMARK SMILES IDX 10 1 20 2 21 3 22 4 2 5 3 6 4 7 6 8 7 9 8 10 11 11 12 12
REMARK SMILES IDX 13 13 19 14 15 15 17 16 14 17 16 19 18 21 9 23 1 25 5 27
REMARK H PARENT 14 18 16 20 18 22 9 24 1 26 5 28
REMARK Flexibility Score: inf
ROOT
ATOM      1  C   UNL     1      25.387  22.052  34.361  1.00  0.00     0.402 A 
ATOM      2  O   UNL     1      26.586  21.526  34.128  1.00  0.00    -0.202 OA
ATOM      3  C   UNL     1      27.474  22.069  33.302  1.00  0.00     0.368 A 
ATOM      4  C   UNL     1      28.708  21.440  33.119  1.00  0.00     0.162 A 
ATOM      5  C   UNL     1      29.658  21.985  32.255  1.00  0.00     0.128 A 
ATOM      6  C   UNL     1      29.374  23.170  31.567  1.00  0.00     0.093 A 
ATOM      7  C   UNL     1      28.144  23.821  31.732  1.00  0.00     0.136 A 
ATOM      8  C   UNL     1      27.177  23.270  32.612  1.00  0.00     0.125 A 
ATOM      9  C   UNL     1      25.925  23.859  32.850  1.00  0.00     0.078 A 
ATOM     10  C   UNL     1      25.023  23.260  33.735  1.00  0.00     0.223 A 
ENDROOT
BRANCH   1  11
ATOM     11  C   UNL     1      24.481  21.346  35.297  1.00  0.00     0.091 A 
ATOM     12  C   UNL     1      24.912  20.160  35.910  1.00  0.00     0.068 A 
ATOM     13  C   UNL     1      24.068  19.462  36.784  1.00  0.00     0.162 A 
ATOM     14  C   UNL     1      23.177  21.808  35.541  1.00  0.00     0.068 A 
ATOM     15  C   UNL     1      22.775  19.939  37.040  1.00  0.00     0.200 A 
ATOM     16  C   UNL     1      22.327  21.113  36.413  1.00  0.00     0.162 A 
BRANCH  13  17
ATOM     17  O   UNL     1      24.505  18.293  37.402  1.00  0.00    -0.504 OA
ATOM     18  H   UNL     1      25.472  17.992  37.345  1.00  0.00     0.293 HD
ENDBRANCH  13  17
BRANCH  15  19
ATOM     19  O   UNL     1      21.949  19.233  37.914  1.00  0.00    -0.502 OA
ATOM     20  H   UNL     1      21.726  18.254  37.774  1.00  0.00     0.293 HD
ENDBRANCH  15  19
BRANCH  16  21
ATOM     21  O   UNL     1      21.037  21.584  36.653  1.00  0.00    -0.504 OA
ATOM     22  H   UNL     1      20.543  22.153  35.975  1.00  0.00     0.293 HD
ENDBRANCH  16  21
ENDBRANCH   1  11
BRANCH  10  23
ATOM     23  O   UNL     1      23.800  23.871  34.010  1.00  0.00    -0.500 OA
ATOM     24  H   UNL     1      23.555  24.772  33.616  1.00  0.00     0.294 HD
ENDBRANCH  10  23
BRANCH   5  25
ATOM     25  O   UNL     1      30.882  21.343  32.086  1.00  0.00    -0.507 OA
ATOM     26  H   UNL     1      31.412  20.996  32.877  1.00  0.00     0.293 HD
ENDBRANCH   5  25
BRANCH   7  27
ATOM     27  O   UNL     1      27.936  24.997  31.007  1.00  0.00    -0.507 OA
ATOM     28  H   UNL     1      28.427  25.864  31.172  1.00  0.00     0.293 HD
ENDBRANCH   7  27
TORSDOF 7
ENDMDL
MODEL 8
REMARK VINA RESULT:    -7.052      2.035      2.374
REMARK INTER + INTRA:          -8.697
REMARK INTER:                  -8.318
REMARK INTRA:                  -0.380
REMARK UNBOUND:                 0.003
REMARK SMILES Oc1cc(O)c2cc(O)c(-c3cc(O)c(O)c(O)c3)[o+]c2c1
REMARK SMILES IDX 10 1 20 2 21 3 22 4 2 5 3 6 4 7 6 8 7 9 8 10 11 11 12 12
REMARK SMILES IDX 13 13 19 14 15 15 17 16 14 17 16 19 18 21 9 23 1 25 5 27
REMARK H PARENT 14 18 16 20 18 22 9 24 1 26 5 28
REMARK Flexibility Score: inf
ROOT
ATOM      1  C   UNL     1      22.300  25.415  34.156  1.00  0.00     0.402 A 
ATOM      2  O   UNL     1      22.883  25.049  35.295  1.00  0.00    -0.202 OA
ATOM      3  C   UNL     1      23.637  23.961  35.413  1.00  0.00     0.368 A 
ATOM      4  C   UNL     1      24.204  23.657  36.653  1.00  0.00     0.162 A 
ATOM      5  C   UNL     1      24.997  22.520  36.808  1.00  0.00     0.128 A 
ATOM      6  C   UNL     1      25.226  21.677  35.714  1.00  0.00     0.093 A 
ATOM      7  C   UNL     1      24.668  21.959  34.460  1.00  0.00     0.136 A 
ATOM      8  C   UNL     1      23.864  23.116  34.299  1.00  0.00     0.125 A 
ATOM      9  C   UNL     1      23.276  23.485  33.078  1.00  0.00     0.078 A 
ATOM     10  C   UNL     1      22.498  24.644  32.995  1.00  0.00     0.223 A 
ENDROOT
BRANCH   1  11
ATOM     11  C   UNL     1      21.475  26.644  34.154  1.00  0.00     0.091 A 
ATOM     12  C   UNL     1      20.101  26.553  34.422  1.00  0.00     0.068 A 
ATOM     13  C   UNL     1      19.293  27.698  34.407  1.00  0.00     0.162 A 
ATOM     14  C   UNL     1      22.027  27.896  33.834  1.00  0.00     0.068 A 
ATOM     15  C   UNL     1      19.854  28.947  34.108  1.00  0.00     0.200 A 
ATOM     16  C   UNL     1      21.225  29.046  33.816  1.00  0.00     0.162 A 
BRANCH  13  17
ATOM     17  O   UNL     1      17.932  27.605  34.689  1.00  0.00    -0.504 OA
ATOM     18  H   UNL     1      17.341  28.428  34.730  1.00  0.00     0.293 HD
ENDBRANCH  13  17
BRANCH  15  19
ATOM     19  O   UNL     1      19.036  30.077  34.100  1.00  0.00    -0.502 OA
ATOM     20  H   UNL     1      19.283  30.925  34.596  1.00  0.00     0.293 HD
ENDBRANCH  15  19
BRANCH  16  21
ATOM     21  O   UNL     1      21.784  30.283  33.503  1.00  0.00    -0.504 OA
ATOM     22  H   UNL     1      22.560  30.368  32.857  1.00  0.00     0.293 HD
ENDBRANCH  16  21
ENDBRANCH   1  11
BRANCH  10  23
ATOM     23  O   UNL     1      21.955  25.037  31.771  1.00  0.00    -0.500 OA
ATOM     24  H   UNL     1      21.751  24.366  31.040  1.00  0.00     0.294 HD
ENDBRANCH  10  23
BRANCH   5  25
ATOM     25  O   UNL     1      25.554  22.235  38.051  1.00  0.00    -0.507 OA
ATOM     26  H   UNL     1      26.243  22.844  38.476  1.00  0.00     0.293 HD
ENDBRANCH   5  25
BRANCH   7  27
ATOM     27  O   UNL     1      24.942  21.067  33.420  1.00  0.00    -0.507 OA
ATOM     28  H   UNL     1      25.281  21.340  32.508  1.00  0.00     0.293 HD
ENDBRANCH   7  27
TORSDOF 7
ENDMDL
MODEL 9
REMARK VINA RESULT:    -7.032      4.124      7.151
REMARK INTER + INTRA:          -8.673
REMARK INTER:                  -8.919
REMARK INTRA:                   0.246
REMARK UNBOUND:                 0.003
REMARK SMILES Oc1cc(O)c2cc(O)c(-c3cc(O)c(O)c(O)c3)[o+]c2c1
REMARK SMILES IDX 10 1 20 2 21 3 22 4 2 5 3 6 4 7 6 8 7 9 8 10 11 11 12 12
REMARK SMILES IDX 13 13 19 14 15 15 17 16 14 17 16 19 18 21 9 23 1 25 5 27
REMARK H PARENT 14 18 16 20 18 22 9 24 1 26 5 28
REMARK Flexibility Score: inf
ROOT
ATOM      1  C   UNL     1      26.052  21.252  34.604  1.00  0.00     0.402 A 
ATOM      2  O   UNL     1      26.110  22.324  33.819  1.00  0.00    -0.202 OA
ATOM      3  C   UNL     1      27.139  22.589  33.020  1.00  0.00     0.368 A 
ATOM      4  C   UNL     1      27.110  23.743  32.233  1.00  0.00     0.162 A 
ATOM      5  C   UNL     1      28.177  24.049  31.388  1.00  0.00     0.128 A 
ATOM      6  C   UNL     1      29.284  23.194  31.327  1.00  0.00     0.093 A 
ATOM      7  C   UNL     1      29.338  22.031  32.106  1.00  0.00     0.136 A 
ATOM      8  C   UNL     1      28.253  21.716  32.965  1.00  0.00     0.125 A 
ATOM      9  C   UNL     1      28.214  20.567  33.771  1.00  0.00     0.078 A 
ATOM     10  C   UNL     1      27.108  20.320  34.590  1.00  0.00     0.223 A 
ENDROOT
BRANCH   1  11
ATOM     11  C   UNL     1      24.855  21.073  35.458  1.00  0.00     0.091 A 
ATOM     12  C   UNL     1      24.409  19.776  35.756  1.00  0.00     0.068 A 
ATOM     13  C   UNL     1      23.268  19.579  36.545  1.00  0.00     0.162 A 
ATOM     14  C   UNL     1      24.121  22.174  35.930  1.00  0.00     0.068 A 
ATOM     15  C   UNL     1      22.552  20.681  37.030  1.00  0.00     0.200 A 
ATOM     16  C   UNL     1      22.977  21.983  36.718  1.00  0.00     0.162 A 
BRANCH  13  17
ATOM     17  O   UNL     1      22.837  18.290  36.851  1.00  0.00    -0.504 OA
ATOM     18  H   UNL     1      23.490  17.563  37.123  1.00  0.00     0.293 HD
ENDBRANCH  13  17
BRANCH  15  19
ATOM     19  O   UNL     1      21.419  20.466  37.815  1.00  0.00    -0.502 OA
ATOM     20  H   UNL     1      20.679  19.834  37.533  1.00  0.00     0.293 HD
ENDBRANCH  15  19
BRANCH  16  21
ATOM     21  O   UNL     1      22.260  23.083  37.186  1.00  0.00    -0.504 OA
ATOM     22  H   UNL     1      21.560  23.543  36.616  1.00  0.00     0.293 HD
ENDBRANCH  16  21
ENDBRANCH   1  11
BRANCH  10  23
ATOM     23  O   UNL     1      27.047  19.154  35.352  1.00  0.00    -0.500 OA
ATOM     24  H   UNL     1      27.022  18.237  34.921  1.00  0.00     0.294 HD
ENDBRANCH  10  23
BRANCH   5  25
ATOM     25  O   UNL     1      28.129  25.204  30.611  1.00  0.00    -0.507 OA
ATOM     26  H   UNL     1      28.453  26.095  30.967  1.00  0.00     0.293 HD
ENDBRANCH   5  25
BRANCH   7  27
ATOM     27  O   UNL     1      30.479  21.233  31.991  1.00  0.00    -0.507 OA
ATOM     28  H   UNL     1      30.908  20.974  31.115  1.00  0.00     0.293 HD
ENDBRANCH   7  27
TORSDOF 7
ENDMDL
