MODEL 1
REMARK VINA RESULT:    -3.492      0.000      0.000
REMARK INTER + INTRA:          -3.492
REMARK INTER:                  -3.492
REMARK INTRA:                   0.000
REMARK UNBOUND:                 0.000
REMARK SMILES CC1(C)O[C@]2(C)CC[C@H]1CC2
REMARK SMILES IDX 1 1 2 2 9 3 8 4 7 5 5 6 4 7 11 8 10 9 6 10 3 11
REMARK H PARENT
REMARK Flexibility Score: inf
ROOT
ATOM      1  C   UNL     1       7.036   1.874   7.582  1.00  0.00     0.042 C 
ATOM      2  C   UNL     1       6.077   2.186   6.413  1.00  0.00     0.066 C 
ATOM      3  C   UNL     1       6.644   3.358   5.522  1.00  0.00     0.021 C 
ATOM      4  C   UNL     1       6.721   4.638   6.390  1.00  0.00     0.009 C 
ATOM      5  C   UNL     1       5.351   4.875   7.069  1.00  0.00     0.035 C 
ATOM      6  C   UNL     1       4.330   3.806   6.584  1.00  0.00     0.066 C 
ATOM      7  O   UNL     1       4.792   2.510   6.965  1.00  0.00    -0.369 OA
ATOM      8  C   UNL     1       4.225   3.875   5.032  1.00  0.00     0.035 C 
ATOM      9  C   UNL     1       5.622   3.662   4.402  1.00  0.00     0.009 C 
ATOM     10  C   UNL     1       2.959   4.050   7.223  1.00  0.00     0.042 C 
ATOM     11  C   UNL     1       5.930   0.893   5.582  1.00  0.00     0.042 C 
ENDROOT
TORSDOF 0
ENDMDL
MODEL 2
REMARK VINA RESULT:    -3.463      1.173      3.367
REMARK INTER + INTRA:          -3.463
REMARK INTER:                  -3.463
REMARK INTRA:                   0.000
REMARK UNBOUND:                 0.000
REMARK SMILES CC1(C)O[C@]2(C)CC[C@H]1CC2
REMARK SMILES IDX 1 1 2 2 9 3 8 4 7 5 5 6 4 7 11 8 10 9 6 10 3 11
REMARK H PARENT
REMARK Flexibility Score: inf
ROOT
ATOM      1  C   UNL     1       4.342   4.510   7.002  1.00  0.00     0.042 C 
ATOM      2  C   UNL     1       5.765   4.087   6.577  1.00  0.00     0.066 C 
ATOM      3  C   UNL     1       5.747   3.426   5.145  1.00  0.00     0.021 C 
ATOM      4  C   UNL     1       4.900   2.132   5.215  1.00  0.00     0.009 C 
ATOM      5  C   UNL     1       5.406   1.255   6.384  1.00  0.00     0.035 C 
ATOM      6  C   UNL     1       6.652   1.918   7.040  1.00  0.00     0.066 C 
ATOM      7  O   UNL     1       6.279   3.190   7.572  1.00  0.00    -0.369 OA
ATOM      8  C   UNL     1       7.748   2.120   5.953  1.00  0.00     0.035 C 
ATOM      9  C   UNL     1       7.185   2.977   4.794  1.00  0.00     0.009 C 
ATOM     10  C   UNL     1       7.185   1.042   8.179  1.00  0.00     0.042 C 
ATOM     11  C   UNL     1       6.641   5.359   6.578  1.00  0.00     0.042 C 
ENDROOT
TORSDOF 0
ENDMDL
MODEL 3
REMARK VINA RESULT:    -3.425      1.391      3.189
REMARK INTER + INTRA:          -3.425
REMARK INTER:                  -3.425
REMARK INTRA:                   0.000
REMARK UNBOUND:                 0.000
REMARK SMILES CC1(C)O[C@]2(C)CC[C@H]1CC2
REMARK SMILES IDX 1 1 2 2 9 3 8 4 7 5 5 6 4 7 11 8 10 9 6 10 3 11
REMARK H PARENT
REMARK Flexibility Score: inf
ROOT
ATOM      1  C   UNL     1       6.471   5.213   6.948  1.00  0.00     0.042 C 
ATOM      2  C   UNL     1       5.506   4.124   6.431  1.00  0.00     0.066 C 
ATOM      3  C   UNL     1       5.969   2.694   6.907  1.00  0.00     0.021 C 
ATOM      4  C   UNL     1       7.354   2.396   6.282  1.00  0.00     0.009 C 
ATOM      5  C   UNL     1       7.286   2.637   4.755  1.00  0.00     0.035 C 
ATOM      6  C   UNL     1       5.831   3.007   4.345  1.00  0.00     0.066 C 
ATOM      7  O   UNL     1       5.454   4.219   5.000  1.00  0.00    -0.369 OA
ATOM      8  C   UNL     1       4.873   1.865   4.792  1.00  0.00     0.035 C 
ATOM      9  C   UNL     1       4.999   1.643   6.319  1.00  0.00     0.009 C 
ATOM     10  C   UNL     1       5.741   3.215   2.829  1.00  0.00     0.042 C 
ATOM     11  C   UNL     1       4.102   4.454   6.985  1.00  0.00     0.042 C 
ENDROOT
TORSDOF 0
ENDMDL
MODEL 4
REMARK VINA RESULT:    -3.320      1.193      3.059
REMARK INTER + INTRA:          -3.320
REMARK INTER:                  -3.320
REMARK INTRA:                   0.000
REMARK UNBOUND:                 0.000
REMARK SMILES CC1(C)O[C@]2(C)CC[C@H]1CC2
REMARK SMILES IDX 1 1 2 2 9 3 8 4 7 5 5 6 4 7 11 8 10 9 6 10 3 11
REMARK H PARENT
REMARK Flexibility Score: inf
ROOT
ATOM      1  C   UNL     1       4.385   1.764   4.384  1.00  0.00     0.042 C 
ATOM      2  C   UNL     1       4.791   2.741   5.509  1.00  0.00     0.066 C 
ATOM      3  C   UNL     1       5.893   3.750   5.003  1.00  0.00     0.021 C 
ATOM      4  C   UNL     1       7.161   2.944   4.631  1.00  0.00     0.009 C 
ATOM      5  C   UNL     1       7.546   2.027   5.817  1.00  0.00     0.035 C 
ATOM      6  C   UNL     1       6.588   2.285   7.016  1.00  0.00     0.066 C 
ATOM      7  O   UNL     1       5.252   1.966   6.626  1.00  0.00    -0.369 OA
ATOM      8  C   UNL     1       6.661   3.791   7.405  1.00  0.00     0.035 C 
ATOM      9  C   UNL     1       6.297   4.666   6.181  1.00  0.00     0.009 C 
ATOM     10  C   UNL     1       6.979   1.407   8.209  1.00  0.00     0.042 C 
ATOM     11  C   UNL     1       3.517   3.497   5.943  1.00  0.00     0.042 C 
ENDROOT
TORSDOF 0
ENDMDL
MODEL 5
REMARK VINA RESULT:    -3.106      1.252      2.491
REMARK INTER + INTRA:          -3.106
REMARK INTER:                  -3.106
REMARK INTRA:                   0.000
REMARK UNBOUND:                 0.000
REMARK SMILES CC1(C)O[C@]2(C)CC[C@H]1CC2
REMARK SMILES IDX 1 1 2 2 9 3 8 4 7 5 5 6 4 7 11 8 10 9 6 10 3 11
REMARK H PARENT
REMARK Flexibility Score: inf
ROOT
ATOM      1  C   UNL     1       6.166   1.900   3.623  1.00  0.00     0.042 C 
ATOM      2  C   UNL     1       5.633   3.070   4.477  1.00  0.00     0.066 C 
ATOM      3  C   UNL     1       6.743   3.588   5.471  1.00  0.00     0.021 C 
ATOM      4  C   UNL     1       7.094   2.442   6.452  1.00  0.00     0.009 C 
ATOM      5  C   UNL     1       5.791   1.896   7.083  1.00  0.00     0.035 C 
ATOM      6  C   UNL     1       4.576   2.736   6.593  1.00  0.00     0.066 C 
ATOM      7  O   UNL     1       4.464   2.615   5.175  1.00  0.00    -0.369 OA
ATOM      8  C   UNL     1       4.813   4.229   6.962  1.00  0.00     0.035 C 
ATOM      9  C   UNL     1       6.139   4.720   6.334  1.00  0.00     0.009 C 
ATOM     10  C   UNL     1       3.282   2.226   7.237  1.00  0.00     0.042 C 
ATOM     11  C   UNL     1       5.206   4.191   3.505  1.00  0.00     0.042 C 
ENDROOT
TORSDOF 0
ENDMDL
MODEL 6
REMARK VINA RESULT:    -3.098      9.565     11.209
REMARK INTER + INTRA:          -3.098
REMARK INTER:                  -3.098
REMARK INTRA:                   0.000
REMARK UNBOUND:                 0.000
REMARK SMILES CC1(C)O[C@]2(C)CC[C@H]1CC2
REMARK SMILES IDX 1 1 2 2 9 3 8 4 7 5 5 6 4 7 11 8 10 9 6 10 3 11
REMARK H PARENT
REMARK Flexibility Score: inf
ROOT
ATOM      1  C   UNL     1       4.367  12.019   8.174  1.00  0.00     0.042 C 
ATOM      2  C   UNL     1       4.900  13.460   8.327  1.00  0.00     0.066 C 
ATOM      3  C   UNL     1       6.241  13.650   7.520  1.00  0.00     0.021 C 
ATOM      4  C   UNL     1       7.313  12.711   8.125  1.00  0.00     0.009 C 
ATOM      5  C   UNL     1       7.380  12.935   9.655  1.00  0.00     0.035 C 
ATOM      6  C   UNL     1       6.418  14.089  10.060  1.00  0.00     0.066 C 
ATOM      7  O   UNL     1       5.079  13.722   9.727  1.00  0.00    -0.369 OA
ATOM      8  C   UNL     1       6.808  15.373   9.271  1.00  0.00     0.035 C 
ATOM      9  C   UNL     1       6.754  15.090   7.751  1.00  0.00     0.009 C 
ATOM     10  C   UNL     1       6.500  14.345  11.569  1.00  0.00     0.042 C 
ATOM     11  C   UNL     1       3.806  14.413   7.798  1.00  0.00     0.042 C 
ENDROOT
TORSDOF 0
ENDMDL
MODEL 7
REMARK VINA RESULT:    -3.078     10.458     11.864
REMARK INTER + INTRA:          -3.078
REMARK INTER:                  -3.078
REMARK INTRA:                   0.000
REMARK UNBOUND:                 0.000
REMARK SMILES CC1(C)O[C@]2(C)CC[C@H]1CC2
REMARK SMILES IDX 1 1 2 2 9 3 8 4 7 5 5 6 4 7 11 8 10 9 6 10 3 11
REMARK H PARENT
REMARK Flexibility Score: inf
ROOT
ATOM      1  C   UNL     1      10.620  10.117  13.013  1.00  0.00     0.042 C 
ATOM      2  C   UNL     1       9.625   9.329  13.892  1.00  0.00     0.066 C 
ATOM      3  C   UNL     1       8.539  10.291  14.509  1.00  0.00     0.021 C 
ATOM      4  C   UNL     1       9.253  11.302  15.440  1.00  0.00     0.009 C 
ATOM      5  C   UNL     1      10.149  10.529  16.437  1.00  0.00     0.035 C 
ATOM      6  C   UNL     1       9.965   8.997  16.233  1.00  0.00     0.066 C 
ATOM      7  O   UNL     1      10.373   8.647  14.910  1.00  0.00    -0.369 OA
ATOM      8  C   UNL     1       8.460   8.640  16.414  1.00  0.00     0.035 C 
ATOM      9  C   UNL     1       7.604   9.459  15.417  1.00  0.00     0.009 C 
ATOM     10  C   UNL     1      10.821   8.219  17.238  1.00  0.00     0.042 C 
ATOM     11  C   UNL     1       8.962   8.264  12.992  1.00  0.00     0.042 C 
ENDROOT
TORSDOF 0
ENDMDL
MODEL 8
REMARK VINA RESULT:    -3.025      1.551      2.444
REMARK INTER + INTRA:          -3.025
REMARK INTER:                  -3.025
REMARK INTRA:                   0.000
REMARK UNBOUND:                 0.000
REMARK SMILES CC1(C)O[C@]2(C)CC[C@H]1CC2
REMARK SMILES IDX 1 1 2 2 9 3 8 4 7 5 5 6 4 7 11 8 10 9 6 10 3 11
REMARK H PARENT
REMARK Flexibility Score: inf
ROOT
ATOM      1  C   UNL     1       4.507   1.170   7.296  1.00  0.00     0.042 C 
ATOM      2  C   UNL     1       5.593   1.261   6.202  1.00  0.00     0.066 C 
ATOM      3  C   UNL     1       6.921   1.885   6.782  1.00  0.00     0.021 C 
ATOM      4  C   UNL     1       6.622   3.334   7.236  1.00  0.00     0.009 C 
ATOM      5  C   UNL     1       5.938   4.099   6.078  1.00  0.00     0.035 C 
ATOM      6  C   UNL     1       5.861   3.190   4.818  1.00  0.00     0.066 C 
ATOM      7  O   UNL     1       5.068   2.041   5.117  1.00  0.00    -0.369 OA
ATOM      8  C   UNL     1       7.300   2.732   4.437  1.00  0.00     0.035 C 
ATOM      9  C   UNL     1       7.951   1.999   5.634  1.00  0.00     0.009 C 
ATOM     10  C   UNL     1       5.216   3.947   3.652  1.00  0.00     0.042 C 
ATOM     11  C   UNL     1       5.845  -0.172   5.685  1.00  0.00     0.042 C 
ENDROOT
TORSDOF 0
ENDMDL
MODEL 9
REMARK VINA RESULT:    -2.912      1.405      3.175
REMARK INTER + INTRA:          -2.912
REMARK INTER:                  -2.912
REMARK INTRA:                   0.000
REMARK UNBOUND:                 0.000
REMARK SMILES CC1(C)O[C@]2(C)CC[C@H]1CC2
REMARK SMILES IDX 1 1 2 2 9 3 8 4 7 5 5 6 4 7 11 8 10 9 6 10 3 11
REMARK H PARENT
REMARK Flexibility Score: inf
ROOT
ATOM      1  C   UNL     1       7.002   2.506   7.068  1.00  0.00     0.042 C 
ATOM      2  C   UNL     1       5.990   3.424   6.349  1.00  0.00     0.066 C 
ATOM      3  C   UNL     1       4.520   2.880   6.523  1.00  0.00     0.021 C 
ATOM      4  C   UNL     1       4.428   1.493   5.841  1.00  0.00     0.009 C 
ATOM      5  C   UNL     1       4.967   1.602   4.394  1.00  0.00     0.035 C 
ATOM      6  C   UNL     1       5.334   3.080   4.078  1.00  0.00     0.066 C 
ATOM      7  O   UNL     1       6.368   3.507   4.967  1.00  0.00    -0.369 OA
ATOM      8  C   UNL     1       4.076   3.971   4.293  1.00  0.00     0.035 C 
ATOM      9  C   UNL     1       3.558   3.806   5.743  1.00  0.00     0.009 C 
ATOM     10  C   UNL     1       5.838   3.208   2.636  1.00  0.00     0.042 C 
ATOM     11  C   UNL     1       6.127   4.832   6.969  1.00  0.00     0.042 C 
ENDROOT
TORSDOF 0
ENDMDL
