MODEL 1
REMARK VINA RESULT:    -4.411      0.000      0.000
REMARK INTER + INTRA:         -14.977
REMARK INTER:                 -10.084
REMARK INTRA:                  -4.894
REMARK UNBOUND:                -4.894
REMARK SMILES CCCCCCCCCCCCCCCCCCCCCCCC(=O)[O-]
REMARK SMILES IDX 13 1 14 2 15 3 16 4 17 5 18 6 19 7 20 8 21 9 22 10 23 11
REMARK SMILES IDX 24 12 25 13 26 14 12 15 11 16 10 17 9 18 8 19 7 20 6 21 5 22
REMARK SMILES IDX 4 23 3 24 2 25 1 26
REMARK H PARENT
REMARK Flexibility Score: inf
ROOT
ATOM      1  C   UNL     1      19.330  -6.342  20.892  1.00  0.00     0.000 C 
ENDROOT
BRANCH   1   2
ATOM      2  C   UNL     1      20.462  -5.905  19.939  1.00  0.00     0.000 C 
BRANCH   2   3
ATOM      3  C   UNL     1      20.028  -5.817  18.466  1.00  0.00     0.000 C 
BRANCH   3   4
ATOM      4  C   UNL     1      20.834  -4.780  17.668  1.00  0.00     0.000 C 
BRANCH   4   5
ATOM      5  C   UNL     1      21.921  -4.100  18.518  1.00  0.00     0.000 C 
BRANCH   5   6
ATOM      6  C   UNL     1      21.755  -2.572  18.575  1.00  0.00     0.000 C 
BRANCH   6   7
ATOM      7  C   UNL     1      20.283  -2.137  18.409  1.00  0.00     0.000 C 
BRANCH   7   8
ATOM      8  C   UNL     1      19.701  -1.440  19.655  1.00  0.00     0.000 C 
BRANCH   8   9
ATOM      9  C   UNL     1      18.355  -2.001  20.146  1.00  0.00     0.000 C 
BRANCH   9  10
ATOM     10  C   UNL     1      17.662  -2.984  19.179  1.00  0.00     0.006 C 
BRANCH  10  11
ATOM     11  C   UNL     1      16.690  -3.959  19.868  1.00  0.00     0.053 C 
BRANCH  11  12
ATOM     12  C   UNL     1      16.156  -4.997  18.928  1.00  0.00     0.041 C 
ATOM     13  O   UNL     1      15.557  -4.650  17.875  1.00  0.00    -0.550 OA
ATOM     14  O   UNL     1      16.361  -6.346  19.188  1.00  0.00    -0.550 OA
ENDBRANCH  11  12
ENDBRANCH  10  11
ENDBRANCH   9  10
ENDBRANCH   8   9
ENDBRANCH   7   8
ENDBRANCH   6   7
ENDBRANCH   5   6
ENDBRANCH   4   5
ENDBRANCH   3   4
ENDBRANCH   2   3
ENDBRANCH   1   2
BRANCH   1  15
ATOM     15  C   UNL     1      19.423  -5.650  22.262  1.00  0.00     0.000 C 
BRANCH  15  16
ATOM     16  C   UNL     1      19.928  -4.201  22.157  1.00  0.00     0.000 C 
BRANCH  16  17
ATOM     17  C   UNL     1      21.208  -3.962  22.977  1.00  0.00     0.000 C 
BRANCH  17  18
ATOM     18  C   UNL     1      22.358  -3.406  22.123  1.00  0.00    -0.000 C 
BRANCH  18  19
ATOM     19  C   UNL     1      22.565  -1.894  22.322  1.00  0.00    -0.000 C 
BRANCH  19  20
ATOM     20  C   UNL     1      21.771  -1.353  23.530  1.00  0.00    -0.000 C 
BRANCH  20  21
ATOM     21  C   UNL     1      21.089   0.001  23.267  1.00  0.00    -0.000 C 
BRANCH  21  22
ATOM     22  C   UNL     1      19.559  -0.110  23.168  1.00  0.00    -0.000 C 
BRANCH  22  23
ATOM     23  C   UNL     1      18.948  -0.989  24.275  1.00  0.00    -0.000 C 
BRANCH  23  24
ATOM     24  C   UNL     1      17.751  -1.858  23.841  1.00  0.00    -0.000 C 
BRANCH  24  25
ATOM     25  C   UNL     1      17.166  -2.761  24.941  1.00  0.00    -0.003 C 
ATOM     26  C   UNL     1      16.742  -4.135  24.422  1.00  0.00     0.004 C 
ENDBRANCH  24  25
ENDBRANCH  23  24
ENDBRANCH  22  23
ENDBRANCH  21  22
ENDBRANCH  20  21
ENDBRANCH  19  20
ENDBRANCH  18  19
ENDBRANCH  17  18
ENDBRANCH  16  17
ENDBRANCH  15  16
ENDBRANCH   1  15
TORSDOF 22
ENDMDL
MODEL 2
REMARK VINA RESULT:    -4.396     12.348     14.784
REMARK INTER + INTRA:         -14.943
REMARK INTER:                 -11.251
REMARK INTRA:                  -3.692
REMARK UNBOUND:                -4.894
REMARK SMILES CCCCCCCCCCCCCCCCCCCCCCCC(=O)[O-]
REMARK SMILES IDX 13 1 14 2 15 3 16 4 17 5 18 6 19 7 20 8 21 9 22 10 23 11
REMARK SMILES IDX 24 12 25 13 26 14 12 15 11 16 10 17 9 18 8 19 7 20 6 21 5 22
REMARK SMILES IDX 4 23 3 24 2 25 1 26
REMARK H PARENT
REMARK Flexibility Score: inf
ROOT
ATOM      1  C   UNL     1      13.931   3.625   6.510  1.00  0.00     0.000 C 
ENDROOT
BRANCH   1   2
ATOM      2  C   UNL     1      12.558   3.313   5.878  1.00  0.00     0.000 C 
BRANCH   2   3
ATOM      3  C   UNL     1      11.400   4.117   6.493  1.00  0.00     0.000 C 
BRANCH   3   4
ATOM      4  C   UNL     1      11.766   5.588   6.749  1.00  0.00     0.000 C 
BRANCH   4   5
ATOM      5  C   UNL     1      11.662   5.970   8.235  1.00  0.00     0.000 C 
BRANCH   5   6
ATOM      6  C   UNL     1      13.040   6.182   8.886  1.00  0.00     0.000 C 
BRANCH   6   7
ATOM      7  C   UNL     1      13.358   5.106   9.946  1.00  0.00     0.000 C 
BRANCH   7   8
ATOM      8  C   UNL     1      12.415   3.887   9.892  1.00  0.00     0.000 C 
BRANCH   8   9
ATOM      9  C   UNL     1      11.860   3.432  11.253  1.00  0.00     0.000 C 
BRANCH   9  10
ATOM     10  C   UNL     1      11.902   4.496  12.368  1.00  0.00     0.006 C 
BRANCH  10  11
ATOM     11  C   UNL     1      10.542   4.753  13.041  1.00  0.00     0.053 C 
BRANCH  11  12
ATOM     12  C   UNL     1       9.837   5.947  12.472  1.00  0.00     0.041 C 
ATOM     13  O   UNL     1       8.744   6.333  12.967  1.00  0.00    -0.550 OA
ATOM     14  O   UNL     1      10.407   6.662  11.427  1.00  0.00    -0.550 OA
ENDBRANCH  11  12
ENDBRANCH  10  11
ENDBRANCH   9  10
ENDBRANCH   8   9
ENDBRANCH   7   8
ENDBRANCH   6   7
ENDBRANCH   5   6
ENDBRANCH   4   5
ENDBRANCH   3   4
ENDBRANCH   2   3
ENDBRANCH   1   2
BRANCH   1  15
ATOM     15  C   UNL     1      14.526   2.407   7.238  1.00  0.00     0.000 C 
BRANCH  15  16
ATOM     16  C   UNL     1      13.512   1.262   7.397  1.00  0.00     0.000 C 
BRANCH  16  17
ATOM     17  C   UNL     1      13.902   0.281   8.516  1.00  0.00     0.000 C 
BRANCH  17  18
ATOM     18  C   UNL     1      15.348   0.484   8.998  1.00  0.00    -0.000 C 
BRANCH  18  19
ATOM     19  C   UNL     1      15.604  -0.143  10.380  1.00  0.00    -0.000 C 
BRANCH  19  20
ATOM     20  C   UNL     1      15.554   0.906  11.511  1.00  0.00    -0.000 C 
BRANCH  20  21
ATOM     21  C   UNL     1      15.686   2.357  11.017  1.00  0.00    -0.000 C 
BRANCH  21  22
ATOM     22  C   UNL     1      15.982   3.350  12.153  1.00  0.00    -0.000 C 
BRANCH  22  23
ATOM     23  C   UNL     1      15.141   3.086  13.416  1.00  0.00    -0.000 C 
BRANCH  23  24
ATOM     24  C   UNL     1      15.221   4.178  14.502  1.00  0.00    -0.000 C 
BRANCH  24  25
ATOM     25  C   UNL     1      16.420   4.060  15.460  1.00  0.00    -0.003 C 
ATOM     26  C   UNL     1      16.053   3.415  16.796  1.00  0.00     0.004 C 
ENDBRANCH  24  25
ENDBRANCH  23  24
ENDBRANCH  22  23
ENDBRANCH  21  22
ENDBRANCH  20  21
ENDBRANCH  19  20
ENDBRANCH  18  19
ENDBRANCH  17  18
ENDBRANCH  16  17
ENDBRANCH  15  16
ENDBRANCH   1  15
TORSDOF 22
ENDMDL
MODEL 3
REMARK VINA RESULT:    -4.371      2.799      5.879
REMARK INTER + INTRA:         -14.886
REMARK INTER:                 -10.150
REMARK INTRA:                  -4.736
REMARK UNBOUND:                -4.894
REMARK SMILES CCCCCCCCCCCCCCCCCCCCCCCC(=O)[O-]
REMARK SMILES IDX 13 1 14 2 15 3 16 4 17 5 18 6 19 7 20 8 21 9 22 10 23 11
REMARK SMILES IDX 24 12 25 13 26 14 12 15 11 16 10 17 9 18 8 19 7 20 6 21 5 22
REMARK SMILES IDX 4 23 3 24 2 25 1 26
REMARK H PARENT
REMARK Flexibility Score: inf
ROOT
ATOM      1  C   UNL     1      19.870  -5.836  20.987  1.00  0.00     0.000 C 
ENDROOT
BRANCH   1   2
ATOM      2  C   UNL     1      19.291  -5.658  22.406  1.00  0.00     0.000 C 
BRANCH   2   3
ATOM      3  C   UNL     1      20.054  -4.630  23.259  1.00  0.00     0.000 C 
BRANCH   3   4
ATOM      4  C   UNL     1      19.174  -3.983  24.341  1.00  0.00     0.000 C 
BRANCH   4   5
ATOM      5  C   UNL     1      17.673  -4.203  24.087  1.00  0.00     0.000 C 
BRANCH   5   6
ATOM      6  C   UNL     1      16.796  -3.663  25.230  1.00  0.00     0.000 C 
BRANCH   6   7
ATOM      7  C   UNL     1      17.131  -2.198  25.582  1.00  0.00     0.000 C 
BRANCH   7   8
ATOM      8  C   UNL     1      16.710  -1.189  24.496  1.00  0.00     0.000 C 
BRANCH   8   9
ATOM      9  C   UNL     1      17.634   0.033  24.348  1.00  0.00     0.000 C 
BRANCH   9  10
ATOM     10  C   UNL     1      19.125  -0.295  24.130  1.00  0.00     0.006 C 
BRANCH  10  11
ATOM     11  C   UNL     1      20.013   0.944  23.916  1.00  0.00     0.053 C 
BRANCH  11  12
ATOM     12  C   UNL     1      19.431   1.903  22.922  1.00  0.00     0.041 C 
ATOM     13  O   UNL     1      19.307   1.566  21.714  1.00  0.00    -0.550 OA
ATOM     14  O   UNL     1      18.981   3.151  23.336  1.00  0.00    -0.550 OA
ENDBRANCH  11  12
ENDBRANCH  10  11
ENDBRANCH   9  10
ENDBRANCH   8   9
ENDBRANCH   7   8
ENDBRANCH   6   7
ENDBRANCH   5   6
ENDBRANCH   4   5
ENDBRANCH   3   4
ENDBRANCH   2   3
ENDBRANCH   1   2
BRANCH   1  15
ATOM     15  C   UNL     1      21.154  -5.015  20.776  1.00  0.00     0.000 C 
BRANCH  15  16
ATOM     16  C   UNL     1      21.399  -4.673  19.297  1.00  0.00     0.000 C 
BRANCH  16  17
ATOM     17  C   UNL     1      20.108  -4.715  18.462  1.00  0.00     0.000 C 
BRANCH  17  18
ATOM     18  C   UNL     1      19.915  -3.447  17.615  1.00  0.00    -0.000 C 
BRANCH  18  19
ATOM     19  C   UNL     1      20.577  -2.208  18.245  1.00  0.00    -0.000 C 
BRANCH  19  20
ATOM     20  C   UNL     1      19.577  -1.374  19.073  1.00  0.00    -0.000 C 
BRANCH  20  21
ATOM     21  C   UNL     1      19.670  -1.622  20.589  1.00  0.00    -0.000 C 
BRANCH  21  22
ATOM     22  C   UNL     1      18.343  -2.103  21.198  1.00  0.00    -0.000 C 
BRANCH  22  23
ATOM     23  C   UNL     1      17.326  -2.563  20.136  1.00  0.00    -0.000 C 
BRANCH  23  24
ATOM     24  C   UNL     1      16.707  -3.955  20.375  1.00  0.00    -0.000 C 
BRANCH  24  25
ATOM     25  C   UNL     1      16.271  -4.702  19.103  1.00  0.00    -0.003 C 
ATOM     26  C   UNL     1      16.625  -6.188  19.134  1.00  0.00     0.004 C 
ENDBRANCH  24  25
ENDBRANCH  23  24
ENDBRANCH  22  23
ENDBRANCH  21  22
ENDBRANCH  20  21
ENDBRANCH  19  20
ENDBRANCH  18  19
ENDBRANCH  17  18
ENDBRANCH  16  17
ENDBRANCH  15  16
ENDBRANCH   1  15
TORSDOF 22
ENDMDL
MODEL 4
REMARK VINA RESULT:    -4.334     11.814     15.288
REMARK INTER + INTRA:         -14.802
REMARK INTER:                 -12.090
REMARK INTRA:                  -2.711
REMARK UNBOUND:                -4.894
REMARK SMILES CCCCCCCCCCCCCCCCCCCCCCCC(=O)[O-]
REMARK SMILES IDX 13 1 14 2 15 3 16 4 17 5 18 6 19 7 20 8 21 9 22 10 23 11
REMARK SMILES IDX 24 12 25 13 26 14 12 15 11 16 10 17 9 18 8 19 7 20 6 21 5 22
REMARK SMILES IDX 4 23 3 24 2 25 1 26
REMARK H PARENT
REMARK Flexibility Score: inf
ROOT
ATOM      1  C   UNL     1       4.194   0.898  13.545  1.00  0.00     0.000 C 
ENDROOT
BRANCH   1   2
ATOM      2  C   UNL     1       3.557   1.711  14.691  1.00  0.00     0.000 C 
BRANCH   2   3
ATOM      3  C   UNL     1       3.474   0.942  16.021  1.00  0.00     0.000 C 
BRANCH   3   4
ATOM      4  C   UNL     1       4.780   1.007  16.829  1.00  0.00     0.000 C 
BRANCH   4   5
ATOM      5  C   UNL     1       5.531   2.333  16.627  1.00  0.00     0.000 C 
BRANCH   5   6
ATOM      6  C   UNL     1       6.728   2.193  15.670  1.00  0.00     0.000 C 
BRANCH   6   7
ATOM      7  C   UNL     1       7.940   3.036  16.122  1.00  0.00     0.000 C 
BRANCH   7   8
ATOM      8  C   UNL     1       7.607   4.049  17.236  1.00  0.00     0.000 C 
BRANCH   8   9
ATOM      9  C   UNL     1       7.611   5.524  16.798  1.00  0.00     0.000 C 
BRANCH   9  10
ATOM     10  C   UNL     1       7.518   6.549  17.947  1.00  0.00     0.006 C 
BRANCH  10  11
ATOM     11  C   UNL     1       6.590   6.119  19.097  1.00  0.00     0.053 C 
BRANCH  11  12
ATOM     12  C   UNL     1       7.321   5.959  20.395  1.00  0.00     0.041 C 
ATOM     13  O   UNL     1       8.437   5.376  20.427  1.00  0.00    -0.550 OA
ATOM     14  O   UNL     1       6.793   6.494  21.564  1.00  0.00    -0.550 OA
ENDBRANCH  11  12
ENDBRANCH  10  11
ENDBRANCH   9  10
ENDBRANCH   8   9
ENDBRANCH   7   8
ENDBRANCH   6   7
ENDBRANCH   5   6
ENDBRANCH   4   5
ENDBRANCH   3   4
ENDBRANCH   2   3
ENDBRANCH   1   2
BRANCH   1  15
ATOM     15  C   UNL     1       3.824  -0.594  13.615  1.00  0.00     0.000 C 
BRANCH  15  16
ATOM     16  C   UNL     1       5.060  -1.509  13.604  1.00  0.00     0.000 C 
BRANCH  16  17
ATOM     17  C   UNL     1       6.359  -0.740  13.307  1.00  0.00     0.000 C 
BRANCH  17  18
ATOM     18  C   UNL     1       7.498  -1.119  14.267  1.00  0.00    -0.000 C 
BRANCH  18  19
ATOM     19  C   UNL     1       6.983  -1.610  15.631  1.00  0.00    -0.000 C 
BRANCH  19  20
ATOM     20  C   UNL     1       7.861  -1.108  16.798  1.00  0.00    -0.000 C 
BRANCH  20  21
ATOM     21  C   UNL     1       8.988  -2.080  17.187  1.00  0.00    -0.000 C 
BRANCH  21  22
ATOM     22  C   UNL     1       8.624  -3.552  16.928  1.00  0.00    -0.000 C 
BRANCH  22  23
ATOM     23  C   UNL     1       9.844  -4.418  16.565  1.00  0.00    -0.000 C 
BRANCH  23  24
ATOM     24  C   UNL     1      10.788  -3.816  15.504  1.00  0.00    -0.000 C 
BRANCH  24  25
ATOM     25  C   UNL     1      12.284  -4.099  15.726  1.00  0.00    -0.003 C 
ATOM     26  C   UNL     1      13.074  -2.852  16.121  1.00  0.00     0.004 C 
ENDBRANCH  24  25
ENDBRANCH  23  24
ENDBRANCH  22  23
ENDBRANCH  21  22
ENDBRANCH  20  21
ENDBRANCH  19  20
ENDBRANCH  18  19
ENDBRANCH  17  18
ENDBRANCH  16  17
ENDBRANCH  15  16
ENDBRANCH   1  15
TORSDOF 22
ENDMDL
MODEL 5
REMARK VINA RESULT:    -4.333      1.895      4.653
REMARK INTER + INTRA:         -14.799
REMARK INTER:                  -9.838
REMARK INTRA:                  -4.961
REMARK UNBOUND:                -4.894
REMARK SMILES CCCCCCCCCCCCCCCCCCCCCCCC(=O)[O-]
REMARK SMILES IDX 13 1 14 2 15 3 16 4 17 5 18 6 19 7 20 8 21 9 22 10 23 11
REMARK SMILES IDX 24 12 25 13 26 14 12 15 11 16 10 17 9 18 8 19 7 20 6 21 5 22
REMARK SMILES IDX 4 23 3 24 2 25 1 26
REMARK H PARENT
REMARK Flexibility Score: inf
ROOT
ATOM      1  C   UNL     1      17.122  -4.436  22.175  1.00  0.00     0.000 C 
ENDROOT
BRANCH   1   2
ATOM      2  C   UNL     1      18.625  -4.371  21.832  1.00  0.00     0.000 C 
BRANCH   2   3
ATOM      3  C   UNL     1      19.518  -5.130  22.829  1.00  0.00     0.000 C 
BRANCH   3   4
ATOM      4  C   UNL     1      20.129  -4.211  23.900  1.00  0.00     0.000 C 
BRANCH   4   5
ATOM      5  C   UNL     1      20.062  -2.726  23.508  1.00  0.00     0.000 C 
BRANCH   5   6
ATOM      6  C   UNL     1      21.364  -1.972  23.827  1.00  0.00     0.000 C 
BRANCH   6   7
ATOM      7  C   UNL     1      22.161  -1.617  22.553  1.00  0.00     0.000 C 
BRANCH   7   8
ATOM      8  C   UNL     1      22.850  -2.829  21.896  1.00  0.00     0.000 C 
BRANCH   8   9
ATOM      9  C   UNL     1      22.751  -2.882  20.361  1.00  0.00     0.000 C 
BRANCH   9  10
ATOM     10  C   UNL     1      21.607  -3.756  19.807  1.00  0.00     0.006 C 
BRANCH  10  11
ATOM     11  C   UNL     1      21.253  -3.466  18.338  1.00  0.00     0.053 C 
BRANCH  11  12
ATOM     12  C   UNL     1      20.525  -4.604  17.687  1.00  0.00     0.041 C 
ATOM     13  O   UNL     1      19.276  -4.553  17.536  1.00  0.00    -0.550 OA
ATOM     14  O   UNL     1      21.231  -5.699  17.205  1.00  0.00    -0.550 OA
ENDBRANCH  11  12
ENDBRANCH  10  11
ENDBRANCH   9  10
ENDBRANCH   8   9
ENDBRANCH   7   8
ENDBRANCH   6   7
ENDBRANCH   5   6
ENDBRANCH   4   5
ENDBRANCH   3   4
ENDBRANCH   2   3
ENDBRANCH   1   2
BRANCH   1  15
ATOM     15  C   UNL     1      16.461  -3.047  22.156  1.00  0.00     0.000 C 
BRANCH  15  16
ATOM     16  C   UNL     1      15.850  -2.667  23.515  1.00  0.00     0.000 C 
BRANCH  16  17
ATOM     17  C   UNL     1      16.393  -3.530  24.667  1.00  0.00     0.000 C 
BRANCH  17  18
ATOM     18  C   UNL     1      17.124  -2.697  25.732  1.00  0.00    -0.000 C 
BRANCH  18  19
ATOM     19  C   UNL     1      16.747  -1.206  25.678  1.00  0.00    -0.000 C 
BRANCH  19  20
ATOM     20  C   UNL     1      17.964  -0.311  25.361  1.00  0.00    -0.000 C 
BRANCH  20  21
ATOM     21  C   UNL     1      17.844   0.449  24.028  1.00  0.00    -0.000 C 
BRANCH  21  22
ATOM     22  C   UNL     1      19.176   1.066  23.570  1.00  0.00    -0.000 C 
BRANCH  22  23
ATOM     23  C   UNL     1      19.400   0.952  22.051  1.00  0.00    -0.000 C 
BRANCH  23  24
ATOM     24  C   UNL     1      18.507  -0.077  21.328  1.00  0.00    -0.000 C 
BRANCH  24  25
ATOM     25  C   UNL     1      19.238  -0.985  20.324  1.00  0.00    -0.003 C 
ATOM     26  C   UNL     1      18.313  -1.542  19.242  1.00  0.00     0.004 C 
ENDBRANCH  24  25
ENDBRANCH  23  24
ENDBRANCH  22  23
ENDBRANCH  21  22
ENDBRANCH  20  21
ENDBRANCH  19  20
ENDBRANCH  18  19
ENDBRANCH  17  18
ENDBRANCH  16  17
ENDBRANCH  15  16
ENDBRANCH   1  15
TORSDOF 22
ENDMDL
MODEL 6
REMARK VINA RESULT:    -4.287      1.325      3.561
REMARK INTER + INTRA:         -14.694
REMARK INTER:                 -10.184
REMARK INTRA:                  -4.510
REMARK UNBOUND:                -4.894
REMARK SMILES CCCCCCCCCCCCCCCCCCCCCCCC(=O)[O-]
REMARK SMILES IDX 13 1 14 2 15 3 16 4 17 5 18 6 19 7 20 8 21 9 22 10 23 11
REMARK SMILES IDX 24 12 25 13 26 14 12 15 11 16 10 17 9 18 8 19 7 20 6 21 5 22
REMARK SMILES IDX 4 23 3 24 2 25 1 26
REMARK H PARENT
REMARK Flexibility Score: inf
ROOT
ATOM      1  C   UNL     1      22.546  -3.230  21.545  1.00  0.00     0.000 C 
ENDROOT
BRANCH   1   2
ATOM      2  C   UNL     1      21.485  -2.700  20.558  1.00  0.00     0.000 C 
BRANCH   2   3
ATOM      3  C   UNL     1      21.956  -2.691  19.093  1.00  0.00     0.000 C 
BRANCH   3   4
ATOM      4  C   UNL     1      22.821  -3.912  18.738  1.00  0.00     0.000 C 
BRANCH   4   5
ATOM      5  C   UNL     1      22.224  -4.739  17.587  1.00  0.00     0.000 C 
BRANCH   5   6
ATOM      6  C   UNL     1      20.943  -5.485  18.000  1.00  0.00     0.000 C 
BRANCH   6   7
ATOM      7  C   UNL     1      21.182  -6.447  19.184  1.00  0.00     0.000 C 
BRANCH   7   8
ATOM      8  C   UNL     1      20.106  -6.355  20.283  1.00  0.00     0.000 C 
BRANCH   8   9
ATOM      9  C   UNL     1      18.742  -5.818  19.816  1.00  0.00     0.000 C 
BRANCH   9  10
ATOM     10  C   UNL     1      18.274  -4.522  20.509  1.00  0.00     0.006 C 
BRANCH  10  11
ATOM     11  C   UNL     1      16.772  -4.231  20.346  1.00  0.00     0.053 C 
BRANCH  11  12
ATOM     12  C   UNL     1      16.390  -3.970  18.920  1.00  0.00     0.041 C 
ATOM     13  O   UNL     1      16.812  -2.941  18.329  1.00  0.00    -0.550 OA
ATOM     14  O   UNL     1      15.606  -4.886  18.229  1.00  0.00    -0.550 OA
ENDBRANCH  11  12
ENDBRANCH  10  11
ENDBRANCH   9  10
ENDBRANCH   8   9
ENDBRANCH   7   8
ENDBRANCH   6   7
ENDBRANCH   5   6
ENDBRANCH   4   5
ENDBRANCH   3   4
ENDBRANCH   2   3
ENDBRANCH   1   2
BRANCH   1  15
ATOM     15  C   UNL     1      22.022  -4.409  22.384  1.00  0.00     0.000 C 
BRANCH  15  16
ATOM     16  C   UNL     1      21.243  -3.948  23.627  1.00  0.00     0.000 C 
BRANCH  16  17
ATOM     17  C   UNL     1      19.925  -4.718  23.814  1.00  0.00     0.000 C 
BRANCH  17  18
ATOM     18  C   UNL     1      18.844  -3.872  24.506  1.00  0.00    -0.000 C 
BRANCH  18  19
ATOM     19  C   UNL     1      17.422  -4.229  24.035  1.00  0.00    -0.000 C 
BRANCH  19  20
ATOM     20  C   UNL     1      16.546  -2.974  23.833  1.00  0.00    -0.000 C 
BRANCH  20  21
ATOM     21  C   UNL     1      16.766  -1.887  24.900  1.00  0.00    -0.000 C 
BRANCH  21  22
ATOM     22  C   UNL     1      17.259  -0.558  24.305  1.00  0.00    -0.000 C 
BRANCH  22  23
ATOM     23  C   UNL     1      17.734  -0.692  22.847  1.00  0.00    -0.000 C 
BRANCH  23  24
ATOM     24  C   UNL     1      19.262  -0.751  22.653  1.00  0.00    -0.000 C 
BRANCH  24  25
ATOM     25  C   UNL     1      20.093  -0.372  23.891  1.00  0.00    -0.003 C 
ATOM     26  C   UNL     1      21.584  -0.231  23.589  1.00  0.00     0.004 C 
ENDBRANCH  24  25
ENDBRANCH  23  24
ENDBRANCH  22  23
ENDBRANCH  21  22
ENDBRANCH  20  21
ENDBRANCH  19  20
ENDBRANCH  18  19
ENDBRANCH  17  18
ENDBRANCH  16  17
ENDBRANCH  15  16
ENDBRANCH   1  15
TORSDOF 22
ENDMDL
MODEL 7
REMARK VINA RESULT:    -4.246      2.507      4.935
REMARK INTER + INTRA:         -14.601
REMARK INTER:                 -10.118
REMARK INTRA:                  -4.483
REMARK UNBOUND:                -4.894
REMARK SMILES CCCCCCCCCCCCCCCCCCCCCCCC(=O)[O-]
REMARK SMILES IDX 13 1 14 2 15 3 16 4 17 5 18 6 19 7 20 8 21 9 22 10 23 11
REMARK SMILES IDX 24 12 25 13 26 14 12 15 11 16 10 17 9 18 8 19 7 20 6 21 5 22
REMARK SMILES IDX 4 23 3 24 2 25 1 26
REMARK H PARENT
REMARK Flexibility Score: inf
ROOT
ATOM      1  C   UNL     1      22.809  -3.967  19.929  1.00  0.00     0.000 C 
ENDROOT
BRANCH   1   2
ATOM      2  C   UNL     1      22.530  -3.750  18.426  1.00  0.00     0.000 C 
BRANCH   2   3
ATOM      3  C   UNL     1      21.340  -4.569  17.896  1.00  0.00     0.000 C 
BRANCH   3   4
ATOM      4  C   UNL     1      20.067  -3.725  17.722  1.00  0.00     0.000 C 
BRANCH   4   5
ATOM      5  C   UNL     1      20.294  -2.243  18.061  1.00  0.00     0.000 C 
BRANCH   5   6
ATOM      6  C   UNL     1      19.117  -1.630  18.840  1.00  0.00     0.000 C 
BRANCH   6   7
ATOM      7  C   UNL     1      19.446  -1.427  20.335  1.00  0.00     0.000 C 
BRANCH   7   8
ATOM      8  C   UNL     1      18.590  -2.293  21.280  1.00  0.00     0.000 C 
BRANCH   8   9
ATOM      9  C   UNL     1      17.166  -2.593  20.778  1.00  0.00     0.000 C 
BRANCH   9  10
ATOM     10  C   UNL     1      16.168  -3.038  21.866  1.00  0.00     0.006 C 
BRANCH  10  11
ATOM     11  C   UNL     1      16.831  -3.659  23.108  1.00  0.00     0.053 C 
BRANCH  11  12
ATOM     12  C   UNL     1      16.373  -3.019  24.383  1.00  0.00     0.041 C 
ATOM     13  O   UNL     1      16.393  -1.765  24.506  1.00  0.00    -0.550 OA
ATOM     14  O   UNL     1      15.880  -3.802  25.420  1.00  0.00    -0.550 OA
ENDBRANCH  11  12
ENDBRANCH  10  11
ENDBRANCH   9  10
ENDBRANCH   8   9
ENDBRANCH   7   8
ENDBRANCH   6   7
ENDBRANCH   5   6
ENDBRANCH   4   5
ENDBRANCH   3   4
ENDBRANCH   2   3
ENDBRANCH   1   2
BRANCH   1  15
ATOM     15  C   UNL     1      22.806  -2.646  20.717  1.00  0.00     0.000 C 
BRANCH  15  16
ATOM     16  C   UNL     1      22.417  -2.842  22.192  1.00  0.00     0.000 C 
BRANCH  16  17
ATOM     17  C   UNL     1      22.036  -4.297  22.513  1.00  0.00     0.000 C 
BRANCH  17  18
ATOM     18  C   UNL     1      20.829  -4.394  23.459  1.00  0.00    -0.000 C 
BRANCH  18  19
ATOM     19  C   UNL     1      19.772  -5.400  22.970  1.00  0.00    -0.000 C 
BRANCH  19  20
ATOM     20  C   UNL     1      19.888  -5.673  21.455  1.00  0.00    -0.000 C 
BRANCH  20  21
ATOM     21  C   UNL     1      18.546  -6.010  20.782  1.00  0.00    -0.000 C 
BRANCH  21  22
ATOM     22  C   UNL     1      18.718  -6.739  19.439  1.00  0.00    -0.000 C 
BRANCH  22  23
ATOM     23  C   UNL     1      17.377  -7.143  18.799  1.00  0.00    -0.000 C 
BRANCH  23  24
ATOM     24  C   UNL     1      16.308  -6.033  18.752  1.00  0.00    -0.000 C 
BRANCH  24  25
ATOM     25  C   UNL     1      16.164  -5.321  17.395  1.00  0.00    -0.003 C 
ATOM     26  C   UNL     1      16.329  -3.805  17.497  1.00  0.00     0.004 C 
ENDBRANCH  24  25
ENDBRANCH  23  24
ENDBRANCH  22  23
ENDBRANCH  21  22
ENDBRANCH  20  21
ENDBRANCH  19  20
ENDBRANCH  18  19
ENDBRANCH  17  18
ENDBRANCH  16  17
ENDBRANCH  15  16
ENDBRANCH   1  15
TORSDOF 22
ENDMDL
MODEL 8
REMARK VINA RESULT:    -4.220      2.224      5.775
REMARK INTER + INTRA:         -14.542
REMARK INTER:                 -10.208
REMARK INTRA:                  -4.334
REMARK UNBOUND:                -4.894
REMARK SMILES CCCCCCCCCCCCCCCCCCCCCCCC(=O)[O-]
REMARK SMILES IDX 13 1 14 2 15 3 16 4 17 5 18 6 19 7 20 8 21 9 22 10 23 11
REMARK SMILES IDX 24 12 25 13 26 14 12 15 11 16 10 17 9 18 8 19 7 20 6 21 5 22
REMARK SMILES IDX 4 23 3 24 2 25 1 26
REMARK H PARENT
REMARK Flexibility Score: inf
ROOT
ATOM      1  C   UNL     1      21.999  -4.465  21.958  1.00  0.00     0.000 C 
ENDROOT
BRANCH   1   2
ATOM      2  C   UNL     1      22.070  -2.923  21.941  1.00  0.00     0.000 C 
BRANCH   2   3
ATOM      3  C   UNL     1      21.589  -2.269  23.247  1.00  0.00     0.000 C 
BRANCH   3   4
ATOM      4  C   UNL     1      22.214  -0.886  23.487  1.00  0.00     0.000 C 
BRANCH   4   5
ATOM      5  C   UNL     1      21.427  -0.056  24.515  1.00  0.00     0.000 C 
BRANCH   5   6
ATOM      6  C   UNL     1      20.798   1.205  23.897  1.00  0.00     0.000 C 
BRANCH   6   7
ATOM      7  C   UNL     1      19.866   0.872  22.712  1.00  0.00     0.000 C 
BRANCH   7   8
ATOM      8  C   UNL     1      18.393   1.257  22.956  1.00  0.00     0.000 C 
BRANCH   8   9
ATOM      9  C   UNL     1      17.396   0.086  22.906  1.00  0.00     0.000 C 
BRANCH   9  10
ATOM     10  C   UNL     1      17.954  -1.271  23.381  1.00  0.00     0.006 C 
BRANCH  10  11
ATOM     11  C   UNL     1      17.787  -1.523  24.890  1.00  0.00     0.053 C 
BRANCH  11  12
ATOM     12  C   UNL     1      17.169  -2.857  25.184  1.00  0.00     0.041 C 
ATOM     13  O   UNL     1      17.859  -3.774  25.704  1.00  0.00    -0.550 OA
ATOM     14  O   UNL     1      15.821  -3.073  24.928  1.00  0.00    -0.550 OA
ENDBRANCH  11  12
ENDBRANCH  10  11
ENDBRANCH   9  10
ENDBRANCH   8   9
ENDBRANCH   7   8
ENDBRANCH   6   7
ENDBRANCH   5   6
ENDBRANCH   4   5
ENDBRANCH   3   4
ENDBRANCH   2   3
ENDBRANCH   1   2
BRANCH   1  15
ATOM     15  C   UNL     1      20.808  -5.001  21.146  1.00  0.00     0.000 C 
BRANCH  15  16
ATOM     16  C   UNL     1      19.567  -5.255  22.017  1.00  0.00     0.000 C 
BRANCH  16  17
ATOM     17  C   UNL     1      18.347  -4.441  21.556  1.00  0.00     0.000 C 
BRANCH  17  18
ATOM     18  C   UNL     1      17.775  -4.944  20.221  1.00  0.00    -0.000 C 
BRANCH  18  19
ATOM     19  C   UNL     1      16.876  -3.902  19.532  1.00  0.00    -0.000 C 
BRANCH  19  20
ATOM     20  C   UNL     1      17.128  -2.475  20.064  1.00  0.00    -0.000 C 
BRANCH  20  21
ATOM     21  C   UNL     1      17.928  -1.586  19.096  1.00  0.00    -0.000 C 
BRANCH  21  22
ATOM     22  C   UNL     1      19.300  -1.177  19.657  1.00  0.00    -0.000 C 
BRANCH  22  23
ATOM     23  C   UNL     1      20.469  -1.934  18.998  1.00  0.00    -0.000 C 
BRANCH  23  24
ATOM     24  C   UNL     1      20.091  -2.796  17.777  1.00  0.00    -0.000 C 
BRANCH  24  25
ATOM     25  C   UNL     1      20.935  -4.068  17.589  1.00  0.00    -0.003 C 
ATOM     26  C   UNL     1      22.432  -3.824  17.778  1.00  0.00     0.004 C 
ENDBRANCH  24  25
ENDBRANCH  23  24
ENDBRANCH  22  23
ENDBRANCH  21  22
ENDBRANCH  20  21
ENDBRANCH  19  20
ENDBRANCH  18  19
ENDBRANCH  17  18
ENDBRANCH  16  17
ENDBRANCH  15  16
ENDBRANCH   1  15
TORSDOF 22
ENDMDL
MODEL 9
REMARK VINA RESULT:    -4.184      1.284      3.567
REMARK INTER + INTRA:         -14.458
REMARK INTER:                  -9.809
REMARK INTRA:                  -4.649
REMARK UNBOUND:                -4.894
REMARK SMILES CCCCCCCCCCCCCCCCCCCCCCCC(=O)[O-]
REMARK SMILES IDX 13 1 14 2 15 3 16 4 17 5 18 6 19 7 20 8 21 9 22 10 23 11
REMARK SMILES IDX 24 12 25 13 26 14 12 15 11 16 10 17 9 18 8 19 7 20 6 21 5 22
REMARK SMILES IDX 4 23 3 24 2 25 1 26
REMARK H PARENT
REMARK Flexibility Score: inf
ROOT
ATOM      1  C   UNL     1      18.680  -0.472  21.220  1.00  0.00     0.000 C 
ENDROOT
BRANCH   1   2
ATOM      2  C   UNL     1      19.015  -1.798  20.506  1.00  0.00     0.000 C 
BRANCH   2   3
ATOM      3  C   UNL     1      20.291  -1.732  19.649  1.00  0.00     0.000 C 
BRANCH   3   4
ATOM      4  C   UNL     1      20.096  -2.320  18.242  1.00  0.00     0.000 C 
BRANCH   4   5
ATOM      5  C   UNL     1      21.356  -3.031  17.723  1.00  0.00     0.000 C 
BRANCH   5   6
ATOM      6  C   UNL     1      22.575  -2.813  18.636  1.00  0.00     0.000 C 
BRANCH   6   7
ATOM      7  C   UNL     1      23.125  -4.139  19.204  1.00  0.00     0.000 C 
BRANCH   7   8
ATOM      8  C   UNL     1      22.276  -5.371  18.830  1.00  0.00     0.000 C 
BRANCH   8   9
ATOM      9  C   UNL     1      21.493  -6.000  19.996  1.00  0.00     0.000 C 
BRANCH   9  10
ATOM     10  C   UNL     1      20.075  -6.493  19.643  1.00  0.00     0.006 C 
BRANCH  10  11
ATOM     11  C   UNL     1      18.972  -5.445  19.877  1.00  0.00     0.053 C 
BRANCH  11  12
ATOM     12  C   UNL     1      17.796  -5.636  18.967  1.00  0.00     0.041 C 
ATOM     13  O   UNL     1      17.056  -6.647  19.093  1.00  0.00    -0.550 OA
ATOM     14  O   UNL     1      17.490  -4.676  18.011  1.00  0.00    -0.550 OA
ENDBRANCH  11  12
ENDBRANCH  10  11
ENDBRANCH   9  10
ENDBRANCH   8   9
ENDBRANCH   7   8
ENDBRANCH   6   7
ENDBRANCH   5   6
ENDBRANCH   4   5
ENDBRANCH   3   4
ENDBRANCH   2   3
ENDBRANCH   1   2
BRANCH   1  15
ATOM     15  C   UNL     1      18.109  -0.698  22.630  1.00  0.00     0.000 C 
BRANCH  15  16
ATOM     16  C   UNL     1      19.148  -0.445  23.735  1.00  0.00     0.000 C 
BRANCH  16  17
ATOM     17  C   UNL     1      20.210   0.587  23.319  1.00  0.00     0.000 C 
BRANCH  17  18
ATOM     18  C   UNL     1      21.642   0.049  23.465  1.00  0.00    -0.000 C 
BRANCH  18  19
ATOM     19  C   UNL     1      21.678  -1.439  23.858  1.00  0.00    -0.000 C 
BRANCH  19  20
ATOM     20  C   UNL     1      22.187  -2.331  22.706  1.00  0.00    -0.000 C 
BRANCH  20  21
ATOM     21  C   UNL     1      21.411  -3.651  22.556  1.00  0.00    -0.000 C 
BRANCH  21  22
ATOM     22  C   UNL     1      21.303  -4.434  23.876  1.00  0.00    -0.000 C 
BRANCH  22  23
ATOM     23  C   UNL     1      19.860  -4.523  24.404  1.00  0.00    -0.000 C 
BRANCH  23  24
ATOM     24  C   UNL     1      18.760  -4.158  23.386  1.00  0.00    -0.000 C 
BRANCH  24  25
ATOM     25  C   UNL     1      17.323  -4.198  23.935  1.00  0.00    -0.003 C 
ATOM     26  C   UNL     1      17.137  -3.333  25.181  1.00  0.00     0.004 C 
ENDBRANCH  24  25
ENDBRANCH  23  24
ENDBRANCH  22  23
ENDBRANCH  21  22
ENDBRANCH  20  21
ENDBRANCH  19  20
ENDBRANCH  18  19
ENDBRANCH  17  18
ENDBRANCH  16  17
ENDBRANCH  15  16
ENDBRANCH   1  15
TORSDOF 22
ENDMDL
