MODEL 1
REMARK VINA RESULT:    -6.716      0.000      0.000
REMARK INTER + INTRA:          -8.160
REMARK INTER:                  -7.894
REMARK INTRA:                  -0.267
REMARK UNBOUND:                -0.267
REMARK SMILES O=c1cc(-c2ccc(O)c(O)c2)oc2cc(O)cc(O)c12
REMARK SMILES IDX 4 1 3 2 2 3 1 4 21 5 19 6 18 7 16 8 15 9 14 10 13 11 5 12
REMARK SMILES IDX 6 13 7 14 8 15 12 16 10 17 9 18 11 20 20 22 17 24
REMARK H PARENT 9 19 11 21 20 23 17 25
REMARK Flexibility Score: inf
ROOT
ATOM      1  C   UNL     1       8.607  16.145 -18.872  1.00  0.00     0.138 A 
ATOM      2  C   UNL     1       8.580  15.807 -20.232  1.00  0.00     0.100 A 
ATOM      3  C   UNL     1       8.891  14.506 -20.628  1.00  0.00     0.197 A 
ATOM      4  O   UNL     1       8.913  14.249 -21.859  1.00  0.00    -0.289 OA
ATOM      5  C   UNL     1       9.195  13.527 -19.650  1.00  0.00     0.107 A 
ATOM      6  C   UNL     1       9.493  12.160 -19.933  1.00  0.00     0.134 A 
ATOM      7  C   UNL     1       9.875  11.308 -18.889  1.00  0.00     0.093 A 
ATOM      8  C   UNL     1       9.913  11.758 -17.567  1.00  0.00     0.123 A 
ATOM      9  C   UNL     1       9.575  13.078 -17.275  1.00  0.00     0.094 A 
ATOM     10  C   UNL     1       9.223  13.961 -18.298  1.00  0.00     0.146 A 
ATOM     11  O   UNL     1       8.926  15.216 -17.978  1.00  0.00    -0.456 OA
ENDROOT
BRANCH   1  12
ATOM     12  C   UNL     1       8.282  17.514 -18.396  1.00  0.00     0.021 A 
ATOM     13  C   UNL     1       7.198  17.701 -17.522  1.00  0.00     0.016 A 
ATOM     14  C   UNL     1       6.875  18.977 -17.053  1.00  0.00     0.051 A 
ATOM     15  C   UNL     1       7.633  20.085 -17.440  1.00  0.00     0.157 A 
ATOM     16  C   UNL     1       9.052  18.632 -18.772  1.00  0.00     0.062 A 
ATOM     17  C   UNL     1       8.729  19.913 -18.300  1.00  0.00     0.158 A 
BRANCH  15  18
ATOM     18  O   UNL     1       7.286  21.346 -16.956  1.00  0.00    -0.504 OA
ATOM     19  H   UNL     1       6.656  21.960 -17.458  1.00  0.00     0.293 HD
ENDBRANCH  15  18
BRANCH  17  20
ATOM     20  O   UNL     1       9.496  21.013 -18.680  1.00  0.00    -0.504 OA
ATOM     21  H   UNL     1       9.101  21.944 -18.733  1.00  0.00     0.293 HD
ENDBRANCH  17  20
ENDBRANCH   1  12
BRANCH   6  22
ATOM     22  O   UNL     1       9.410  11.586 -21.205  1.00  0.00    -0.507 OA
ATOM     23  H   UNL     1       9.661  10.637 -21.430  1.00  0.00     0.293 HD
ENDBRANCH   6  22
BRANCH   8  24
ATOM     24  O   UNL     1      10.280  10.898 -16.533  1.00  0.00    -0.508 OA
ATOM     25  H   UNL     1      10.413  11.235 -15.587  1.00  0.00     0.293 HD
ENDBRANCH   8  24
TORSDOF 5
ENDMDL
MODEL 2
REMARK VINA RESULT:    -6.657      2.650      4.460
REMARK INTER + INTRA:          -8.091
REMARK INTER:                  -7.777
REMARK INTRA:                  -0.313
REMARK UNBOUND:                -0.267
REMARK SMILES O=c1cc(-c2ccc(O)c(O)c2)oc2cc(O)cc(O)c12
REMARK SMILES IDX 4 1 3 2 2 3 1 4 21 5 19 6 18 7 16 8 15 9 14 10 13 11 5 12
REMARK SMILES IDX 6 13 7 14 8 15 12 16 10 17 9 18 11 20 20 22 17 24
REMARK H PARENT 9 19 11 21 20 23 17 25
REMARK Flexibility Score: inf
ROOT
ATOM      1  C   UNL     1       9.018  13.272 -18.887  1.00  0.00     0.138 A 
ATOM      2  C   UNL     1       9.536  12.012 -19.219  1.00  0.00     0.100 A 
ATOM      3  C   UNL     1       9.626  11.023 -18.240  1.00  0.00     0.197 A 
ATOM      4  O   UNL     1      10.147   9.922 -18.556  1.00  0.00    -0.289 OA
ATOM      5  C   UNL     1       9.161  11.285 -16.928  1.00  0.00     0.107 A 
ATOM      6  C   UNL     1       9.171  10.342 -15.857  1.00  0.00     0.134 A 
ATOM      7  C   UNL     1       8.776  10.749 -14.576  1.00  0.00     0.093 A 
ATOM      8  C   UNL     1       8.317  12.047 -14.341  1.00  0.00     0.123 A 
ATOM      9  C   UNL     1       8.256  12.960 -15.391  1.00  0.00     0.094 A 
ATOM     10  C   UNL     1       8.675  12.596 -16.672  1.00  0.00     0.146 A 
ATOM     11  O   UNL     1       8.618  13.503 -17.641  1.00  0.00    -0.456 OA
ENDROOT
BRANCH   1  12
ATOM     12  C   UNL     1       8.896  14.361 -19.890  1.00  0.00     0.021 A 
ATOM     13  C   UNL     1       8.920  14.044 -21.258  1.00  0.00     0.016 A 
ATOM     14  C   UNL     1       8.801  15.048 -22.222  1.00  0.00     0.051 A 
ATOM     15  C   UNL     1       8.644  16.382 -21.838  1.00  0.00     0.157 A 
ATOM     16  C   UNL     1       8.723  15.705 -19.507  1.00  0.00     0.062 A 
ATOM     17  C   UNL     1       8.601  16.714 -20.474  1.00  0.00     0.158 A 
BRANCH  15  18
ATOM     18  O   UNL     1       8.528  17.362 -22.823  1.00  0.00    -0.504 OA
ATOM     19  H   UNL     1       8.631  17.150 -23.809  1.00  0.00     0.293 HD
ENDBRANCH  15  18
BRANCH  17  20
ATOM     20  O   UNL     1       8.433  18.041 -20.085  1.00  0.00    -0.504 OA
ATOM     21  H   UNL     1       9.114  18.754 -20.318  1.00  0.00     0.293 HD
ENDBRANCH  17  20
ENDBRANCH   1  12
BRANCH   6  22
ATOM     22  O   UNL     1       9.536   8.999 -15.998  1.00  0.00    -0.507 OA
ATOM     23  H   UNL     1       8.895   8.222 -15.999  1.00  0.00     0.293 HD
ENDBRANCH   6  22
BRANCH   8  24
ATOM     24  O   UNL     1       7.911  12.438 -13.067  1.00  0.00    -0.508 OA
ATOM     25  H   UNL     1       7.496  13.347 -12.898  1.00  0.00     0.293 HD
ENDBRANCH   8  24
TORSDOF 5
ENDMDL
MODEL 3
REMARK VINA RESULT:    -6.597      3.101      7.657
REMARK INTER + INTRA:          -8.020
REMARK INTER:                  -7.755
REMARK INTRA:                  -0.265
REMARK UNBOUND:                -0.267
REMARK SMILES O=c1cc(-c2ccc(O)c(O)c2)oc2cc(O)cc(O)c12
REMARK SMILES IDX 4 1 3 2 2 3 1 4 21 5 19 6 18 7 16 8 15 9 14 10 13 11 5 12
REMARK SMILES IDX 6 13 7 14 8 15 12 16 10 17 9 18 11 20 20 22 17 24
REMARK H PARENT 9 19 11 21 20 23 17 25
REMARK Flexibility Score: inf
ROOT
ATOM      1  C   UNL     1       9.985  12.148 -16.910  1.00  0.00     0.138 A 
ATOM      2  C   UNL     1      10.824  13.184 -16.475  1.00  0.00     0.100 A 
ATOM      3  C   UNL     1      10.920  14.357 -17.224  1.00  0.00     0.197 A 
ATOM      4  O   UNL     1      11.724  15.244 -16.837  1.00  0.00    -0.289 OA
ATOM      5  C   UNL     1      10.142  14.508 -18.398  1.00  0.00     0.107 A 
ATOM      6  C   UNL     1      10.131  15.673 -19.223  1.00  0.00     0.134 A 
ATOM      7  C   UNL     1       9.394  15.666 -20.414  1.00  0.00     0.093 A 
ATOM      8  C   UNL     1       8.623  14.561 -20.780  1.00  0.00     0.123 A 
ATOM      9  C   UNL     1       8.587  13.438 -19.956  1.00  0.00     0.094 A 
ATOM     10  C   UNL     1       9.338  13.400 -18.779  1.00  0.00     0.146 A 
ATOM     11  O   UNL     1       9.290  12.303 -18.031  1.00  0.00    -0.456 OA
ENDROOT
BRANCH   1  12
ATOM     12  C   UNL     1       9.843  10.881 -16.149  1.00  0.00     0.021 A 
ATOM     13  C   UNL     1      10.774   9.848 -16.350  1.00  0.00     0.016 A 
ATOM     14  C   UNL     1      10.668   8.648 -15.643  1.00  0.00     0.051 A 
ATOM     15  C   UNL     1       9.638   8.461 -14.717  1.00  0.00     0.157 A 
ATOM     16  C   UNL     1       8.815  10.694 -15.205  1.00  0.00     0.062 A 
ATOM     17  C   UNL     1       8.708   9.490 -14.493  1.00  0.00     0.158 A 
BRANCH  15  18
ATOM     18  O   UNL     1       9.557   7.253 -14.027  1.00  0.00    -0.504 OA
ATOM     19  H   UNL     1       8.756   7.011 -13.456  1.00  0.00     0.293 HD
ENDBRANCH  15  18
BRANCH  17  20
ATOM     20  O   UNL     1       7.686   9.315 -13.562  1.00  0.00    -0.504 OA
ATOM     21  H   UNL     1       7.882   9.152 -12.581  1.00  0.00     0.293 HD
ENDBRANCH  17  20
ENDBRANCH   1  12
BRANCH   6  22
ATOM     22  O   UNL     1      10.802  16.859 -18.913  1.00  0.00    -0.507 OA
ATOM     23  H   UNL     1      11.354  17.013 -18.085  1.00  0.00     0.293 HD
ENDBRANCH   6  22
BRANCH   8  24
ATOM     24  O   UNL     1       7.881  14.571 -21.959  1.00  0.00    -0.508 OA
ATOM     25  H   UNL     1       8.294  14.846 -22.843  1.00  0.00     0.293 HD
ENDBRANCH   8  24
TORSDOF 5
ENDMDL
MODEL 4
REMARK VINA RESULT:    -6.344      2.677      7.240
REMARK INTER + INTRA:          -7.724
REMARK INTER:                  -7.459
REMARK INTRA:                  -0.264
REMARK UNBOUND:                -0.267
REMARK SMILES O=c1cc(-c2ccc(O)c(O)c2)oc2cc(O)cc(O)c12
REMARK SMILES IDX 4 1 3 2 2 3 1 4 21 5 19 6 18 7 16 8 15 9 14 10 13 11 5 12
REMARK SMILES IDX 6 13 7 14 8 15 12 16 10 17 9 18 11 20 20 22 17 24
REMARK H PARENT 9 19 11 21 20 23 17 25
REMARK Flexibility Score: inf
ROOT
ATOM      1  C   UNL     1       9.131  11.850 -18.028  1.00  0.00     0.138 A 
ATOM      2  C   UNL     1       8.364  11.575 -19.169  1.00  0.00     0.100 A 
ATOM      3  C   UNL     1       8.152  12.576 -20.117  1.00  0.00     0.197 A 
ATOM      4  O   UNL     1       7.414  12.314 -21.102  1.00  0.00    -0.289 OA
ATOM      5  C   UNL     1       8.743  13.851 -19.939  1.00  0.00     0.107 A 
ATOM      6  C   UNL     1       8.626  14.938 -20.857  1.00  0.00     0.134 A 
ATOM      7  C   UNL     1       9.174  16.183 -20.523  1.00  0.00     0.093 A 
ATOM      8  C   UNL     1       9.884  16.365 -19.334  1.00  0.00     0.123 A 
ATOM      9  C   UNL     1      10.047  15.296 -18.456  1.00  0.00     0.094 A 
ATOM     10  C   UNL     1       9.484  14.051 -18.743  1.00  0.00     0.146 A 
ATOM     11  O   UNL     1       9.648  13.064 -17.869  1.00  0.00    -0.456 OA
ENDROOT
BRANCH   1  12
ATOM     12  C   UNL     1       9.391  10.821 -16.989  1.00  0.00     0.021 A 
ATOM     13  C   UNL     1      10.499   9.969 -17.124  1.00  0.00     0.016 A 
ATOM     14  C   UNL     1      10.770   8.997 -16.157  1.00  0.00     0.051 A 
ATOM     15  C   UNL     1       9.947   8.866 -15.036  1.00  0.00     0.157 A 
ATOM     16  C   UNL     1       8.572  10.695 -15.850  1.00  0.00     0.062 A 
ATOM     17  C   UNL     1       8.844   9.721 -14.878  1.00  0.00     0.158 A 
BRANCH  15  18
ATOM     18  O   UNL     1      10.242   7.887 -14.089  1.00  0.00    -0.504 OA
ATOM     19  H   UNL     1      10.529   8.118 -13.146  1.00  0.00     0.293 HD
ENDBRANCH  15  18
BRANCH  17  20
ATOM     20  O   UNL     1       8.026   9.603 -13.756  1.00  0.00    -0.504 OA
ATOM     21  H   UNL     1       8.271   8.999 -12.980  1.00  0.00     0.293 HD
ENDBRANCH  17  20
ENDBRANCH   1  12
BRANCH   6  22
ATOM     22  O   UNL     1       8.006  14.846 -22.106  1.00  0.00    -0.507 OA
ATOM     23  H   UNL     1       7.118  14.403 -22.281  1.00  0.00     0.293 HD
ENDBRANCH   6  22
BRANCH   8  24
ATOM     24  O   UNL     1      10.439  17.604 -19.020  1.00  0.00    -0.508 OA
ATOM     25  H   UNL     1      11.369  17.683 -18.626  1.00  0.00     0.293 HD
ENDBRANCH   8  24
TORSDOF 5
ENDMDL
MODEL 5
REMARK VINA RESULT:    -6.305      2.462      7.229
REMARK INTER + INTRA:          -7.678
REMARK INTER:                  -7.383
REMARK INTRA:                  -0.295
REMARK UNBOUND:                -0.267
REMARK SMILES O=c1cc(-c2ccc(O)c(O)c2)oc2cc(O)cc(O)c12
REMARK SMILES IDX 4 1 3 2 2 3 1 4 21 5 19 6 18 7 16 8 15 9 14 10 13 11 5 12
REMARK SMILES IDX 6 13 7 14 8 15 12 16 10 17 9 18 11 20 20 22 17 24
REMARK H PARENT 9 19 11 21 20 23 17 25
REMARK Flexibility Score: inf
ROOT
ATOM      1  C   UNL     1       9.497  13.505 -18.660  1.00  0.00     0.138 A 
ATOM      2  C   UNL     1       9.295  14.670 -17.907  1.00  0.00     0.100 A 
ATOM      3  C   UNL     1       9.008  15.871 -18.556  1.00  0.00     0.197 A 
ATOM      4  O   UNL     1       8.887  16.909 -17.856  1.00  0.00    -0.289 OA
ATOM      5  C   UNL     1       8.887  15.897 -19.967  1.00  0.00     0.107 A 
ATOM      6  C   UNL     1       8.562  17.056 -20.734  1.00  0.00     0.134 A 
ATOM      7  C   UNL     1       8.568  16.980 -22.133  1.00  0.00     0.093 A 
ATOM      8  C   UNL     1       8.828  15.775 -22.789  1.00  0.00     0.123 A 
ATOM      9  C   UNL     1       9.096  14.627 -22.047  1.00  0.00     0.094 A 
ATOM     10  C   UNL     1       9.132  14.677 -20.652  1.00  0.00     0.146 A 
ATOM     11  O   UNL     1       9.409  13.563 -19.984  1.00  0.00    -0.456 OA
ENDROOT
BRANCH   1  12
ATOM     12  C   UNL     1       9.802  12.199 -18.021  1.00  0.00     0.021 A 
ATOM     13  C   UNL     1      10.702  12.152 -16.943  1.00  0.00     0.016 A 
ATOM     14  C   UNL     1      11.001  10.938 -16.319  1.00  0.00     0.051 A 
ATOM     15  C   UNL     1      10.401   9.754 -16.753  1.00  0.00     0.157 A 
ATOM     16  C   UNL     1       9.188  11.005 -18.445  1.00  0.00     0.062 A 
ATOM     17  C   UNL     1       9.486   9.785 -17.818  1.00  0.00     0.158 A 
BRANCH  15  18
ATOM     18  O   UNL     1      10.720   8.558 -16.111  1.00  0.00    -0.504 OA
ATOM     19  H   UNL     1      11.389   7.902 -16.497  1.00  0.00     0.293 HD
ENDBRANCH  15  18
BRANCH  17  20
ATOM     20  O   UNL     1       8.875   8.609 -18.248  1.00  0.00    -0.504 OA
ATOM     21  H   UNL     1       9.183   7.701 -17.922  1.00  0.00     0.293 HD
ENDBRANCH  17  20
ENDBRANCH   1  12
BRANCH   6  22
ATOM     22  O   UNL     1       8.210  18.290 -20.180  1.00  0.00    -0.507 OA
ATOM     23  H   UNL     1       8.258  19.175 -20.658  1.00  0.00     0.293 HD
ENDBRANCH   6  22
BRANCH   8  24
ATOM     24  O   UNL     1       8.816  15.706 -24.181  1.00  0.00    -0.508 OA
ATOM     25  H   UNL     1       8.294  16.371 -24.739  1.00  0.00     0.293 HD
ENDBRANCH   8  24
TORSDOF 5
ENDMDL
MODEL 6
REMARK VINA RESULT:    -6.296      2.741      6.487
REMARK INTER + INTRA:          -7.667
REMARK INTER:                  -7.352
REMARK INTRA:                  -0.315
REMARK UNBOUND:                -0.267
REMARK SMILES O=c1cc(-c2ccc(O)c(O)c2)oc2cc(O)cc(O)c12
REMARK SMILES IDX 4 1 3 2 2 3 1 4 21 5 19 6 18 7 16 8 15 9 14 10 13 11 5 12
REMARK SMILES IDX 6 13 7 14 8 15 12 16 10 17 9 18 11 20 20 22 17 24
REMARK H PARENT 9 19 11 21 20 23 17 25
REMARK Flexibility Score: inf
ROOT
ATOM      1  C   UNL     1       7.966  12.859 -17.397  1.00  0.00     0.138 A 
ATOM      2  C   UNL     1       7.425  12.417 -18.613  1.00  0.00     0.100 A 
ATOM      3  C   UNL     1       7.556  13.206 -19.755  1.00  0.00     0.197 A 
ATOM      4  O   UNL     1       7.012  12.808 -20.817  1.00  0.00    -0.289 OA
ATOM      5  C   UNL     1       8.266  14.430 -19.688  1.00  0.00     0.107 A 
ATOM      6  C   UNL     1       8.494  15.301 -20.796  1.00  0.00     0.134 A 
ATOM      7  C   UNL     1       9.125  16.533 -20.585  1.00  0.00     0.093 A 
ATOM      8  C   UNL     1       9.588  16.900 -19.319  1.00  0.00     0.123 A 
ATOM      9  C   UNL     1       9.416  16.034 -18.242  1.00  0.00     0.094 A 
ATOM     10  C   UNL     1       8.759  14.813 -18.412  1.00  0.00     0.146 A 
ATOM     11  O   UNL     1       8.600  14.026 -17.354  1.00  0.00    -0.456 OA
ENDROOT
BRANCH   1  12
ATOM     12  C   UNL     1       7.858  12.057 -16.151  1.00  0.00     0.021 A 
ATOM     13  C   UNL     1       7.488  10.704 -16.231  1.00  0.00     0.016 A 
ATOM     14  C   UNL     1       7.386   9.926 -15.075  1.00  0.00     0.051 A 
ATOM     15  C   UNL     1       7.662  10.481 -13.823  1.00  0.00     0.157 A 
ATOM     16  C   UNL     1       8.149  12.609 -14.888  1.00  0.00     0.062 A 
ATOM     17  C   UNL     1       8.048  11.828 -13.727  1.00  0.00     0.158 A 
BRANCH  15  18
ATOM     18  O   UNL     1       7.550   9.680 -12.687  1.00  0.00    -0.504 OA
ATOM     19  H   UNL     1       6.772   9.045 -12.550  1.00  0.00     0.293 HD
ENDBRANCH  15  18
BRANCH  17  20
ATOM     20  O   UNL     1       8.336  12.384 -12.482  1.00  0.00    -0.504 OA
ATOM     21  H   UNL     1       7.832  12.107 -11.647  1.00  0.00     0.293 HD
ENDBRANCH  17  20
ENDBRANCH   1  12
BRANCH   6  22
ATOM     22  O   UNL     1       8.143  15.000 -22.115  1.00  0.00    -0.507 OA
ATOM     23  H   UNL     1       7.954  14.075 -22.467  1.00  0.00     0.293 HD
ENDBRANCH   6  22
BRANCH   8  24
ATOM     24  O   UNL     1      10.229  18.121 -19.123  1.00  0.00    -0.508 OA
ATOM     25  H   UNL     1       9.718  18.948 -18.837  1.00  0.00     0.293 HD
ENDBRANCH   8  24
TORSDOF 5
ENDMDL
MODEL 7
REMARK VINA RESULT:    -6.162      2.906      4.769
REMARK INTER + INTRA:          -7.509
REMARK INTER:                  -7.229
REMARK INTRA:                  -0.280
REMARK UNBOUND:                -0.267
REMARK SMILES O=c1cc(-c2ccc(O)c(O)c2)oc2cc(O)cc(O)c12
REMARK SMILES IDX 4 1 3 2 2 3 1 4 21 5 19 6 18 7 16 8 15 9 14 10 13 11 5 12
REMARK SMILES IDX 6 13 7 14 8 15 12 16 10 17 9 18 11 20 20 22 17 24
REMARK H PARENT 9 19 11 21 20 23 17 25
REMARK Flexibility Score: inf
ROOT
ATOM      1  C   UNL     1       9.043  13.078 -18.481  1.00  0.00     0.138 A 
ATOM      2  C   UNL     1       9.529  11.817 -18.855  1.00  0.00     0.100 A 
ATOM      3  C   UNL     1       9.579  10.789 -17.914  1.00  0.00     0.197 A 
ATOM      4  O   UNL     1      10.071   9.686 -18.266  1.00  0.00    -0.289 OA
ATOM      5  C   UNL     1       9.107  11.015 -16.598  1.00  0.00     0.107 A 
ATOM      6  C   UNL     1       9.077  10.032 -15.564  1.00  0.00     0.134 A 
ATOM      7  C   UNL     1       8.679  10.402 -14.273  1.00  0.00     0.093 A 
ATOM      8  C   UNL     1       8.255  11.703 -13.993  1.00  0.00     0.123 A 
ATOM      9  C   UNL     1       8.232  12.657 -15.008  1.00  0.00     0.094 A 
ATOM     10  C   UNL     1       8.656  12.328 -16.298  1.00  0.00     0.146 A 
ATOM     11  O   UNL     1       8.636  13.273 -17.232  1.00  0.00    -0.456 OA
ENDROOT
BRANCH   1  12
ATOM     12  C   UNL     1       8.964  14.207 -19.443  1.00  0.00     0.021 A 
ATOM     13  C   UNL     1       9.350  15.493 -19.031  1.00  0.00     0.016 A 
ATOM     14  C   UNL     1       9.292  16.571 -19.918  1.00  0.00     0.051 A 
ATOM     15  C   UNL     1       8.859  16.382 -21.233  1.00  0.00     0.157 A 
ATOM     16  C   UNL     1       8.542  14.018 -20.774  1.00  0.00     0.062 A 
ATOM     17  C   UNL     1       8.485  15.099 -21.666  1.00  0.00     0.158 A 
BRANCH  15  18
ATOM     18  O   UNL     1       8.811  17.477 -22.094  1.00  0.00    -0.504 OA
ATOM     19  H   UNL     1       8.312  18.327 -21.858  1.00  0.00     0.293 HD
ENDBRANCH  15  18
BRANCH  17  20
ATOM     20  O   UNL     1       8.064  14.902 -22.979  1.00  0.00    -0.504 OA
ATOM     21  H   UNL     1       7.810  15.679 -23.578  1.00  0.00     0.293 HD
ENDBRANCH  17  20
ENDBRANCH   1  12
BRANCH   6  22
ATOM     22  O   UNL     1       9.404   8.686 -15.752  1.00  0.00    -0.507 OA
ATOM     23  H   UNL     1       9.733   8.285 -16.615  1.00  0.00     0.293 HD
ENDBRANCH   6  22
BRANCH   8  24
ATOM     24  O   UNL     1       7.846  12.057 -12.709  1.00  0.00    -0.508 OA
ATOM     25  H   UNL     1       7.188  11.489 -12.187  1.00  0.00     0.293 HD
ENDBRANCH   8  24
TORSDOF 5
ENDMDL
MODEL 8
REMARK VINA RESULT:    -6.133      2.614      4.525
REMARK INTER + INTRA:          -7.476
REMARK INTER:                  -7.198
REMARK INTRA:                  -0.277
REMARK UNBOUND:                -0.267
REMARK SMILES O=c1cc(-c2ccc(O)c(O)c2)oc2cc(O)cc(O)c12
REMARK SMILES IDX 4 1 3 2 2 3 1 4 21 5 19 6 18 7 16 8 15 9 14 10 13 11 5 12
REMARK SMILES IDX 6 13 7 14 8 15 12 16 10 17 9 18 11 20 20 22 17 24
REMARK H PARENT 9 19 11 21 20 23 17 25
REMARK Flexibility Score: inf
ROOT
ATOM      1  C   UNL     1       8.645  13.505 -18.335  1.00  0.00     0.138 A 
ATOM      2  C   UNL     1       7.725  13.565 -17.278  1.00  0.00     0.100 A 
ATOM      3  C   UNL     1       7.768  12.603 -16.269  1.00  0.00     0.197 A 
ATOM      4  O   UNL     1       6.895  12.652 -15.364  1.00  0.00    -0.289 OA
ATOM      5  C   UNL     1       8.761  11.593 -16.300  1.00  0.00     0.107 A 
ATOM      6  C   UNL     1       8.924  10.580 -15.308  1.00  0.00     0.134 A 
ATOM      7  C   UNL     1       9.882   9.576 -15.499  1.00  0.00     0.093 A 
ATOM      8  C   UNL     1      10.721   9.582 -16.615  1.00  0.00     0.123 A 
ATOM      9  C   UNL     1      10.604  10.596 -17.563  1.00  0.00     0.094 A 
ATOM     10  C   UNL     1       9.636  11.592 -17.420  1.00  0.00     0.146 A 
ATOM     11  O   UNL     1       9.546  12.529 -18.357  1.00  0.00    -0.456 OA
ENDROOT
BRANCH   1  12
ATOM     12  C   UNL     1       8.646  14.504 -19.433  1.00  0.00     0.021 A 
ATOM     13  C   UNL     1       8.752  14.068 -20.764  1.00  0.00     0.016 A 
ATOM     14  C   UNL     1       8.749  14.987 -21.815  1.00  0.00     0.051 A 
ATOM     15  C   UNL     1       8.630  16.355 -21.559  1.00  0.00     0.157 A 
ATOM     16  C   UNL     1       8.512  15.884 -19.179  1.00  0.00     0.062 A 
ATOM     17  C   UNL     1       8.507  16.807 -20.235  1.00  0.00     0.158 A 
BRANCH  15  18
ATOM     18  O   UNL     1       8.632  17.248 -22.629  1.00  0.00    -0.504 OA
ATOM     19  H   UNL     1       8.519  18.246 -22.498  1.00  0.00     0.293 HD
ENDBRANCH  15  18
BRANCH  17  20
ATOM     20  O   UNL     1       8.377  18.170 -19.973  1.00  0.00    -0.504 OA
ATOM     21  H   UNL     1       7.703  18.520 -19.302  1.00  0.00     0.293 HD
ENDBRANCH  17  20
ENDBRANCH   1  12
BRANCH   6  22
ATOM     22  O   UNL     1       8.193  10.524 -14.117  1.00  0.00    -0.507 OA
ATOM     23  H   UNL     1       8.460  10.004 -13.297  1.00  0.00     0.293 HD
ENDBRANCH   6  22
BRANCH   8  24
ATOM     24  O   UNL     1      11.681   8.587 -16.787  1.00  0.00    -0.508 OA
ATOM     25  H   UNL     1      11.691   7.998 -17.611  1.00  0.00     0.293 HD
ENDBRANCH   8  24
TORSDOF 5
ENDMDL
MODEL 9
REMARK VINA RESULT:    -6.028      3.491      7.757
REMARK INTER + INTRA:          -7.352
REMARK INTER:                  -7.088
REMARK INTRA:                  -0.263
REMARK UNBOUND:                -0.267
REMARK SMILES O=c1cc(-c2ccc(O)c(O)c2)oc2cc(O)cc(O)c12
REMARK SMILES IDX 4 1 3 2 2 3 1 4 21 5 19 6 18 7 16 8 15 9 14 10 13 11 5 12
REMARK SMILES IDX 6 13 7 14 8 15 12 16 10 17 9 18 11 20 20 22 17 24
REMARK H PARENT 9 19 11 21 20 23 17 25
REMARK Flexibility Score: inf
ROOT
ATOM      1  C   UNL     1       8.928  11.809 -15.895  1.00  0.00     0.138 A 
ATOM      2  C   UNL     1      10.032  12.638 -15.650  1.00  0.00     0.100 A 
ATOM      3  C   UNL     1      10.386  13.611 -16.585  1.00  0.00     0.197 A 
ATOM      4  O   UNL     1      11.414  14.302 -16.363  1.00  0.00    -0.289 OA
ATOM      5  C   UNL     1       9.607  13.779 -17.756  1.00  0.00     0.107 A 
ATOM      6  C   UNL     1       9.851  14.761 -18.763  1.00  0.00     0.134 A 
ATOM      7  C   UNL     1       9.070  14.765 -19.926  1.00  0.00     0.093 A 
ATOM      8  C   UNL     1       8.018  13.862 -20.092  1.00  0.00     0.123 A 
ATOM      9  C   UNL     1       7.739  12.933 -19.092  1.00  0.00     0.094 A 
ATOM     10  C   UNL     1       8.522  12.880 -17.936  1.00  0.00     0.146 A 
ATOM     11  O   UNL     1       8.233  11.966 -17.016  1.00  0.00    -0.456 OA
ENDROOT
BRANCH   1  12
ATOM     12  C   UNL     1       8.505  10.760 -14.933  1.00  0.00     0.021 A 
ATOM     13  C   UNL     1       7.544  11.067 -13.955  1.00  0.00     0.016 A 
ATOM     14  C   UNL     1       7.124  10.096 -13.042  1.00  0.00     0.051 A 
ATOM     15  C   UNL     1       7.647   8.802 -13.095  1.00  0.00     0.157 A 
ATOM     16  C   UNL     1       9.019   9.450 -14.992  1.00  0.00     0.062 A 
ATOM     17  C   UNL     1       8.596   8.474 -14.077  1.00  0.00     0.158 A 
BRANCH  15  18
ATOM     18  O   UNL     1       7.208   7.855 -12.171  1.00  0.00    -0.504 OA
ATOM     19  H   UNL     1       6.226   7.723 -11.959  1.00  0.00     0.293 HD
ENDBRANCH  15  18
BRANCH  17  20
ATOM     20  O   UNL     1       9.113   7.181 -14.143  1.00  0.00    -0.504 OA
ATOM     21  H   UNL     1       8.531   6.388 -14.387  1.00  0.00     0.293 HD
ENDBRANCH  17  20
ENDBRANCH   1  12
BRANCH   6  22
ATOM     22  O   UNL     1      10.825  15.759 -18.664  1.00  0.00    -0.507 OA
ATOM     23  H   UNL     1      11.020  16.450 -19.371  1.00  0.00     0.293 HD
ENDBRANCH   6  22
BRANCH   8  24
ATOM     24  O   UNL     1       7.237  13.884 -21.245  1.00  0.00    -0.508 OA
ATOM     25  H   UNL     1       7.654  13.850 -22.168  1.00  0.00     0.293 HD
ENDBRANCH   8  24
TORSDOF 5
ENDMDL
