MODEL 1
REMARK VINA RESULT:    -7.209      0.000      0.000
REMARK INTER + INTRA:          -7.518
REMARK INTER:                  -7.841
REMARK INTRA:                   0.323
REMARK UNBOUND:                 0.323
REMARK SMILES C[C@@H]1[C@@H](C)CC[C@]2(C(=O)[O-])CC[C@]3(C)C(=CC[C@@H]4[C@@]5(C)CC[C@H](O)C(C)(C)[C@H]5CC[C@]43C)[C@@H]12
REMARK SMILES IDX 7 1 6 2 11 3 33 4 5 5 12 6 15 7 2 8 3 9 13 10 16 11 1 12
REMARK SMILES IDX 4 13 14 14 31 15 17 16 18 17 30 18 32 19 19 20 29 21 28 22
REMARK SMILES IDX 21 23 20 24 25 25 22 26 23 27 26 28 27 29 8 30 9 31 10 32
REMARK SMILES IDX 24 33
REMARK H PARENT 24 34
REMARK Flexibility Score: inf
ROOT
ATOM      1  C   UNL     1      18.840 -13.056  12.121  1.00  0.00     0.017 C 
ATOM      2  C   UNL     1      19.829 -12.562  11.035  1.00  0.00     0.014 C 
ATOM      3  C   UNL     1      18.411 -14.518  11.772  1.00  0.00     0.014 C 
ATOM      4  C   UNL     1      17.551 -12.172  12.088  1.00  0.00     0.030 C 
ATOM      5  C   UNL     1      20.124 -11.062  11.145  1.00  0.00     0.004 C 
ATOM      6  C   UNL     1      17.271 -15.072  12.680  1.00  0.00     0.013 C 
ATOM      7  C   UNL     1      16.550 -12.759  13.099  1.00  0.00    -0.063 C 
ATOM      8  C   UNL     1      17.808 -10.627  12.140  1.00  0.00    -0.003 C 
ATOM      9  C   UNL     1      18.835 -10.220  11.039  1.00  0.00    -0.011 C 
ATOM     10  C   UNL     1      15.979 -14.172  12.790  1.00  0.00    -0.006 C 
ATOM     11  C   UNL     1      16.564 -12.282  14.360  1.00  0.00    -0.027 C 
ATOM     12  C   UNL     1      16.478  -9.867  11.955  1.00  0.00     0.008 C 
ATOM     13  C   UNL     1      19.200  -8.726  11.107  1.00  0.00     0.008 C 
ATOM     14  C   UNL     1      15.330 -14.148  11.364  1.00  0.00     0.017 C 
ATOM     15  C   UNL     1      14.880 -14.715  13.925  1.00  0.00    -0.020 C 
ATOM     16  C   UNL     1      15.969 -13.036  15.491  1.00  0.00     0.032 C 
ATOM     17  C   UNL     1      14.629 -13.637  15.044  1.00  0.00     0.006 C 
ATOM     18  C   UNL     1      13.460 -14.978  13.325  1.00  0.00     0.008 C 
ATOM     19  C   UNL     1      15.354 -16.079  14.521  1.00  0.00     0.012 C 
ATOM     20  C   UNL     1      13.670 -14.023  16.262  1.00  0.00    -0.025 C 
ATOM     21  C   UNL     1      12.271 -15.120  14.302  1.00  0.00     0.005 C 
ATOM     22  C   UNL     1      12.514 -15.042  15.842  1.00  0.00     0.003 C 
ATOM     23  C   UNL     1      13.041 -12.692  16.819  1.00  0.00     0.010 C 
ATOM     24  C   UNL     1      14.517 -14.647  17.420  1.00  0.00     0.012 C 
ATOM     25  C   UNL     1      11.131 -14.829  16.614  1.00  0.00    -0.006 C 
ATOM     26  C   UNL     1      11.722 -12.329  16.143  1.00  0.00     0.033 C 
ATOM     27  C   UNL     1      10.610 -13.350  16.444  1.00  0.00     0.120 C 
ATOM     28  C   UNL     1      11.276 -15.205  18.119  1.00  0.00     0.014 C 
ATOM     29  C   UNL     1      10.040 -15.799  16.069  1.00  0.00     0.014 C 
ENDROOT
BRANCH   1  30
ATOM     30  C   UNL     1      19.554 -13.042  13.479  1.00  0.00     0.048 C 
ATOM     31  O   UNL     1      20.015 -14.109  13.972  1.00  0.00    -0.550 OA
ATOM     32  O   UNL     1      19.786 -11.853  14.160  1.00  0.00    -0.550 OA
ENDBRANCH   1  30
BRANCH  27  33
ATOM     33  O   UNL     1       9.896 -12.925  17.579  1.00  0.00    -0.393 OA
ATOM     34  H   UNL     1      10.334 -12.092  17.901  1.00  0.00     0.210 HD
ENDBRANCH  27  33
TORSDOF 2
ENDMDL
MODEL 2
REMARK VINA RESULT:    -6.663      3.503      6.724
REMARK INTER + INTRA:          -6.925
REMARK INTER:                  -7.265
REMARK INTRA:                   0.340
REMARK UNBOUND:                 0.323
REMARK SMILES C[C@@H]1[C@@H](C)CC[C@]2(C(=O)[O-])CC[C@]3(C)C(=CC[C@@H]4[C@@]5(C)CC[C@H](O)C(C)(C)[C@H]5CC[C@]43C)[C@@H]12
REMARK SMILES IDX 7 1 6 2 11 3 33 4 5 5 12 6 15 7 2 8 3 9 13 10 16 11 1 12
REMARK SMILES IDX 4 13 14 14 31 15 17 16 18 17 30 18 32 19 19 20 29 21 28 22
REMARK SMILES IDX 21 23 20 24 25 25 22 26 23 27 26 28 27 29 8 30 9 31 10 32
REMARK SMILES IDX 24 33
REMARK H PARENT 24 34
REMARK Flexibility Score: inf
ROOT
ATOM      1  C   UNL     1      13.438 -12.134  14.915  1.00  0.00     0.017 C 
ATOM      2  C   UNL     1      12.482 -11.130  14.223  1.00  0.00     0.014 C 
ATOM      3  C   UNL     1      14.643 -12.410  13.959  1.00  0.00     0.014 C 
ATOM      4  C   UNL     1      12.693 -13.493  15.130  1.00  0.00     0.030 C 
ATOM      5  C   UNL     1      11.150 -10.976  14.966  1.00  0.00     0.004 C 
ATOM      6  C   UNL     1      15.587 -13.549  14.451  1.00  0.00     0.013 C 
ATOM      7  C   UNL     1      13.702 -14.496  15.714  1.00  0.00    -0.063 C 
ATOM      8  C   UNL     1      11.298 -13.377  15.834  1.00  0.00    -0.003 C 
ATOM      9  C   UNL     1      10.414 -12.325  15.097  1.00  0.00    -0.011 C 
ATOM     10  C   UNL     1      14.888 -14.920  14.802  1.00  0.00    -0.006 C 
ATOM     11  C   UNL     1      13.794 -14.601  17.055  1.00  0.00    -0.027 C 
ATOM     12  C   UNL     1      10.605 -14.756  15.856  1.00  0.00     0.008 C 
ATOM     13  C   UNL     1       9.065 -12.099  15.805  1.00  0.00     0.008 C 
ATOM     14  C   UNL     1      14.309 -15.482  13.458  1.00  0.00     0.017 C 
ATOM     15  C   UNL     1      15.915 -16.033  15.508  1.00  0.00    -0.020 C 
ATOM     16  C   UNL     1      14.981 -15.194  17.717  1.00  0.00     0.032 C 
ATOM     17  C   UNL     1      15.416 -16.446  16.942  1.00  0.00     0.006 C 
ATOM     18  C   UNL     1      15.982 -17.385  14.725  1.00  0.00     0.008 C 
ATOM     19  C   UNL     1      17.374 -15.477  15.532  1.00  0.00     0.012 C 
ATOM     20  C   UNL     1      16.326 -17.439  17.801  1.00  0.00    -0.025 C 
ATOM     21  C   UNL     1      16.584 -18.614  15.444  1.00  0.00     0.005 C 
ATOM     22  C   UNL     1      17.141 -18.472  16.896  1.00  0.00     0.003 C 
ATOM     23  C   UNL     1      15.385 -18.216  18.795  1.00  0.00     0.010 C 
ATOM     24  C   UNL     1      17.328 -16.612  18.673  1.00  0.00     0.012 C 
ATOM     25  C   UNL     1      17.345 -19.913  17.557  1.00  0.00    -0.006 C 
ATOM     26  C   UNL     1      14.848 -19.519  18.210  1.00  0.00     0.033 C 
ATOM     27  C   UNL     1      15.961 -20.552  17.962  1.00  0.00     0.120 C 
ATOM     28  C   UNL     1      18.305 -19.826  18.781  1.00  0.00     0.014 C 
ATOM     29  C   UNL     1      18.060 -20.879  16.564  1.00  0.00     0.014 C 
ENDROOT
BRANCH   1  30
ATOM     30  C   UNL     1      13.950 -11.507  16.218  1.00  0.00     0.048 C 
ATOM     31  O   UNL     1      15.144 -11.110  16.313  1.00  0.00    -0.550 OA
ATOM     32  O   UNL     1      13.100 -11.286  17.296  1.00  0.00    -0.550 OA
ENDBRANCH   1  30
BRANCH  27  33
ATOM     33  O   UNL     1      16.087 -21.368  19.100  1.00  0.00    -0.393 OA
ATOM     34  H   UNL     1      16.803 -22.031  18.903  1.00  0.00     0.210 HD
ENDBRANCH  27  33
TORSDOF 2
ENDMDL
MODEL 3
REMARK VINA RESULT:    -6.548      2.756      7.817
REMARK INTER + INTRA:          -6.799
REMARK INTER:                  -7.122
REMARK INTRA:                   0.322
REMARK UNBOUND:                 0.323
REMARK SMILES C[C@@H]1[C@@H](C)CC[C@]2(C(=O)[O-])CC[C@]3(C)C(=CC[C@@H]4[C@@]5(C)CC[C@H](O)C(C)(C)[C@H]5CC[C@]43C)[C@@H]12
REMARK SMILES IDX 7 1 6 2 11 3 33 4 5 5 12 6 15 7 2 8 3 9 13 10 16 11 1 12
REMARK SMILES IDX 4 13 14 14 31 15 17 16 18 17 30 18 32 19 19 20 29 21 28 22
REMARK SMILES IDX 21 23 20 24 25 25 22 26 23 27 26 28 27 29 8 30 9 31 10 32
REMARK SMILES IDX 24 33
REMARK H PARENT 24 34
REMARK Flexibility Score: inf
ROOT
ATOM      1  C   UNL     1      15.893 -14.434  16.564  1.00  0.00     0.017 C 
ATOM      2  C   UNL     1      15.119 -14.268  17.896  1.00  0.00     0.014 C 
ATOM      3  C   UNL     1      16.949 -13.286  16.460  1.00  0.00     0.014 C 
ATOM      4  C   UNL     1      14.903 -14.266  15.366  1.00  0.00     0.030 C 
ATOM      5  C   UNL     1      13.899 -15.194  17.988  1.00  0.00     0.004 C 
ATOM      6  C   UNL     1      17.671 -13.220  15.080  1.00  0.00     0.013 C 
ATOM      7  C   UNL     1      15.723 -14.323  14.065  1.00  0.00    -0.063 C 
ATOM      8  C   UNL     1      13.612 -15.150  15.447  1.00  0.00    -0.003 C 
ATOM      9  C   UNL     1      12.914 -14.950  16.826  1.00  0.00    -0.011 C 
ATOM     10  C   UNL     1      16.733 -13.168  13.813  1.00  0.00    -0.006 C 
ATOM     11  C   UNL     1      15.882 -15.520  13.464  1.00  0.00    -0.027 C 
ATOM     12  C   UNL     1      12.655 -14.789  14.291  1.00  0.00     0.008 C 
ATOM     13  C   UNL     1      11.691 -15.870  16.999  1.00  0.00     0.008 C 
ATOM     14  C   UNL     1      15.961 -11.805  13.886  1.00  0.00     0.017 C 
ATOM     15  C   UNL     1      17.555 -13.298  12.365  1.00  0.00    -0.020 C 
ATOM     16  C   UNL     1      16.965 -15.767  12.482  1.00  0.00     0.032 C 
ATOM     17  C   UNL     1      17.081 -14.556  11.546  1.00  0.00     0.006 C 
ATOM     18  C   UNL     1      17.292 -12.095  11.401  1.00  0.00     0.008 C 
ATOM     19  C   UNL     1      19.096 -13.313  12.622  1.00  0.00     0.012 C 
ATOM     20  C   UNL     1      17.825 -14.885  10.171  1.00  0.00    -0.025 C 
ATOM     21  C   UNL     1      17.677 -12.256   9.912  1.00  0.00     0.005 C 
ATOM     22  C   UNL     1      18.348 -13.577   9.420  1.00  0.00     0.003 C 
ATOM     23  C   UNL     1      16.815 -15.668   9.252  1.00  0.00     0.010 C 
ATOM     24  C   UNL     1      19.031 -15.844  10.443  1.00  0.00     0.012 C 
ATOM     25  C   UNL     1      18.298 -13.665   7.825  1.00  0.00    -0.006 C 
ATOM     26  C   UNL     1      15.984 -14.749   8.363  1.00  0.00     0.033 C 
ATOM     27  C   UNL     1      16.843 -14.009   7.322  1.00  0.00     0.120 C 
ATOM     28  C   UNL     1      19.336 -14.700   7.297  1.00  0.00     0.014 C 
ATOM     29  C   UNL     1      18.731 -12.312   7.184  1.00  0.00     0.014 C 
ENDROOT
BRANCH   1  30
ATOM     30  C   UNL     1      16.610 -15.790  16.577  1.00  0.00     0.048 C 
ATOM     31  O   UNL     1      17.844 -15.861  16.835  1.00  0.00    -0.550 OA
ATOM     32  O   UNL     1      15.912 -16.977  16.388  1.00  0.00    -0.550 OA
ENDBRANCH   1  30
BRANCH  27  33
ATOM     33  O   UNL     1      16.877 -14.767   6.137  1.00  0.00    -0.393 OA
ATOM     34  H   UNL     1      16.296 -15.562   6.285  1.00  0.00     0.210 HD
ENDBRANCH  27  33
TORSDOF 2
ENDMDL
MODEL 4
REMARK VINA RESULT:    -6.502      2.864      8.063
REMARK INTER + INTRA:          -6.749
REMARK INTER:                  -7.098
REMARK INTRA:                   0.348
REMARK UNBOUND:                 0.323
REMARK SMILES C[C@@H]1[C@@H](C)CC[C@]2(C(=O)[O-])CC[C@]3(C)C(=CC[C@@H]4[C@@]5(C)CC[C@H](O)C(C)(C)[C@H]5CC[C@]43C)[C@@H]12
REMARK SMILES IDX 7 1 6 2 11 3 33 4 5 5 12 6 15 7 2 8 3 9 13 10 16 11 1 12
REMARK SMILES IDX 4 13 14 14 31 15 17 16 18 17 30 18 32 19 19 20 29 21 28 22
REMARK SMILES IDX 21 23 20 24 25 25 22 26 23 27 26 28 27 29 8 30 9 31 10 32
REMARK SMILES IDX 24 33
REMARK H PARENT 24 34
REMARK Flexibility Score: inf
ROOT
ATOM      1  C   UNL     1      15.396 -15.023  16.319  1.00  0.00     0.017 C 
ATOM      2  C   UNL     1      14.693 -15.526  17.605  1.00  0.00     0.014 C 
ATOM      3  C   UNL     1      14.463 -13.982  15.619  1.00  0.00     0.014 C 
ATOM      4  C   UNL     1      15.584 -16.219  15.330  1.00  0.00     0.030 C 
ATOM      5  C   UNL     1      15.409 -16.725  18.238  1.00  0.00     0.004 C 
ATOM      6  C   UNL     1      14.965 -13.535  14.213  1.00  0.00     0.013 C 
ATOM      7  C   UNL     1      16.180 -15.663  14.025  1.00  0.00    -0.063 C 
ATOM      8  C   UNL     1      16.260 -17.489  15.950  1.00  0.00    -0.003 C 
ATOM      9  C   UNL     1      15.513 -17.908  17.254  1.00  0.00    -0.011 C 
ATOM     10  C   UNL     1      15.289 -14.696  13.195  1.00  0.00    -0.006 C 
ATOM     11  C   UNL     1      17.522 -15.647  13.893  1.00  0.00    -0.027 C 
ATOM     12  C   UNL     1      16.255 -18.642  14.922  1.00  0.00     0.008 C 
ATOM     13  C   UNL     1      16.195 -19.095  17.960  1.00  0.00     0.008 C 
ATOM     14  C   UNL     1      13.928 -15.411  12.886  1.00  0.00     0.017 C 
ATOM     15  C   UNL     1      16.006 -14.167  11.782  1.00  0.00    -0.020 C 
ATOM     16  C   UNL     1      18.203 -14.776  12.905  1.00  0.00     0.032 C 
ATOM     17  C   UNL     1      17.427 -14.815  11.581  1.00  0.00     0.006 C 
ATOM     18  C   UNL     1      15.214 -14.583  10.500  1.00  0.00     0.008 C 
ATOM     19  C   UNL     1      16.066 -12.606  11.762  1.00  0.00     0.012 C 
ATOM     20  C   UNL     1      18.295 -14.353  10.323  1.00  0.00    -0.025 C 
ATOM     21  C   UNL     1      15.934 -14.492   9.136  1.00  0.00     0.005 C 
ATOM     22  C   UNL     1      17.399 -13.955   9.063  1.00  0.00     0.003 C 
ATOM     23  C   UNL     1      19.263 -15.536   9.945  1.00  0.00     0.010 C 
ATOM     24  C   UNL     1      19.196 -13.137  10.723  1.00  0.00     0.012 C 
ATOM     25  C   UNL     1      18.051 -14.310   7.648  1.00  0.00    -0.006 C 
ATOM     26  C   UNL     1      18.655 -16.501   8.932  1.00  0.00     0.033 C 
ATOM     27  C   UNL     1      18.421 -15.840   7.562  1.00  0.00     0.120 C 
ATOM     28  C   UNL     1      19.296 -13.413   7.375  1.00  0.00     0.014 C 
ATOM     29  C   UNL     1      17.065 -13.978   6.487  1.00  0.00     0.014 C 
ENDROOT
BRANCH   1  30
ATOM     30  C   UNL     1      16.715 -14.345  16.713  1.00  0.00     0.048 C 
ATOM     31  O   UNL     1      16.851 -13.095  16.607  1.00  0.00    -0.550 OA
ATOM     32  O   UNL     1      17.761 -15.072  17.271  1.00  0.00    -0.550 OA
ENDBRANCH   1  30
BRANCH  27  33
ATOM     33  O   UNL     1      19.555 -16.049   6.756  1.00  0.00    -0.393 OA
ATOM     34  H   UNL     1      20.338 -16.112   7.368  1.00  0.00     0.210 HD
ENDBRANCH  27  33
TORSDOF 2
ENDMDL
MODEL 5
REMARK VINA RESULT:    -6.323      2.584      7.937
REMARK INTER + INTRA:          -6.554
REMARK INTER:                  -6.877
REMARK INTRA:                   0.324
REMARK UNBOUND:                 0.323
REMARK SMILES C[C@@H]1[C@@H](C)CC[C@]2(C(=O)[O-])CC[C@]3(C)C(=CC[C@@H]4[C@@]5(C)CC[C@H](O)C(C)(C)[C@H]5CC[C@]43C)[C@@H]12
REMARK SMILES IDX 7 1 6 2 11 3 33 4 5 5 12 6 15 7 2 8 3 9 13 10 16 11 1 12
REMARK SMILES IDX 4 13 14 14 31 15 17 16 18 17 30 18 32 19 19 20 29 21 28 22
REMARK SMILES IDX 21 23 20 24 25 25 22 26 23 27 26 28 27 29 8 30 9 31 10 32
REMARK SMILES IDX 24 33
REMARK H PARENT 24 34
REMARK Flexibility Score: inf
ROOT
ATOM      1  C   UNL     1      14.389 -15.456  17.913  1.00  0.00     0.017 C 
ATOM      2  C   UNL     1      13.385 -15.517  19.092  1.00  0.00     0.014 C 
ATOM      3  C   UNL     1      15.425 -14.322  18.204  1.00  0.00     0.014 C 
ATOM      4  C   UNL     1      13.628 -15.066  16.604  1.00  0.00     0.030 C 
ATOM      5  C   UNL     1      12.186 -16.427  18.798  1.00  0.00     0.004 C 
ATOM      6  C   UNL     1      16.382 -14.024  17.010  1.00  0.00     0.013 C 
ATOM      7  C   UNL     1      14.669 -14.905  15.483  1.00  0.00    -0.063 C 
ATOM      8  C   UNL     1      12.360 -15.933  16.294  1.00  0.00    -0.003 C 
ATOM      9  C   UNL     1      11.421 -15.970  17.539  1.00  0.00    -0.011 C 
ATOM     10  C   UNL     1      15.686 -13.737  15.624  1.00  0.00    -0.006 C 
ATOM     11  C   UNL     1      14.955 -15.979  14.720  1.00  0.00    -0.027 C 
ATOM     12  C   UNL     1      11.620 -15.362  15.066  1.00  0.00     0.008 C 
ATOM     13  C   UNL     1      10.204 -16.889  17.324  1.00  0.00     0.008 C 
ATOM     14  C   UNL     1      14.888 -12.398  15.794  1.00  0.00     0.017 C 
ATOM     15  C   UNL     1      16.758 -13.621  14.347  1.00  0.00    -0.020 C 
ATOM     16  C   UNL     1      16.202 -16.064  13.921  1.00  0.00     0.032 C 
ATOM     17  C   UNL     1      16.462 -14.708  13.249  1.00  0.00     0.006 C 
ATOM     18  C   UNL     1      16.650 -12.264  13.579  1.00  0.00     0.008 C 
ATOM     19  C   UNL     1      18.227 -13.702  14.872  1.00  0.00     0.012 C 
ATOM     20  C   UNL     1      17.447 -14.801  11.995  1.00  0.00    -0.025 C 
ATOM     21  C   UNL     1      17.299 -12.165  12.179  1.00  0.00     0.005 C 
ATOM     22  C   UNL     1      18.072 -13.387  11.591  1.00  0.00     0.003 C 
ATOM     23  C   UNL     1      16.633 -15.396  10.786  1.00  0.00     0.010 C 
ATOM     24  C   UNL     1      18.602 -15.809  12.307  1.00  0.00     0.012 C 
ATOM     25  C   UNL     1      18.311 -13.192  10.023  1.00  0.00    -0.006 C 
ATOM     26  C   UNL     1      15.959 -14.323   9.936  1.00  0.00     0.033 C 
ATOM     27  C   UNL     1      16.977 -13.423   9.214  1.00  0.00     0.120 C 
ATOM     28  C   UNL     1      19.446 -14.133   9.518  1.00  0.00     0.014 C 
ATOM     29  C   UNL     1      18.828 -11.754   9.719  1.00  0.00     0.014 C 
ENDROOT
BRANCH   1  30
ATOM     30  C   UNL     1      15.118 -16.803  17.816  1.00  0.00     0.048 C 
ATOM     31  O   UNL     1      16.289 -16.933  18.269  1.00  0.00    -0.550 OA
ATOM     32  O   UNL     1      14.484 -17.931  17.307  1.00  0.00    -0.550 OA
ENDBRANCH   1  30
BRANCH  27  33
ATOM     33  O   UNL     1      17.238 -13.961   7.941  1.00  0.00    -0.393 OA
ATOM     34  H   UNL     1      18.224 -13.939   7.813  1.00  0.00     0.210 HD
ENDBRANCH  27  33
TORSDOF 2
ENDMDL
MODEL 6
REMARK VINA RESULT:    -6.236      1.917      3.172
REMARK INTER + INTRA:          -6.460
REMARK INTER:                  -6.793
REMARK INTRA:                   0.334
REMARK UNBOUND:                 0.323
REMARK SMILES C[C@@H]1[C@@H](C)CC[C@]2(C(=O)[O-])CC[C@]3(C)C(=CC[C@@H]4[C@@]5(C)CC[C@H](O)C(C)(C)[C@H]5CC[C@]43C)[C@@H]12
REMARK SMILES IDX 7 1 6 2 11 3 33 4 5 5 12 6 15 7 2 8 3 9 13 10 16 11 1 12
REMARK SMILES IDX 4 13 14 14 31 15 17 16 18 17 30 18 32 19 19 20 29 21 28 22
REMARK SMILES IDX 21 23 20 24 25 25 22 26 23 27 26 28 27 29 8 30 9 31 10 32
REMARK SMILES IDX 24 33
REMARK H PARENT 24 34
REMARK Flexibility Score: inf
ROOT
ATOM      1  C   UNL     1      18.392 -13.848  12.724  1.00  0.00     0.017 C 
ATOM      2  C   UNL     1      19.503 -13.837  11.643  1.00  0.00     0.014 C 
ATOM      3  C   UNL     1      18.978 -14.477  14.030  1.00  0.00     0.014 C 
ATOM      4  C   UNL     1      17.218 -14.766  12.251  1.00  0.00     0.030 C 
ATOM      5  C   UNL     1      18.970 -13.466  10.254  1.00  0.00     0.004 C 
ATOM      6  C   UNL     1      17.913 -14.723  15.141  1.00  0.00     0.013 C 
ATOM      7  C   UNL     1      16.189 -14.843  13.392  1.00  0.00    -0.063 C 
ATOM      8  C   UNL     1      16.680 -14.461  10.811  1.00  0.00    -0.003 C 
ATOM      9  C   UNL     1      17.862 -14.436   9.794  1.00  0.00    -0.011 C 
ATOM     10  C   UNL     1      16.639 -15.545  14.704  1.00  0.00    -0.006 C 
ATOM     11  C   UNL     1      15.179 -13.950  13.400  1.00  0.00    -0.027 C 
ATOM     12  C   UNL     1      15.632 -15.520  10.407  1.00  0.00     0.008 C 
ATOM     13  C   UNL     1      17.403 -14.043   8.377  1.00  0.00     0.008 C 
ATOM     14  C   UNL     1      17.139 -16.989  14.352  1.00  0.00     0.017 C 
ATOM     15  C   UNL     1      15.449 -15.607  15.875  1.00  0.00    -0.020 C 
ATOM     16  C   UNL     1      14.400 -13.657  14.628  1.00  0.00     0.032 C 
ATOM     17  C   UNL     1      14.103 -14.973  15.361  1.00  0.00     0.006 C 
ATOM     18  C   UNL     1      15.054 -17.068  16.270  1.00  0.00     0.008 C 
ATOM     19  C   UNL     1      15.952 -14.928  17.189  1.00  0.00     0.012 C 
ATOM     20  C   UNL     1      12.880 -14.867  16.382  1.00  0.00    -0.025 C 
ATOM     21  C   UNL     1      13.735 -17.282  17.048  1.00  0.00     0.005 C 
ATOM     22  C   UNL     1      12.862 -16.052  17.453  1.00  0.00     0.003 C 
ATOM     23  C   UNL     1      11.549 -14.878  15.542  1.00  0.00     0.010 C 
ATOM     24  C   UNL     1      12.936 -13.494  17.130  1.00  0.00     0.012 C 
ATOM     25  C   UNL     1      11.400 -16.528  17.889  1.00  0.00    -0.006 C 
ATOM     26  C   UNL     1      10.996 -16.283  15.321  1.00  0.00     0.033 C 
ATOM     27  C   UNL     1      10.542 -16.947  16.633  1.00  0.00     0.120 C 
ATOM     28  C   UNL     1      10.683 -15.419  18.716  1.00  0.00     0.014 C 
ATOM     29  C   UNL     1      11.483 -17.749  18.855  1.00  0.00     0.014 C 
ENDROOT
BRANCH   1  30
ATOM     30  C   UNL     1      17.961 -12.401  13.001  1.00  0.00     0.048 C 
ATOM     31  O   UNL     1      18.455 -11.759  13.968  1.00  0.00    -0.550 OA
ATOM     32  O   UNL     1      17.083 -11.736  12.153  1.00  0.00    -0.550 OA
ENDBRANCH   1  30
BRANCH  27  33
ATOM     33  O   UNL     1       9.177 -16.675  16.832  1.00  0.00    -0.393 OA
ATOM     34  H   UNL     1       9.094 -16.243  17.725  1.00  0.00     0.210 HD
ENDBRANCH  27  33
TORSDOF 2
ENDMDL
MODEL 7
REMARK VINA RESULT:    -5.936      3.979      8.244
REMARK INTER + INTRA:          -6.133
REMARK INTER:                  -6.455
REMARK INTRA:                   0.322
REMARK UNBOUND:                 0.323
REMARK SMILES C[C@@H]1[C@@H](C)CC[C@]2(C(=O)[O-])CC[C@]3(C)C(=CC[C@@H]4[C@@]5(C)CC[C@H](O)C(C)(C)[C@H]5CC[C@]43C)[C@@H]12
REMARK SMILES IDX 7 1 6 2 11 3 33 4 5 5 12 6 15 7 2 8 3 9 13 10 16 11 1 12
REMARK SMILES IDX 4 13 14 14 31 15 17 16 18 17 30 18 32 19 19 20 29 21 28 22
REMARK SMILES IDX 21 23 20 24 25 25 22 26 23 27 26 28 27 29 8 30 9 31 10 32
REMARK SMILES IDX 24 33
REMARK H PARENT 24 34
REMARK Flexibility Score: inf
ROOT
ATOM      1  C   UNL     1      16.296 -18.654  19.568  1.00  0.00     0.017 C 
ATOM      2  C   UNL     1      16.062 -19.399  20.907  1.00  0.00     0.014 C 
ATOM      3  C   UNL     1      17.274 -17.463  19.829  1.00  0.00     0.014 C 
ATOM      4  C   UNL     1      14.943 -18.045  19.072  1.00  0.00     0.030 C 
ATOM      5  C   UNL     1      14.932 -20.433  20.816  1.00  0.00     0.004 C 
ATOM      6  C   UNL     1      17.448 -16.514  18.605  1.00  0.00     0.013 C 
ATOM      7  C   UNL     1      15.234 -17.221  17.805  1.00  0.00    -0.063 C 
ATOM      8  C   UNL     1      13.745 -19.053  19.019  1.00  0.00    -0.003 C 
ATOM      9  C   UNL     1      13.600 -19.782  20.390  1.00  0.00    -0.011 C 
ATOM     10  C   UNL     1      16.116 -15.952  17.974  1.00  0.00    -0.006 C 
ATOM     11  C   UNL     1      15.130 -17.833  16.609  1.00  0.00    -0.027 C 
ATOM     12  C   UNL     1      12.444 -18.305  18.657  1.00  0.00     0.008 C 
ATOM     13  C   UNL     1      12.497 -20.857  20.366  1.00  0.00     0.008 C 
ATOM     14  C   UNL     1      15.462 -15.029  19.060  1.00  0.00     0.017 C 
ATOM     15  C   UNL     1      16.354 -15.105  16.553  1.00  0.00    -0.020 C 
ATOM     16  C   UNL     1      15.776 -17.289  15.390  1.00  0.00     0.032 C 
ATOM     17  C   UNL     1      15.579 -15.767  15.354  1.00  0.00     0.006 C 
ATOM     18  C   UNL     1      15.793 -13.646  16.609  1.00  0.00     0.008 C 
ATOM     19  C   UNL     1      17.882 -14.968  16.260  1.00  0.00     0.012 C 
ATOM     20  C   UNL     1      15.765 -15.138  13.897  1.00  0.00    -0.025 C 
ATOM     21  C   UNL     1      15.608 -12.885  15.277  1.00  0.00     0.005 C 
ATOM     22  C   UNL     1      16.017 -13.561  13.930  1.00  0.00     0.003 C 
ATOM     23  C   UNL     1      14.468 -15.460  13.064  1.00  0.00     0.010 C 
ATOM     24  C   UNL     1      16.960 -15.839  13.170  1.00  0.00     0.012 C 
ATOM     25  C   UNL     1      15.389 -12.765  12.695  1.00  0.00    -0.006 C 
ATOM     26  C   UNL     1      13.398 -14.380  13.188  1.00  0.00     0.033 C 
ATOM     27  C   UNL     1      13.842 -13.043  12.568  1.00  0.00     0.120 C 
ATOM     28  C   UNL     1      16.135 -13.120  11.374  1.00  0.00     0.014 C 
ATOM     29  C   UNL     1      15.599 -11.229  12.864  1.00  0.00     0.014 C 
ENDROOT
BRANCH   1  30
ATOM     30  C   UNL     1      16.930 -19.628  18.567  1.00  0.00     0.048 C 
ATOM     31  O   UNL     1      18.171 -19.597  18.340  1.00  0.00    -0.550 OA
ATOM     32  O   UNL     1      16.176 -20.619  17.949  1.00  0.00    -0.550 OA
ENDBRANCH   1  30
BRANCH  27  33
ATOM     33  O   UNL     1      13.423 -13.001  11.226  1.00  0.00    -0.393 OA
ATOM     34  H   UNL     1      12.631 -13.599  11.152  1.00  0.00     0.210 HD
ENDBRANCH  27  33
TORSDOF 2
ENDMDL
MODEL 8
REMARK VINA RESULT:    -5.844      3.500      5.757
REMARK INTER + INTRA:          -6.033
REMARK INTER:                  -6.373
REMARK INTRA:                   0.340
REMARK UNBOUND:                 0.323
REMARK SMILES C[C@@H]1[C@@H](C)CC[C@]2(C(=O)[O-])CC[C@]3(C)C(=CC[C@@H]4[C@@]5(C)CC[C@H](O)C(C)(C)[C@H]5CC[C@]43C)[C@@H]12
REMARK SMILES IDX 7 1 6 2 11 3 33 4 5 5 12 6 15 7 2 8 3 9 13 10 16 11 1 12
REMARK SMILES IDX 4 13 14 14 31 15 17 16 18 17 30 18 32 19 19 20 29 21 28 22
REMARK SMILES IDX 21 23 20 24 25 25 22 26 23 27 26 28 27 29 8 30 9 31 10 32
REMARK SMILES IDX 24 33
REMARK H PARENT 24 34
REMARK Flexibility Score: inf
ROOT
ATOM      1  C   UNL     1      16.697 -16.189  16.575  1.00  0.00     0.017 C 
ATOM      2  C   UNL     1      18.111 -16.692  16.962  1.00  0.00     0.014 C 
ATOM      3  C   UNL     1      16.705 -15.805  15.060  1.00  0.00     0.014 C 
ATOM      4  C   UNL     1      16.371 -14.890  17.383  1.00  0.00     0.030 C 
ATOM      5  C   UNL     1      18.281 -16.866  18.476  1.00  0.00     0.004 C 
ATOM      6  C   UNL     1      15.398 -15.104  14.583  1.00  0.00     0.013 C 
ATOM      7  C   UNL     1      15.013 -14.358  16.893  1.00  0.00    -0.063 C 
ATOM      8  C   UNL     1      16.587 -15.004  18.931  1.00  0.00    -0.003 C 
ATOM      9  C   UNL     1      18.018 -15.547  19.231  1.00  0.00    -0.011 C 
ATOM     10  C   UNL     1      14.940 -13.851  15.425  1.00  0.00    -0.006 C 
ATOM     11  C   UNL     1      13.900 -14.761  17.539  1.00  0.00    -0.027 C 
ATOM     12  C   UNL     1      16.374 -13.626  19.593  1.00  0.00     0.008 C 
ATOM     13  C   UNL     1      18.252 -15.771  20.737  1.00  0.00     0.008 C 
ATOM     14  C   UNL     1      16.038 -12.751  15.221  1.00  0.00     0.017 C 
ATOM     15  C   UNL     1      13.437 -13.265  14.991  1.00  0.00    -0.020 C 
ATOM     16  C   UNL     1      12.556 -14.665  16.921  1.00  0.00     0.032 C 
ATOM     17  C   UNL     1      12.429 -13.315  16.199  1.00  0.00     0.006 C 
ATOM     18  C   UNL     1      13.463 -11.757  14.580  1.00  0.00     0.008 C 
ATOM     19  C   UNL     1      12.897 -14.041  13.746  1.00  0.00     0.012 C 
ATOM     20  C   UNL     1      10.916 -12.874  15.939  1.00  0.00    -0.025 C 
ATOM     21  C   UNL     1      12.119 -10.995  14.516  1.00  0.00     0.005 C 
ATOM     22  C   UNL     1      10.783 -11.746  14.817  1.00  0.00     0.003 C 
ATOM     23  C   UNL     1      10.325 -12.354  17.302  1.00  0.00     0.010 C 
ATOM     24  C   UNL     1      10.070 -14.122  15.522  1.00  0.00     0.012 C 
ATOM     25  C   UNL     1       9.602 -10.699  15.068  1.00  0.00    -0.006 C 
ATOM     26  C   UNL     1      10.528 -10.855  17.504  1.00  0.00     0.033 C 
ATOM     27  C   UNL     1       9.742 -10.015  16.482  1.00  0.00     0.120 C 
ATOM     28  C   UNL     1       8.213 -11.388  14.910  1.00  0.00     0.014 C 
ATOM     29  C   UNL     1       9.614  -9.583  13.980  1.00  0.00     0.014 C 
ENDROOT
BRANCH   1  30
ATOM     30  C   UNL     1      15.690 -17.322  16.811  1.00  0.00     0.048 C 
ATOM     31  O   UNL     1      15.367 -18.099  15.870  1.00  0.00    -0.550 OA
ATOM     32  O   UNL     1      15.171 -17.576  18.075  1.00  0.00    -0.550 OA
ENDBRANCH   1  30
BRANCH  27  33
ATOM     33  O   UNL     1       8.483  -9.699  17.024  1.00  0.00    -0.393 OA
ATOM     34  H   UNL     1       7.885 -10.473  16.840  1.00  0.00     0.210 HD
ENDBRANCH  27  33
TORSDOF 2
ENDMDL
MODEL 9
REMARK VINA RESULT:    -5.769      3.789      6.617
REMARK INTER + INTRA:          -5.951
REMARK INTER:                  -6.299
REMARK INTRA:                   0.347
REMARK UNBOUND:                 0.323
REMARK SMILES C[C@@H]1[C@@H](C)CC[C@]2(C(=O)[O-])CC[C@]3(C)C(=CC[C@@H]4[C@@]5(C)CC[C@H](O)C(C)(C)[C@H]5CC[C@]43C)[C@@H]12
REMARK SMILES IDX 7 1 6 2 11 3 33 4 5 5 12 6 15 7 2 8 3 9 13 10 16 11 1 12
REMARK SMILES IDX 4 13 14 14 31 15 17 16 18 17 30 18 32 19 19 20 29 21 28 22
REMARK SMILES IDX 21 23 20 24 25 25 22 26 23 27 26 28 27 29 8 30 9 31 10 32
REMARK SMILES IDX 24 33
REMARK H PARENT 24 34
REMARK Flexibility Score: inf
ROOT
ATOM      1  C   UNL     1      14.185 -12.242  15.209  1.00  0.00     0.017 C 
ATOM      2  C   UNL     1      14.069 -11.176  14.091  1.00  0.00     0.014 C 
ATOM      3  C   UNL     1      15.241 -11.753  16.252  1.00  0.00     0.014 C 
ATOM      4  C   UNL     1      14.719 -13.579  14.597  1.00  0.00     0.030 C 
ATOM      5  C   UNL     1      13.242 -11.664  12.895  1.00  0.00     0.004 C 
ATOM      6  C   UNL     1      15.596 -12.817  17.334  1.00  0.00     0.013 C 
ATOM      7  C   UNL     1      14.927 -14.575  15.751  1.00  0.00    -0.063 C 
ATOM      8  C   UNL     1      13.940 -14.085  13.336  1.00  0.00    -0.003 C 
ATOM      9  C   UNL     1      13.840 -12.945  12.277  1.00  0.00    -0.011 C 
ATOM     10  C   UNL     1      16.032 -14.233  16.791  1.00  0.00    -0.006 C 
ATOM     11  C   UNL     1      13.911 -15.400  16.072  1.00  0.00    -0.027 C 
ATOM     12  C   UNL     1      14.647 -15.323  12.743  1.00  0.00     0.008 C 
ATOM     13  C   UNL     1      12.999 -13.357  11.054  1.00  0.00     0.008 C 
ATOM     14  C   UNL     1      17.386 -14.021  16.030  1.00  0.00     0.017 C 
ATOM     15  C   UNL     1      16.207 -15.385  17.988  1.00  0.00    -0.020 C 
ATOM     16  C   UNL     1      13.837 -16.080  17.388  1.00  0.00     0.032 C 
ATOM     17  C   UNL     1      15.232 -16.600  17.764  1.00  0.00     0.006 C 
ATOM     18  C   UNL     1      17.628 -16.037  18.008  1.00  0.00     0.008 C 
ATOM     19  C   UNL     1      16.014 -14.731  19.394  1.00  0.00     0.012 C 
ATOM     20  C   UNL     1      15.202 -17.757  18.865  1.00  0.00    -0.025 C 
ATOM     21  C   UNL     1      17.816 -17.353  18.797  1.00  0.00     0.005 C 
ATOM     22  C   UNL     1      16.614 -17.970  19.579  1.00  0.00     0.003 C 
ATOM     23  C   UNL     1      14.749 -19.086  18.155  1.00  0.00     0.010 C 
ATOM     24  C   UNL     1      14.119 -17.426  19.945  1.00  0.00     0.012 C 
ATOM     25  C   UNL     1      16.931 -19.484  19.981  1.00  0.00    -0.006 C 
ATOM     26  C   UNL     1      15.920 -19.898  17.608  1.00  0.00     0.033 C 
ATOM     27  C   UNL     1      16.831 -20.435  18.727  1.00  0.00     0.120 C 
ATOM     28  C   UNL     1      15.986 -19.960  21.125  1.00  0.00     0.014 C 
ATOM     29  C   UNL     1      18.366 -19.608  20.578  1.00  0.00     0.014 C 
ENDROOT
BRANCH   1  30
ATOM     30  C   UNL     1      12.819 -12.388  15.893  1.00  0.00     0.048 C 
ATOM     31  O   UNL     1      12.545 -11.719  16.928  1.00  0.00    -0.550 OA
ATOM     32  O   UNL     1      11.823 -13.192  15.351  1.00  0.00    -0.550 OA
ENDBRANCH   1  30
BRANCH  27  33
ATOM     33  O   UNL     1      16.392 -21.721  19.093  1.00  0.00    -0.393 OA
ATOM     34  H   UNL     1      15.584 -21.600  19.660  1.00  0.00     0.210 HD
ENDBRANCH  27  33
TORSDOF 2
ENDMDL
