MODEL 1
REMARK VINA RESULT:    -6.379      0.000      0.000
REMARK INTER + INTRA:          -7.971
REMARK INTER:                  -7.685
REMARK INTRA:                  -0.286
REMARK UNBOUND:                -0.286
REMARK SMILES O=c1c(O)c(-c2ccc(O)c(O)c2)oc2cc(O)cc(O)c12
REMARK SMILES IDX 5 1 3 2 2 3 1 4 22 5 20 6 19 7 17 8 16 9 15 10 14 11 6 12
REMARK SMILES IDX 7 13 8 14 9 15 13 16 11 17 10 18 12 20 4 22 21 24 18 26
REMARK H PARENT 10 19 12 21 4 23 21 25 18 27
REMARK Flexibility Score: inf
ROOT
ATOM      1  C   UNL     1      18.497  -1.487 -17.052  1.00  0.00     0.180 A 
ATOM      2  C   UNL     1      17.769  -0.800 -16.066  1.00  0.00     0.208 A 
ATOM      3  C   UNL     1      17.115  -1.537 -15.065  1.00  0.00     0.238 A 
ATOM      4  O   UNL     1      16.419  -0.920 -14.217  1.00  0.00    -0.285 OA
ATOM      5  C   UNL     1      17.211  -2.949 -15.053  1.00  0.00     0.111 A 
ATOM      6  C   UNL     1      16.624  -3.794 -14.064  1.00  0.00     0.134 A 
ATOM      7  C   UNL     1      16.674  -5.184 -14.224  1.00  0.00     0.093 A 
ATOM      8  C   UNL     1      17.346  -5.761 -15.301  1.00  0.00     0.123 A 
ATOM      9  C   UNL     1      17.975  -4.945 -16.243  1.00  0.00     0.094 A 
ATOM     10  C   UNL     1      17.911  -3.554 -16.130  1.00  0.00     0.146 A 
ATOM     11  O   UNL     1      18.514  -2.815 -17.052  1.00  0.00    -0.452 OA
ENDROOT
BRANCH   1  12
ATOM     12  C   UNL     1      19.233  -0.779 -18.125  1.00  0.00     0.025 A 
ATOM     13  C   UNL     1      18.729  -0.796 -19.435  1.00  0.00     0.016 A 
ATOM     14  C   UNL     1      19.419  -0.151 -20.466  1.00  0.00     0.051 A 
ATOM     15  C   UNL     1      20.626   0.504 -20.208  1.00  0.00     0.157 A 
ATOM     16  C   UNL     1      20.458  -0.136 -17.870  1.00  0.00     0.062 A 
ATOM     17  C   UNL     1      21.152   0.509 -18.905  1.00  0.00     0.158 A 
BRANCH  15  18
ATOM     18  O   UNL     1      21.290   1.140 -21.256  1.00  0.00    -0.504 OA
ATOM     19  H   UNL     1      22.193   1.582 -21.132  1.00  0.00     0.293 HD
ENDBRANCH  15  18
BRANCH  17  20
ATOM     20  O   UNL     1      22.363   1.149 -18.643  1.00  0.00    -0.504 OA
ATOM     21  H   UNL     1      22.438   2.160 -18.634  1.00  0.00     0.293 HD
ENDBRANCH  17  20
ENDBRANCH   1  12
BRANCH   2  22
ATOM     22  O   UNL     1      17.668   0.593 -16.110  1.00  0.00    -0.502 OA
ATOM     23  H   UNL     1      16.955   1.103 -15.601  1.00  0.00     0.293 HD
ENDBRANCH   2  22
BRANCH   6  24
ATOM     24  O   UNL     1      16.009  -3.322 -12.900  1.00  0.00    -0.507 OA
ATOM     25  H   UNL     1      15.021  -3.387 -12.707  1.00  0.00     0.293 HD
ENDBRANCH   6  24
BRANCH   8  26
ATOM     26  O   UNL     1      17.388  -7.148 -15.421  1.00  0.00    -0.508 OA
ATOM     27  H   UNL     1      16.543  -7.708 -15.393  1.00  0.00     0.293 HD
ENDBRANCH   8  26
TORSDOF 6
ENDMDL
MODEL 2
REMARK VINA RESULT:    -6.197      1.767      6.859
REMARK INTER + INTRA:          -7.751
REMARK INTER:                  -7.453
REMARK INTRA:                  -0.298
REMARK UNBOUND:                -0.286
REMARK SMILES O=c1c(O)c(-c2ccc(O)c(O)c2)oc2cc(O)cc(O)c12
REMARK SMILES IDX 5 1 3 2 2 3 1 4 22 5 20 6 19 7 17 8 16 9 15 10 14 11 6 12
REMARK SMILES IDX 7 13 8 14 9 15 13 16 11 17 10 18 12 20 4 22 21 24 18 26
REMARK H PARENT 10 19 12 21 4 23 21 25 18 27
REMARK Flexibility Score: inf
ROOT
ATOM      1  C   UNL     1      17.880  -3.936 -16.734  1.00  0.00     0.180 A 
ATOM      2  C   UNL     1      17.751  -2.989 -15.705  1.00  0.00     0.208 A 
ATOM      3  C   UNL     1      18.215  -1.681 -15.921  1.00  0.00     0.238 A 
ATOM      4  O   UNL     1      18.147  -0.852 -14.976  1.00  0.00    -0.285 OA
ATOM      5  C   UNL     1      18.788  -1.333 -17.168  1.00  0.00     0.111 A 
ATOM      6  C   UNL     1      19.254  -0.029 -17.510  1.00  0.00     0.134 A 
ATOM      7  C   UNL     1      19.921   0.170 -18.725  1.00  0.00     0.093 A 
ATOM      8  C   UNL     1      20.080  -0.873 -19.638  1.00  0.00     0.123 A 
ATOM      9  C   UNL     1      19.575  -2.138 -19.339  1.00  0.00     0.094 A 
ATOM     10  C   UNL     1      18.937  -2.376 -18.119  1.00  0.00     0.146 A 
ATOM     11  O   UNL     1      18.481  -3.597 -17.869  1.00  0.00    -0.452 OA
ENDROOT
BRANCH   1  12
ATOM     12  C   UNL     1      17.392  -5.327 -16.592  1.00  0.00     0.025 A 
ATOM     13  C   UNL     1      18.313  -6.364 -16.378  1.00  0.00     0.016 A 
ATOM     14  C   UNL     1      17.875  -7.686 -16.260  1.00  0.00     0.051 A 
ATOM     15  C   UNL     1      16.516  -7.994 -16.370  1.00  0.00     0.157 A 
ATOM     16  C   UNL     1      16.027  -5.640 -16.722  1.00  0.00     0.062 A 
ATOM     17  C   UNL     1      15.586  -6.967 -16.606  1.00  0.00     0.158 A 
BRANCH  15  18
ATOM     18  O   UNL     1      16.109  -9.321 -16.246  1.00  0.00    -0.504 OA
ATOM     19  H   UNL     1      16.407 -10.039 -16.897  1.00  0.00     0.293 HD
ENDBRANCH  15  18
BRANCH  17  20
ATOM     20  O   UNL     1      14.230  -7.269 -16.731  1.00  0.00    -0.504 OA
ATOM     21  H   UNL     1      13.542  -6.892 -16.091  1.00  0.00     0.293 HD
ENDBRANCH  17  20
ENDBRANCH   1  12
BRANCH   2  22
ATOM     22  O   UNL     1      17.203  -3.359 -14.474  1.00  0.00    -0.502 OA
ATOM     23  H   UNL     1      17.432  -4.234 -14.018  1.00  0.00     0.293 HD
ENDBRANCH   2  22
BRANCH   6  24
ATOM     24  O   UNL     1      19.065   1.103 -16.710  1.00  0.00    -0.507 OA
ATOM     25  H   UNL     1      18.756   1.082 -15.750  1.00  0.00     0.293 HD
ENDBRANCH   6  24
BRANCH   8  26
ATOM     26  O   UNL     1      20.736  -0.635 -20.844  1.00  0.00    -0.508 OA
ATOM     27  H   UNL     1      21.642  -1.043 -21.044  1.00  0.00     0.293 HD
ENDBRANCH   8  26
TORSDOF 6
ENDMDL
MODEL 3
REMARK VINA RESULT:    -6.105      8.093     11.724
REMARK INTER + INTRA:          -7.640
REMARK INTER:                  -7.362
REMARK INTRA:                  -0.278
REMARK UNBOUND:                -0.286
REMARK SMILES O=c1c(O)c(-c2ccc(O)c(O)c2)oc2cc(O)cc(O)c12
REMARK SMILES IDX 5 1 3 2 2 3 1 4 22 5 20 6 19 7 17 8 16 9 15 10 14 11 6 12
REMARK SMILES IDX 7 13 8 14 9 15 13 16 11 17 10 18 12 20 4 22 21 24 18 26
REMARK H PARENT 10 19 12 21 4 23 21 25 18 27
REMARK Flexibility Score: inf
ROOT
ATOM      1  C   UNL     1      11.597  -6.290  -9.584  1.00  0.00     0.180 A 
ATOM      2  C   UNL     1      11.473  -7.672  -9.798  1.00  0.00     0.208 A 
ATOM      3  C   UNL     1      10.537  -8.398  -9.043  1.00  0.00     0.238 A 
ATOM      4  O   UNL     1      10.470  -9.645  -9.200  1.00  0.00    -0.285 OA
ATOM      5  C   UNL     1       9.728  -7.729  -8.094  1.00  0.00     0.111 A 
ATOM      6  C   UNL     1       8.720  -8.356  -7.303  1.00  0.00     0.134 A 
ATOM      7  C   UNL     1       8.069  -7.622  -6.303  1.00  0.00     0.093 A 
ATOM      8  C   UNL     1       8.342  -6.268  -6.111  1.00  0.00     0.123 A 
ATOM      9  C   UNL     1       9.283  -5.630  -6.920  1.00  0.00     0.094 A 
ATOM     10  C   UNL     1       9.975  -6.345  -7.901  1.00  0.00     0.146 A 
ATOM     11  O   UNL     1      10.870  -5.702  -8.641  1.00  0.00    -0.452 OA
ENDROOT
BRANCH   1  12
ATOM     12  C   UNL     1      12.542  -5.453 -10.359  1.00  0.00     0.025 A 
ATOM     13  C   UNL     1      12.066  -4.687 -11.434  1.00  0.00     0.016 A 
ATOM     14  C   UNL     1      12.944  -3.907 -12.191  1.00  0.00     0.051 A 
ATOM     15  C   UNL     1      14.310  -3.891 -11.895  1.00  0.00     0.157 A 
ATOM     16  C   UNL     1      13.920  -5.452 -10.075  1.00  0.00     0.062 A 
ATOM     17  C   UNL     1      14.803  -4.670 -10.835  1.00  0.00     0.158 A 
BRANCH  15  18
ATOM     18  O   UNL     1      15.162  -3.101 -12.666  1.00  0.00    -0.504 OA
ATOM     19  H   UNL     1      16.072  -3.427 -12.969  1.00  0.00     0.293 HD
ENDBRANCH  15  18
BRANCH  17  20
ATOM     20  O   UNL     1      16.167  -4.670 -10.544  1.00  0.00    -0.504 OA
ATOM     21  H   UNL     1      16.532  -5.119  -9.712  1.00  0.00     0.293 HD
ENDBRANCH  17  20
ENDBRANCH   1  12
BRANCH   2  22
ATOM     22  O   UNL     1      12.299  -8.317 -10.724  1.00  0.00    -0.502 OA
ATOM     23  H   UNL     1      12.656  -7.852 -11.550  1.00  0.00     0.293 HD
ENDBRANCH   2  22
BRANCH   6  24
ATOM     24  O   UNL     1       8.304  -9.680  -7.474  1.00  0.00    -0.507 OA
ATOM     25  H   UNL     1       7.724 -10.006  -8.233  1.00  0.00     0.293 HD
ENDBRANCH   6  24
BRANCH   8  26
ATOM     26  O   UNL     1       7.664  -5.565  -5.117  1.00  0.00    -0.508 OA
ATOM     27  H   UNL     1       7.937  -4.626  -4.853  1.00  0.00     0.293 HD
ENDBRANCH   8  26
TORSDOF 6
ENDMDL
MODEL 4
REMARK VINA RESULT:    -6.078      1.241      2.823
REMARK INTER + INTRA:          -7.607
REMARK INTER:                  -7.422
REMARK INTRA:                  -0.185
REMARK UNBOUND:                -0.286
REMARK SMILES O=c1c(O)c(-c2ccc(O)c(O)c2)oc2cc(O)cc(O)c12
REMARK SMILES IDX 5 1 3 2 2 3 1 4 22 5 20 6 19 7 17 8 16 9 15 10 14 11 6 12
REMARK SMILES IDX 7 13 8 14 9 15 13 16 11 17 10 18 12 20 4 22 21 24 18 26
REMARK H PARENT 10 19 12 21 4 23 21 25 18 27
REMARK Flexibility Score: inf
ROOT
ATOM      1  C   UNL     1      18.520  -2.191 -17.195  1.00  0.00     0.180 A 
ATOM      2  C   UNL     1      18.392  -3.559 -17.485  1.00  0.00     0.208 A 
ATOM      3  C   UNL     1      17.739  -4.393 -16.562  1.00  0.00     0.238 A 
ATOM      4  O   UNL     1      17.677  -5.628 -16.801  1.00  0.00    -0.285 OA
ATOM      5  C   UNL     1      17.210  -3.845 -15.368  1.00  0.00     0.111 A 
ATOM      6  C   UNL     1      16.495  -4.588 -14.383  1.00  0.00     0.134 A 
ATOM      7  C   UNL     1      16.130  -3.970 -13.180  1.00  0.00     0.093 A 
ATOM      8  C   UNL     1      16.396  -2.619 -12.957  1.00  0.00     0.123 A 
ATOM      9  C   UNL     1      17.041  -1.868 -13.939  1.00  0.00     0.094 A 
ATOM     10  C   UNL     1      17.450  -2.466 -15.134  1.00  0.00     0.146 A 
ATOM     11  O   UNL     1      18.071  -1.718 -16.038  1.00  0.00    -0.452 OA
ENDROOT
BRANCH   1  12
ATOM     12  C   UNL     1      19.172  -1.244 -18.129  1.00  0.00     0.025 A 
ATOM     13  C   UNL     1      18.579  -0.984 -19.374  1.00  0.00     0.016 A 
ATOM     14  C   UNL     1      19.188  -0.109 -20.279  1.00  0.00     0.051 A 
ATOM     15  C   UNL     1      20.402   0.504 -19.961  1.00  0.00     0.157 A 
ATOM     16  C   UNL     1      20.404  -0.642 -17.819  1.00  0.00     0.062 A 
ATOM     17  C   UNL     1      21.017   0.234 -18.727  1.00  0.00     0.158 A 
BRANCH  15  18
ATOM     18  O   UNL     1      20.985   1.373 -20.882  1.00  0.00    -0.504 OA
ATOM     19  H   UNL     1      21.071   2.367 -20.705  1.00  0.00     0.293 HD
ENDBRANCH  15  18
BRANCH  17  20
ATOM     20  O   UNL     1      22.237   0.832 -18.409  1.00  0.00    -0.504 OA
ATOM     21  H   UNL     1      22.317   1.507 -17.658  1.00  0.00     0.293 HD
ENDBRANCH  17  20
ENDBRANCH   1  12
BRANCH   2  22
ATOM     22  O   UNL     1      18.942  -4.084 -18.657  1.00  0.00    -0.502 OA
ATOM     23  H   UNL     1      19.495  -3.525 -19.296  1.00  0.00     0.293 HD
ENDBRANCH   2  22
BRANCH   6  24
ATOM     24  O   UNL     1      16.098  -5.920 -14.544  1.00  0.00    -0.507 OA
ATOM     25  H   UNL     1      16.519  -6.569 -15.191  1.00  0.00     0.293 HD
ENDBRANCH   6  24
BRANCH   8  26
ATOM     26  O   UNL     1      16.004  -2.032 -11.755  1.00  0.00    -0.508 OA
ATOM     27  H   UNL     1      16.549  -2.146 -10.908  1.00  0.00     0.293 HD
ENDBRANCH   8  26
TORSDOF 6
ENDMDL
MODEL 5
REMARK VINA RESULT:    -6.070     11.271     13.054
REMARK INTER + INTRA:          -7.598
REMARK INTER:                  -7.270
REMARK INTRA:                  -0.328
REMARK UNBOUND:                -0.286
REMARK SMILES O=c1c(O)c(-c2ccc(O)c(O)c2)oc2cc(O)cc(O)c12
REMARK SMILES IDX 5 1 3 2 2 3 1 4 22 5 20 6 19 7 17 8 16 9 15 10 14 11 6 12
REMARK SMILES IDX 7 13 8 14 9 15 13 16 11 17 10 18 12 20 4 22 21 24 18 26
REMARK H PARENT 10 19 12 21 4 23 21 25 18 27
REMARK Flexibility Score: inf
ROOT
ATOM      1  C   UNL     1       7.715  -4.531 -11.658  1.00  0.00     0.180 A 
ATOM      2  C   UNL     1       7.900  -5.823 -12.177  1.00  0.00     0.208 A 
ATOM      3  C   UNL     1       8.078  -6.895 -11.286  1.00  0.00     0.238 A 
ATOM      4  O   UNL     1       8.298  -8.041 -11.757  1.00  0.00    -0.285 OA
ATOM      5  C   UNL     1       8.054  -6.662  -9.890  1.00  0.00     0.111 A 
ATOM      6  C   UNL     1       8.184  -7.678  -8.897  1.00  0.00     0.134 A 
ATOM      7  C   UNL     1       8.276  -7.318  -7.547  1.00  0.00     0.093 A 
ATOM      8  C   UNL     1       8.177  -5.985  -7.150  1.00  0.00     0.123 A 
ATOM      9  C   UNL     1       7.990  -4.988  -8.108  1.00  0.00     0.094 A 
ATOM     10  C   UNL     1       7.931  -5.314  -9.466  1.00  0.00     0.146 A 
ATOM     11  O   UNL     1       7.763  -4.334 -10.346  1.00  0.00    -0.452 OA
ENDROOT
BRANCH   1  12
ATOM     12  C   UNL     1       7.496  -3.355 -12.532  1.00  0.00     0.025 A 
ATOM     13  C   UNL     1       8.598  -2.606 -12.973  1.00  0.00     0.016 A 
ATOM     14  C   UNL     1       8.412  -1.481 -13.781  1.00  0.00     0.051 A 
ATOM     15  C   UNL     1       7.124  -1.079 -14.148  1.00  0.00     0.157 A 
ATOM     16  C   UNL     1       6.200  -2.937 -12.885  1.00  0.00     0.062 A 
ATOM     17  C   UNL     1       6.011  -1.807 -13.695  1.00  0.00     0.158 A 
BRANCH  15  18
ATOM     18  O   UNL     1       6.970   0.046 -14.957  1.00  0.00    -0.504 OA
ATOM     19  H   UNL     1       7.726   0.701 -15.117  1.00  0.00     0.293 HD
ENDBRANCH  15  18
BRANCH  17  20
ATOM     20  O   UNL     1       4.723  -1.403 -14.045  1.00  0.00    -0.504 OA
ATOM     21  H   UNL     1       4.051  -1.108 -13.346  1.00  0.00     0.293 HD
ENDBRANCH  17  20
ENDBRANCH   1  12
BRANCH   2  22
ATOM     22  O   UNL     1       7.943  -6.027 -13.559  1.00  0.00    -0.502 OA
ATOM     23  H   UNL     1       8.008  -5.262 -14.219  1.00  0.00     0.293 HD
ENDBRANCH   2  22
BRANCH   6  24
ATOM     24  O   UNL     1       8.199  -9.048  -9.179  1.00  0.00    -0.507 OA
ATOM     25  H   UNL     1       8.896  -9.695  -8.841  1.00  0.00     0.293 HD
ENDBRANCH   6  24
BRANCH   8  26
ATOM     26  O   UNL     1       8.258  -5.664  -5.796  1.00  0.00    -0.508 OA
ATOM     27  H   UNL     1       7.466  -5.786  -5.175  1.00  0.00     0.293 HD
ENDBRANCH   8  26
TORSDOF 6
ENDMDL
MODEL 6
REMARK VINA RESULT:    -5.983      7.642     11.062
REMARK INTER + INTRA:          -7.493
REMARK INTER:                  -7.170
REMARK INTRA:                  -0.323
REMARK UNBOUND:                -0.286
REMARK SMILES O=c1c(O)c(-c2ccc(O)c(O)c2)oc2cc(O)cc(O)c12
REMARK SMILES IDX 5 1 3 2 2 3 1 4 22 5 20 6 19 7 17 8 16 9 15 10 14 11 6 12
REMARK SMILES IDX 7 13 8 14 9 15 13 16 11 17 10 18 12 20 4 22 21 24 18 26
REMARK H PARENT 10 19 12 21 4 23 21 25 18 27
REMARK Flexibility Score: inf
ROOT
ATOM      1  C   UNL     1      11.172  -6.431 -10.897  1.00  0.00     0.180 A 
ATOM      2  C   UNL     1      10.877  -6.573  -9.531  1.00  0.00     0.208 A 
ATOM      3  C   UNL     1       9.713  -7.263  -9.154  1.00  0.00     0.238 A 
ATOM      4  O   UNL     1       9.425  -7.339  -7.930  1.00  0.00    -0.285 OA
ATOM      5  C   UNL     1       8.867  -7.813 -10.146  1.00  0.00     0.111 A 
ATOM      6  C   UNL     1       7.685  -8.566  -9.877  1.00  0.00     0.134 A 
ATOM      7  C   UNL     1       6.855  -8.951 -10.937  1.00  0.00     0.093 A 
ATOM      8  C   UNL     1       7.198  -8.670 -12.259  1.00  0.00     0.123 A 
ATOM      9  C   UNL     1       8.383  -7.988 -12.537  1.00  0.00     0.094 A 
ATOM     10  C   UNL     1       9.213  -7.558 -11.499  1.00  0.00     0.146 A 
ATOM     11  O   UNL     1      10.325  -6.902 -11.806  1.00  0.00    -0.452 OA
ENDROOT
BRANCH   1  12
ATOM     12  C   UNL     1      12.392  -5.740 -11.373  1.00  0.00     0.025 A 
ATOM     13  C   UNL     1      13.577  -6.473 -11.549  1.00  0.00     0.016 A 
ATOM     14  C   UNL     1      14.745  -5.837 -11.977  1.00  0.00     0.051 A 
ATOM     15  C   UNL     1      14.752  -4.461 -12.221  1.00  0.00     0.157 A 
ATOM     16  C   UNL     1      12.406  -4.352 -11.599  1.00  0.00     0.062 A 
ATOM     17  C   UNL     1      13.579  -3.712 -12.027  1.00  0.00     0.158 A 
BRANCH  15  18
ATOM     18  O   UNL     1      15.932  -3.854 -12.650  1.00  0.00    -0.504 OA
ATOM     19  H   UNL     1      16.768  -4.389 -12.854  1.00  0.00     0.293 HD
ENDBRANCH  15  18
BRANCH  17  20
ATOM     20  O   UNL     1      13.583  -2.336 -12.254  1.00  0.00    -0.504 OA
ATOM     21  H   UNL     1      13.612  -1.672 -11.490  1.00  0.00     0.293 HD
ENDBRANCH  17  20
ENDBRANCH   1  12
BRANCH   2  22
ATOM     22  O   UNL     1      11.713  -6.002  -8.568  1.00  0.00    -0.502 OA
ATOM     23  H   UNL     1      12.654  -6.337  -8.396  1.00  0.00     0.293 HD
ENDBRANCH   2  22
BRANCH   6  24
ATOM     24  O   UNL     1       7.297  -8.979  -8.599  1.00  0.00    -0.507 OA
ATOM     25  H   UNL     1       6.416  -8.749  -8.164  1.00  0.00     0.293 HD
ENDBRANCH   6  24
BRANCH   8  26
ATOM     26  O   UNL     1       6.356  -9.083 -13.290  1.00  0.00    -0.508 OA
ATOM     27  H   UNL     1       6.157 -10.063 -13.450  1.00  0.00     0.293 HD
ENDBRANCH   8  26
TORSDOF 6
ENDMDL
MODEL 7
REMARK VINA RESULT:    -5.948      7.017      9.952
REMARK INTER + INTRA:          -7.451
REMARK INTER:                  -7.155
REMARK INTRA:                  -0.296
REMARK UNBOUND:                -0.286
REMARK SMILES O=c1c(O)c(-c2ccc(O)c(O)c2)oc2cc(O)cc(O)c12
REMARK SMILES IDX 5 1 3 2 2 3 1 4 22 5 20 6 19 7 17 8 16 9 15 10 14 11 6 12
REMARK SMILES IDX 7 13 8 14 9 15 13 16 11 17 10 18 12 20 4 22 21 24 18 26
REMARK H PARENT 10 19 12 21 4 23 21 25 18 27
REMARK Flexibility Score: inf
ROOT
ATOM      1  C   UNL     1      12.850  -5.436 -10.667  1.00  0.00     0.180 A 
ATOM      2  C   UNL     1      11.849  -4.665 -11.280  1.00  0.00     0.208 A 
ATOM      3  C   UNL     1      10.516  -4.826 -10.867  1.00  0.00     0.238 A 
ATOM      4  O   UNL     1       9.617  -4.173 -11.458  1.00  0.00    -0.285 OA
ATOM      5  C   UNL     1      10.204  -5.745  -9.836  1.00  0.00     0.111 A 
ATOM      6  C   UNL     1       8.896  -5.959  -9.310  1.00  0.00     0.134 A 
ATOM      7  C   UNL     1       8.683  -6.986  -8.381  1.00  0.00     0.093 A 
ATOM      8  C   UNL     1       9.743  -7.760  -7.910  1.00  0.00     0.123 A 
ATOM      9  C   UNL     1      11.037  -7.519  -8.373  1.00  0.00     0.094 A 
ATOM     10  C   UNL     1      11.274  -6.526  -9.327  1.00  0.00     0.146 A 
ATOM     11  O   UNL     1      12.518  -6.336  -9.748  1.00  0.00    -0.452 OA
ENDROOT
BRANCH   1  12
ATOM     12  C   UNL     1      14.280  -5.305 -11.030  1.00  0.00     0.025 A 
ATOM     13  C   UNL     1      14.772  -5.982 -12.157  1.00  0.00     0.016 A 
ATOM     14  C   UNL     1      16.122  -5.888 -12.506  1.00  0.00     0.051 A 
ATOM     15  C   UNL     1      17.002  -5.130 -11.728  1.00  0.00     0.157 A 
ATOM     16  C   UNL     1      15.171  -4.559 -10.237  1.00  0.00     0.062 A 
ATOM     17  C   UNL     1      16.527  -4.466 -10.585  1.00  0.00     0.158 A 
BRANCH  15  18
ATOM     18  O   UNL     1      18.343  -5.053 -12.102  1.00  0.00    -0.504 OA
ATOM     19  H   UNL     1      18.638  -5.140 -13.068  1.00  0.00     0.293 HD
ENDBRANCH  15  18
BRANCH  17  20
ATOM     20  O   UNL     1      17.403  -3.720  -9.796  1.00  0.00    -0.504 OA
ATOM     21  H   UNL     1      17.445  -2.710  -9.861  1.00  0.00     0.293 HD
ENDBRANCH  17  20
ENDBRANCH   1  12
BRANCH   2  22
ATOM     22  O   UNL     1      12.175  -3.781 -12.312  1.00  0.00    -0.502 OA
ATOM     23  H   UNL     1      12.845  -4.013 -13.036  1.00  0.00     0.293 HD
ENDBRANCH   2  22
BRANCH   6  24
ATOM     24  O   UNL     1       7.782  -5.182  -9.644  1.00  0.00    -0.507 OA
ATOM     25  H   UNL     1       7.813  -4.194  -9.848  1.00  0.00     0.293 HD
ENDBRANCH   6  24
BRANCH   8  26
ATOM     26  O   UNL     1       9.498  -8.763  -6.974  1.00  0.00    -0.508 OA
ATOM     27  H   UNL     1       8.852  -9.520  -7.167  1.00  0.00     0.293 HD
ENDBRANCH   8  26
TORSDOF 6
ENDMDL
MODEL 8
REMARK VINA RESULT:    -5.911      7.914     11.418
REMARK INTER + INTRA:          -7.407
REMARK INTER:                  -7.086
REMARK INTRA:                  -0.321
REMARK UNBOUND:                -0.286
REMARK SMILES O=c1c(O)c(-c2ccc(O)c(O)c2)oc2cc(O)cc(O)c12
REMARK SMILES IDX 5 1 3 2 2 3 1 4 22 5 20 6 19 7 17 8 16 9 15 10 14 11 6 12
REMARK SMILES IDX 7 13 8 14 9 15 13 16 11 17 10 18 12 20 4 22 21 24 18 26
REMARK H PARENT 10 19 12 21 4 23 21 25 18 27
REMARK Flexibility Score: inf
ROOT
ATOM      1  C   UNL     1      11.098  -5.944 -10.477  1.00  0.00     0.180 A 
ATOM      2  C   UNL     1      10.889  -6.249  -9.122  1.00  0.00     0.208 A 
ATOM      3  C   UNL     1       9.685  -5.858  -8.514  1.00  0.00     0.238 A 
ATOM      4  O   UNL     1       9.527  -6.085  -7.285  1.00  0.00    -0.285 OA
ATOM      5  C   UNL     1       8.699  -5.182  -9.272  1.00  0.00     0.111 A 
ATOM      6  C   UNL     1       7.427  -4.776  -8.770  1.00  0.00     0.134 A 
ATOM      7  C   UNL     1       6.583  -3.998  -9.572  1.00  0.00     0.093 A 
ATOM      8  C   UNL     1       6.936  -3.669 -10.881  1.00  0.00     0.123 A 
ATOM      9  C   UNL     1       8.152  -4.113 -11.403  1.00  0.00     0.094 A 
ATOM     10  C   UNL     1       9.031  -4.858 -10.614  1.00  0.00     0.146 A 
ATOM     11  O   UNL     1      10.182  -5.251 -11.145  1.00  0.00    -0.452 OA
ENDROOT
BRANCH   1  12
ATOM     12  C   UNL     1      12.330  -6.345 -11.195  1.00  0.00     0.025 A 
ATOM     13  C   UNL     1      12.412  -7.625 -11.765  1.00  0.00     0.016 A 
ATOM     14  C   UNL     1      13.573  -8.031 -12.429  1.00  0.00     0.051 A 
ATOM     15  C   UNL     1      14.672  -7.172 -12.520  1.00  0.00     0.157 A 
ATOM     16  C   UNL     1      13.444  -5.490 -11.270  1.00  0.00     0.062 A 
ATOM     17  C   UNL     1      14.610  -5.897 -11.935  1.00  0.00     0.158 A 
BRANCH  15  18
ATOM     18  O   UNL     1      15.816  -7.604 -13.191  1.00  0.00    -0.504 OA
ATOM     19  H   UNL     1      15.894  -7.565 -14.201  1.00  0.00     0.293 HD
ENDBRANCH  15  18
BRANCH  17  20
ATOM     20  O   UNL     1      15.709  -5.040 -12.010  1.00  0.00    -0.504 OA
ATOM     21  H   UNL     1      16.166  -4.689 -11.177  1.00  0.00     0.293 HD
ENDBRANCH  17  20
ENDBRANCH   1  12
BRANCH   2  22
ATOM     22  O   UNL     1      11.885  -6.897  -8.386  1.00  0.00    -0.502 OA
ATOM     23  H   UNL     1      12.681  -6.406  -7.998  1.00  0.00     0.293 HD
ENDBRANCH   2  22
BRANCH   6  24
ATOM     24  O   UNL     1       6.937  -5.128  -7.508  1.00  0.00    -0.507 OA
ATOM     25  H   UNL     1       7.000  -4.548  -6.685  1.00  0.00     0.293 HD
ENDBRANCH   6  24
BRANCH   8  26
ATOM     26  O   UNL     1       6.065  -2.907 -11.656  1.00  0.00    -0.508 OA
ATOM     27  H   UNL     1       5.480  -2.189 -11.244  1.00  0.00     0.293 HD
ENDBRANCH   8  26
TORSDOF 6
ENDMDL
MODEL 9
REMARK VINA RESULT:    -5.686      5.740      7.825
REMARK INTER + INTRA:          -7.135
REMARK INTER:                  -6.851
REMARK INTRA:                  -0.284
REMARK UNBOUND:                -0.286
REMARK SMILES O=c1c(O)c(-c2ccc(O)c(O)c2)oc2cc(O)cc(O)c12
REMARK SMILES IDX 5 1 3 2 2 3 1 4 22 5 20 6 19 7 17 8 16 9 15 10 14 11 6 12
REMARK SMILES IDX 7 13 8 14 9 15 13 16 11 17 10 18 12 20 4 22 21 24 18 26
REMARK H PARENT 10 19 12 21 4 23 21 25 18 27
REMARK Flexibility Score: inf
ROOT
ATOM      1  C   UNL     1      15.653  -1.340 -11.594  1.00  0.00     0.180 A 
ATOM      2  C   UNL     1      15.689  -2.730 -11.400  1.00  0.00     0.208 A 
ATOM      3  C   UNL     1      16.392  -3.246 -10.298  1.00  0.00     0.238 A 
ATOM      4  O   UNL     1      16.468  -4.495 -10.160  1.00  0.00    -0.285 OA
ATOM      5  C   UNL     1      17.036  -2.364  -9.398  1.00  0.00     0.111 A 
ATOM      6  C   UNL     1      17.741  -2.773  -8.227  1.00  0.00     0.134 A 
ATOM      7  C   UNL     1      18.450  -1.824  -7.480  1.00  0.00     0.093 A 
ATOM      8  C   UNL     1      18.423  -0.472  -7.822  1.00  0.00     0.123 A 
ATOM      9  C   UNL     1      17.686  -0.053  -8.931  1.00  0.00     0.094 A 
ATOM     10  C   UNL     1      17.000  -0.981  -9.717  1.00  0.00     0.146 A 
ATOM     11  O   UNL     1      16.320  -0.542 -10.769  1.00  0.00    -0.452 OA
ENDROOT
BRANCH   1  12
ATOM     12  C   UNL     1      14.912  -0.720 -12.717  1.00  0.00     0.025 A 
ATOM     13  C   UNL     1      15.623  -0.174 -13.797  1.00  0.00     0.016 A 
ATOM     14  C   UNL     1      14.944   0.434 -14.857  1.00  0.00     0.051 A 
ATOM     15  C   UNL     1      13.550   0.519 -14.847  1.00  0.00     0.157 A 
ATOM     16  C   UNL     1      13.509  -0.616 -12.699  1.00  0.00     0.062 A 
ATOM     17  C   UNL     1      12.827  -0.005 -13.762  1.00  0.00     0.158 A 
BRANCH  15  18
ATOM     18  O   UNL     1      12.900   1.128 -15.920  1.00  0.00    -0.504 OA
ATOM     19  H   UNL     1      12.188   1.836 -15.786  1.00  0.00     0.293 HD
ENDBRANCH  15  18
BRANCH  17  20
ATOM     20  O   UNL     1      11.435   0.089 -13.739  1.00  0.00    -0.504 OA
ATOM     21  H   UNL     1      10.932   0.675 -14.395  1.00  0.00     0.293 HD
ENDBRANCH  17  20
ENDBRANCH   1  12
BRANCH   2  22
ATOM     22  O   UNL     1      15.067  -3.585 -12.314  1.00  0.00    -0.502 OA
ATOM     23  H   UNL     1      15.414  -3.720 -13.256  1.00  0.00     0.293 HD
ENDBRANCH   2  22
BRANCH   6  24
ATOM     24  O   UNL     1      17.756  -4.085  -7.743  1.00  0.00    -0.507 OA
ATOM     25  H   UNL     1      18.181  -4.371  -6.874  1.00  0.00     0.293 HD
ENDBRANCH   6  24
BRANCH   8  26
ATOM     26  O   UNL     1      19.127   0.447  -7.047  1.00  0.00    -0.508 OA
ATOM     27  H   UNL     1      19.005   0.495  -6.042  1.00  0.00     0.293 HD
ENDBRANCH   8  26
TORSDOF 6
ENDMDL
