MODEL 1
REMARK VINA RESULT:    -4.019      0.000      0.000
REMARK INTER + INTRA:          -5.089
REMARK INTER:                  -4.841
REMARK INTRA:                  -0.248
REMARK UNBOUND:                -0.248
REMARK SMILES O=c1c(O)c(-c2ccc(O)c(O)c2)oc2cc(O)cc(O)c12
REMARK SMILES IDX 5 1 3 2 2 3 1 4 22 5 20 6 19 7 17 8 16 9 15 10 14 11 6 12
REMARK SMILES IDX 7 13 8 14 9 15 13 16 11 17 10 18 12 20 4 22 21 24 18 26
REMARK H PARENT 10 19 12 21 4 23 21 25 18 27
REMARK Flexibility Score: inf
ROOT
ATOM      1  C   UNL     1      -8.951  16.100  32.164  1.00  0.00     0.180 A 
ATOM      2  C   UNL     1      -9.739  16.006  33.325  1.00  0.00     0.208 A 
ATOM      3  C   UNL     1      -9.119  16.107  34.580  1.00  0.00     0.238 A 
ATOM      4  O   UNL     1      -9.837  16.076  35.614  1.00  0.00    -0.285 OA
ATOM      5  C   UNL     1      -7.716  16.283  34.660  1.00  0.00     0.111 A 
ATOM      6  C   UNL     1      -6.977  16.357  35.879  1.00  0.00     0.134 A 
ATOM      7  C   UNL     1      -5.612  16.665  35.842  1.00  0.00     0.093 A 
ATOM      8  C   UNL     1      -4.946  16.835  34.625  1.00  0.00     0.123 A 
ATOM      9  C   UNL     1      -5.646  16.706  33.429  1.00  0.00     0.094 A 
ATOM     10  C   UNL     1      -7.016  16.436  33.435  1.00  0.00     0.146 A 
ATOM     11  O   UNL     1      -7.648  16.331  32.273  1.00  0.00    -0.452 OA
ENDROOT
BRANCH   1  12
ATOM     12  C   UNL     1      -9.530  15.979  30.807  1.00  0.00     0.025 A 
ATOM     13  C   UNL     1      -9.553  17.101  29.963  1.00  0.00     0.016 A 
ATOM     14  C   UNL     1     -10.074  17.004  28.671  1.00  0.00     0.051 A 
ATOM     15  C   UNL     1     -10.566  15.780  28.198  1.00  0.00     0.157 A 
ATOM     16  C   UNL     1     -10.006  14.748  30.321  1.00  0.00     0.062 A 
ATOM     17  C   UNL     1     -10.528  14.649  29.023  1.00  0.00     0.158 A 
BRANCH  15  18
ATOM     18  O   UNL     1     -11.090  15.680  26.910  1.00  0.00    -0.504 OA
ATOM     19  H   UNL     1     -11.666  16.413  26.514  1.00  0.00     0.293 HD
ENDBRANCH  15  18
BRANCH  17  20
ATOM     20  O   UNL     1     -11.006  13.430  28.545  1.00  0.00    -0.504 OA
ATOM     21  H   UNL     1     -11.953  13.123  28.729  1.00  0.00     0.293 HD
ENDBRANCH  17  20
ENDBRANCH   1  12
BRANCH   2  22
ATOM     22  O   UNL     1     -11.125  15.854  33.223  1.00  0.00    -0.502 OA
ATOM     23  H   UNL     1     -11.761  16.642  33.225  1.00  0.00     0.293 HD
ENDBRANCH   2  22
BRANCH   6  24
ATOM     24  O   UNL     1      -7.527  16.113  37.141  1.00  0.00    -0.507 OA
ATOM     25  H   UNL     1      -7.023  15.715  37.920  1.00  0.00     0.293 HD
ENDBRANCH   6  24
BRANCH   8  26
ATOM     26  O   UNL     1      -3.583  17.125  34.596  1.00  0.00    -0.508 OA
ATOM     27  H   UNL     1      -3.116  17.556  35.385  1.00  0.00     0.293 HD
ENDBRANCH   8  26
TORSDOF 6
ENDMDL
MODEL 2
REMARK VINA RESULT:    -4.012      1.763      2.123
REMARK INTER + INTRA:          -5.081
REMARK INTER:                  -5.041
REMARK INTRA:                  -0.040
REMARK UNBOUND:                -0.248
REMARK SMILES O=c1c(O)c(-c2ccc(O)c(O)c2)oc2cc(O)cc(O)c12
REMARK SMILES IDX 5 1 3 2 2 3 1 4 22 5 20 6 19 7 17 8 16 9 15 10 14 11 6 12
REMARK SMILES IDX 7 13 8 14 9 15 13 16 11 17 10 18 12 20 4 22 21 24 18 26
REMARK H PARENT 10 19 12 21 4 23 21 25 18 27
REMARK Flexibility Score: inf
ROOT
ATOM      1  C   UNL     1      -8.852  15.989  31.279  1.00  0.00     0.180 A 
ATOM      2  C   UNL     1      -9.971  15.460  31.947  1.00  0.00     0.208 A 
ATOM      3  C   UNL     1      -9.923  15.307  33.342  1.00  0.00     0.238 A 
ATOM      4  O   UNL     1     -10.946  14.882  33.939  1.00  0.00    -0.285 OA
ATOM      5  C   UNL     1      -8.751  15.669  34.049  1.00  0.00     0.111 A 
ATOM      6  C   UNL     1      -8.577  15.519  35.458  1.00  0.00     0.134 A 
ATOM      7  C   UNL     1      -7.427  16.032  36.071  1.00  0.00     0.093 A 
ATOM      8  C   UNL     1      -6.416  16.631  35.315  1.00  0.00     0.123 A 
ATOM      9  C   UNL     1      -6.550  16.729  33.933  1.00  0.00     0.094 A 
ATOM     10  C   UNL     1      -7.702  16.259  33.298  1.00  0.00     0.146 A 
ATOM     11  O   UNL     1      -7.795  16.381  31.979  1.00  0.00    -0.452 OA
ENDROOT
BRANCH   1  12
ATOM     12  C   UNL     1      -8.820  16.158  29.809  1.00  0.00     0.025 A 
ATOM     13  C   UNL     1      -9.807  16.933  29.179  1.00  0.00     0.016 A 
ATOM     14  C   UNL     1      -9.782  17.123  27.796  1.00  0.00     0.051 A 
ATOM     15  C   UNL     1      -8.762  16.554  27.023  1.00  0.00     0.157 A 
ATOM     16  C   UNL     1      -7.785  15.606  29.031  1.00  0.00     0.062 A 
ATOM     17  C   UNL     1      -7.760  15.797  27.642  1.00  0.00     0.158 A 
BRANCH  15  18
ATOM     18  O   UNL     1      -8.736  16.739  25.642  1.00  0.00    -0.504 OA
ATOM     19  H   UNL     1      -9.387  16.262  25.030  1.00  0.00     0.293 HD
ENDBRANCH  15  18
BRANCH  17  20
ATOM     20  O   UNL     1      -6.738  15.244  26.872  1.00  0.00    -0.504 OA
ATOM     21  H   UNL     1      -5.765  15.470  27.041  1.00  0.00     0.293 HD
ENDBRANCH  17  20
ENDBRANCH   1  12
BRANCH   2  22
ATOM     22  O   UNL     1     -11.125  15.129  31.231  1.00  0.00    -0.502 OA
ATOM     23  H   UNL     1     -11.344  15.539  30.331  1.00  0.00     0.293 HD
ENDBRANCH   2  22
BRANCH   6  24
ATOM     24  O   UNL     1      -9.484  14.855  36.290  1.00  0.00    -0.507 OA
ATOM     25  H   UNL     1      -9.847  13.929  36.121  1.00  0.00     0.293 HD
ENDBRANCH   6  24
BRANCH   8  26
ATOM     26  O   UNL     1      -5.268  17.125  35.931  1.00  0.00    -0.508 OA
ATOM     27  H   UNL     1      -4.653  17.778  35.461  1.00  0.00     0.293 HD
ENDBRANCH   8  26
TORSDOF 6
ENDMDL
MODEL 3
REMARK VINA RESULT:    -1.837      2.899      7.518
REMARK INTER + INTRA:          -2.461
REMARK INTER:                  -2.773
REMARK INTRA:                   0.312
REMARK UNBOUND:                -0.248
REMARK SMILES O=c1c(O)c(-c2ccc(O)c(O)c2)oc2cc(O)cc(O)c12
REMARK SMILES IDX 5 1 3 2 2 3 1 4 22 5 20 6 19 7 17 8 16 9 15 10 14 11 6 12
REMARK SMILES IDX 7 13 8 14 9 15 13 16 11 17 10 18 12 20 4 22 21 24 18 26
REMARK H PARENT 10 19 12 21 4 23 21 25 18 27
REMARK Flexibility Score: inf
ROOT
ATOM      1  C   UNL     1     -10.625  14.838  31.004  1.00  0.00     0.180 A 
ATOM      2  C   UNL     1     -10.780  15.752  29.947  1.00  0.00     0.208 A 
ATOM      3  C   UNL     1     -10.930  15.262  28.639  1.00  0.00     0.238 A 
ATOM      4  O   UNL     1     -11.122  16.083  27.704  1.00  0.00    -0.285 OA
ATOM      5  C   UNL     1     -10.905  13.866  28.404  1.00  0.00     0.111 A 
ATOM      6  C   UNL     1     -11.008  13.260  27.115  1.00  0.00     0.134 A 
ATOM      7  C   UNL     1     -11.105  11.867  27.013  1.00  0.00     0.093 A 
ATOM      8  C   UNL     1     -11.037  11.055  28.148  1.00  0.00     0.123 A 
ATOM      9  C   UNL     1     -10.877  11.634  29.404  1.00  0.00     0.094 A 
ATOM     10  C   UNL     1     -10.815  13.023  29.542  1.00  0.00     0.146 A 
ATOM     11  O   UNL     1     -10.673  13.535  30.758  1.00  0.00    -0.452 OA
ENDROOT
BRANCH   1  12
ATOM     12  C   UNL     1     -10.438  15.280  32.405  1.00  0.00     0.025 A 
ATOM     13  C   UNL     1     -11.050  16.464  32.845  1.00  0.00     0.016 A 
ATOM     14  C   UNL     1     -10.905  16.887  34.167  1.00  0.00     0.051 A 
ATOM     15  C   UNL     1     -10.158  16.125  35.075  1.00  0.00     0.157 A 
ATOM     16  C   UNL     1      -9.707  14.506  33.325  1.00  0.00     0.062 A 
ATOM     17  C   UNL     1      -9.561  14.930  34.654  1.00  0.00     0.158 A 
BRANCH  15  18
ATOM     18  O   UNL     1     -10.009  16.545  36.395  1.00  0.00    -0.504 OA
ATOM     19  H   UNL     1     -10.476  17.373  36.744  1.00  0.00     0.293 HD
ENDBRANCH  15  18
BRANCH  17  20
ATOM     20  O   UNL     1      -8.831  14.166  35.563  1.00  0.00    -0.504 OA
ATOM     21  H   UNL     1      -9.263  13.766  36.387  1.00  0.00     0.293 HD
ENDBRANCH  17  20
ENDBRANCH   1  12
BRANCH   2  22
ATOM     22  O   UNL     1     -10.822  17.125  30.204  1.00  0.00    -0.502 OA
ATOM     23  H   UNL     1     -11.628  17.696  29.981  1.00  0.00     0.293 HD
ENDBRANCH   2  22
BRANCH   6  24
ATOM     24  O   UNL     1     -10.991  13.974  25.913  1.00  0.00    -0.507 OA
ATOM     25  H   UNL     1     -10.824  13.567  25.005  1.00  0.00     0.293 HD
ENDBRANCH   6  24
BRANCH   8  26
ATOM     26  O   UNL     1     -11.118   9.669  28.035  1.00  0.00    -0.508 OA
ATOM     27  H   UNL     1     -11.920   9.155  28.380  1.00  0.00     0.293 HD
ENDBRANCH   8  26
TORSDOF 6
ENDMDL
