MODEL 1
REMARK VINA RESULT:    -7.232      0.000      0.000
REMARK INTER + INTRA:          -8.318
REMARK INTER:                  -8.712
REMARK INTRA:                   0.394
REMARK UNBOUND:                 0.394
REMARK SMILES O=c1c(O)c(-c2ccc(O)c(O)c2)oc2cc(O)cc(O)c12
REMARK SMILES IDX 5 1 3 2 2 3 1 4 22 5 20 6 19 7 17 8 16 9 15 10 14 11 6 12
REMARK SMILES IDX 7 13 8 14 9 15 13 16 11 17 10 18 12 20 4 22 21 24 18 26
REMARK H PARENT 10 19 12 21 4 23 21 25 18 27
REMARK Flexibility Score: inf
ROOT
ATOM      1  C   UNL     1     -18.571  22.330  13.758  1.00  0.00     0.180 A 
ATOM      2  C   UNL     1     -19.517  22.498  12.733  1.00  0.00     0.208 A 
ATOM      3  C   UNL     1     -19.068  22.668  11.414  1.00  0.00     0.238 A 
ATOM      4  O   UNL     1     -19.921  22.764  10.492  1.00  0.00    -0.285 OA
ATOM      5  C   UNL     1     -17.680  22.684  11.138  1.00  0.00     0.111 A 
ATOM      6  C   UNL     1     -17.112  22.889   9.845  1.00  0.00     0.134 A 
ATOM      7  C   UNL     1     -15.729  22.755   9.667  1.00  0.00     0.093 A 
ATOM      8  C   UNL     1     -14.887  22.487  10.750  1.00  0.00     0.123 A 
ATOM      9  C   UNL     1     -15.426  22.344  12.027  1.00  0.00     0.094 A 
ATOM     10  C   UNL     1     -16.805  22.437  12.229  1.00  0.00     0.146 A 
ATOM     11  O   UNL     1     -17.278  22.284  13.459  1.00  0.00    -0.452 OA
ENDROOT
BRANCH   1  12
ATOM     12  C   UNL     1     -18.967  22.171  15.177  1.00  0.00     0.025 A 
ATOM     13  C   UNL     1     -20.228  21.644  15.486  1.00  0.00     0.016 A 
ATOM     14  C   UNL     1     -20.614  21.468  16.816  1.00  0.00     0.051 A 
ATOM     15  C   UNL     1     -19.744  21.798  17.861  1.00  0.00     0.157 A 
ATOM     16  C   UNL     1     -18.082  22.484  16.223  1.00  0.00     0.062 A 
ATOM     17  C   UNL     1     -18.458  22.306  17.560  1.00  0.00     0.158 A 
BRANCH  15  18
ATOM     18  O   UNL     1     -20.192  21.604  19.170  1.00  0.00    -0.504 OA
ATOM     19  H   UNL     1     -21.121  21.288  19.408  1.00  0.00     0.293 HD
ENDBRANCH  15  18
BRANCH  17  20
ATOM     20  O   UNL     1     -17.530  22.640  18.548  1.00  0.00    -0.504 OA
ATOM     21  H   UNL     1     -16.572  22.321  18.555  1.00  0.00     0.293 HD
ENDBRANCH  17  20
ENDBRANCH   1  12
BRANCH   2  22
ATOM     22  O   UNL     1     -20.884  22.457  13.023  1.00  0.00    -0.502 OA
ATOM     23  H   UNL     1     -21.514  23.213  12.783  1.00  0.00     0.293 HD
ENDBRANCH   2  22
BRANCH   6  24
ATOM     24  O   UNL     1     -17.853  23.251   8.715  1.00  0.00    -0.507 OA
ATOM     25  H   UNL     1     -18.019  22.652   7.921  1.00  0.00     0.293 HD
ENDBRANCH   6  24
BRANCH   8  26
ATOM     26  O   UNL     1     -13.511  22.371  10.568  1.00  0.00    -0.508 OA
ATOM     27  H   UNL     1     -12.937  23.173  10.339  1.00  0.00     0.293 HD
ENDBRANCH   8  26
TORSDOF 6
ENDMDL
MODEL 2
REMARK VINA RESULT:    -7.024      2.286      3.155
REMARK INTER + INTRA:          -8.067
REMARK INTER:                  -7.863
REMARK INTRA:                  -0.204
REMARK UNBOUND:                 0.394
REMARK SMILES O=c1c(O)c(-c2ccc(O)c(O)c2)oc2cc(O)cc(O)c12
REMARK SMILES IDX 5 1 3 2 2 3 1 4 22 5 20 6 19 7 17 8 16 9 15 10 14 11 6 12
REMARK SMILES IDX 7 13 8 14 9 15 13 16 11 17 10 18 12 20 4 22 21 24 18 26
REMARK H PARENT 10 19 12 21 4 23 21 25 18 27
REMARK Flexibility Score: inf
ROOT
ATOM      1  C   UNL     1     -18.675  22.770  14.394  1.00  0.00     0.180 A 
ATOM      2  C   UNL     1     -19.700  23.726  14.308  1.00  0.00     0.208 A 
ATOM      3  C   UNL     1     -20.287  23.984  13.059  1.00  0.00     0.238 A 
ATOM      4  O   UNL     1     -21.242  24.802  12.998  1.00  0.00    -0.285 OA
ATOM      5  C   UNL     1     -19.830  23.296  11.909  1.00  0.00     0.111 A 
ATOM      6  C   UNL     1     -20.324  23.508  10.588  1.00  0.00     0.134 A 
ATOM      7  C   UNL     1     -19.890  22.679   9.546  1.00  0.00     0.093 A 
ATOM      8  C   UNL     1     -18.931  21.687   9.767  1.00  0.00     0.123 A 
ATOM      9  C   UNL     1     -18.398  21.512  11.043  1.00  0.00     0.094 A 
ATOM     10  C   UNL     1     -18.838  22.300  12.109  1.00  0.00     0.146 A 
ATOM     11  O   UNL     1     -18.313  22.094  13.310  1.00  0.00    -0.452 OA
ENDROOT
BRANCH   1  12
ATOM     12  C   UNL     1     -17.990  22.461  15.671  1.00  0.00     0.025 A 
ATOM     13  C   UNL     1     -16.668  22.883  15.865  1.00  0.00     0.016 A 
ATOM     14  C   UNL     1     -16.011  22.620  17.068  1.00  0.00     0.051 A 
ATOM     15  C   UNL     1     -16.663  21.944  18.105  1.00  0.00     0.157 A 
ATOM     16  C   UNL     1     -18.657  21.801  16.718  1.00  0.00     0.062 A 
ATOM     17  C   UNL     1     -18.007  21.536  17.930  1.00  0.00     0.158 A 
BRANCH  15  18
ATOM     18  O   UNL     1     -15.949  21.705  19.281  1.00  0.00    -0.504 OA
ATOM     19  H   UNL     1     -16.378  21.482  20.167  1.00  0.00     0.293 HD
ENDBRANCH  15  18
BRANCH  17  20
ATOM     20  O   UNL     1     -18.729  20.875  18.926  1.00  0.00    -0.504 OA
ATOM     21  H   UNL     1     -19.691  20.585  18.829  1.00  0.00     0.293 HD
ENDBRANCH  17  20
ENDBRANCH   1  12
BRANCH   2  22
ATOM     22  O   UNL     1     -20.152  24.378  15.459  1.00  0.00    -0.502 OA
ATOM     23  H   UNL     1     -20.355  25.370  15.478  1.00  0.00     0.293 HD
ENDBRANCH   2  22
BRANCH   6  24
ATOM     24  O   UNL     1     -21.214  24.529  10.241  1.00  0.00    -0.507 OA
ATOM     25  H   UNL     1     -21.300  25.407  10.730  1.00  0.00     0.293 HD
ENDBRANCH   6  24
BRANCH   8  26
ATOM     26  O   UNL     1     -18.493  20.876   8.723  1.00  0.00    -0.508 OA
ATOM     27  H   UNL     1     -19.099  20.637   7.947  1.00  0.00     0.293 HD
ENDBRANCH   8  26
TORSDOF 6
ENDMDL
MODEL 3
REMARK VINA RESULT:    -6.976      1.937      6.560
REMARK INTER + INTRA:          -8.009
REMARK INTER:                  -8.446
REMARK INTRA:                   0.436
REMARK UNBOUND:                 0.394
REMARK SMILES O=c1c(O)c(-c2ccc(O)c(O)c2)oc2cc(O)cc(O)c12
REMARK SMILES IDX 5 1 3 2 2 3 1 4 22 5 20 6 19 7 17 8 16 9 15 10 14 11 6 12
REMARK SMILES IDX 7 13 8 14 9 15 13 16 11 17 10 18 12 20 4 22 21 24 18 26
REMARK H PARENT 10 19 12 21 4 23 21 25 18 27
REMARK Flexibility Score: inf
ROOT
ATOM      1  C   UNL     1     -18.646  22.245  13.747  1.00  0.00     0.180 A 
ATOM      2  C   UNL     1     -19.675  22.861  14.478  1.00  0.00     0.208 A 
ATOM      3  C   UNL     1     -19.573  22.925  15.876  1.00  0.00     0.238 A 
ATOM      4  O   UNL     1     -20.472  23.527  16.521  1.00  0.00    -0.285 OA
ATOM      5  C   UNL     1     -18.452  22.358  16.528  1.00  0.00     0.111 A 
ATOM      6  C   UNL     1     -18.264  22.330  17.942  1.00  0.00     0.134 A 
ATOM      7  C   UNL     1     -17.055  21.860  18.471  1.00  0.00     0.093 A 
ATOM      8  C   UNL     1     -16.053  21.356  17.637  1.00  0.00     0.123 A 
ATOM      9  C   UNL     1     -16.251  21.324  16.258  1.00  0.00     0.094 A 
ATOM     10  C   UNL     1     -17.431  21.820  15.700  1.00  0.00     0.146 A 
ATOM     11  O   UNL     1     -17.576  21.781  14.381  1.00  0.00    -0.452 OA
ENDROOT
BRANCH   1  12
ATOM     12  C   UNL     1     -18.694  22.116  12.272  1.00  0.00     0.025 A 
ATOM     13  C   UNL     1     -17.568  21.644  11.583  1.00  0.00     0.016 A 
ATOM     14  C   UNL     1     -17.599  21.497  10.196  1.00  0.00     0.051 A 
ATOM     15  C   UNL     1     -18.755  21.802   9.470  1.00  0.00     0.157 A 
ATOM     16  C   UNL     1     -19.865  22.404  11.550  1.00  0.00     0.062 A 
ATOM     17  C   UNL     1     -19.906  22.256  10.158  1.00  0.00     0.158 A 
BRANCH  15  18
ATOM     18  O   UNL     1     -18.719  21.640   8.084  1.00  0.00    -0.504 OA
ATOM     19  H   UNL     1     -18.162  20.943   7.611  1.00  0.00     0.293 HD
ENDBRANCH  15  18
BRANCH  17  20
ATOM     20  O   UNL     1     -21.102  22.561   9.505  1.00  0.00    -0.504 OA
ATOM     21  H   UNL     1     -21.161  22.858   8.542  1.00  0.00     0.293 HD
ENDBRANCH  17  20
ENDBRANCH   1  12
BRANCH   2  22
ATOM     22  O   UNL     1     -20.763  23.435  13.813  1.00  0.00    -0.502 OA
ATOM     23  H   UNL     1     -21.009  23.191  12.861  1.00  0.00     0.293 HD
ENDBRANCH   2  22
BRANCH   6  24
ATOM     24  O   UNL     1     -19.237  22.724  18.867  1.00  0.00    -0.507 OA
ATOM     25  H   UNL     1     -19.682  23.629  18.882  1.00  0.00     0.293 HD
ENDBRANCH   6  24
BRANCH   8  26
ATOM     26  O   UNL     1     -14.860  20.875  18.171  1.00  0.00    -0.508 OA
ATOM     27  H   UNL     1     -14.268  21.456  18.754  1.00  0.00     0.293 HD
ENDBRANCH   8  26
TORSDOF 6
ENDMDL
MODEL 4
REMARK VINA RESULT:    -6.956      1.247      6.584
REMARK INTER + INTRA:          -7.985
REMARK INTER:                  -8.168
REMARK INTRA:                   0.183
REMARK UNBOUND:                 0.394
REMARK SMILES O=c1c(O)c(-c2ccc(O)c(O)c2)oc2cc(O)cc(O)c12
REMARK SMILES IDX 5 1 3 2 2 3 1 4 22 5 20 6 19 7 17 8 16 9 15 10 14 11 6 12
REMARK SMILES IDX 7 13 8 14 9 15 13 16 11 17 10 18 12 20 4 22 21 24 18 26
REMARK H PARENT 10 19 12 21 4 23 21 25 18 27
REMARK Flexibility Score: inf
ROOT
ATOM      1  C   UNL     1     -18.081  22.240  13.159  1.00  0.00     0.180 A 
ATOM      2  C   UNL     1     -19.470  22.387  13.308  1.00  0.00     0.208 A 
ATOM      3  C   UNL     1     -20.015  22.427  14.601  1.00  0.00     0.238 A 
ATOM      4  O   UNL     1     -21.254  22.613  14.728  1.00  0.00    -0.285 OA
ATOM      5  C   UNL     1     -19.168  22.302  15.728  1.00  0.00     0.111 A 
ATOM      6  C   UNL     1     -19.617  22.289  17.082  1.00  0.00     0.134 A 
ATOM      7  C   UNL     1     -18.678  22.292  18.122  1.00  0.00     0.093 A 
ATOM      8  C   UNL     1     -17.308  22.243  17.854  1.00  0.00     0.123 A 
ATOM      9  C   UNL     1     -16.861  22.196  16.535  1.00  0.00     0.094 A 
ATOM     10  C   UNL     1     -17.772  22.228  15.477  1.00  0.00     0.146 A 
ATOM     11  O   UNL     1     -17.305  22.192  14.235  1.00  0.00    -0.452 OA
ENDROOT
BRANCH   1  12
ATOM     12  C   UNL     1     -17.435  22.164  11.828  1.00  0.00     0.025 A 
ATOM     13  C   UNL     1     -18.071  21.467  10.791  1.00  0.00     0.016 A 
ATOM     14  C   UNL     1     -17.489  21.399   9.524  1.00  0.00     0.051 A 
ATOM     15  C   UNL     1     -16.271  22.037   9.262  1.00  0.00     0.157 A 
ATOM     16  C   UNL     1     -16.223  22.824  11.564  1.00  0.00     0.062 A 
ATOM     17  C   UNL     1     -15.633  22.765  10.295  1.00  0.00     0.158 A 
BRANCH  15  18
ATOM     18  O   UNL     1     -15.738  21.926   7.976  1.00  0.00    -0.504 OA
ATOM     19  H   UNL     1     -15.520  21.047   7.530  1.00  0.00     0.293 HD
ENDBRANCH  15  18
BRANCH  17  20
ATOM     20  O   UNL     1     -14.428  23.444  10.103  1.00  0.00    -0.504 OA
ATOM     21  H   UNL     1     -14.014  23.619   9.199  1.00  0.00     0.293 HD
ENDBRANCH  17  20
ENDBRANCH   1  12
BRANCH   2  22
ATOM     22  O   UNL     1     -20.287  22.530  12.182  1.00  0.00    -0.502 OA
ATOM     23  H   UNL     1     -20.991  23.255  12.110  1.00  0.00     0.293 HD
ENDBRANCH   2  22
BRANCH   6  24
ATOM     24  O   UNL     1     -20.963  22.244  17.458  1.00  0.00    -0.507 OA
ATOM     25  H   UNL     1     -21.705  22.748  16.998  1.00  0.00     0.293 HD
ENDBRANCH   6  24
BRANCH   8  26
ATOM     26  O   UNL     1     -16.380  22.231  18.894  1.00  0.00    -0.508 OA
ATOM     27  H   UNL     1     -16.002  23.089  19.277  1.00  0.00     0.293 HD
ENDBRANCH   8  26
TORSDOF 6
ENDMDL
MODEL 5
REMARK VINA RESULT:    -6.945      1.637      3.646
REMARK INTER + INTRA:          -7.972
REMARK INTER:                  -8.363
REMARK INTRA:                   0.392
REMARK UNBOUND:                 0.394
REMARK SMILES O=c1c(O)c(-c2ccc(O)c(O)c2)oc2cc(O)cc(O)c12
REMARK SMILES IDX 5 1 3 2 2 3 1 4 22 5 20 6 19 7 17 8 16 9 15 10 14 11 6 12
REMARK SMILES IDX 7 13 8 14 9 15 13 16 11 17 10 18 12 20 4 22 21 24 18 26
REMARK H PARENT 10 19 12 21 4 23 21 25 18 27
REMARK Flexibility Score: inf
ROOT
ATOM      1  C   UNL     1     -17.176  21.921  13.900  1.00  0.00     0.180 A 
ATOM      2  C   UNL     1     -16.080  21.866  13.022  1.00  0.00     0.208 A 
ATOM      3  C   UNL     1     -16.303  22.025  11.645  1.00  0.00     0.238 A 
ATOM      4  O   UNL     1     -15.311  22.028  10.869  1.00  0.00    -0.285 OA
ATOM      5  C   UNL     1     -17.618  22.220  11.161  1.00  0.00     0.111 A 
ATOM      6  C   UNL     1     -17.964  22.352   9.783  1.00  0.00     0.134 A 
ATOM      7  C   UNL     1     -19.280  22.672   9.428  1.00  0.00     0.093 A 
ATOM      8  C   UNL     1     -20.277  22.801  10.399  1.00  0.00     0.123 A 
ATOM      9  C   UNL     1     -19.961  22.615  11.743  1.00  0.00     0.094 A 
ATOM     10  C   UNL     1     -18.650  22.330  12.131  1.00  0.00     0.146 A 
ATOM     11  O   UNL     1     -18.389  22.171  13.423  1.00  0.00    -0.452 OA
ENDROOT
BRANCH   1  12
ATOM     12  C   UNL     1     -17.024  21.737  15.362  1.00  0.00     0.025 A 
ATOM     13  C   UNL     1     -15.912  21.043  15.858  1.00  0.00     0.016 A 
ATOM     14  C   UNL     1     -15.740  20.875  17.233  1.00  0.00     0.051 A 
ATOM     15  C   UNL     1     -16.664  21.408  18.139  1.00  0.00     0.157 A 
ATOM     16  C   UNL     1     -17.943  22.294  16.269  1.00  0.00     0.062 A 
ATOM     17  C   UNL     1     -17.776  22.133  17.650  1.00  0.00     0.158 A 
BRANCH  15  18
ATOM     18  O   UNL     1     -16.438  21.200  19.501  1.00  0.00    -0.504 OA
ATOM     19  H   UNL     1     -15.691  21.635  20.023  1.00  0.00     0.293 HD
ENDBRANCH  15  18
BRANCH  17  20
ATOM     20  O   UNL     1     -18.728  22.711  18.493  1.00  0.00    -0.504 OA
ATOM     21  H   UNL     1     -18.557  22.954  19.458  1.00  0.00     0.293 HD
ENDBRANCH  17  20
ENDBRANCH   1  12
BRANCH   2  22
ATOM     22  O   UNL     1     -14.786  21.694  13.523  1.00  0.00    -0.502 OA
ATOM     23  H   UNL     1     -14.077  22.414  13.454  1.00  0.00     0.293 HD
ENDBRANCH   2  22
BRANCH   6  24
ATOM     24  O   UNL     1     -17.066  22.153   8.730  1.00  0.00    -0.507 OA
ATOM     25  H   UNL     1     -16.353  22.810   8.451  1.00  0.00     0.293 HD
ENDBRANCH   6  24
BRANCH   8  26
ATOM     26  O   UNL     1     -21.588  23.104  10.037  1.00  0.00    -0.508 OA
ATOM     27  H   UNL     1     -22.376  22.608  10.436  1.00  0.00     0.293 HD
ENDBRANCH   8  26
TORSDOF 6
ENDMDL
MODEL 6
REMARK VINA RESULT:    -6.877      0.743      1.509
REMARK INTER + INTRA:          -7.890
REMARK INTER:                  -8.142
REMARK INTRA:                   0.252
REMARK UNBOUND:                 0.394
REMARK SMILES O=c1c(O)c(-c2ccc(O)c(O)c2)oc2cc(O)cc(O)c12
REMARK SMILES IDX 5 1 3 2 2 3 1 4 22 5 20 6 19 7 17 8 16 9 15 10 14 11 6 12
REMARK SMILES IDX 7 13 8 14 9 15 13 16 11 17 10 18 12 20 4 22 21 24 18 26
REMARK H PARENT 10 19 12 21 4 23 21 25 18 27
REMARK Flexibility Score: inf
ROOT
ATOM      1  C   UNL     1     -18.458  22.391  13.372  1.00  0.00     0.180 A 
ATOM      2  C   UNL     1     -19.405  22.553  12.347  1.00  0.00     0.208 A 
ATOM      3  C   UNL     1     -18.958  22.701  11.025  1.00  0.00     0.238 A 
ATOM      4  O   UNL     1     -19.814  22.791  10.105  1.00  0.00    -0.285 OA
ATOM      5  C   UNL     1     -17.571  22.703  10.745  1.00  0.00     0.111 A 
ATOM      6  C   UNL     1     -17.005  22.887   9.448  1.00  0.00     0.134 A 
ATOM      7  C   UNL     1     -15.624  22.739   9.269  1.00  0.00     0.093 A 
ATOM      8  C   UNL     1     -14.781  22.480  10.353  1.00  0.00     0.123 A 
ATOM      9  C   UNL     1     -15.318  22.358  11.633  1.00  0.00     0.094 A 
ATOM     10  C   UNL     1     -16.695  22.464  11.837  1.00  0.00     0.146 A 
ATOM     11  O   UNL     1     -17.167  22.331  13.071  1.00  0.00    -0.452 OA
ENDROOT
BRANCH   1  12
ATOM     12  C   UNL     1     -18.851  22.254  14.794  1.00  0.00     0.025 A 
ATOM     13  C   UNL     1     -18.037  22.811  15.791  1.00  0.00     0.016 A 
ATOM     14  C   UNL     1     -18.398  22.710  17.135  1.00  0.00     0.051 A 
ATOM     15  C   UNL     1     -19.583  22.067  17.510  1.00  0.00     0.157 A 
ATOM     16  C   UNL     1     -20.052  21.627  15.164  1.00  0.00     0.062 A 
ATOM     17  C   UNL     1     -20.425  21.525  16.511  1.00  0.00     0.158 A 
BRANCH  15  18
ATOM     18  O   UNL     1     -19.884  21.994  18.872  1.00  0.00    -0.504 OA
ATOM     19  H   UNL     1     -19.506  22.621  19.569  1.00  0.00     0.293 HD
ENDBRANCH  15  18
BRANCH  17  20
ATOM     20  O   UNL     1     -21.632  20.887  16.807  1.00  0.00    -0.504 OA
ATOM     21  H   UNL     1     -21.743  19.885  16.863  1.00  0.00     0.293 HD
ENDBRANCH  17  20
ENDBRANCH   1  12
BRANCH   2  22
ATOM     22  O   UNL     1     -20.772  22.526  12.642  1.00  0.00    -0.502 OA
ATOM     23  H   UNL     1     -21.214  21.738  13.099  1.00  0.00     0.293 HD
ENDBRANCH   2  22
BRANCH   6  24
ATOM     24  O   UNL     1     -17.746  23.239   8.316  1.00  0.00    -0.507 OA
ATOM     25  H   UNL     1     -18.710  23.535   8.329  1.00  0.00     0.293 HD
ENDBRANCH   6  24
BRANCH   8  26
ATOM     26  O   UNL     1     -13.406  22.350  10.169  1.00  0.00    -0.508 OA
ATOM     27  H   UNL     1     -12.982  21.454   9.961  1.00  0.00     0.293 HD
ENDBRANCH   8  26
TORSDOF 6
ENDMDL
MODEL 7
REMARK VINA RESULT:    -6.689      1.643      7.143
REMARK INTER + INTRA:          -7.664
REMARK INTER:                  -7.649
REMARK INTRA:                  -0.015
REMARK UNBOUND:                 0.394
REMARK SMILES O=c1c(O)c(-c2ccc(O)c(O)c2)oc2cc(O)cc(O)c12
REMARK SMILES IDX 5 1 3 2 2 3 1 4 22 5 20 6 19 7 17 8 16 9 15 10 14 11 6 12
REMARK SMILES IDX 7 13 8 14 9 15 13 16 11 17 10 18 12 20 4 22 21 24 18 26
REMARK H PARENT 10 19 12 21 4 23 21 25 18 27
REMARK Flexibility Score: inf
ROOT
ATOM      1  C   UNL     1     -18.025  22.073  13.548  1.00  0.00     0.180 A 
ATOM      2  C   UNL     1     -16.808  22.454  14.139  1.00  0.00     0.208 A 
ATOM      3  C   UNL     1     -16.717  22.499  15.539  1.00  0.00     0.238 A 
ATOM      4  O   UNL     1     -15.608  22.788  16.063  1.00  0.00    -0.285 OA
ATOM      5  C   UNL     1     -17.846  22.181  16.331  1.00  0.00     0.111 A 
ATOM      6  C   UNL     1     -17.878  22.234  17.756  1.00  0.00     0.134 A 
ATOM      7  C   UNL     1     -19.009  21.772  18.440  1.00  0.00     0.093 A 
ATOM      8  C   UNL     1     -20.135  21.320  17.746  1.00  0.00     0.123 A 
ATOM      9  C   UNL     1     -20.136  21.321  16.353  1.00  0.00     0.094 A 
ATOM     10  C   UNL     1     -19.009  21.742  15.644  1.00  0.00     0.146 A 
ATOM     11  O   UNL     1     -19.047  21.717  14.317  1.00  0.00    -0.452 OA
ENDROOT
BRANCH   1  12
ATOM     12  C   UNL     1     -18.207  22.025  12.079  1.00  0.00     0.025 A 
ATOM     13  C   UNL     1     -17.335  21.251  11.301  1.00  0.00     0.016 A 
ATOM     14  C   UNL     1     -17.500  21.177   9.917  1.00  0.00     0.051 A 
ATOM     15  C   UNL     1     -18.545  21.859   9.285  1.00  0.00     0.157 A 
ATOM     16  C   UNL     1     -19.271  22.695  11.451  1.00  0.00     0.062 A 
ATOM     17  C   UNL     1     -19.447  22.623  10.063  1.00  0.00     0.158 A 
BRANCH  15  18
ATOM     18  O   UNL     1     -18.652  21.750   7.896  1.00  0.00    -0.504 OA
ATOM     19  H   UNL     1     -18.526  22.522   7.257  1.00  0.00     0.293 HD
ENDBRANCH  15  18
BRANCH  17  20
ATOM     20  O   UNL     1     -20.524  23.315   9.506  1.00  0.00    -0.504 OA
ATOM     21  H   UNL     1     -20.966  23.066   8.633  1.00  0.00     0.293 HD
ENDBRANCH  17  20
ENDBRANCH   1  12
BRANCH   2  22
ATOM     22  O   UNL     1     -15.699  22.743  13.339  1.00  0.00    -0.502 OA
ATOM     23  H   UNL     1     -14.785  22.343  13.513  1.00  0.00     0.293 HD
ENDBRANCH   2  22
BRANCH   6  24
ATOM     24  O   UNL     1     -16.844  22.752  18.542  1.00  0.00    -0.507 OA
ATOM     25  H   UNL     1     -15.877  22.801  18.259  1.00  0.00     0.293 HD
ENDBRANCH   6  24
BRANCH   8  26
ATOM     26  O   UNL     1     -21.263  20.876  18.434  1.00  0.00    -0.508 OA
ATOM     27  H   UNL     1     -22.164  20.797  17.978  1.00  0.00     0.293 HD
ENDBRANCH   8  26
TORSDOF 6
ENDMDL
MODEL 8
REMARK VINA RESULT:    -6.632      1.314      1.957
REMARK INTER + INTRA:          -7.595
REMARK INTER:                  -7.772
REMARK INTRA:                   0.177
REMARK UNBOUND:                 0.394
REMARK SMILES O=c1c(O)c(-c2ccc(O)c(O)c2)oc2cc(O)cc(O)c12
REMARK SMILES IDX 5 1 3 2 2 3 1 4 22 5 20 6 19 7 17 8 16 9 15 10 14 11 6 12
REMARK SMILES IDX 7 13 8 14 9 15 13 16 11 17 10 18 12 20 4 22 21 24 18 26
REMARK H PARENT 10 19 12 21 4 23 21 25 18 27
REMARK Flexibility Score: inf
ROOT
ATOM      1  C   UNL     1     -17.566  22.223  13.831  1.00  0.00     0.180 A 
ATOM      2  C   UNL     1     -18.862  22.289  13.295  1.00  0.00     0.208 A 
ATOM      3  C   UNL     1     -19.020  22.563  11.927  1.00  0.00     0.238 A 
ATOM      4  O   UNL     1     -20.182  22.567  11.441  1.00  0.00    -0.285 OA
ATOM      5  C   UNL     1     -17.881  22.785  11.116  1.00  0.00     0.111 A 
ATOM      6  C   UNL     1     -17.925  23.110   9.728  1.00  0.00     0.134 A 
ATOM      7  C   UNL     1     -16.733  23.180   8.996  1.00  0.00     0.093 A 
ATOM      8  C   UNL     1     -15.495  22.999   9.618  1.00  0.00     0.123 A 
ATOM      9  C   UNL     1     -15.439  22.739  10.986  1.00  0.00     0.094 A 
ATOM     10  C   UNL     1     -16.612  22.629  11.735  1.00  0.00     0.146 A 
ATOM     11  O   UNL     1     -16.515  22.370  13.033  1.00  0.00    -0.452 OA
ENDROOT
BRANCH   1  12
ATOM     12  C   UNL     1     -17.320  21.963  15.269  1.00  0.00     0.025 A 
ATOM     13  C   UNL     1     -16.175  21.252  15.655  1.00  0.00     0.016 A 
ATOM     14  C   UNL     1     -15.914  21.013  17.005  1.00  0.00     0.051 A 
ATOM     15  C   UNL     1     -16.780  21.490  17.996  1.00  0.00     0.157 A 
ATOM     16  C   UNL     1     -18.180  22.463  16.261  1.00  0.00     0.062 A 
ATOM     17  C   UNL     1     -17.924  22.232  17.618  1.00  0.00     0.158 A 
BRANCH  15  18
ATOM     18  O   UNL     1     -16.466  21.212  19.328  1.00  0.00    -0.504 OA
ATOM     19  H   UNL     1     -17.152  21.129  20.064  1.00  0.00     0.293 HD
ENDBRANCH  15  18
BRANCH  17  20
ATOM     20  O   UNL     1     -18.823  22.757  18.550  1.00  0.00    -0.504 OA
ATOM     21  H   UNL     1     -19.367  23.594  18.402  1.00  0.00     0.293 HD
ENDBRANCH  17  20
ENDBRANCH   1  12
BRANCH   2  22
ATOM     22  O   UNL     1     -19.973  22.045  14.108  1.00  0.00    -0.502 OA
ATOM     23  H   UNL     1     -20.830  22.579  14.032  1.00  0.00     0.293 HD
ENDBRANCH   2  22
BRANCH   6  24
ATOM     24  O   UNL     1     -19.102  23.400   9.031  1.00  0.00    -0.507 OA
ATOM     25  H   UNL     1     -19.350  24.311   8.677  1.00  0.00     0.293 HD
ENDBRANCH   6  24
BRANCH   8  26
ATOM     26  O   UNL     1     -14.312  23.084   8.886  1.00  0.00    -0.508 OA
ATOM     27  H   UNL     1     -13.960  23.973   8.550  1.00  0.00     0.293 HD
ENDBRANCH   8  26
TORSDOF 6
ENDMDL
MODEL 9
REMARK VINA RESULT:    -6.214      1.431      3.066
REMARK INTER + INTRA:          -7.091
REMARK INTER:                  -7.232
REMARK INTRA:                   0.141
REMARK UNBOUND:                 0.394
REMARK SMILES O=c1c(O)c(-c2ccc(O)c(O)c2)oc2cc(O)cc(O)c12
REMARK SMILES IDX 5 1 3 2 2 3 1 4 22 5 20 6 19 7 17 8 16 9 15 10 14 11 6 12
REMARK SMILES IDX 7 13 8 14 9 15 13 16 11 17 10 18 12 20 4 22 21 24 18 26
REMARK H PARENT 10 19 12 21 4 23 21 25 18 27
REMARK Flexibility Score: inf
ROOT
ATOM      1  C   UNL     1     -16.909  21.882  14.043  1.00  0.00     0.180 A 
ATOM      2  C   UNL     1     -15.606  21.365  13.952  1.00  0.00     0.208 A 
ATOM      3  C   UNL     1     -14.970  21.341  12.701  1.00  0.00     0.238 A 
ATOM      4  O   UNL     1     -13.782  20.928  12.635  1.00  0.00    -0.285 OA
ATOM      5  C   UNL     1     -15.649  21.817  11.555  1.00  0.00     0.111 A 
ATOM      6  C   UNL     1     -15.116  21.803  10.231  1.00  0.00     0.134 A 
ATOM      7  C   UNL     1     -15.826  22.419   9.193  1.00  0.00     0.093 A 
ATOM      8  C   UNL     1     -17.080  22.993   9.419  1.00  0.00     0.123 A 
ATOM      9  C   UNL     1     -17.636  22.959  10.697  1.00  0.00     0.094 A 
ATOM     10  C   UNL     1     -16.936  22.383  11.759  1.00  0.00     0.146 A 
ATOM     11  O   UNL     1     -17.496  22.382  12.963  1.00  0.00    -0.452 OA
ENDROOT
BRANCH   1  12
ATOM     12  C   UNL     1     -17.655  21.918  15.323  1.00  0.00     0.025 A 
ATOM     13  C   UNL     1     -19.004  21.538  15.346  1.00  0.00     0.016 A 
ATOM     14  C   UNL     1     -19.720  21.546  16.544  1.00  0.00     0.051 A 
ATOM     15  C   UNL     1     -19.102  21.917  17.743  1.00  0.00     0.157 A 
ATOM     16  C   UNL     1     -17.024  22.271  16.528  1.00  0.00     0.062 A 
ATOM     17  C   UNL     1     -17.734  22.278  17.736  1.00  0.00     0.158 A 
BRANCH  15  18
ATOM     18  O   UNL     1     -19.875  21.911  18.906  1.00  0.00    -0.504 OA
ATOM     19  H   UNL     1     -20.166  22.745  19.396  1.00  0.00     0.293 HD
ENDBRANCH  15  18
BRANCH  17  20
ATOM     20  O   UNL     1     -17.045  22.640  18.895  1.00  0.00    -0.504 OA
ATOM     21  H   UNL     1     -17.491  22.959  19.742  1.00  0.00     0.293 HD
ENDBRANCH  17  20
ENDBRANCH   1  12
BRANCH   2  22
ATOM     22  O   UNL     1     -14.944  20.921  15.100  1.00  0.00    -0.502 OA
ATOM     23  H   UNL     1     -13.934  20.877  15.163  1.00  0.00     0.293 HD
ENDBRANCH   2  22
BRANCH   6  24
ATOM     24  O   UNL     1     -13.916  21.177   9.880  1.00  0.00    -0.507 OA
ATOM     25  H   UNL     1     -13.264  21.530   9.196  1.00  0.00     0.293 HD
ENDBRANCH   6  24
BRANCH   8  26
ATOM     26  O   UNL     1     -17.787  23.590   8.378  1.00  0.00    -0.508 OA
ATOM     27  H   UNL     1     -18.246  23.038   7.663  1.00  0.00     0.293 HD
ENDBRANCH   8  26
TORSDOF 6
ENDMDL
