MODEL 1
REMARK VINA RESULT:    -7.429      0.000      0.000
REMARK INTER + INTRA:          -7.775
REMARK INTER:                  -8.080
REMARK INTRA:                   0.305
REMARK UNBOUND:                 0.305
REMARK SMILES C[C@H]1[C@H]2C3=CC[C@@H]4[C@]5(C)CC[C@@H](O)C(C)(C)[C@H]5CC[C@@]4(C)[C@@]3(C)CC[C@]2(C(=O)[O-])CC[C@@H]1C
REMARK SMILES IDX 26 1 30 2 25 3 3 4 31 5 24 6 4 7 2 8 32 9 22 10 5 11 1 12
REMARK SMILES IDX 33 13 23 14 20 15 6 16 7 17 19 18 21 19 8 20 18 21 17 22
REMARK SMILES IDX 10 23 9 24 14 25 11 26 12 27 15 28 16 29 27 30 28 31 29 32
REMARK SMILES IDX 13 33
REMARK H PARENT 13 34
REMARK Flexibility Score: inf
ROOT
ATOM      1  C   UNL     1     171.514 143.087 157.547  1.00  0.00     0.017 C 
ATOM      2  C   UNL     1     170.788 143.467 158.872  1.00  0.00     0.014 C 
ATOM      3  C   UNL     1     170.490 142.558 156.472  1.00  0.00     0.014 C 
ATOM      4  C   UNL     1     172.202 144.388 157.035  1.00  0.00     0.030 C 
ATOM      5  C   UNL     1     171.755 144.090 159.909  1.00  0.00     0.004 C 
ATOM      6  C   UNL     1     169.996 143.560 155.380  1.00  0.00     0.013 C 
ATOM      7  C   UNL     1     172.402 144.341 155.524  1.00  0.00    -0.063 C 
ATOM      8  C   UNL     1     173.214 145.089 158.001  1.00  0.00    -0.003 C 
ATOM      9  C   UNL     1     172.530 145.332 159.392  1.00  0.00    -0.011 C 
ATOM     10  C   UNL     1     171.082 144.526 154.715  1.00  0.00    -0.006 C 
ATOM     11  C   UNL     1     173.494 143.714 154.997  1.00  0.00    -0.027 C 
ATOM     12  C   UNL     1     174.582 144.405 158.198  1.00  0.00     0.008 C 
ATOM     13  C   UNL     1     171.632 146.585 159.392  1.00  0.00     0.008 C 
ATOM     14  C   UNL     1     170.572 146.002 154.902  1.00  0.00     0.017 C 
ATOM     15  C   UNL     1     171.366 144.262 153.150  1.00  0.00    -0.020 C 
ATOM     16  C   UNL     1     173.542 143.063 153.625  1.00  0.00     0.032 C 
ATOM     17  C   UNL     1     172.116 142.868 153.066  1.00  0.00     0.006 C 
ATOM     18  C   UNL     1     170.072 144.244 152.254  1.00  0.00     0.008 C 
ATOM     19  C   UNL     1     172.257 145.469 152.633  1.00  0.00     0.012 C 
ATOM     20  C   UNL     1     171.902 142.010 151.725  1.00  0.00    -0.025 C 
ATOM     21  C   UNL     1     170.296 143.811 150.778  1.00  0.00     0.005 C 
ATOM     22  C   UNL     1     171.592 142.992 150.544  1.00  0.00     0.003 C 
ATOM     23  C   UNL     1     173.113 141.089 151.335  1.00  0.00     0.010 C 
ATOM     24  C   UNL     1     170.705 141.034 151.991  1.00  0.00     0.012 C 
ATOM     25  C   UNL     1     171.848 142.440 149.087  1.00  0.00    -0.006 C 
ATOM     26  C   UNL     1     174.066 141.730 150.324  1.00  0.00     0.033 C 
ATOM     27  C   UNL     1     173.373 142.009 148.965  1.00  0.00     0.120 C 
ATOM     28  C   UNL     1     170.898 141.274 148.710  1.00  0.00     0.014 C 
ATOM     29  C   UNL     1     171.593 143.572 148.054  1.00  0.00     0.014 C 
ENDROOT
BRANCH   1  30
ATOM     30  C   UNL     1     172.492 141.943 157.815  1.00  0.00     0.048 C 
ATOM     31  O   UNL     1     172.925 141.234 156.872  1.00  0.00    -0.550 OA
ATOM     32  O   UNL     1     172.817 141.572 159.116  1.00  0.00    -0.550 OA
ENDBRANCH   1  30
BRANCH  27  33
ATOM     33  O   UNL     1     173.531 140.887 148.131  1.00  0.00    -0.393 OA
ATOM     34  H   UNL     1     174.506 140.777 147.979  1.00  0.00     0.210 HD
ENDBRANCH  27  33
TORSDOF 2
ENDMDL
MODEL 2
REMARK VINA RESULT:    -6.597      1.638      2.122
REMARK INTER + INTRA:          -6.871
REMARK INTER:                  -7.290
REMARK INTRA:                   0.419
REMARK UNBOUND:                 0.305
REMARK SMILES C[C@H]1[C@H]2C3=CC[C@@H]4[C@]5(C)CC[C@@H](O)C(C)(C)[C@H]5CC[C@@]4(C)[C@@]3(C)CC[C@]2(C(=O)[O-])CC[C@@H]1C
REMARK SMILES IDX 26 1 30 2 25 3 3 4 31 5 24 6 4 7 2 8 32 9 22 10 5 11 1 12
REMARK SMILES IDX 33 13 23 14 20 15 6 16 7 17 19 18 21 19 8 20 18 21 17 22
REMARK SMILES IDX 10 23 9 24 14 25 11 26 12 27 15 28 16 29 27 30 28 31 29 32
REMARK SMILES IDX 13 33
REMARK H PARENT 13 34
REMARK Flexibility Score: inf
ROOT
ATOM      1  C   UNL     1     170.571 144.012 157.586  1.00  0.00     0.017 C 
ATOM      2  C   UNL     1     170.473 144.876 158.879  1.00  0.00     0.014 C 
ATOM      3  C   UNL     1     169.808 144.697 156.388  1.00  0.00     0.014 C 
ATOM      4  C   UNL     1     172.088 143.889 157.253  1.00  0.00     0.030 C 
ATOM      5  C   UNL     1     171.302 144.280 160.042  1.00  0.00     0.004 C 
ATOM      6  C   UNL     1     170.652 145.514 155.358  1.00  0.00     0.013 C 
ATOM      7  C   UNL     1     172.301 143.634 155.765  1.00  0.00    -0.063 C 
ATOM      8  C   UNL     1     173.015 143.281 158.357  1.00  0.00    -0.003 C 
ATOM      9  C   UNL     1     172.802 144.055 159.706  1.00  0.00    -0.011 C 
ATOM     10  C   UNL     1     172.040 144.887 154.875  1.00  0.00    -0.006 C 
ATOM     11  C   UNL     1     172.226 142.364 155.271  1.00  0.00    -0.027 C 
ATOM     12  C   UNL     1     172.912 141.762 158.598  1.00  0.00     0.008 C 
ATOM     13  C   UNL     1     173.586 145.381 159.751  1.00  0.00     0.008 C 
ATOM     14  C   UNL     1     173.160 145.955 155.156  1.00  0.00     0.017 C 
ATOM     15  C   UNL     1     172.096 144.465 153.320  1.00  0.00    -0.020 C 
ATOM     16  C   UNL     1     171.813 142.009 153.852  1.00  0.00     0.032 C 
ATOM     17  C   UNL     1     171.134 143.214 153.166  1.00  0.00     0.006 C 
ATOM     18  C   UNL     1     171.670 145.610 152.326  1.00  0.00     0.008 C 
ATOM     19  C   UNL     1     173.608 144.119 152.989  1.00  0.00     0.012 C 
ATOM     20  C   UNL     1     170.426 143.016 151.738  1.00  0.00    -0.025 C 
ATOM     21  C   UNL     1     171.538 145.177 150.838  1.00  0.00     0.005 C 
ATOM     22  C   UNL     1     171.334 143.654 150.632  1.00  0.00     0.003 C 
ATOM     23  C   UNL     1     170.114 141.524 151.362  1.00  0.00     0.010 C 
ATOM     24  C   UNL     1     169.031 143.726 151.817  1.00  0.00     0.012 C 
ATOM     25  C   UNL     1     171.104 143.145 149.156  1.00  0.00    -0.006 C 
ATOM     26  C   UNL     1     171.194 140.875 150.494  1.00  0.00     0.033 C 
ATOM     27  C   UNL     1     171.332 141.573 149.116  1.00  0.00     0.120 C 
ATOM     28  C   UNL     1     169.709 143.530 148.598  1.00  0.00     0.014 C 
ATOM     29  C   UNL     1     172.153 143.799 148.215  1.00  0.00     0.014 C 
ENDROOT
BRANCH   1  30
ATOM     30  C   UNL     1     169.887 142.666 157.823  1.00  0.00     0.048 C 
ATOM     31  O   UNL     1     169.907 141.770 156.941  1.00  0.00    -0.550 OA
ATOM     32  O   UNL     1     169.111 142.450 158.958  1.00  0.00    -0.550 OA
ENDBRANCH   1  30
BRANCH  27  33
ATOM     33  O   UNL     1     170.471 140.946 148.197  1.00  0.00    -0.393 OA
ATOM     34  H   UNL     1     170.540 141.452 147.345  1.00  0.00     0.210 HD
ENDBRANCH  27  33
TORSDOF 2
ENDMDL
MODEL 3
REMARK VINA RESULT:    -6.558      2.003      7.699
REMARK INTER + INTRA:          -6.827
REMARK INTER:                  -7.127
REMARK INTRA:                   0.299
REMARK UNBOUND:                 0.305
REMARK SMILES C[C@H]1[C@H]2C3=CC[C@@H]4[C@]5(C)CC[C@@H](O)C(C)(C)[C@H]5CC[C@@]4(C)[C@@]3(C)CC[C@]2(C(=O)[O-])CC[C@@H]1C
REMARK SMILES IDX 26 1 30 2 25 3 3 4 31 5 24 6 4 7 2 8 32 9 22 10 5 11 1 12
REMARK SMILES IDX 33 13 23 14 20 15 6 16 7 17 19 18 21 19 8 20 18 21 17 22
REMARK SMILES IDX 10 23 9 24 14 25 11 26 12 27 15 28 16 29 27 30 28 31 29 32
REMARK SMILES IDX 13 33
REMARK H PARENT 13 34
REMARK Flexibility Score: inf
ROOT
ATOM      1  C   UNL     1     171.891 142.663 152.291  1.00  0.00     0.017 C 
ATOM      2  C   UNL     1     171.999 142.924 150.759  1.00  0.00     0.014 C 
ATOM      3  C   UNL     1     173.286 142.241 152.892  1.00  0.00     0.014 C 
ATOM      4  C   UNL     1     171.416 144.001 152.932  1.00  0.00     0.030 C 
ATOM      5  C   UNL     1     170.668 143.443 150.161  1.00  0.00     0.004 C 
ATOM      6  C   UNL     1     174.137 143.342 153.602  1.00  0.00     0.013 C 
ATOM      7  C   UNL     1     171.850 144.091 154.391  1.00  0.00    -0.063 C 
ATOM      8  C   UNL     1     170.069 144.604 152.411  1.00  0.00    -0.003 C 
ATOM      9  C   UNL     1     170.118 144.724 150.847  1.00  0.00    -0.011 C 
ATOM     10  C   UNL     1     173.375 144.358 154.571  1.00  0.00    -0.006 C 
ATOM     11  C   UNL     1     171.095 143.508 155.367  1.00  0.00    -0.027 C 
ATOM     12  C   UNL     1     168.771 143.896 152.846  1.00  0.00     0.008 C 
ATOM     13  C   UNL     1     170.883 145.976 150.379  1.00  0.00     0.008 C 
ATOM     14  C   UNL     1     173.701 145.814 154.074  1.00  0.00     0.017 C 
ATOM     15  C   UNL     1     173.763 144.236 156.132  1.00  0.00    -0.020 C 
ATOM     16  C   UNL     1     171.637 142.986 156.687  1.00  0.00     0.032 C 
ATOM     17  C   UNL     1     173.174 142.851 156.628  1.00  0.00     0.006 C 
ATOM     18  C   UNL     1     175.310 144.308 156.418  1.00  0.00     0.008 C 
ATOM     19  C   UNL     1     173.108 145.480 156.868  1.00  0.00     0.012 C 
ATOM     20  C   UNL     1     173.951 142.122 157.829  1.00  0.00    -0.025 C 
ATOM     21  C   UNL     1     175.724 144.011 157.887  1.00  0.00     0.005 C 
ATOM     22  C   UNL     1     174.672 143.209 158.696  1.00  0.00     0.003 C 
ATOM     23  C   UNL     1     173.044 141.233 158.753  1.00  0.00     0.010 C 
ATOM     24  C   UNL     1     174.977 141.132 157.177  1.00  0.00     0.012 C 
ATOM     25  C   UNL     1     175.054 142.792 160.170  1.00  0.00    -0.006 C 
ATOM     26  C   UNL     1     172.558 141.958 160.009  1.00  0.00     0.033 C 
ATOM     27  C   UNL     1     173.731 142.364 160.939  1.00  0.00     0.120 C 
ATOM     28  C   UNL     1     176.124 141.670 160.219  1.00  0.00     0.014 C 
ATOM     29  C   UNL     1     175.659 144.014 160.913  1.00  0.00     0.014 C 
ENDROOT
BRANCH   1  30
ATOM     30  C   UNL     1     170.939 141.494 152.539  1.00  0.00     0.048 C 
ATOM     31  O   UNL     1     170.953 140.875 153.634  1.00  0.00    -0.550 OA
ATOM     32  O   UNL     1     170.136 140.998 151.517  1.00  0.00    -0.550 OA
ENDBRANCH   1  30
BRANCH  27  33
ATOM     33  O   UNL     1     173.973 141.322 161.853  1.00  0.00    -0.393 OA
ATOM     34  H   UNL     1     174.321 140.554 161.328  1.00  0.00     0.210 HD
ENDBRANCH  27  33
TORSDOF 2
ENDMDL
MODEL 4
REMARK VINA RESULT:    -6.541      1.575      7.755
REMARK INTER + INTRA:          -6.810
REMARK INTER:                  -7.115
REMARK INTRA:                   0.305
REMARK UNBOUND:                 0.305
REMARK SMILES C[C@H]1[C@H]2C3=CC[C@@H]4[C@]5(C)CC[C@@H](O)C(C)(C)[C@H]5CC[C@@]4(C)[C@@]3(C)CC[C@]2(C(=O)[O-])CC[C@@H]1C
REMARK SMILES IDX 26 1 30 2 25 3 3 4 31 5 24 6 4 7 2 8 32 9 22 10 5 11 1 12
REMARK SMILES IDX 33 13 23 14 20 15 6 16 7 17 19 18 21 19 8 20 18 21 17 22
REMARK SMILES IDX 10 23 9 24 14 25 11 26 12 27 15 28 16 29 27 30 28 31 29 32
REMARK SMILES IDX 13 33
REMARK H PARENT 13 34
REMARK Flexibility Score: inf
ROOT
ATOM      1  C   UNL     1     172.620 143.017 151.649  1.00  0.00     0.017 C 
ATOM      2  C   UNL     1     172.700 143.533 150.181  1.00  0.00     0.014 C 
ATOM      3  C   UNL     1     173.549 143.867 152.599  1.00  0.00     0.014 C 
ATOM      4  C   UNL     1     171.132 143.164 152.086  1.00  0.00     0.030 C 
ATOM      5  C   UNL     1     171.718 142.786 149.247  1.00  0.00     0.004 C 
ATOM      6  C   UNL     1     172.885 145.001 153.444  1.00  0.00     0.013 C 
ATOM      7  C   UNL     1     171.019 143.295 153.601  1.00  0.00    -0.063 C 
ATOM      8  C   UNL     1     170.057 142.430 151.217  1.00  0.00    -0.003 C 
ATOM      9  C   UNL     1     170.237 142.832 149.711  1.00  0.00    -0.011 C 
ATOM     10  C   UNL     1     171.484 144.681 154.142  1.00  0.00    -0.006 C 
ATOM     11  C   UNL     1     171.001 142.179 154.385  1.00  0.00    -0.027 C 
ATOM     12  C   UNL     1     169.979 140.896 151.349  1.00  0.00     0.008 C 
ATOM     13  C   UNL     1     169.596 144.195 149.387  1.00  0.00     0.008 C 
ATOM     14  C   UNL     1     170.464 145.782 153.671  1.00  0.00     0.017 C 
ATOM     15  C   UNL     1     171.514 144.648 155.754  1.00  0.00    -0.020 C 
ATOM     16  C   UNL     1     171.492 142.121 155.823  1.00  0.00     0.032 C 
ATOM     17  C   UNL     1     172.348 143.361 156.154  1.00  0.00     0.006 C 
ATOM     18  C   UNL     1     172.141 145.934 156.413  1.00  0.00     0.008 C 
ATOM     19  C   UNL     1     170.007 144.578 156.243  1.00  0.00     0.012 C 
ATOM     20  C   UNL     1     173.149 143.421 157.546  1.00  0.00    -0.025 C 
ATOM     21  C   UNL     1     172.350 145.853 157.951  1.00  0.00     0.005 C 
ATOM     22  C   UNL     1     172.409 144.408 158.511  1.00  0.00     0.003 C 
ATOM     23  C   UNL     1     173.333 142.033 158.256  1.00  0.00     0.010 C 
ATOM     24  C   UNL     1     174.600 143.915 157.218  1.00  0.00     0.012 C 
ATOM     25  C   UNL     1     172.706 144.238 160.052  1.00  0.00    -0.006 C 
ATOM     26  C   UNL     1     172.267 141.745 159.316  1.00  0.00     0.033 C 
ATOM     27  C   UNL     1     172.319 142.760 160.487  1.00  0.00     0.120 C 
ATOM     28  C   UNL     1     174.176 144.569 160.420  1.00  0.00     0.014 C 
ATOM     29  C   UNL     1     171.815 145.218 160.862  1.00  0.00     0.014 C 
ENDROOT
BRANCH   1  30
ATOM     30  C   UNL     1     173.137 141.580 151.710  1.00  0.00     0.048 C 
ATOM     31  O   UNL     1     173.426 141.047 152.811  1.00  0.00    -0.550 OA
ATOM     32  O   UNL     1     173.430 140.878 150.545  1.00  0.00    -0.550 OA
ENDBRANCH   1  30
BRANCH  27  33
ATOM     33  O   UNL     1     173.183 142.266 161.482  1.00  0.00    -0.393 OA
ATOM     34  H   UNL     1     173.384 141.323 161.247  1.00  0.00     0.210 HD
ENDBRANCH  27  33
TORSDOF 2
ENDMDL
MODEL 5
REMARK VINA RESULT:    -6.387      2.133      8.002
REMARK INTER + INTRA:          -6.642
REMARK INTER:                  -7.037
REMARK INTRA:                   0.396
REMARK UNBOUND:                 0.305
REMARK SMILES C[C@H]1[C@H]2C3=CC[C@@H]4[C@]5(C)CC[C@@H](O)C(C)(C)[C@H]5CC[C@@]4(C)[C@@]3(C)CC[C@]2(C(=O)[O-])CC[C@@H]1C
REMARK SMILES IDX 26 1 30 2 25 3 3 4 31 5 24 6 4 7 2 8 32 9 22 10 5 11 1 12
REMARK SMILES IDX 33 13 23 14 20 15 6 16 7 17 19 18 21 19 8 20 18 21 17 22
REMARK SMILES IDX 10 23 9 24 14 25 11 26 12 27 15 28 16 29 27 30 28 31 29 32
REMARK SMILES IDX 13 33
REMARK H PARENT 13 34
REMARK Flexibility Score: inf
ROOT
ATOM      1  C   UNL     1     170.079 144.633 149.844  1.00  0.00     0.017 C 
ATOM      2  C   UNL     1     169.042 144.448 148.696  1.00  0.00     0.014 C 
ATOM      3  C   UNL     1     169.377 145.127 151.167  1.00  0.00     0.014 C 
ATOM      4  C   UNL     1     170.733 143.238 150.075  1.00  0.00     0.030 C 
ATOM      5  C   UNL     1     169.687 143.862 147.417  1.00  0.00     0.004 C 
ATOM      6  C   UNL     1     169.044 144.059 152.257  1.00  0.00     0.013 C 
ATOM      7  C   UNL     1     171.269 143.116 151.497  1.00  0.00    -0.063 C 
ATOM      8  C   UNL     1     171.431 142.565 148.847  1.00  0.00    -0.003 C 
ATOM      9  C   UNL     1     170.432 142.517 147.637  1.00  0.00    -0.011 C 
ATOM     10  C   UNL     1     170.151 142.951 152.571  1.00  0.00    -0.006 C 
ATOM     11  C   UNL     1     172.507 143.600 151.807  1.00  0.00    -0.027 C 
ATOM     12  C   UNL     1     172.780 143.158 148.395  1.00  0.00     0.008 C 
ATOM     13  C   UNL     1     169.439 141.344 147.742  1.00  0.00     0.008 C 
ATOM     14  C   UNL     1     169.470 141.544 152.387  1.00  0.00     0.017 C 
ATOM     15  C   UNL     1     170.802 143.030 154.044  1.00  0.00    -0.020 C 
ATOM     16  C   UNL     1     172.923 144.101 153.179  1.00  0.00     0.032 C 
ATOM     17  C   UNL     1     171.684 144.347 154.067  1.00  0.00     0.006 C 
ATOM     18  C   UNL     1     169.748 143.057 155.214  1.00  0.00     0.008 C 
ATOM     19  C   UNL     1     171.663 141.713 154.240  1.00  0.00     0.012 C 
ATOM     20  C   UNL     1     171.860 145.077 155.487  1.00  0.00    -0.025 C 
ATOM     21  C   UNL     1     170.337 143.318 156.628  1.00  0.00     0.005 C 
ATOM     22  C   UNL     1     171.726 144.006 156.623  1.00  0.00     0.003 C 
ATOM     23  C   UNL     1     173.212 145.858 155.660  1.00  0.00     0.010 C 
ATOM     24  C   UNL     1     170.736 146.164 155.585  1.00  0.00     0.012 C 
ATOM     25  C   UNL     1     172.355 144.385 158.021  1.00  0.00    -0.006 C 
ATOM     26  C   UNL     1     174.298 145.046 156.367  1.00  0.00     0.033 C 
ATOM     27  C   UNL     1     173.902 144.683 157.822  1.00  0.00     0.120 C 
ATOM     28  C   UNL     1     171.632 145.577 158.702  1.00  0.00     0.014 C 
ATOM     29  C   UNL     1     172.226 143.177 158.989  1.00  0.00     0.014 C 
ENDROOT
BRANCH   1  30
ATOM     30  C   UNL     1     171.080 145.720 149.452  1.00  0.00     0.048 C 
ATOM     31  O   UNL     1     171.585 146.474 150.323  1.00  0.00    -0.550 OA
ATOM     32  O   UNL     1     171.349 145.993 148.114  1.00  0.00    -0.550 OA
ENDBRANCH   1  30
BRANCH  27  33
ATOM     33  O   UNL     1     174.352 145.699 158.685  1.00  0.00    -0.393 OA
ATOM     34  H   UNL     1     175.166 145.353 159.138  1.00  0.00     0.210 HD
ENDBRANCH  27  33
TORSDOF 2
ENDMDL
MODEL 6
REMARK VINA RESULT:    -6.155      2.098      8.038
REMARK INTER + INTRA:          -6.390
REMARK INTER:                  -6.829
REMARK INTRA:                   0.439
REMARK UNBOUND:                 0.305
REMARK SMILES C[C@H]1[C@H]2C3=CC[C@@H]4[C@]5(C)CC[C@@H](O)C(C)(C)[C@H]5CC[C@@]4(C)[C@@]3(C)CC[C@]2(C(=O)[O-])CC[C@@H]1C
REMARK SMILES IDX 26 1 30 2 25 3 3 4 31 5 24 6 4 7 2 8 32 9 22 10 5 11 1 12
REMARK SMILES IDX 33 13 23 14 20 15 6 16 7 17 19 18 21 19 8 20 18 21 17 22
REMARK SMILES IDX 10 23 9 24 14 25 11 26 12 27 15 28 16 29 27 30 28 31 29 32
REMARK SMILES IDX 13 33
REMARK H PARENT 13 34
REMARK Flexibility Score: inf
ROOT
ATOM      1  C   UNL     1     170.978 144.994 148.332  1.00  0.00     0.017 C 
ATOM      2  C   UNL     1     170.342 145.984 147.311  1.00  0.00     0.014 C 
ATOM      3  C   UNL     1     171.624 145.768 149.544  1.00  0.00     0.014 C 
ATOM      4  C   UNL     1     169.820 144.080 148.837  1.00  0.00     0.030 C 
ATOM      5  C   UNL     1     169.607 145.248 146.165  1.00  0.00     0.004 C 
ATOM      6  C   UNL     1     170.794 145.879 150.863  1.00  0.00     0.013 C 
ATOM      7  C   UNL     1     170.132 143.520 150.220  1.00  0.00    -0.063 C 
ATOM      8  C   UNL     1     169.024 143.275 147.757  1.00  0.00    -0.003 C 
ATOM      9  C   UNL     1     168.513 144.255 146.643  1.00  0.00    -0.011 C 
ATOM     10  C   UNL     1     170.014 144.577 151.360  1.00  0.00    -0.006 C 
ATOM     11  C   UNL     1     170.897 142.397 150.348  1.00  0.00    -0.027 C 
ATOM     12  C   UNL     1     169.738 142.070 147.114  1.00  0.00     0.008 C 
ATOM     13  C   UNL     1     167.231 145.001 147.061  1.00  0.00     0.008 C 
ATOM     14  C   UNL     1     168.502 144.973 151.534  1.00  0.00     0.017 C 
ATOM     15  C   UNL     1     170.553 143.942 152.741  1.00  0.00    -0.020 C 
ATOM     16  C   UNL     1     171.772 142.075 151.548  1.00  0.00     0.032 C 
ATOM     17  C   UNL     1     171.980 143.332 152.421  1.00  0.00     0.006 C 
ATOM     18  C   UNL     1     170.651 144.972 153.928  1.00  0.00     0.008 C 
ATOM     19  C   UNL     1     169.501 142.841 153.185  1.00  0.00     0.012 C 
ATOM     20  C   UNL     1     173.038 143.290 153.629  1.00  0.00    -0.025 C 
ATOM     21  C   UNL     1     171.338 144.434 155.215  1.00  0.00     0.005 C 
ATOM     22  C   UNL     1     172.253 143.204 154.983  1.00  0.00     0.003 C 
ATOM     23  C   UNL     1     174.076 142.114 153.551  1.00  0.00     0.010 C 
ATOM     24  C   UNL     1     173.889 144.602 153.538  1.00  0.00     0.012 C 
ATOM     25  C   UNL     1     173.056 142.651 156.225  1.00  0.00    -0.006 C 
ATOM     26  C   UNL     1     173.667 140.885 154.365  1.00  0.00     0.033 C 
ATOM     27  C   UNL     1     173.583 141.192 155.883  1.00  0.00     0.120 C 
ATOM     28  C   UNL     1     174.216 143.586 156.656  1.00  0.00     0.014 C 
ATOM     29  C   UNL     1     172.102 142.535 157.445  1.00  0.00     0.014 C 
ENDROOT
BRANCH   1  30
ATOM     30  C   UNL     1     172.112 144.226 147.653  1.00  0.00     0.048 C 
ATOM     31  O   UNL     1     172.693 143.281 148.245  1.00  0.00    -0.550 OA
ATOM     32  O   UNL     1     172.619 144.640 146.426  1.00  0.00    -0.550 OA
ENDBRANCH   1  30
BRANCH  27  33
ATOM     33  O   UNL     1     174.837 140.940 156.471  1.00  0.00    -0.393 OA
ATOM     34  H   UNL     1     175.387 141.756 156.335  1.00  0.00     0.210 HD
ENDBRANCH  27  33
TORSDOF 2
ENDMDL
MODEL 7
REMARK VINA RESULT:    -6.139      2.193      7.804
REMARK INTER + INTRA:          -6.372
REMARK INTER:                  -7.317
REMARK INTRA:                   0.945
REMARK UNBOUND:                 0.305
REMARK SMILES C[C@H]1[C@H]2C3=CC[C@@H]4[C@]5(C)CC[C@@H](O)C(C)(C)[C@H]5CC[C@@]4(C)[C@@]3(C)CC[C@]2(C(=O)[O-])CC[C@@H]1C
REMARK SMILES IDX 26 1 30 2 25 3 3 4 31 5 24 6 4 7 2 8 32 9 22 10 5 11 1 12
REMARK SMILES IDX 33 13 23 14 20 15 6 16 7 17 19 18 21 19 8 20 18 21 17 22
REMARK SMILES IDX 10 23 9 24 14 25 11 26 12 27 15 28 16 29 27 30 28 31 29 32
REMARK SMILES IDX 13 33
REMARK H PARENT 13 34
REMARK Flexibility Score: inf
ROOT
ATOM      1  C   UNL     1     170.685 142.596 151.761  1.00  0.00     0.017 C 
ATOM      2  C   UNL     1     170.360 141.768 150.481  1.00  0.00     0.014 C 
ATOM      3  C   UNL     1     170.887 141.653 153.009  1.00  0.00     0.014 C 
ATOM      4  C   UNL     1     172.001 143.373 151.458  1.00  0.00     0.030 C 
ATOM      5  C   UNL     1     170.261 142.660 149.220  1.00  0.00     0.004 C 
ATOM      6  C   UNL     1     172.351 141.296 153.422  1.00  0.00     0.013 C 
ATOM      7  C   UNL     1     172.746 143.705 152.747  1.00  0.00    -0.063 C 
ATOM      8  C   UNL     1     172.001 144.319 150.212  1.00  0.00    -0.003 C 
ATOM      9  C   UNL     1     171.524 143.522 148.948  1.00  0.00    -0.011 C 
ATOM     10  C   UNL     1     173.433 142.471 153.405  1.00  0.00    -0.006 C 
ATOM     11  C   UNL     1     172.410 144.817 153.464  1.00  0.00    -0.027 C 
ATOM     12  C   UNL     1     171.212 145.638 150.334  1.00  0.00     0.008 C 
ATOM     13  C   UNL     1     172.652 142.673 148.329  1.00  0.00     0.008 C 
ATOM     14  C   UNL     1     174.621 142.000 152.487  1.00  0.00     0.017 C 
ATOM     15  C   UNL     1     174.018 142.884 154.849  1.00  0.00    -0.020 C 
ATOM     16  C   UNL     1     172.584 144.964 154.967  1.00  0.00     0.032 C 
ATOM     17  C   UNL     1     172.826 143.588 155.623  1.00  0.00     0.006 C 
ATOM     18  C   UNL     1     174.578 141.675 155.688  1.00  0.00     0.008 C 
ATOM     19  C   UNL     1     175.241 143.861 154.590  1.00  0.00     0.012 C 
ATOM     20  C   UNL     1     172.830 143.464 157.225  1.00  0.00    -0.025 C 
ATOM     21  C   UNL     1     174.977 142.015 157.151  1.00  0.00     0.005 C 
ATOM     22  C   UNL     1     174.309 143.296 157.714  1.00  0.00     0.003 C 
ATOM     23  C   UNL     1     172.163 144.671 157.977  1.00  0.00     0.010 C 
ATOM     24  C   UNL     1     171.957 142.214 157.589  1.00  0.00     0.012 C 
ATOM     25  C   UNL     1     174.594 143.663 159.223  1.00  0.00    -0.006 C 
ATOM     26  C   UNL     1     173.166 145.733 158.433  1.00  0.00     0.033 C 
ATOM     27  C   UNL     1     174.176 145.175 159.469  1.00  0.00     0.120 C 
ATOM     28  C   UNL     1     173.883 142.709 160.218  1.00  0.00     0.014 C 
ATOM     29  C   UNL     1     176.117 143.541 159.504  1.00  0.00     0.014 C 
ENDROOT
BRANCH   1  30
ATOM     30  C   UNL     1     169.500 143.504 152.091  1.00  0.00     0.048 C 
ATOM     31  O   UNL     1     168.999 144.251 151.212  1.00  0.00    -0.550 OA
ATOM     32  O   UNL     1     169.039 143.628 153.397  1.00  0.00    -0.550 OA
ENDBRANCH   1  30
BRANCH  27  33
ATOM     33  O   UNL     1     173.657 145.368 160.763  1.00  0.00    -0.393 OA
ATOM     34  H   UNL     1     172.976 144.660 160.909  1.00  0.00     0.210 HD
ENDBRANCH  27  33
TORSDOF 2
ENDMDL
MODEL 8
REMARK VINA RESULT:    -5.890      1.825      3.380
REMARK INTER + INTRA:          -6.102
REMARK INTER:                  -6.425
REMARK INTRA:                   0.323
REMARK UNBOUND:                 0.305
REMARK SMILES C[C@H]1[C@H]2C3=CC[C@@H]4[C@]5(C)CC[C@@H](O)C(C)(C)[C@H]5CC[C@@]4(C)[C@@]3(C)CC[C@]2(C(=O)[O-])CC[C@@H]1C
REMARK SMILES IDX 26 1 30 2 25 3 3 4 31 5 24 6 4 7 2 8 32 9 22 10 5 11 1 12
REMARK SMILES IDX 33 13 23 14 20 15 6 16 7 17 19 18 21 19 8 20 18 21 17 22
REMARK SMILES IDX 10 23 9 24 14 25 11 26 12 27 15 28 16 29 27 30 28 31 29 32
REMARK SMILES IDX 13 33
REMARK H PARENT 13 34
REMARK Flexibility Score: inf
ROOT
ATOM      1  C   UNL     1     172.253 144.297 157.965  1.00  0.00     0.017 C 
ATOM      2  C   UNL     1     172.910 144.951 159.218  1.00  0.00     0.014 C 
ATOM      3  C   UNL     1     172.651 145.071 156.649  1.00  0.00     0.014 C 
ATOM      4  C   UNL     1     172.782 142.833 157.905  1.00  0.00     0.030 C 
ATOM      5  C   UNL     1     172.623 144.149 160.511  1.00  0.00     0.004 C 
ATOM      6  C   UNL     1     173.811 144.484 155.782  1.00  0.00     0.013 C 
ATOM      7  C   UNL     1     172.740 142.296 156.478  1.00  0.00    -0.063 C 
ATOM      8  C   UNL     1     172.526 141.930 159.157  1.00  0.00    -0.003 C 
ATOM      9  C   UNL     1     173.050 142.657 160.444  1.00  0.00    -0.011 C 
ATOM     10  C   UNL     1     173.838 142.903 155.552  1.00  0.00    -0.006 C 
ATOM     11  C   UNL     1     171.587 141.761 155.982  1.00  0.00    -0.027 C 
ATOM     12  C   UNL     1     171.084 141.434 159.380  1.00  0.00     0.008 C 
ATOM     13  C   UNL     1     174.574 142.508 160.623  1.00  0.00     0.008 C 
ATOM     14  C   UNL     1     175.246 142.385 156.024  1.00  0.00     0.017 C 
ATOM     15  C   UNL     1     173.585 142.428 154.033  1.00  0.00    -0.020 C 
ATOM     16  C   UNL     1     171.195 141.755 154.513  1.00  0.00     0.032 C 
ATOM     17  C   UNL     1     172.065 142.749 153.716  1.00  0.00     0.006 C 
ATOM     18  C   UNL     1     174.524 143.121 152.976  1.00  0.00     0.008 C 
ATOM     19  C   UNL     1     173.907 140.875 153.975  1.00  0.00     0.012 C 
ATOM     20  C   UNL     1     171.697 143.073 152.186  1.00  0.00    -0.025 C 
ATOM     21  C   UNL     1     174.181 142.821 151.490  1.00  0.00     0.005 C 
ATOM     22  C   UNL     1     172.725 142.342 151.255  1.00  0.00     0.003 C 
ATOM     23  C   UNL     1     170.237 142.676 151.765  1.00  0.00     0.010 C 
ATOM     24  C   UNL     1     171.771 144.629 152.016  1.00  0.00     0.012 C 
ATOM     25  C   UNL     1     172.271 142.100 149.763  1.00  0.00    -0.006 C 
ATOM     26  C   UNL     1     170.146 141.300 151.102  1.00  0.00     0.033 C 
ATOM     27  C   UNL     1     170.934 141.242 149.768  1.00  0.00     0.120 C 
ATOM     28  C   UNL     1     172.094 143.419 148.967  1.00  0.00     0.014 C 
ATOM     29  C   UNL     1     173.359 141.277 149.020  1.00  0.00     0.014 C 
ENDROOT
BRANCH   1  30
ATOM     30  C   UNL     1     170.732 144.395 158.082  1.00  0.00     0.048 C 
ATOM     31  O   UNL     1     170.007 144.393 157.055  1.00  0.00    -0.550 OA
ATOM     32  O   UNL     1     170.125 144.626 159.312  1.00  0.00    -0.550 OA
ENDBRANCH   1  30
BRANCH  27  33
ATOM     33  O   UNL     1     170.077 141.607 148.714  1.00  0.00    -0.393 OA
ATOM     34  H   UNL     1     170.331 142.527 148.441  1.00  0.00     0.210 HD
ENDBRANCH  27  33
TORSDOF 2
ENDMDL
MODEL 9
REMARK VINA RESULT:    -5.837      2.020      3.756
REMARK INTER + INTRA:          -6.043
REMARK INTER:                  -6.564
REMARK INTRA:                   0.520
REMARK UNBOUND:                 0.305
REMARK SMILES C[C@H]1[C@H]2C3=CC[C@@H]4[C@]5(C)CC[C@@H](O)C(C)(C)[C@H]5CC[C@@]4(C)[C@@]3(C)CC[C@]2(C(=O)[O-])CC[C@@H]1C
REMARK SMILES IDX 26 1 30 2 25 3 3 4 31 5 24 6 4 7 2 8 32 9 22 10 5 11 1 12
REMARK SMILES IDX 33 13 23 14 20 15 6 16 7 17 19 18 21 19 8 20 18 21 17 22
REMARK SMILES IDX 10 23 9 24 14 25 11 26 12 27 15 28 16 29 27 30 28 31 29 32
REMARK SMILES IDX 13 33
REMARK H PARENT 13 34
REMARK Flexibility Score: inf
ROOT
ATOM      1  C   UNL     1     173.662 144.901 158.074  1.00  0.00     0.017 C 
ATOM      2  C   UNL     1     174.581 145.577 159.135  1.00  0.00     0.014 C 
ATOM      3  C   UNL     1     173.945 145.475 156.632  1.00  0.00     0.014 C 
ATOM      4  C   UNL     1     173.989 143.378 158.116  1.00  0.00     0.030 C 
ATOM      5  C   UNL     1     174.400 144.958 160.542  1.00  0.00     0.004 C 
ATOM      6  C   UNL     1     174.875 144.647 155.688  1.00  0.00     0.013 C 
ATOM      7  C   UNL     1     173.660 142.713 156.784  1.00  0.00    -0.063 C 
ATOM      8  C   UNL     1     173.820 142.650 159.491  1.00  0.00    -0.003 C 
ATOM      9  C   UNL     1     174.623 143.422 160.596  1.00  0.00    -0.011 C 
ATOM     10  C   UNL     1     174.669 143.063 155.648  1.00  0.00    -0.006 C 
ATOM     11  C   UNL     1     172.387 142.298 156.522  1.00  0.00    -0.027 C 
ATOM     12  C   UNL     1     172.378 142.388 159.972  1.00  0.00     0.008 C 
ATOM     13  C   UNL     1     176.125 143.079 160.576  1.00  0.00     0.008 C 
ATOM     14  C   UNL     1     176.057 142.402 155.977  1.00  0.00     0.017 C 
ATOM     15  C   UNL     1     174.127 142.479 154.247  1.00  0.00    -0.020 C 
ATOM     16  C   UNL     1     171.775 142.201 155.134  1.00  0.00     0.032 C 
ATOM     17  C   UNL     1     172.628 142.978 154.109  1.00  0.00     0.006 C 
ATOM     18  C   UNL     1     174.970 142.924 152.994  1.00  0.00     0.008 C 
ATOM     19  C   UNL     1     174.240 140.898 154.331  1.00  0.00     0.012 C 
ATOM     20  C   UNL     1     172.071 143.195 152.618  1.00  0.00    -0.025 C 
ATOM     21  C   UNL     1     174.367 142.527 151.617  1.00  0.00     0.005 C 
ATOM     22  C   UNL     1     172.844 142.237 151.648  1.00  0.00     0.003 C 
ATOM     23  C   UNL     1     170.526 142.968 152.456  1.00  0.00     0.010 C 
ATOM     24  C   UNL     1     172.311 144.700 152.254  1.00  0.00     0.012 C 
ATOM     25  C   UNL     1     172.138 141.913 150.273  1.00  0.00    -0.006 C 
ATOM     26  C   UNL     1     170.163 141.559 151.983  1.00  0.00     0.033 C 
ATOM     27  C   UNL     1     170.722 141.257 150.568  1.00  0.00     0.120 C 
ATOM     28  C   UNL     1     172.005 143.158 149.357  1.00  0.00     0.014 C 
ATOM     29  C   UNL     1     172.987 140.875 149.489  1.00  0.00     0.014 C 
ENDROOT
BRANCH   1  30
ATOM     30  C   UNL     1     172.202 145.223 158.390  1.00  0.00     0.048 C 
ATOM     31  O   UNL     1     171.887 145.784 159.470  1.00  0.00    -0.550 OA
ATOM     32  O   UNL     1     171.178 144.780 157.559  1.00  0.00    -0.550 OA
ENDBRANCH   1  30
BRANCH  27  33
ATOM     33  O   UNL     1     169.764 141.631 149.608  1.00  0.00    -0.393 OA
ATOM     34  H   UNL     1     168.901 141.736 150.087  1.00  0.00     0.210 HD
ENDBRANCH  27  33
TORSDOF 2
ENDMDL
