MODEL 1
REMARK VINA RESULT:    -0.932      0.000      0.000
REMARK INTER + INTRA:          -4.078
REMARK INTER:                  -2.458
REMARK INTRA:                  -1.620
REMARK UNBOUND:                -1.620
REMARK SMILES CCCCCCCCCCCCCCCCCCCCCCCCCCCCCC(=O)[O-]
REMARK SMILES IDX 16 1 17 2 18 3 19 4 20 5 21 6 22 7 23 8 24 9 25 10 26 11
REMARK SMILES IDX 27 12 28 13 29 14 30 15 31 16 32 17 15 18 14 19 13 20 12 21
REMARK SMILES IDX 11 22 10 23 9 24 8 25 7 26 6 27 5 28 4 29 3 30 2 31 1 32
REMARK H PARENT
REMARK Flexibility Score: inf
ROOT
ATOM      1  C   UNL     1      30.979  30.953  31.879  1.00  0.00     0.000 C 
ENDROOT
BRANCH   1   2
ATOM      2  C   UNL     1      31.124  29.676  32.731  1.00  0.00     0.000 C 
BRANCH   2   3
ATOM      3  C   UNL     1      30.318  28.460  32.230  1.00  0.00     0.000 C 
BRANCH   3   4
ATOM      4  C   UNL     1      30.180  27.304  33.242  1.00  0.00     0.000 C 
BRANCH   4   5
ATOM      5  C   UNL     1      30.557  27.656  34.692  1.00  0.00     0.000 C 
BRANCH   5   6
ATOM      6  C   UNL     1      30.072  29.053  35.112  1.00  0.00     0.000 C 
BRANCH   6   7
ATOM      7  C   UNL     1      30.304  29.338  36.605  1.00  0.00     0.000 C 
BRANCH   7   8
ATOM      8  C   UNL     1      31.070  30.646  36.851  1.00  0.00     0.000 C 
BRANCH   8   9
ATOM      9  C   UNL     1      30.862  31.629  35.691  1.00  0.00     0.000 C 
BRANCH   9  10
ATOM     10  C   UNL     1      30.966  33.082  36.172  1.00  0.00     0.000 C 
BRANCH  10  11
ATOM     11  C   UNL     1      29.581  33.645  36.526  1.00  0.00     0.000 C 
BRANCH  11  12
ATOM     12  C   UNL     1      28.562  33.487  35.386  1.00  0.00     0.000 C 
BRANCH  12  13
ATOM     13  C   UNL     1      27.739  32.194  35.500  1.00  0.00     0.006 C 
BRANCH  13  14
ATOM     14  C   UNL     1      26.459  32.428  36.312  1.00  0.00     0.053 C 
BRANCH  14  15
ATOM     15  C   UNL     1      25.438  33.155  35.493  1.00  0.00     0.041 C 
ATOM     16  O   UNL     1      25.113  34.338  35.787  1.00  0.00    -0.550 OA
ATOM     17  O   UNL     1      24.867  32.540  34.386  1.00  0.00    -0.550 OA
ENDBRANCH  14  15
ENDBRANCH  13  14
ENDBRANCH  12  13
ENDBRANCH  11  12
ENDBRANCH  10  11
ENDBRANCH   9  10
ENDBRANCH   8   9
ENDBRANCH   7   8
ENDBRANCH   6   7
ENDBRANCH   5   6
ENDBRANCH   4   5
ENDBRANCH   3   4
ENDBRANCH   2   3
ENDBRANCH   1   2
BRANCH   1  18
ATOM     18  C   UNL     1      31.124  30.736  30.362  1.00  0.00     0.000 C 
BRANCH  18  19
ATOM     19  C   UNL     1      31.125  32.056  29.570  1.00  0.00     0.000 C 
BRANCH  19  20
ATOM     20  C   UNL     1      29.847  32.238  28.736  1.00  0.00     0.000 C 
BRANCH  20  21
ATOM     21  C   UNL     1      28.755  33.011  29.496  1.00  0.00     0.000 C 
BRANCH  21  22
ATOM     22  C   UNL     1      29.204  33.412  30.919  1.00  0.00     0.000 C 
BRANCH  22  23
ATOM     23  C   UNL     1      28.037  33.650  31.893  1.00  0.00     0.000 C 
BRANCH  23  24
ATOM     24  C   UNL     1      26.991  34.630  31.342  1.00  0.00    -0.000 C 
BRANCH  24  25
ATOM     25  C   UNL     1      26.082  35.156  32.463  1.00  0.00    -0.000 C 
BRANCH  25  26
ATOM     26  C   UNL     1      25.973  36.690  32.468  1.00  0.00    -0.000 C 
BRANCH  26  27
ATOM     27  C   UNL     1      27.147  37.364  33.197  1.00  0.00    -0.000 C 
BRANCH  27  28
ATOM     28  C   UNL     1      26.917  38.869  33.418  1.00  0.00    -0.000 C 
BRANCH  28  29
ATOM     29  C   UNL     1      26.819  39.247  34.904  1.00  0.00    -0.000 C 
BRANCH  29  30
ATOM     30  C   UNL     1      25.645  40.208  35.149  1.00  0.00    -0.000 C 
BRANCH  30  31
ATOM     31  C   UNL     1      25.013  40.717  33.844  1.00  0.00    -0.003 C 
ATOM     32  C   UNL     1      25.068  42.239  33.713  1.00  0.00     0.004 C 
ENDBRANCH  30  31
ENDBRANCH  29  30
ENDBRANCH  28  29
ENDBRANCH  27  28
ENDBRANCH  26  27
ENDBRANCH  25  26
ENDBRANCH  24  25
ENDBRANCH  23  24
ENDBRANCH  22  23
ENDBRANCH  21  22
ENDBRANCH  20  21
ENDBRANCH  19  20
ENDBRANCH  18  19
ENDBRANCH   1  18
TORSDOF 28
ENDMDL
MODEL 2
REMARK VINA RESULT:    -0.260      4.859      8.464
REMARK INTER + INTRA:          -2.306
REMARK INTER:                   0.367
REMARK INTRA:                  -2.674
REMARK UNBOUND:                -1.620
REMARK SMILES CCCCCCCCCCCCCCCCCCCCCCCCCCCCCC(=O)[O-]
REMARK SMILES IDX 16 1 17 2 18 3 19 4 20 5 21 6 22 7 23 8 24 9 25 10 26 11
REMARK SMILES IDX 27 12 28 13 29 14 30 15 31 16 32 17 15 18 14 19 13 20 12 21
REMARK SMILES IDX 11 22 10 23 9 24 8 25 7 26 6 27 5 28 4 29 3 30 2 31 1 32
REMARK H PARENT
REMARK Flexibility Score: inf
ROOT
ATOM      1  C   UNL     1      29.263  32.063  33.460  1.00  0.00     0.000 C 
ENDROOT
BRANCH   1   2
ATOM      2  C   UNL     1      28.767  33.375  32.817  1.00  0.00     0.000 C 
BRANCH   2   3
ATOM      3  C   UNL     1      28.599  33.328  31.284  1.00  0.00     0.000 C 
BRANCH   3   4
ATOM      4  C   UNL     1      27.395  34.121  30.733  1.00  0.00     0.000 C 
BRANCH   4   5
ATOM      5  C   UNL     1      26.114  33.296  30.515  1.00  0.00     0.000 C 
BRANCH   5   6
ATOM      6  C   UNL     1      24.861  34.171  30.350  1.00  0.00     0.000 C 
BRANCH   6   7
ATOM      7  C   UNL     1      24.953  35.118  29.143  1.00  0.00     0.000 C 
BRANCH   7   8
ATOM      8  C   UNL     1      23.688  35.099  28.271  1.00  0.00     0.000 C 
BRANCH   8   9
ATOM      9  C   UNL     1      23.883  35.943  27.005  1.00  0.00     0.000 C 
BRANCH   9  10
ATOM     10  C   UNL     1      22.810  35.622  25.957  1.00  0.00     0.000 C 
BRANCH  10  11
ATOM     11  C   UNL     1      21.790  36.766  25.845  1.00  0.00     0.000 C 
BRANCH  11  12
ATOM     12  C   UNL     1      22.187  38.002  26.668  1.00  0.00     0.000 C 
BRANCH  12  13
ATOM     13  C   UNL     1      22.710  39.155  25.796  1.00  0.00     0.006 C 
BRANCH  13  14
ATOM     14  C   UNL     1      24.077  39.643  26.291  1.00  0.00     0.053 C 
BRANCH  14  15
ATOM     15  C   UNL     1      24.401  40.984  25.711  1.00  0.00     0.041 C 
ATOM     16  O   UNL     1      25.007  41.069  24.607  1.00  0.00    -0.550 OA
ATOM     17  O   UNL     1      24.009  42.142  26.372  1.00  0.00    -0.550 OA
ENDBRANCH  14  15
ENDBRANCH  13  14
ENDBRANCH  12  13
ENDBRANCH  11  12
ENDBRANCH  10  11
ENDBRANCH   9  10
ENDBRANCH   8   9
ENDBRANCH   7   8
ENDBRANCH   6   7
ENDBRANCH   5   6
ENDBRANCH   4   5
ENDBRANCH   3   4
ENDBRANCH   2   3
ENDBRANCH   1   2
BRANCH   1  18
ATOM     18  C   UNL     1      29.994  32.239  34.803  1.00  0.00     0.000 C 
BRANCH  18  19
ATOM     19  C   UNL     1      29.506  33.469  35.588  1.00  0.00     0.000 C 
BRANCH  19  20
ATOM     20  C   UNL     1      28.924  33.094  36.960  1.00  0.00     0.000 C 
BRANCH  20  21
ATOM     21  C   UNL     1      28.227  31.723  36.946  1.00  0.00     0.000 C 
BRANCH  21  22
ATOM     22  C   UNL     1      26.700  31.843  36.747  1.00  0.00     0.000 C 
BRANCH  22  23
ATOM     23  C   UNL     1      26.257  31.761  35.276  1.00  0.00     0.000 C 
BRANCH  23  24
ATOM     24  C   UNL     1      25.374  32.942  34.852  1.00  0.00    -0.000 C 
BRANCH  24  25
ATOM     25  C   UNL     1      25.597  34.157  35.765  1.00  0.00    -0.000 C 
BRANCH  25  26
ATOM     26  C   UNL     1      25.824  35.458  34.979  1.00  0.00    -0.000 C 
BRANCH  26  27
ATOM     27  C   UNL     1      26.806  35.278  33.808  1.00  0.00    -0.000 C 
BRANCH  27  28
ATOM     28  C   UNL     1      26.991  36.568  32.992  1.00  0.00    -0.000 C 
BRANCH  28  29
ATOM     29  C   UNL     1      26.286  37.780  33.621  1.00  0.00    -0.000 C 
BRANCH  29  30
ATOM     30  C   UNL     1      27.054  39.077  33.325  1.00  0.00    -0.000 C 
BRANCH  30  31
ATOM     31  C   UNL     1      26.548  40.269  34.153  1.00  0.00    -0.003 C 
ATOM     32  C   UNL     1      25.491  41.094  33.419  1.00  0.00     0.004 C 
ENDBRANCH  30  31
ENDBRANCH  29  30
ENDBRANCH  28  29
ENDBRANCH  27  28
ENDBRANCH  26  27
ENDBRANCH  25  26
ENDBRANCH  24  25
ENDBRANCH  23  24
ENDBRANCH  22  23
ENDBRANCH  21  22
ENDBRANCH  20  21
ENDBRANCH  19  20
ENDBRANCH  18  19
ENDBRANCH   1  18
TORSDOF 28
ENDMDL
MODEL 3
REMARK VINA RESULT:    -0.219      4.468      6.388
REMARK INTER + INTRA:          -2.196
REMARK INTER:                   0.342
REMARK INTRA:                  -2.538
REMARK UNBOUND:                -1.620
REMARK SMILES CCCCCCCCCCCCCCCCCCCCCCCCCCCCCC(=O)[O-]
REMARK SMILES IDX 16 1 17 2 18 3 19 4 20 5 21 6 22 7 23 8 24 9 25 10 26 11
REMARK SMILES IDX 27 12 28 13 29 14 30 15 31 16 32 17 15 18 14 19 13 20 12 21
REMARK SMILES IDX 11 22 10 23 9 24 8 25 7 26 6 27 5 28 4 29 3 30 2 31 1 32
REMARK H PARENT
REMARK Flexibility Score: inf
ROOT
ATOM      1  C   UNL     1      28.318  33.683  30.912  1.00  0.00     0.000 C 
ENDROOT
BRANCH   1   2
ATOM      2  C   UNL     1      28.143  33.997  32.413  1.00  0.00     0.000 C 
BRANCH   2   3
ATOM      3  C   UNL     1      27.759  35.455  32.734  1.00  0.00     0.000 C 
BRANCH   3   4
ATOM      4  C   UNL     1      26.380  35.637  33.403  1.00  0.00     0.000 C 
BRANCH   4   5
ATOM      5  C   UNL     1      26.180  34.851  34.711  1.00  0.00     0.000 C 
BRANCH   5   6
ATOM      6  C   UNL     1      25.713  33.406  34.474  1.00  0.00     0.000 C 
BRANCH   6   7
ATOM      7  C   UNL     1      26.466  32.389  35.348  1.00  0.00     0.000 C 
BRANCH   7   8
ATOM      8  C   UNL     1      26.863  32.957  36.718  1.00  0.00     0.000 C 
BRANCH   8   9
ATOM      9  C   UNL     1      28.355  32.732  36.993  1.00  0.00     0.000 C 
BRANCH   9  10
ATOM     10  C   UNL     1      29.215  33.247  35.831  1.00  0.00     0.000 C 
BRANCH  10  11
ATOM     11  C   UNL     1      30.650  32.708  35.929  1.00  0.00     0.000 C 
BRANCH  11  12
ATOM     12  C   UNL     1      30.989  31.705  34.814  1.00  0.00     0.000 C 
BRANCH  12  13
ATOM     13  C   UNL     1      30.059  30.483  34.811  1.00  0.00     0.006 C 
BRANCH  13  14
ATOM     14  C   UNL     1      30.864  29.178  34.810  1.00  0.00     0.053 C 
BRANCH  14  15
ATOM     15  C   UNL     1      30.451  28.302  33.670  1.00  0.00     0.041 C 
ATOM     16  O   UNL     1      29.993  28.811  32.611  1.00  0.00    -0.550 OA
ATOM     17  O   UNL     1      30.601  26.923  33.762  1.00  0.00    -0.550 OA
ENDBRANCH  14  15
ENDBRANCH  13  14
ENDBRANCH  12  13
ENDBRANCH  11  12
ENDBRANCH  10  11
ENDBRANCH   9  10
ENDBRANCH   8   9
ENDBRANCH   7   8
ENDBRANCH   6   7
ENDBRANCH   5   6
ENDBRANCH   4   5
ENDBRANCH   3   4
ENDBRANCH   2   3
ENDBRANCH   1   2
BRANCH   1  18
ATOM     18  C   UNL     1      27.151  34.137  30.018  1.00  0.00     0.000 C 
BRANCH  18  19
ATOM     19  C   UNL     1      25.796  33.566  30.473  1.00  0.00     0.000 C 
BRANCH  19  20
ATOM     20  C   UNL     1      24.614  34.444  30.033  1.00  0.00     0.000 C 
BRANCH  20  21
ATOM     21  C   UNL     1      24.734  34.898  28.568  1.00  0.00     0.000 C 
BRANCH  21  22
ATOM     22  C   UNL     1      23.405  35.460  28.017  1.00  0.00     0.000 C 
BRANCH  22  23
ATOM     23  C   UNL     1      23.304  35.421  26.483  1.00  0.00     0.000 C 
BRANCH  23  24
ATOM     24  C   UNL     1      22.352  36.487  25.920  1.00  0.00    -0.000 C 
BRANCH  24  25
ATOM     25  C   UNL     1      22.241  37.687  26.871  1.00  0.00    -0.000 C 
BRANCH  25  26
ATOM     26  C   UNL     1      22.556  39.024  26.180  1.00  0.00    -0.000 C 
BRANCH  26  27
ATOM     27  C   UNL     1      24.041  39.411  26.287  1.00  0.00    -0.000 C 
BRANCH  27  28
ATOM     28  C   UNL     1      24.366  40.710  25.532  1.00  0.00    -0.000 C 
BRANCH  28  29
ATOM     29  C   UNL     1      24.294  41.956  26.429  1.00  0.00    -0.000 C 
BRANCH  29  30
ATOM     30  C   UNL     1      24.529  41.587  27.902  1.00  0.00    -0.000 C 
BRANCH  30  31
ATOM     31  C   UNL     1      24.476  42.807  28.835  1.00  0.00    -0.003 C 
ATOM     32  C   UNL     1      24.315  44.125  28.079  1.00  0.00     0.004 C 
ENDBRANCH  30  31
ENDBRANCH  29  30
ENDBRANCH  28  29
ENDBRANCH  27  28
ENDBRANCH  26  27
ENDBRANCH  25  26
ENDBRANCH  24  25
ENDBRANCH  23  24
ENDBRANCH  22  23
ENDBRANCH  21  22
ENDBRANCH  20  21
ENDBRANCH  19  20
ENDBRANCH  18  19
ENDBRANCH   1  18
TORSDOF 28
ENDMDL
MODEL 4
REMARK VINA RESULT:    -0.043      4.311      6.525
REMARK INTER + INTRA:          -1.732
REMARK INTER:                   0.984
REMARK INTRA:                  -2.716
REMARK UNBOUND:                -1.620
REMARK SMILES CCCCCCCCCCCCCCCCCCCCCCCCCCCCCC(=O)[O-]
REMARK SMILES IDX 16 1 17 2 18 3 19 4 20 5 21 6 22 7 23 8 24 9 25 10 26 11
REMARK SMILES IDX 27 12 28 13 29 14 30 15 31 16 32 17 15 18 14 19 13 20 12 21
REMARK SMILES IDX 11 22 10 23 9 24 8 25 7 26 6 27 5 28 4 29 3 30 2 31 1 32
REMARK H PARENT
REMARK Flexibility Score: inf
ROOT
ATOM      1  C   UNL     1      29.620  33.619  34.798  1.00  0.00     0.000 C 
ENDROOT
BRANCH   1   2
ATOM      2  C   UNL     1      29.211  32.134  34.878  1.00  0.00     0.000 C 
BRANCH   2   3
ATOM      3  C   UNL     1      28.985  31.596  36.306  1.00  0.00     0.000 C 
BRANCH   3   4
ATOM      4  C   UNL     1      27.663  30.828  36.514  1.00  0.00     0.000 C 
BRANCH   4   5
ATOM      5  C   UNL     1      26.429  31.712  36.778  1.00  0.00     0.000 C 
BRANCH   5   6
ATOM      6  C   UNL     1      26.798  33.163  37.124  1.00  0.00     0.000 C 
BRANCH   6   7
ATOM      7  C   UNL     1      25.945  34.190  36.362  1.00  0.00     0.000 C 
BRANCH   7   8
ATOM      8  C   UNL     1      25.317  33.614  35.084  1.00  0.00     0.000 C 
BRANCH   8   9
ATOM      9  C   UNL     1      25.520  34.565  33.898  1.00  0.00     0.000 C 
BRANCH   9  10
ATOM     10  C   UNL     1      26.350  35.789  34.305  1.00  0.00     0.000 C 
BRANCH  10  11
ATOM     11  C   UNL     1      26.343  36.853  33.197  1.00  0.00     0.000 C 
BRANCH  11  12
ATOM     12  C   UNL     1      27.388  37.957  33.422  1.00  0.00     0.000 C 
BRANCH  12  13
ATOM     13  C   UNL     1      26.832  39.151  34.212  1.00  0.00     0.006 C 
BRANCH  13  14
ATOM     14  C   UNL     1      26.361  40.264  33.267  1.00  0.00     0.053 C 
BRANCH  14  15
ATOM     15  C   UNL     1      25.308  41.103  33.920  1.00  0.00     0.041 C 
ATOM     16  O   UNL     1      24.618  40.633  34.867  1.00  0.00    -0.550 OA
ATOM     17  O   UNL     1      25.107  42.414  33.507  1.00  0.00    -0.550 OA
ENDBRANCH  14  15
ENDBRANCH  13  14
ENDBRANCH  12  13
ENDBRANCH  11  12
ENDBRANCH  10  11
ENDBRANCH   9  10
ENDBRANCH   8   9
ENDBRANCH   7   8
ENDBRANCH   6   7
ENDBRANCH   5   6
ENDBRANCH   4   5
ENDBRANCH   3   4
ENDBRANCH   2   3
ENDBRANCH   1   2
BRANCH   1  18
ATOM     18  C   UNL     1      28.947  34.413  33.664  1.00  0.00     0.000 C 
BRANCH  18  19
ATOM     19  C   UNL     1      28.656  33.548  32.425  1.00  0.00     0.000 C 
BRANCH  19  20
ATOM     20  C   UNL     1      28.001  34.354  31.291  1.00  0.00     0.000 C 
BRANCH  20  21
ATOM     21  C   UNL     1      27.148  33.472  30.363  1.00  0.00     0.000 C 
BRANCH  21  22
ATOM     22  C   UNL     1      25.635  33.738  30.528  1.00  0.00     0.000 C 
BRANCH  22  23
ATOM     23  C   UNL     1      25.140  34.988  29.781  1.00  0.00     0.000 C 
BRANCH  23  24
ATOM     24  C   UNL     1      24.092  34.665  28.706  1.00  0.00    -0.000 C 
BRANCH  24  25
ATOM     25  C   UNL     1      24.035  35.768  27.639  1.00  0.00    -0.000 C 
BRANCH  25  26
ATOM     26  C   UNL     1      23.112  35.409  26.464  1.00  0.00    -0.000 C 
BRANCH  26  27
ATOM     27  C   UNL     1      22.394  36.637  25.877  1.00  0.00    -0.000 C 
BRANCH  27  28
ATOM     28  C   UNL     1      22.483  37.865  26.798  1.00  0.00    -0.000 C 
BRANCH  28  29
ATOM     29  C   UNL     1      22.605  39.186  26.022  1.00  0.00    -0.000 C 
BRANCH  29  30
ATOM     30  C   UNL     1      23.987  39.823  26.238  1.00  0.00    -0.000 C 
BRANCH  30  31
ATOM     31  C   UNL     1      24.668  40.223  24.919  1.00  0.00    -0.003 C 
ATOM     32  C   UNL     1      24.917  41.727  24.813  1.00  0.00     0.004 C 
ENDBRANCH  30  31
ENDBRANCH  29  30
ENDBRANCH  28  29
ENDBRANCH  27  28
ENDBRANCH  26  27
ENDBRANCH  25  26
ENDBRANCH  24  25
ENDBRANCH  23  24
ENDBRANCH  22  23
ENDBRANCH  21  22
ENDBRANCH  20  21
ENDBRANCH  19  20
ENDBRANCH  18  19
ENDBRANCH   1  18
TORSDOF 28
ENDMDL
MODEL 5
REMARK VINA RESULT:     0.116      4.387      6.186
REMARK INTER + INTRA:          -1.314
REMARK INTER:                   0.254
REMARK INTRA:                  -1.568
REMARK UNBOUND:                -1.620
REMARK SMILES CCCCCCCCCCCCCCCCCCCCCCCCCCCCCC(=O)[O-]
REMARK SMILES IDX 16 1 17 2 18 3 19 4 20 5 21 6 22 7 23 8 24 9 25 10 26 11
REMARK SMILES IDX 27 12 28 13 29 14 30 15 31 16 32 17 15 18 14 19 13 20 12 21
REMARK SMILES IDX 11 22 10 23 9 24 8 25 7 26 6 27 5 28 4 29 3 30 2 31 1 32
REMARK H PARENT
REMARK Flexibility Score: inf
ROOT
ATOM      1  C   UNL     1      28.379  33.571  32.605  1.00  0.00     0.000 C 
ENDROOT
BRANCH   1   2
ATOM      2  C   UNL     1      27.979  34.353  33.873  1.00  0.00     0.000 C 
BRANCH   2   3
ATOM      3  C   UNL     1      26.484  34.274  34.245  1.00  0.00     0.000 C 
BRANCH   3   4
ATOM      4  C   UNL     1      26.183  33.638  35.618  1.00  0.00     0.000 C 
BRANCH   4   5
ATOM      5  C   UNL     1      27.406  33.056  36.350  1.00  0.00     0.000 C 
BRANCH   5   6
ATOM      6  C   UNL     1      27.676  31.587  35.984  1.00  0.00     0.000 C 
BRANCH   6   7
ATOM      7  C   UNL     1      28.655  30.905  36.953  1.00  0.00     0.000 C 
BRANCH   7   8
ATOM      8  C   UNL     1      30.123  31.256  36.665  1.00  0.00     0.000 C 
BRANCH   8   9
ATOM      9  C   UNL     1      30.259  31.976  35.317  1.00  0.00     0.000 C 
BRANCH   9  10
ATOM     10  C   UNL     1      31.124  31.167  34.342  1.00  0.00     0.000 C 
BRANCH  10  11
ATOM     11  C   UNL     1      30.252  30.433  33.312  1.00  0.00     0.000 C 
BRANCH  11  12
ATOM     12  C   UNL     1      31.010  29.317  32.575  1.00  0.00     0.000 C 
BRANCH  12  13
ATOM     13  C   UNL     1      30.613  27.912  33.054  1.00  0.00     0.006 C 
BRANCH  13  14
ATOM     14  C   UNL     1      30.330  27.905  34.561  1.00  0.00     0.053 C 
BRANCH  14  15
ATOM     15  C   UNL     1      30.172  26.504  35.063  1.00  0.00     0.041 C 
ATOM     16  O   UNL     1      30.254  26.258  36.297  1.00  0.00    -0.550 OA
ATOM     17  O   UNL     1      29.903  25.471  34.172  1.00  0.00    -0.550 OA
ENDBRANCH  14  15
ENDBRANCH  13  14
ENDBRANCH  12  13
ENDBRANCH  11  12
ENDBRANCH  10  11
ENDBRANCH   9  10
ENDBRANCH   8   9
ENDBRANCH   7   8
ENDBRANCH   6   7
ENDBRANCH   5   6
ENDBRANCH   4   5
ENDBRANCH   3   4
ENDBRANCH   2   3
ENDBRANCH   1   2
BRANCH   1  18
ATOM     18  C   UNL     1      28.017  34.264  31.279  1.00  0.00     0.000 C 
BRANCH  18  19
ATOM     19  C   UNL     1      26.576  34.804  31.265  1.00  0.00     0.000 C 
BRANCH  19  20
ATOM     20  C   UNL     1      25.557  33.737  30.833  1.00  0.00     0.000 C 
BRANCH  20  21
ATOM     21  C   UNL     1      25.113  33.909  29.370  1.00  0.00     0.000 C 
BRANCH  21  22
ATOM     22  C   UNL     1      24.430  35.271  29.120  1.00  0.00     0.000 C 
BRANCH  22  23
ATOM     23  C   UNL     1      23.367  35.236  28.009  1.00  0.00     0.000 C 
BRANCH  23  24
ATOM     24  C   UNL     1      23.786  36.020  26.757  1.00  0.00    -0.000 C 
BRANCH  24  25
ATOM     25  C   UNL     1      22.591  36.764  26.143  1.00  0.00    -0.000 C 
BRANCH  25  26
ATOM     26  C   UNL     1      22.472  38.212  26.644  1.00  0.00    -0.000 C 
BRANCH  26  27
ATOM     27  C   UNL     1      23.805  38.977  26.566  1.00  0.00    -0.000 C 
BRANCH  27  28
ATOM     28  C   UNL     1      23.715  40.227  25.675  1.00  0.00    -0.000 C 
BRANCH  28  29
ATOM     29  C   UNL     1      24.385  41.459  26.304  1.00  0.00    -0.000 C 
BRANCH  29  30
ATOM     30  C   UNL     1      24.754  41.194  27.771  1.00  0.00    -0.000 C 
BRANCH  30  31
ATOM     31  C   UNL     1      24.672  42.458  28.641  1.00  0.00    -0.003 C 
ATOM     32  C   UNL     1      24.123  43.665  27.883  1.00  0.00     0.004 C 
ENDBRANCH  30  31
ENDBRANCH  29  30
ENDBRANCH  28  29
ENDBRANCH  27  28
ENDBRANCH  26  27
ENDBRANCH  25  26
ENDBRANCH  24  25
ENDBRANCH  23  24
ENDBRANCH  22  23
ENDBRANCH  21  22
ENDBRANCH  20  21
ENDBRANCH  19  20
ENDBRANCH  18  19
ENDBRANCH   1  18
TORSDOF 28
ENDMDL
MODEL 6
REMARK VINA RESULT:     0.468      4.406      9.234
REMARK INTER + INTRA:          -0.385
REMARK INTER:                   1.356
REMARK INTRA:                  -1.741
REMARK UNBOUND:                -1.620
REMARK SMILES CCCCCCCCCCCCCCCCCCCCCCCCCCCCCC(=O)[O-]
REMARK SMILES IDX 16 1 17 2 18 3 19 4 20 5 21 6 22 7 23 8 24 9 25 10 26 11
REMARK SMILES IDX 27 12 28 13 29 14 30 15 31 16 32 17 15 18 14 19 13 20 12 21
REMARK SMILES IDX 11 22 10 23 9 24 8 25 7 26 6 27 5 28 4 29 3 30 2 31 1 32
REMARK H PARENT
REMARK Flexibility Score: inf
ROOT
ATOM      1  C   UNL     1      25.087  33.384  31.341  1.00  0.00     0.000 C 
ENDROOT
BRANCH   1   2
ATOM      2  C   UNL     1      26.588  33.031  31.314  1.00  0.00     0.000 C 
BRANCH   2   3
ATOM      3  C   UNL     1      27.537  34.188  31.688  1.00  0.00     0.000 C 
BRANCH   3   4
ATOM      4  C   UNL     1      28.419  33.936  32.929  1.00  0.00     0.000 C 
BRANCH   4   5
ATOM      5  C   UNL     1      29.745  33.206  32.652  1.00  0.00     0.000 C 
BRANCH   5   6
ATOM      6  C   UNL     1      29.601  31.675  32.685  1.00  0.00     0.000 C 
BRANCH   6   7
ATOM      7  C   UNL     1      30.777  30.954  32.006  1.00  0.00     0.000 C 
BRANCH   7   8
ATOM      8  C   UNL     1      30.854  31.229  30.497  1.00  0.00     0.000 C 
BRANCH   8   9
ATOM      9  C   UNL     1      31.125  29.936  29.718  1.00  0.00     0.000 C 
BRANCH   9  10
ATOM     10  C   UNL     1      30.428  29.957  28.351  1.00  0.00     0.000 C 
BRANCH  10  11
ATOM     11  C   UNL     1      31.108  28.987  27.372  1.00  0.00     0.000 C 
BRANCH  11  12
ATOM     12  C   UNL     1      30.320  27.681  27.181  1.00  0.00     0.000 C 
BRANCH  12  13
ATOM     13  C   UNL     1      30.778  26.566  28.134  1.00  0.00     0.006 C 
BRANCH  13  14
ATOM     14  C   UNL     1      30.845  25.217  27.409  1.00  0.00     0.053 C 
BRANCH  14  15
ATOM     15  C   UNL     1      30.245  25.320  26.042  1.00  0.00     0.041 C 
ATOM     16  O   UNL     1      29.039  25.001  25.852  1.00  0.00    -0.550 OA
ATOM     17  O   UNL     1      31.006  25.796  24.981  1.00  0.00    -0.550 OA
ENDBRANCH  14  15
ENDBRANCH  13  14
ENDBRANCH  12  13
ENDBRANCH  11  12
ENDBRANCH  10  11
ENDBRANCH   9  10
ENDBRANCH   8   9
ENDBRANCH   7   8
ENDBRANCH   6   7
ENDBRANCH   5   6
ENDBRANCH   4   5
ENDBRANCH   3   4
ENDBRANCH   2   3
ENDBRANCH   1   2
BRANCH   1  18
ATOM     18  C   UNL     1      24.248  32.562  32.336  1.00  0.00     0.000 C 
BRANCH  18  19
ATOM     19  C   UNL     1      25.039  32.171  33.598  1.00  0.00     0.000 C 
BRANCH  19  20
ATOM     20  C   UNL     1      24.659  33.032  34.814  1.00  0.00     0.000 C 
BRANCH  20  21
ATOM     21  C   UNL     1      25.682  34.149  35.083  1.00  0.00     0.000 C 
BRANCH  21  22
ATOM     22  C   UNL     1      26.693  33.767  36.186  1.00  0.00     0.000 C 
BRANCH  22  23
ATOM     23  C   UNL     1      26.263  32.554  37.028  1.00  0.00     0.000 C 
BRANCH  23  24
ATOM     24  C   UNL     1      27.184  31.340  36.840  1.00  0.00    -0.000 C 
BRANCH  24  25
ATOM     25  C   UNL     1      28.648  31.706  37.124  1.00  0.00    -0.000 C 
BRANCH  25  26
ATOM     26  C   UNL     1      29.414  32.115  35.856  1.00  0.00    -0.000 C 
BRANCH  26  27
ATOM     27  C   UNL     1      30.896  31.704  35.901  1.00  0.00    -0.000 C 
BRANCH  27  28
ATOM     28  C   UNL     1      31.117  30.251  35.448  1.00  0.00    -0.000 C 
BRANCH  28  29
ATOM     29  C   UNL     1      29.802  29.477  35.260  1.00  0.00    -0.000 C 
BRANCH  29  30
ATOM     30  C   UNL     1      30.000  28.280  34.318  1.00  0.00    -0.000 C 
BRANCH  30  31
ATOM     31  C   UNL     1      31.014  27.260  34.860  1.00  0.00    -0.003 C 
ATOM     32  C   UNL     1      30.453  25.841  34.922  1.00  0.00     0.004 C 
ENDBRANCH  30  31
ENDBRANCH  29  30
ENDBRANCH  28  29
ENDBRANCH  27  28
ENDBRANCH  26  27
ENDBRANCH  25  26
ENDBRANCH  24  25
ENDBRANCH  23  24
ENDBRANCH  22  23
ENDBRANCH  21  22
ENDBRANCH  20  21
ENDBRANCH  19  20
ENDBRANCH  18  19
ENDBRANCH   1  18
TORSDOF 28
ENDMDL
