MODEL 1
REMARK VINA RESULT:    -6.143      0.000      0.000
REMARK INTER + INTRA:         -12.999
REMARK INTER:                 -11.890
REMARK INTRA:                  -1.110
REMARK UNBOUND:                -1.110
REMARK SMILES CCCCCCCCCCCCCCCCCC(=O)[O-]
REMARK SMILES IDX 10 1 11 2 12 3 13 4 14 5 15 6 16 7 17 8 18 9 19 10 20 11
REMARK SMILES IDX 9 12 8 13 7 14 6 15 5 16 4 17 3 18 2 19 1 20
REMARK H PARENT
REMARK Flexibility Score: inf
ROOT
ATOM      1  C   UNL     1     -22.552 -31.345  24.225  1.00  0.00     0.000 C 
ENDROOT
BRANCH   1   2
ATOM      2  C   UNL     1     -21.684 -32.073  23.183  1.00  0.00     0.000 C 
BRANCH   2   3
ATOM      3  C   UNL     1     -20.178 -31.758  23.250  1.00  0.00     0.000 C 
BRANCH   3   4
ATOM      4  C   UNL     1     -19.858 -30.560  24.160  1.00  0.00     0.000 C 
BRANCH   4   5
ATOM      5  C   UNL     1     -18.413 -30.057  23.998  1.00  0.00     0.000 C 
BRANCH   5   6
ATOM      6  C   UNL     1     -17.384 -31.138  23.609  1.00  0.00     0.000 C 
BRANCH   6   7
ATOM      7  C   UNL     1     -16.366 -30.676  22.545  1.00  0.00     0.006 C 
BRANCH   7   8
ATOM      8  C   UNL     1     -16.614 -29.230  22.093  1.00  0.00     0.053 C 
BRANCH   8   9
ATOM      9  C   UNL     1     -16.427 -29.104  20.615  1.00  0.00     0.041 C 
ATOM     10  O   UNL     1     -16.117 -27.995  20.107  1.00  0.00    -0.550 OA
ATOM     11  O   UNL     1     -16.645 -30.202  19.792  1.00  0.00    -0.550 OA
ENDBRANCH   8   9
ENDBRANCH   7   8
ENDBRANCH   6   7
ENDBRANCH   5   6
ENDBRANCH   4   5
ENDBRANCH   3   4
ENDBRANCH   2   3
ENDBRANCH   1   2
BRANCH   1  12
ATOM     12  C   UNL     1     -23.926 -32.008  24.429  1.00  0.00     0.000 C 
BRANCH  12  13
ATOM     13  C   UNL     1     -24.135 -32.495  25.872  1.00  0.00    -0.000 C 
BRANCH  13  14
ATOM     14  C   UNL     1     -25.386 -33.378  26.019  1.00  0.00    -0.000 C 
BRANCH  14  15
ATOM     15  C   UNL     1     -26.618 -32.595  26.512  1.00  0.00    -0.000 C 
BRANCH  15  16
ATOM     16  C   UNL     1     -27.561 -32.090  25.404  1.00  0.00    -0.000 C 
BRANCH  16  17
ATOM     17  C   UNL     1     -27.775 -33.123  24.283  1.00  0.00    -0.000 C 
BRANCH  17  18
ATOM     18  C   UNL     1     -27.301 -32.611  22.914  1.00  0.00    -0.000 C 
BRANCH  18  19
ATOM     19  C   UNL     1     -28.419 -32.614  21.860  1.00  0.00    -0.003 C 
ATOM     20  C   UNL     1     -29.557 -31.681  22.265  1.00  0.00     0.004 C 
ENDBRANCH  18  19
ENDBRANCH  17  18
ENDBRANCH  16  17
ENDBRANCH  15  16
ENDBRANCH  14  15
ENDBRANCH  13  14
ENDBRANCH  12  13
ENDBRANCH   1  12
TORSDOF 16
ENDMDL
MODEL 2
REMARK VINA RESULT:    -6.061      3.553      9.454
REMARK INTER + INTRA:         -12.840
REMARK INTER:                 -11.450
REMARK INTRA:                  -1.390
REMARK UNBOUND:                -1.110
REMARK SMILES CCCCCCCCCCCCCCCCCC(=O)[O-]
REMARK SMILES IDX 10 1 11 2 12 3 13 4 14 5 15 6 16 7 17 8 18 9 19 10 20 11
REMARK SMILES IDX 9 12 8 13 7 14 6 15 5 16 4 17 3 18 2 19 1 20
REMARK H PARENT
REMARK Flexibility Score: inf
ROOT
ATOM      1  C   UNL     1     -22.289 -31.834  23.131  1.00  0.00     0.000 C 
ENDROOT
BRANCH   1   2
ATOM      2  C   UNL     1     -23.106 -30.624  23.618  1.00  0.00     0.000 C 
BRANCH   2   3
ATOM      3  C   UNL     1     -23.968 -30.877  24.869  1.00  0.00     0.000 C 
BRANCH   3   4
ATOM      4  C   UNL     1     -23.954 -32.348  25.318  1.00  0.00     0.000 C 
BRANCH   4   5
ATOM      5  C   UNL     1     -25.317 -32.822  25.852  1.00  0.00     0.000 C 
BRANCH   5   6
ATOM      6  C   UNL     1     -26.376 -31.714  26.018  1.00  0.00     0.000 C 
BRANCH   6   7
ATOM      7  C   UNL     1     -27.526 -31.792  24.992  1.00  0.00     0.006 C 
BRANCH   7   8
ATOM      8  C   UNL     1     -27.414 -33.026  24.086  1.00  0.00     0.053 C 
BRANCH   8   9
ATOM      9  C   UNL     1     -27.243 -32.614  22.659  1.00  0.00     0.041 C 
ATOM     10  O   UNL     1     -28.185 -32.765  21.838  1.00  0.00    -0.550 OA
ATOM     11  O   UNL     1     -26.025 -32.107  22.224  1.00  0.00    -0.550 OA
ENDBRANCH   8   9
ENDBRANCH   7   8
ENDBRANCH   6   7
ENDBRANCH   5   6
ENDBRANCH   4   5
ENDBRANCH   3   4
ENDBRANCH   2   3
ENDBRANCH   1   2
BRANCH   1  12
ATOM     12  C   UNL     1     -20.784 -31.698  23.420  1.00  0.00     0.000 C 
BRANCH  12  13
ATOM     13  C   UNL     1     -20.424 -30.334  24.031  1.00  0.00    -0.000 C 
BRANCH  13  14
ATOM     14  C   UNL     1     -18.915 -30.188  24.293  1.00  0.00    -0.000 C 
BRANCH  14  15
ATOM     15  C   UNL     1     -18.077 -31.274  23.594  1.00  0.00    -0.000 C 
BRANCH  15  16
ATOM     16  C   UNL     1     -16.598 -30.913  23.360  1.00  0.00    -0.000 C 
BRANCH  16  17
ATOM     17  C   UNL     1     -16.307 -30.496  21.908  1.00  0.00    -0.000 C 
BRANCH  17  18
ATOM     18  C   UNL     1     -16.159 -28.974  21.751  1.00  0.00    -0.000 C 
BRANCH  18  19
ATOM     19  C   UNL     1     -16.423 -28.498  20.314  1.00  0.00    -0.003 C 
ATOM     20  C   UNL     1     -16.431 -29.672  19.339  1.00  0.00     0.004 C 
ENDBRANCH  18  19
ENDBRANCH  17  18
ENDBRANCH  16  17
ENDBRANCH  15  16
ENDBRANCH  14  15
ENDBRANCH  13  14
ENDBRANCH  12  13
ENDBRANCH   1  12
TORSDOF 16
ENDMDL
MODEL 3
REMARK VINA RESULT:    -5.988      3.273      8.815
REMARK INTER + INTRA:         -12.698
REMARK INTER:                 -11.171
REMARK INTRA:                  -1.528
REMARK UNBOUND:                -1.110
REMARK SMILES CCCCCCCCCCCCCCCCCC(=O)[O-]
REMARK SMILES IDX 10 1 11 2 12 3 13 4 14 5 15 6 16 7 17 8 18 9 19 10 20 11
REMARK SMILES IDX 9 12 8 13 7 14 6 15 5 16 4 17 3 18 2 19 1 20
REMARK H PARENT
REMARK Flexibility Score: inf
ROOT
ATOM      1  C   UNL     1     -24.263 -32.204  25.223  1.00  0.00     0.000 C 
ENDROOT
BRANCH   1   2
ATOM      2  C   UNL     1     -25.655 -31.720  25.668  1.00  0.00     0.000 C 
BRANCH   2   3
ATOM      3  C   UNL     1     -26.618 -32.831  26.128  1.00  0.00     0.000 C 
BRANCH   3   4
ATOM      4  C   UNL     1     -27.879 -32.929  25.252  1.00  0.00     0.000 C 
BRANCH   4   5
ATOM      5  C   UNL     1     -27.594 -33.528  23.863  1.00  0.00     0.000 C 
BRANCH   5   6
ATOM      6  C   UNL     1     -28.155 -32.719  22.675  1.00  0.00     0.000 C 
BRANCH   6   7
ATOM      7  C   UNL     1     -27.168 -31.678  22.108  1.00  0.00     0.006 C 
BRANCH   7   8
ATOM      8  C   UNL     1     -27.358 -30.292  22.738  1.00  0.00     0.053 C 
BRANCH   8   9
ATOM      9  C   UNL     1     -26.262 -29.368  22.313  1.00  0.00     0.041 C 
ATOM     10  O   UNL     1     -25.658 -28.666  23.165  1.00  0.00    -0.550 OA
ATOM     11  O   UNL     1     -25.940 -29.246  20.967  1.00  0.00    -0.550 OA
ENDBRANCH   8   9
ENDBRANCH   7   8
ENDBRANCH   6   7
ENDBRANCH   5   6
ENDBRANCH   4   5
ENDBRANCH   3   4
ENDBRANCH   2   3
ENDBRANCH   1   2
BRANCH   1  12
ATOM     12  C   UNL     1     -23.900 -31.756  23.796  1.00  0.00     0.000 C 
BRANCH  12  13
ATOM     13  C   UNL     1     -22.468 -31.204  23.700  1.00  0.00    -0.000 C 
BRANCH  13  14
ATOM     14  C   UNL     1     -22.191 -30.107  24.742  1.00  0.00    -0.000 C 
BRANCH  14  15
ATOM     15  C   UNL     1     -20.688 -29.896  25.006  1.00  0.00    -0.000 C 
BRANCH  15  16
ATOM     16  C   UNL     1     -19.743 -30.567  23.993  1.00  0.00    -0.000 C 
BRANCH  16  17
ATOM     17  C   UNL     1     -18.260 -30.259  24.262  1.00  0.00    -0.000 C 
BRANCH  17  18
ATOM     18  C   UNL     1     -17.318 -31.280  23.604  1.00  0.00    -0.000 C 
BRANCH  18  19
ATOM     19  C   UNL     1     -16.242 -30.616  22.731  1.00  0.00    -0.003 C 
ATOM     20  C   UNL     1     -16.625 -30.664  21.255  1.00  0.00     0.004 C 
ENDBRANCH  18  19
ENDBRANCH  17  18
ENDBRANCH  16  17
ENDBRANCH  15  16
ENDBRANCH  14  15
ENDBRANCH  13  14
ENDBRANCH  12  13
ENDBRANCH   1  12
TORSDOF 16
ENDMDL
MODEL 4
REMARK VINA RESULT:    -5.979      4.188      9.653
REMARK INTER + INTRA:         -12.681
REMARK INTER:                 -11.433
REMARK INTRA:                  -1.248
REMARK UNBOUND:                -1.110
REMARK SMILES CCCCCCCCCCCCCCCCCC(=O)[O-]
REMARK SMILES IDX 10 1 11 2 12 3 13 4 14 5 15 6 16 7 17 8 18 9 19 10 20 11
REMARK SMILES IDX 9 12 8 13 7 14 6 15 5 16 4 17 3 18 2 19 1 20
REMARK H PARENT
REMARK Flexibility Score: inf
ROOT
ATOM      1  C   UNL     1     -25.212 -31.446  25.266  1.00  0.00     0.000 C 
ENDROOT
BRANCH   1   2
ATOM      2  C   UNL     1     -25.999 -32.645  25.825  1.00  0.00     0.000 C 
BRANCH   2   3
ATOM      3  C   UNL     1     -27.129 -33.167  24.918  1.00  0.00     0.000 C 
BRANCH   3   4
ATOM      4  C   UNL     1     -26.917 -32.814  23.437  1.00  0.00     0.000 C 
BRANCH   4   5
ATOM      5  C   UNL     1     -28.022 -33.378  22.525  1.00  0.00     0.000 C 
BRANCH   5   6
ATOM      6  C   UNL     1     -29.095 -32.359  22.091  1.00  0.00     0.000 C 
BRANCH   6   7
ATOM      7  C   UNL     1     -28.770 -30.903  22.487  1.00  0.00     0.006 C 
BRANCH   7   8
ATOM      8  C   UNL     1     -29.548 -30.451  23.730  1.00  0.00     0.053 C 
BRANCH   8   9
ATOM      9  C   UNL     1     -28.630 -29.800  24.714  1.00  0.00     0.041 C 
ATOM     10  O   UNL     1     -28.761 -30.020  25.946  1.00  0.00    -0.550 OA
ATOM     11  O   UNL     1     -27.659 -28.908  24.273  1.00  0.00    -0.550 OA
ENDBRANCH   8   9
ENDBRANCH   7   8
ENDBRANCH   6   7
ENDBRANCH   5   6
ENDBRANCH   4   5
ENDBRANCH   3   4
ENDBRANCH   2   3
ENDBRANCH   1   2
BRANCH   1  12
ATOM     12  C   UNL     1     -23.717 -31.752  25.064  1.00  0.00     0.000 C 
BRANCH  12  13
ATOM     13  C   UNL     1     -23.098 -30.930  23.921  1.00  0.00    -0.000 C 
BRANCH  13  14
ATOM     14  C   UNL     1     -22.330 -31.806  22.917  1.00  0.00    -0.000 C 
BRANCH  14  15
ATOM     15  C   UNL     1     -20.839 -31.958  23.272  1.00  0.00    -0.000 C 
BRANCH  15  16
ATOM     16  C   UNL     1     -20.232 -30.791  24.073  1.00  0.00    -0.000 C 
BRANCH  16  17
ATOM     17  C   UNL     1     -18.983 -30.191  23.404  1.00  0.00    -0.000 C 
BRANCH  17  18
ATOM     18  C   UNL     1     -17.678 -30.657  24.070  1.00  0.00    -0.000 C 
BRANCH  18  19
ATOM     19  C   UNL     1     -16.631 -31.136  23.052  1.00  0.00    -0.003 C 
ATOM     20  C   UNL     1     -16.103 -29.972  22.218  1.00  0.00     0.004 C 
ENDBRANCH  18  19
ENDBRANCH  17  18
ENDBRANCH  16  17
ENDBRANCH  15  16
ENDBRANCH  14  15
ENDBRANCH  13  14
ENDBRANCH  12  13
ENDBRANCH   1  12
TORSDOF 16
ENDMDL
MODEL 5
REMARK VINA RESULT:    -5.923      3.481      8.220
REMARK INTER + INTRA:         -12.573
REMARK INTER:                 -10.658
REMARK INTRA:                  -1.915
REMARK UNBOUND:                -1.110
REMARK SMILES CCCCCCCCCCCCCCCCCC(=O)[O-]
REMARK SMILES IDX 10 1 11 2 12 3 13 4 14 5 15 6 16 7 17 8 18 9 19 10 20 11
REMARK SMILES IDX 9 12 8 13 7 14 6 15 5 16 4 17 3 18 2 19 1 20
REMARK H PARENT
REMARK Flexibility Score: inf
ROOT
ATOM      1  C   UNL     1     -25.906 -32.984  26.459  1.00  0.00     0.000 C 
ENDROOT
BRANCH   1   2
ATOM      2  C   UNL     1     -26.832 -31.924  25.835  1.00  0.00     0.000 C 
BRANCH   2   3
ATOM      3  C   UNL     1     -27.985 -32.483  24.980  1.00  0.00     0.000 C 
BRANCH   3   4
ATOM      4  C   UNL     1     -27.495 -33.364  23.818  1.00  0.00     0.000 C 
BRANCH   4   5
ATOM      5  C   UNL     1     -28.083 -32.941  22.460  1.00  0.00     0.000 C 
BRANCH   5   6
ATOM      6  C   UNL     1     -27.918 -31.448  22.112  1.00  0.00     0.000 C 
BRANCH   6   7
ATOM      7  C   UNL     1     -26.449 -31.001  21.959  1.00  0.00     0.006 C 
BRANCH   7   8
ATOM      8  C   UNL     1     -26.168 -29.672  22.672  1.00  0.00     0.053 C 
BRANCH   8   9
ATOM      9  C   UNL     1     -26.108 -28.551  21.684  1.00  0.00     0.041 C 
ATOM     10  O   UNL     1     -25.845 -28.783  20.476  1.00  0.00    -0.550 OA
ATOM     11  O   UNL     1     -26.296 -27.241  22.109  1.00  0.00    -0.550 OA
ENDBRANCH   8   9
ENDBRANCH   7   8
ENDBRANCH   6   7
ENDBRANCH   5   6
ENDBRANCH   4   5
ENDBRANCH   3   4
ENDBRANCH   2   3
ENDBRANCH   1   2
BRANCH   1  12
ATOM     12  C   UNL     1     -24.489 -32.972  25.858  1.00  0.00     0.000 C 
BRANCH  12  13
ATOM     13  C   UNL     1     -24.187 -31.673  25.093  1.00  0.00    -0.000 C 
BRANCH  13  14
ATOM     14  C   UNL     1     -23.340 -31.917  23.832  1.00  0.00    -0.000 C 
BRANCH  14  15
ATOM     15  C   UNL     1     -22.007 -31.147  23.846  1.00  0.00    -0.000 C 
BRANCH  15  16
ATOM     16  C   UNL     1     -21.903 -30.034  24.905  1.00  0.00    -0.000 C 
BRANCH  16  17
ATOM     17  C   UNL     1     -20.449 -29.707  25.290  1.00  0.00    -0.000 C 
BRANCH  17  18
ATOM     18  C   UNL     1     -19.552 -29.484  24.063  1.00  0.00    -0.000 C 
BRANCH  18  19
ATOM     19  C   UNL     1     -18.264 -30.321  24.110  1.00  0.00    -0.003 C 
ATOM     20  C   UNL     1     -18.414 -31.605  23.299  1.00  0.00     0.004 C 
ENDBRANCH  18  19
ENDBRANCH  17  18
ENDBRANCH  16  17
ENDBRANCH  15  16
ENDBRANCH  14  15
ENDBRANCH  13  14
ENDBRANCH  12  13
ENDBRANCH   1  12
TORSDOF 16
ENDMDL
MODEL 6
REMARK VINA RESULT:    -5.920      4.605     10.033
REMARK INTER + INTRA:         -12.567
REMARK INTER:                 -11.533
REMARK INTRA:                  -1.034
REMARK UNBOUND:                -1.110
REMARK SMILES CCCCCCCCCCCCCCCCCC(=O)[O-]
REMARK SMILES IDX 10 1 11 2 12 3 13 4 14 5 15 6 16 7 17 8 18 9 19 10 20 11
REMARK SMILES IDX 9 12 8 13 7 14 6 15 5 16 4 17 3 18 2 19 1 20
REMARK H PARENT
REMARK Flexibility Score: inf
ROOT
ATOM      1  C   UNL     1     -23.152 -30.339  24.461  1.00  0.00     0.000 C 
ENDROOT
BRANCH   1   2
ATOM      2  C   UNL     1     -24.382 -31.032  25.076  1.00  0.00     0.000 C 
BRANCH   2   3
ATOM      3  C   UNL     1     -24.190 -32.520  25.422  1.00  0.00     0.000 C 
BRANCH   3   4
ATOM      4  C   UNL     1     -25.455 -33.164  26.015  1.00  0.00     0.000 C 
BRANCH   4   5
ATOM      5  C   UNL     1     -26.571 -32.141  26.292  1.00  0.00     0.000 C 
BRANCH   5   6
ATOM      6  C   UNL     1     -27.860 -32.340  25.467  1.00  0.00     0.000 C 
BRANCH   6   7
ATOM      7  C   UNL     1     -27.988 -31.376  24.269  1.00  0.00     0.006 C 
BRANCH   7   8
ATOM      8  C   UNL     1     -29.205 -30.450  24.395  1.00  0.00     0.053 C 
BRANCH   8   9
ATOM      9  C   UNL     1     -30.131 -30.642  23.237  1.00  0.00     0.041 C 
ATOM     10  O   UNL     1     -31.318 -30.226  23.298  1.00  0.00    -0.550 OA
ATOM     11  O   UNL     1     -29.698 -31.325  22.108  1.00  0.00    -0.550 OA
ENDBRANCH   8   9
ENDBRANCH   7   8
ENDBRANCH   6   7
ENDBRANCH   5   6
ENDBRANCH   4   5
ENDBRANCH   3   4
ENDBRANCH   2   3
ENDBRANCH   1   2
BRANCH   1  12
ATOM     12  C   UNL     1     -22.457 -31.194  23.386  1.00  0.00     0.000 C 
BRANCH  12  13
ATOM     13  C   UNL     1     -20.951 -31.356  23.648  1.00  0.00    -0.000 C 
BRANCH  13  14
ATOM     14  C   UNL     1     -20.368 -30.188  24.462  1.00  0.00    -0.000 C 
BRANCH  14  15
ATOM     15  C   UNL     1     -18.848 -30.026  24.275  1.00  0.00    -0.000 C 
BRANCH  15  16
ATOM     16  C   UNL     1     -18.178 -31.091  23.388  1.00  0.00    -0.000 C 
BRANCH  16  17
ATOM     17  C   UNL     1     -16.654 -31.167  23.590  1.00  0.00    -0.000 C 
BRANCH  17  18
ATOM     18  C   UNL     1     -15.876 -30.487  22.453  1.00  0.00    -0.000 C 
BRANCH  18  19
ATOM     19  C   UNL     1     -16.790 -29.994  21.320  1.00  0.00    -0.003 C 
ATOM     20  C   UNL     1     -16.039 -29.064  20.373  1.00  0.00     0.004 C 
ENDBRANCH  18  19
ENDBRANCH  17  18
ENDBRANCH  16  17
ENDBRANCH  15  16
ENDBRANCH  14  15
ENDBRANCH  13  14
ENDBRANCH  12  13
ENDBRANCH   1  12
TORSDOF 16
ENDMDL
MODEL 7
REMARK VINA RESULT:    -5.872      2.188      3.154
REMARK INTER + INTRA:         -12.473
REMARK INTER:                 -10.096
REMARK INTRA:                  -2.378
REMARK UNBOUND:                -1.110
REMARK SMILES CCCCCCCCCCCCCCCCCC(=O)[O-]
REMARK SMILES IDX 10 1 11 2 12 3 13 4 14 5 15 6 16 7 17 8 18 9 19 10 20 11
REMARK SMILES IDX 9 12 8 13 7 14 6 15 5 16 4 17 3 18 2 19 1 20
REMARK H PARENT
REMARK Flexibility Score: inf
ROOT
ATOM      1  C   UNL     1     -24.880 -29.887  22.046  1.00  0.00     0.000 C 
ENDROOT
BRANCH   1   2
ATOM      2  C   UNL     1     -24.506 -31.380  22.038  1.00  0.00     0.000 C 
BRANCH   2   3
ATOM      3  C   UNL     1     -23.057 -31.695  22.456  1.00  0.00     0.000 C 
BRANCH   3   4
ATOM      4  C   UNL     1     -22.299 -30.457  22.962  1.00  0.00     0.000 C 
BRANCH   4   5
ATOM      5  C   UNL     1     -21.826 -30.602  24.419  1.00  0.00     0.000 C 
BRANCH   5   6
ATOM      6  C   UNL     1     -21.021 -29.406  24.968  1.00  0.00     0.000 C 
BRANCH   6   7
ATOM      7  C   UNL     1     -19.536 -29.724  25.237  1.00  0.00     0.006 C 
BRANCH   7   8
ATOM      8  C   UNL     1     -18.671 -29.576  23.978  1.00  0.00     0.053 C 
BRANCH   8   9
ATOM      9  C   UNL     1     -18.061 -30.889  23.603  1.00  0.00     0.041 C 
ATOM     10  O   UNL     1     -18.794 -31.856  23.271  1.00  0.00    -0.550 OA
ATOM     11  O   UNL     1     -16.684 -31.058  23.669  1.00  0.00    -0.550 OA
ENDBRANCH   8   9
ENDBRANCH   7   8
ENDBRANCH   6   7
ENDBRANCH   5   6
ENDBRANCH   4   5
ENDBRANCH   3   4
ENDBRANCH   2   3
ENDBRANCH   1   2
BRANCH   1  12
ATOM     12  C   UNL     1     -25.974 -29.548  23.074  1.00  0.00     0.000 C 
BRANCH  12  13
ATOM     13  C   UNL     1     -25.412 -29.369  24.493  1.00  0.00    -0.000 C 
BRANCH  13  14
ATOM     14  C   UNL     1     -26.073 -30.315  25.510  1.00  0.00    -0.000 C 
BRANCH  14  15
ATOM     15  C   UNL     1     -25.566 -31.765  25.399  1.00  0.00    -0.000 C 
BRANCH  15  16
ATOM     16  C   UNL     1     -26.603 -32.852  25.736  1.00  0.00    -0.000 C 
BRANCH  16  17
ATOM     17  C   UNL     1     -27.767 -32.901  24.730  1.00  0.00    -0.000 C 
BRANCH  17  18
ATOM     18  C   UNL     1     -27.307 -33.291  23.317  1.00  0.00    -0.000 C 
BRANCH  18  19
ATOM     19  C   UNL     1     -28.343 -32.940  22.238  1.00  0.00    -0.003 C 
ATOM     20  C   UNL     1     -28.984 -31.582  22.513  1.00  0.00     0.004 C 
ENDBRANCH  18  19
ENDBRANCH  17  18
ENDBRANCH  16  17
ENDBRANCH  15  16
ENDBRANCH  14  15
ENDBRANCH  13  14
ENDBRANCH  12  13
ENDBRANCH   1  12
TORSDOF 16
ENDMDL
MODEL 8
REMARK VINA RESULT:    -5.868      1.569      2.959
REMARK INTER + INTRA:         -12.466
REMARK INTER:                 -10.726
REMARK INTRA:                  -1.740
REMARK UNBOUND:                -1.110
REMARK SMILES CCCCCCCCCCCCCCCCCC(=O)[O-]
REMARK SMILES IDX 10 1 11 2 12 3 13 4 14 5 15 6 16 7 17 8 18 9 19 10 20 11
REMARK SMILES IDX 9 12 8 13 7 14 6 15 5 16 4 17 3 18 2 19 1 20
REMARK H PARENT
REMARK Flexibility Score: inf
ROOT
ATOM      1  C   UNL     1     -24.263 -31.040  24.813  1.00  0.00     0.000 C 
ENDROOT
BRANCH   1   2
ATOM      2  C   UNL     1     -22.893 -30.838  24.142  1.00  0.00     0.000 C 
BRANCH   2   3
ATOM      3  C   UNL     1     -22.620 -31.741  22.925  1.00  0.00     0.000 C 
BRANCH   3   4
ATOM      4  C   UNL     1     -21.185 -32.293  22.900  1.00  0.00     0.000 C 
BRANCH   4   5
ATOM      5  C   UNL     1     -20.183 -31.383  23.632  1.00  0.00     0.000 C 
BRANCH   5   6
ATOM      6  C   UNL     1     -18.697 -31.688  23.353  1.00  0.00     0.000 C 
BRANCH   6   7
ATOM      7  C   UNL     1     -17.749 -30.513  23.673  1.00  0.00     0.006 C 
BRANCH   7   8
ATOM      8  C   UNL     1     -16.407 -30.631  22.936  1.00  0.00     0.053 C 
BRANCH   8   9
ATOM      9  C   UNL     1     -16.337 -29.644  21.815  1.00  0.00     0.041 C 
ATOM     10  O   UNL     1     -15.875 -29.987  20.696  1.00  0.00    -0.550 OA
ATOM     11  O   UNL     1     -16.736 -28.329  22.022  1.00  0.00    -0.550 OA
ENDBRANCH   8   9
ENDBRANCH   7   8
ENDBRANCH   6   7
ENDBRANCH   5   6
ENDBRANCH   4   5
ENDBRANCH   3   4
ENDBRANCH   2   3
ENDBRANCH   1   2
BRANCH   1  12
ATOM     12  C   UNL     1     -24.920 -29.718  25.248  1.00  0.00     0.000 C 
BRANCH  12  13
ATOM     13  C   UNL     1     -26.299 -29.507  24.604  1.00  0.00    -0.000 C 
BRANCH  13  14
ATOM     14  C   UNL     1     -26.212 -29.315  23.080  1.00  0.00    -0.000 C 
BRANCH  14  15
ATOM     15  C   UNL     1     -27.188 -30.219  22.304  1.00  0.00    -0.000 C 
BRANCH  15  16
ATOM     16  C   UNL     1     -26.727 -31.676  22.118  1.00  0.00    -0.000 C 
BRANCH  16  17
ATOM     17  C   UNL     1     -27.659 -32.691  22.803  1.00  0.00    -0.000 C 
BRANCH  17  18
ATOM     18  C   UNL     1     -27.050 -33.275  24.088  1.00  0.00    -0.000 C 
BRANCH  18  19
ATOM     19  C   UNL     1     -27.742 -32.758  25.359  1.00  0.00    -0.003 C 
ATOM     20  C   UNL     1     -26.834 -32.905  26.577  1.00  0.00     0.004 C 
ENDBRANCH  18  19
ENDBRANCH  17  18
ENDBRANCH  16  17
ENDBRANCH  15  16
ENDBRANCH  14  15
ENDBRANCH  13  14
ENDBRANCH  12  13
ENDBRANCH   1  12
TORSDOF 16
ENDMDL
MODEL 9
REMARK VINA RESULT:    -5.861      4.117      9.070
REMARK INTER + INTRA:         -12.453
REMARK INTER:                 -10.655
REMARK INTRA:                  -1.798
REMARK UNBOUND:                -1.110
REMARK SMILES CCCCCCCCCCCCCCCCCC(=O)[O-]
REMARK SMILES IDX 10 1 11 2 12 3 13 4 14 5 15 6 16 7 17 8 18 9 19 10 20 11
REMARK SMILES IDX 9 12 8 13 7 14 6 15 5 16 4 17 3 18 2 19 1 20
REMARK H PARENT
REMARK Flexibility Score: inf
ROOT
ATOM      1  C   UNL     1     -23.761 -28.693  24.425  1.00  0.00     0.000 C 
ENDROOT
BRANCH   1   2
ATOM      2  C   UNL     1     -25.069 -28.645  25.236  1.00  0.00     0.000 C 
BRANCH   2   3
ATOM      3  C   UNL     1     -26.330 -29.089  24.471  1.00  0.00     0.000 C 
BRANCH   3   4
ATOM      4  C   UNL     1     -27.132 -30.169  25.217  1.00  0.00     0.000 C 
BRANCH   4   5
ATOM      5  C   UNL     1     -26.237 -31.264  25.824  1.00  0.00     0.000 C 
BRANCH   5   6
ATOM      6  C   UNL     1     -26.278 -32.622  25.092  1.00  0.00     0.000 C 
BRANCH   6   7
ATOM      7  C   UNL     1     -27.686 -33.028  24.609  1.00  0.00     0.006 C 
BRANCH   7   8
ATOM      8  C   UNL     1     -27.700 -33.428  23.128  1.00  0.00     0.053 C 
BRANCH   8   9
ATOM      9  C   UNL     1     -27.989 -32.241  22.267  1.00  0.00     0.041 C 
ATOM     10  O   UNL     1     -27.051 -31.504  21.867  1.00  0.00    -0.550 OA
ATOM     11  O   UNL     1     -29.303 -31.919  21.947  1.00  0.00    -0.550 OA
ENDBRANCH   8   9
ENDBRANCH   7   8
ENDBRANCH   6   7
ENDBRANCH   5   6
ENDBRANCH   4   5
ENDBRANCH   3   4
ENDBRANCH   2   3
ENDBRANCH   1   2
BRANCH   1  12
ATOM     12  C   UNL     1     -23.930 -29.368  23.053  1.00  0.00     0.000 C 
BRANCH  12  13
ATOM     13  C   UNL     1     -23.470 -30.835  23.059  1.00  0.00    -0.000 C 
BRANCH  13  14
ATOM     14  C   UNL     1     -22.532 -31.151  24.236  1.00  0.00    -0.000 C 
BRANCH  14  15
ATOM     15  C   UNL     1     -21.043 -30.996  23.876  1.00  0.00    -0.000 C 
BRANCH  15  16
ATOM     16  C   UNL     1     -20.280 -29.927  24.681  1.00  0.00    -0.000 C 
BRANCH  16  17
ATOM     17  C   UNL     1     -18.768 -29.929  24.397  1.00  0.00    -0.000 C 
BRANCH  17  18
ATOM     18  C   UNL     1     -18.334 -31.123  23.532  1.00  0.00    -0.000 C 
BRANCH  18  19
ATOM     19  C   UNL     1     -16.810 -31.322  23.519  1.00  0.00    -0.003 C 
ATOM     20  C   UNL     1     -16.139 -30.366  22.536  1.00  0.00     0.004 C 
ENDBRANCH  18  19
ENDBRANCH  17  18
ENDBRANCH  16  17
ENDBRANCH  15  16
ENDBRANCH  14  15
ENDBRANCH  13  14
ENDBRANCH  12  13
ENDBRANCH   1  12
TORSDOF 16
ENDMDL
