MODEL 1
REMARK VINA RESULT:    17.928      0.000      0.000
REMARK INTER + INTRA:          21.193
REMARK INTER:                  21.597
REMARK INTRA:                  -0.404
REMARK UNBOUND:                -0.404
REMARK SMILES O=c1c(O)c(-c2ccc(O)cc2O)oc2cc(O)cc(O)c12
REMARK SMILES IDX 5 1 3 2 2 3 1 4 22 5 20 6 19 7 17 8 16 9 15 10 14 11 6 12
REMARK SMILES IDX 8 13 7 14 9 15 11 16 12 17 10 18 13 20 4 22 21 24 18 26
REMARK H PARENT 10 19 13 21 4 23 21 25 18 27
REMARK Flexibility Score: inf
ROOT
ATOM      1  C   UNL     1       0.689  28.199  31.308  1.00  0.00     0.184 A 
ATOM      2  C   UNL     1       0.446  26.965  31.932  1.00  0.00     0.208 A 
ATOM      3  C   UNL     1       0.184  25.839  31.137  1.00  0.00     0.238 A 
ATOM      4  O   UNL     1      -0.088  24.748  31.704  1.00  0.00    -0.285 OA
ATOM      5  C   UNL     1       0.189  25.956  29.726  1.00  0.00     0.111 A 
ATOM      6  C   UNL     1      -0.024  24.873  28.821  1.00  0.00     0.134 A 
ATOM      7  C   UNL     1      -0.125  25.129  27.448  1.00  0.00     0.093 A 
ATOM      8  C   UNL     1       0.045  26.421  26.942  1.00  0.00     0.123 A 
ATOM      9  C   UNL     1       0.312  27.475  27.812  1.00  0.00     0.094 A 
ATOM     10  C   UNL     1       0.382  27.257  29.191  1.00  0.00     0.146 A 
ATOM     11  O   UNL     1       0.627  28.291  29.985  1.00  0.00    -0.451 OA
ENDROOT
BRANCH   1  12
ATOM     12  C   UNL     1       0.995  29.422  32.086  1.00  0.00     0.063 A 
ATOM     13  C   UNL     1       0.243  31.410  33.272  1.00  0.00     0.047 A 
ATOM     14  C   UNL     1      -0.041  30.272  32.515  1.00  0.00     0.020 A 
ATOM     15  C   UNL     1       1.565  31.712  33.621  1.00  0.00     0.119 A 
ATOM     16  C   UNL     1       2.600  30.867  33.212  1.00  0.00     0.093 A 
ATOM     17  C   UNL     1       2.324  29.723  32.449  1.00  0.00     0.130 A 
BRANCH  15  18
ATOM     18  O   UNL     1       1.859  32.845  34.376  1.00  0.00    -0.508 OA
ATOM     19  H   UNL     1       1.179  33.584  34.508  1.00  0.00     0.293 HD
ENDBRANCH  15  18
BRANCH  17  20
ATOM     20  O   UNL     1       3.367  28.892  32.041  1.00  0.00    -0.507 OA
ATOM     21  H   UNL     1       4.267  28.900  32.509  1.00  0.00     0.293 HD
ENDBRANCH  17  20
ENDBRANCH   1  12
BRANCH   2  22
ATOM     22  O   UNL     1       0.434  26.876  33.328  1.00  0.00    -0.502 OA
ATOM     23  H   UNL     1       1.149  26.381  33.847  1.00  0.00     0.293 HD
ENDBRANCH   2  22
BRANCH   6  24
ATOM     24  O   UNL     1      -0.115  23.534  29.214  1.00  0.00    -0.507 OA
ATOM     25  H   UNL     1      -0.515  23.216  30.083  1.00  0.00     0.293 HD
ENDBRANCH   6  24
BRANCH   8  26
ATOM     26  O   UNL     1      -0.041  26.665  25.573  1.00  0.00    -0.508 OA
ATOM     27  H   UNL     1       0.460  27.431  25.139  1.00  0.00     0.293 HD
ENDBRANCH   8  26
TORSDOF 6
ENDMDL
MODEL 2
REMARK VINA RESULT:    19.601      2.044      2.370
REMARK INTER + INTRA:          23.208
REMARK INTER:                  22.606
REMARK INTRA:                   0.602
REMARK UNBOUND:                -0.404
REMARK SMILES O=c1c(O)c(-c2ccc(O)cc2O)oc2cc(O)cc(O)c12
REMARK SMILES IDX 5 1 3 2 2 3 1 4 22 5 20 6 19 7 17 8 16 9 15 10 14 11 6 12
REMARK SMILES IDX 8 13 7 14 9 15 11 16 12 17 10 18 13 20 4 22 21 24 18 26
REMARK H PARENT 10 19 13 21 4 23 21 25 18 27
REMARK Flexibility Score: inf
ROOT
ATOM      1  C   UNL     1      -0.076  28.144  32.639  1.00  0.00     0.184 A 
ATOM      2  C   UNL     1      -0.059  26.741  32.683  1.00  0.00     0.208 A 
ATOM      3  C   UNL     1      -0.011  26.022  31.479  1.00  0.00     0.238 A 
ATOM      4  O   UNL     1      -0.053  24.764  31.523  1.00  0.00    -0.285 OA
ATOM      5  C   UNL     1       0.041  26.716  30.245  1.00  0.00     0.111 A 
ATOM      6  C   UNL     1       0.133  26.090  28.966  1.00  0.00     0.134 A 
ATOM      7  C   UNL     1       0.049  26.872  27.807  1.00  0.00     0.093 A 
ATOM      8  C   UNL     1      -0.058  28.264  27.883  1.00  0.00     0.123 A 
ATOM      9  C   UNL     1      -0.089  28.888  29.127  1.00  0.00     0.094 A 
ATOM     10  C   UNL     1      -0.044  28.132  30.301  1.00  0.00     0.146 A 
ATOM     11  O   UNL     1      -0.087  28.766  31.466  1.00  0.00    -0.451 OA
ENDROOT
BRANCH   1  12
ATOM     12  C   UNL     1      -0.103  28.965  33.872  1.00  0.00     0.063 A 
ATOM     13  C   UNL     1      -0.073  29.123  36.301  1.00  0.00     0.047 A 
ATOM     14  C   UNL     1      -0.076  28.350  35.138  1.00  0.00     0.020 A 
ATOM     15  C   UNL     1      -0.087  30.520  36.218  1.00  0.00     0.119 A 
ATOM     16  C   UNL     1      -0.100  31.140  34.966  1.00  0.00     0.093 A 
ATOM     17  C   UNL     1      -0.105  30.372  33.792  1.00  0.00     0.130 A 
BRANCH  15  18
ATOM     18  O   UNL     1      -0.084  31.300  37.373  1.00  0.00    -0.508 OA
ATOM     19  H   UNL     1       0.663  31.956  37.566  1.00  0.00     0.293 HD
ENDBRANCH  15  18
BRANCH  17  20
ATOM     20  O   UNL     1      -0.125  31.004  32.549  1.00  0.00    -0.507 OA
ATOM     21  H   UNL     1      -0.876  31.633  32.283  1.00  0.00     0.293 HD
ENDBRANCH  17  20
ENDBRANCH   1  12
BRANCH   2  22
ATOM     22  O   UNL     1      -0.125  26.077  33.912  1.00  0.00    -0.502 OA
ATOM     23  H   UNL     1      -0.957  26.085  34.490  1.00  0.00     0.293 HD
ENDBRANCH   2  22
BRANCH   6  24
ATOM     24  O   UNL     1       0.334  24.719  28.780  1.00  0.00    -0.507 OA
ATOM     25  H   UNL     1       0.344  24.034  29.519  1.00  0.00     0.293 HD
ENDBRANCH   6  24
BRANCH   8  26
ATOM     26  O   UNL     1      -0.125  29.035  26.725  1.00  0.00    -0.508 OA
ATOM     27  H   UNL     1       0.311  28.733  25.861  1.00  0.00     0.293 HD
ENDBRANCH   8  26
TORSDOF 6
ENDMDL
